MODEL 1
REMARK VINA RESULT:     -11.0      0.000      0.000
REMARK SMILES CCc1cc(S(F)(F)(F)(F)F)cc2c1O[C@@H](C(F)(F)F)C(C(=O)OCCOCCOCCOCCOC(=O)c1ccc(-c3c4nc(c(-c5cccc(S(=O)(=O)[O-])c5F)c5ccc([nH]5)c(-c5cccc(S(=O)(=O)[O-])c5F)c5nc(c(-c6cccc(S(=O)(=O)[O-])c6F)c6ccc3[nH]6)C=C5)C=C4)cc1)=C2
REMARK SMILES IDX 31 1 30 2 29 3 28 4 27 5 26 6 25 7 24 8 22 9 23 10 21 11
REMARK SMILES IDX 3 12 4 13 14 14 5 15 13 16 15 17 12 18 102 19 16 20 2 21
REMARK SMILES IDX 1 22 6 23 7 24 8 25 9 26 10 27 11 28 17 29 18 30 19 31 20 32
REMARK SMILES IDX 32 33 33 34 34 35 35 36 36 37 37 38 38 39 39 40 40 41 101 42
REMARK SMILES IDX 41 43 100 44 42 45 43 46 44 47 94 48 45 49 99 50 93 51 95 52
REMARK SMILES IDX 46 53 98 54 92 55 91 56 47 58 79 59 59 60 78 61 60 62 63 63
REMARK SMILES IDX 77 64 96 65 61 66 62 67 76 69 97 70 64 71 48 72 49 73 57 74
REMARK SMILES IDX 50 75 52 76 58 77 51 78 53 79 54 80 55 81 56 82 80 83 81 84
REMARK SMILES IDX 89 85 82 86 84 87 90 88 83 89 85 90 86 91 87 92 88 93 65 94
REMARK SMILES IDX 66 95 74 96 67 97 69 98 75 99 68 100 70 101 71 102 72 103
REMARK SMILES IDX 73 104
REMARK H PARENT 95 57 63 68
REMARK Flexibility Score: inf
ROOT
ATOM      1  C   UNL A   1      31.684  28.711  25.823  1.00  0.00     0.188 C 
ENDROOT
BRANCH   1   2
ATOM      2  O   UNL A   1      31.896  29.292  24.544  1.00  0.00    -0.377 OA
BRANCH   2   3
ATOM      3  C   UNL A   1      30.655  29.402  23.863  1.00  0.00     0.188 C 
BRANCH   3   4
ATOM      4  C   UNL A   1      30.785  28.800  22.473  1.00  0.00     0.188 C 
BRANCH   4   5
ATOM      5  O   UNL A   1      30.255  27.483  22.478  1.00  0.00    -0.376 OA
BRANCH   5   6
ATOM      6  C   UNL A   1      29.209  27.397  23.435  1.00  0.00     0.202 C 
BRANCH   6   7
ATOM      7  C   UNL A   1      29.123  25.975  23.965  1.00  0.00     0.261 C 
BRANCH   7   8
ATOM      8  O   UNL A   1      30.432  25.480  24.205  1.00  0.00    -0.460 OA
BRANCH   8   9
ATOM      9  C   UNL A   1      30.724  24.807  25.421  1.00  0.00     0.338 C 
ATOM     10  O   UNL A   1      30.072  25.087  26.476  1.00  0.00    -0.246 OA
BRANCH   9  11
ATOM     11  C   UNL A   1      31.818  23.752  25.462  1.00  0.00     0.087 C 
ATOM     12  C   UNL A   1      35.011  21.076  25.155  1.00  0.00    -0.004 A 
ATOM     13  C   UNL A   1      34.771  19.747  24.859  1.00  0.00     0.032 A 
ATOM     14  C   UNL A   1      33.948  21.945  25.197  1.00  0.00     0.131 A 
ATOM     15  C   UNL A   1      33.500  19.299  24.608  1.00  0.00     0.108 A 
ATOM     16  C   UNL A   1      32.650  21.526  24.967  1.00  0.00     0.019 A 
ATOM     17  O   UNL A   1      34.214  23.280  25.380  1.00  0.00    -0.475 OA
ATOM     18  C   UNL A   1      32.444  20.183  24.669  1.00  0.00     0.036 A 
ATOM     19  C   UNL A   1      31.599  22.528  24.997  1.00  0.00     0.027 C 
ATOM     20  C   UNL A   1      33.190  24.077  26.040  1.00  0.00     0.316 C 
BRANCH  12  21
ATOM     21  C   UNL A   1      36.417  21.461  25.587  1.00  0.00     0.036 C 
ATOM     22  C   UNL A   1      37.424  20.870  24.615  1.00  0.00     0.009 C 
ENDBRANCH  12  21
BRANCH  15  23
ATOM     23  S   UNL A   1      33.210  17.560  24.200  1.00  0.00     0.310 S 
ATOM     24  F   UNL A   1      34.764  17.254  24.119  1.00  0.00    -0.094 F 
ATOM     25  F   UNL A   1      33.276  17.938  22.672  1.00  0.00    -0.094 F 
ATOM     26  F   UNL A   1      32.960  16.065  23.847  1.00  0.00    -0.094 F 
ATOM     27  F   UNL A   1      33.287  17.177  25.730  1.00  0.00    -0.094 F 
ATOM     28  F   UNL A   1      33.576  19.052  24.569  1.00  0.00    -0.094 F 
ENDBRANCH  15  23
BRANCH  20  29
ATOM     29  C   UNL A   1      33.486  25.550  25.815  1.00  0.00     0.430 C 
ATOM     30  F   UNL A   1      32.843  26.275  26.726  1.00  0.00    -0.167 F 
ATOM     31  F   UNL A   1      34.795  25.761  25.926  1.00  0.00    -0.167 F 
ATOM     32  F   UNL A   1      33.082  25.904  24.599  1.00  0.00    -0.167 F 
ENDBRANCH  20  29
ENDBRANCH   9  11
ENDBRANCH   8   9
ENDBRANCH   7   8
ENDBRANCH   6   7
ENDBRANCH   5   6
ENDBRANCH   4   5
ENDBRANCH   3   4
ENDBRANCH   2   3
ENDBRANCH   1   2
BRANCH   1  33
ATOM     33  C   UNL A   1      32.284  29.606  26.894  1.00  0.00     0.188 C 
BRANCH  33  34
ATOM     34  O   UNL A   1      31.585  30.841  26.925  1.00  0.00    -0.376 OA
BRANCH  34  35
ATOM     35  C   UNL A   1      32.517  31.912  26.958  1.00  0.00     0.202 C 
BRANCH  35  36
ATOM     36  C   UNL A   1      31.801  33.197  27.337  1.00  0.00     0.261 C 
BRANCH  36  37
ATOM     37  O   UNL A   1      32.746  34.252  27.441  1.00  0.00    -0.460 OA
BRANCH  37  38
ATOM     38  C   UNL A   1      33.218  34.660  28.716  1.00  0.00     0.338 C 
ATOM     39  O   UNL A   1      32.747  35.705  29.264  1.00  0.00    -0.246 OA
BRANCH  38  40
ATOM     40  C   UNL A   1      34.288  33.847  29.426  1.00  0.00     0.060 A 
ATOM     41  C   UNL A   1      35.585  34.130  29.027  1.00  0.00     0.016 A 
ATOM     42  C   UNL A   1      34.044  33.028  30.442  1.00  0.00     0.016 A 
ATOM     43  C   UNL A   1      36.558  33.268  29.585  1.00  0.00     0.010 A 
ATOM     44  C   UNL A   1      35.064  32.319  31.030  1.00  0.00     0.010 A 
ATOM     45  C   UNL A   1      36.362  32.505  30.646  1.00  0.00    -0.014 A 
BRANCH  45  46
ATOM     46  C   UNL A   1      37.519  31.869  31.398  1.00  0.00     0.031 A 
ATOM     47  C   UNL A   1      37.990  32.399  32.600  1.00  0.00     0.074 A 
ATOM     48  C   UNL A   1      38.130  30.826  30.721  1.00  0.00     0.049 A 
ATOM     49  N   UNL A   1      39.046  31.998  33.309  1.00  0.00    -0.248 NA
ATOM     50  C   UNL A   1      37.363  33.529  33.304  1.00  0.00     0.031 C 
ATOM     51  C   UNL A   1      37.657  30.280  29.512  1.00  0.00     0.029 A 
ATOM     52  N   UNL A   1      39.271  30.143  31.075  1.00  0.00    -0.354 N 
ATOM     53  C   UNL A   1      39.168  32.737  34.415  1.00  0.00     0.074 A 
ATOM     54  C   UNL A   1      38.091  33.736  34.423  1.00  0.00     0.031 C 
ATOM     55  C   UNL A   1      38.508  29.289  29.136  1.00  0.00     0.029 A 
ATOM     56  C   UNL A   1      39.525  29.199  30.104  1.00  0.00     0.049 A 
ATOM     57  H   UNL A   1      39.812  30.301  31.882  1.00  0.00     0.167 HD
ATOM     58  C   UNL A   1      40.133  32.616  35.415  1.00  0.00     0.034 A 
ATOM     59  C   UNL A   1      40.581  28.303  30.048  1.00  0.00     0.034 A 
ATOM     60  C   UNL A   1      41.164  31.691  35.379  1.00  0.00     0.049 A 
ATOM     61  C   UNL A   1      41.581  28.220  31.020  1.00  0.00     0.074 A 
ATOM     62  C   UNL A   1      42.142  31.550  36.384  1.00  0.00     0.029 A 
ATOM     63  N   UNL A   1      41.432  30.763  34.396  1.00  0.00    -0.354 N 
ATOM     64  N   UNL A   1      41.680  28.932  32.143  1.00  0.00    -0.248 NA
ATOM     65  C   UNL A   1      42.722  27.297  30.954  1.00  0.00     0.031 C 
ATOM     66  C   UNL A   1      42.993  30.558  36.007  1.00  0.00     0.029 A 
ATOM     67  C   UNL A   1      42.561  30.063  34.762  1.00  0.00     0.049 A 
ATOM     68  H   UNL A   1      40.908  30.624  33.576  1.00  0.00     0.167 HD
ATOM     69  C   UNL A   1      42.761  28.558  32.831  1.00  0.00     0.074 A 
ATOM     70  C   UNL A   1      43.451  27.506  32.072  1.00  0.00     0.031 C 
ATOM     71  C   UNL A   1      43.197  29.050  34.063  1.00  0.00     0.034 A 
BRANCH  58  72
ATOM     72  C   UNL A   1      40.049  33.552  36.610  1.00  0.00     0.023 A 
ATOM     73  C   UNL A   1      40.686  34.779  36.551  1.00  0.00     0.012 A 
ATOM     74  C   UNL A   1      39.350  33.189  37.679  1.00  0.00     0.148 A 
ATOM     75  C   UNL A   1      40.766  35.444  37.797  1.00  0.00     0.002 A 
ATOM     76  C   UNL A   1      39.366  33.956  38.818  1.00  0.00     0.091 A 
ATOM     77  F   UNL A   1      38.628  32.073  37.647  1.00  0.00    -0.205 F 
ATOM     78  C   UNL A   1      40.024  35.155  38.850  1.00  0.00     0.022 A 
BRANCH  76  79
ATOM     79  S   UNL A   1      38.503  33.375  40.298  1.00  0.00     0.127 S 
ATOM     80  O   UNL A   1      38.652  34.410  41.416  1.00  0.00    -0.237 OA
ATOM     81  O   UNL A   1      37.019  33.177  39.981  1.00  0.00    -0.237 OA
ATOM     82  O   UNL A   1      39.179  31.888  40.806  1.00  0.00    -0.744 OA
ENDBRANCH  76  79
ENDBRANCH  58  72
BRANCH  59  83
ATOM     83  C   UNL A   1      40.655  27.356  28.860  1.00  0.00     0.023 A 
ATOM     84  C   UNL A   1      39.836  26.239  28.834  1.00  0.00     0.012 A 
ATOM     85  C   UNL A   1      41.516  27.602  27.880  1.00  0.00     0.148 A 
ATOM     86  C   UNL A   1      40.207  25.280  27.862  1.00  0.00     0.002 A 
ATOM     87  C   UNL A   1      41.729  26.677  26.888  1.00  0.00     0.091 A 
ATOM     88  F   UNL A   1      42.178  28.756  27.859  1.00  0.00    -0.205 F 
ATOM     89  C   UNL A   1      40.997  25.524  26.833  1.00  0.00     0.022 A 
BRANCH  87  90
ATOM     90  S   UNL A   1      42.997  26.989  25.634  1.00  0.00     0.127 S 
ATOM     91  O   UNL A   1      44.270  27.501  26.312  1.00  0.00    -0.237 OA
ATOM     92  O   UNL A   1      43.305  25.689  24.885  1.00  0.00    -0.237 OA
ATOM     93  O   UNL A   1      42.428  28.163  24.529  1.00  0.00    -0.744 OA
ENDBRANCH  87  90
ENDBRANCH  59  83
BRANCH  71  94
ATOM     94  C   UNL A   1      44.445  28.434  34.675  1.00  0.00     0.023 A 
ATOM     95  C   UNL A   1      45.619  29.119  34.404  1.00  0.00     0.012 A 
ATOM     96  C   UNL A   1      44.433  27.381  35.482  1.00  0.00     0.148 A 
ATOM     97  C   UNL A   1      46.789  28.434  34.809  1.00  0.00     0.002 A 
ATOM     98  C   UNL A   1      45.608  26.845  35.950  1.00  0.00     0.091 A 
ATOM     99  F   UNL A   1      43.273  26.839  35.840  1.00  0.00    -0.205 F 
ATOM    100  C   UNL A   1      46.810  27.435  35.673  1.00  0.00     0.022 A 
BRANCH  98 101
ATOM    101  S   UNL A   1      45.566  25.336  36.949  1.00  0.00     0.127 S 
ATOM    102  O   UNL A   1      45.082  24.168  36.088  1.00  0.00    -0.237 OA
ATOM    103  O   UNL A   1      46.970  25.034  37.478  1.00  0.00    -0.237 OA
ATOM    104  O   UNL A   1      44.496  25.555  38.266  1.00  0.00    -0.744 OA
ENDBRANCH  98 101
ENDBRANCH  71  94
ENDBRANCH  45  46
ENDBRANCH  38  40
ENDBRANCH  37  38
ENDBRANCH  36  37
ENDBRANCH  35  36
ENDBRANCH  34  35
ENDBRANCH  33  34
ENDBRANCH   1  33
TORSDOF 26
ENDMDL
MODEL 2
REMARK VINA RESULT:     -10.1      1.398      7.382
REMARK SMILES CCc1cc(S(F)(F)(F)(F)F)cc2c1O[C@@H](C(F)(F)F)C(C(=O)OCCOCCOCCOCCOC(=O)c1ccc(-c3c4nc(c(-c5cccc(S(=O)(=O)[O-])c5F)c5ccc([nH]5)c(-c5cccc(S(=O)(=O)[O-])c5F)c5nc(c(-c6cccc(S(=O)(=O)[O-])c6F)c6ccc3[nH]6)C=C5)C=C4)cc1)=C2
REMARK SMILES IDX 31 1 30 2 29 3 28 4 27 5 26 6 25 7 24 8 22 9 23 10 21 11
REMARK SMILES IDX 3 12 4 13 14 14 5 15 13 16 15 17 12 18 102 19 16 20 2 21
REMARK SMILES IDX 1 22 6 23 7 24 8 25 9 26 10 27 11 28 17 29 18 30 19 31 20 32
REMARK SMILES IDX 32 33 33 34 34 35 35 36 36 37 37 38 38 39 39 40 40 41 101 42
REMARK SMILES IDX 41 43 100 44 42 45 43 46 44 47 94 48 45 49 99 50 93 51 95 52
REMARK SMILES IDX 46 53 98 54 92 55 91 56 47 58 79 59 59 60 78 61 60 62 63 63
REMARK SMILES IDX 77 64 96 65 61 66 62 67 76 69 97 70 64 71 48 72 49 73 57 74
REMARK SMILES IDX 50 75 52 76 58 77 51 78 53 79 54 80 55 81 56 82 80 83 81 84
REMARK SMILES IDX 89 85 82 86 84 87 90 88 83 89 85 90 86 91 87 92 88 93 65 94
REMARK SMILES IDX 66 95 74 96 67 97 69 98 75 99 68 100 70 101 71 102 72 103
REMARK SMILES IDX 73 104
REMARK H PARENT 95 57 63 68
REMARK Flexibility Score: inf
ROOT
ATOM      1  C   UNL A   1      33.099  29.257  27.053  1.00  0.00     0.188 C 
ENDROOT
BRANCH   1   2
ATOM      2  O   UNL A   1      31.842  28.665  27.346  1.00  0.00    -0.377 OA
BRANCH   2   3
ATOM      3  C   UNL A   1      31.881  27.284  27.013  1.00  0.00     0.188 C 
BRANCH   3   4
ATOM      4  C   UNL A   1      30.673  26.934  26.160  1.00  0.00     0.188 C 
BRANCH   4   5
ATOM      5  O   UNL A   1      30.886  27.385  24.831  1.00  0.00    -0.376 OA
BRANCH   5   6
ATOM      6  C   UNL A   1      29.646  27.413  24.136  1.00  0.00     0.202 C 
BRANCH   6   7
ATOM      7  C   UNL A   1      29.336  26.025  23.600  1.00  0.00     0.261 C 
BRANCH   7   8
ATOM      8  O   UNL A   1      30.284  25.098  24.109  1.00  0.00    -0.460 OA
BRANCH   8   9
ATOM      9  C   UNL A   1      31.309  24.596  23.265  1.00  0.00     0.338 C 
ATOM     10  O   UNL A   1      31.407  25.010  22.067  1.00  0.00    -0.246 OA
BRANCH   9  11
ATOM     11  C   UNL A   1      32.289  23.560  23.793  1.00  0.00     0.087 C 
ATOM     12  C   UNL A   1      35.262  20.814  24.828  1.00  0.00    -0.004 A 
ATOM     13  C   UNL A   1      34.979  19.461  24.833  1.00  0.00     0.032 A 
ATOM     14  C   UNL A   1      34.282  21.691  24.433  1.00  0.00     0.131 A 
ATOM     15  C   UNL A   1      33.749  18.996  24.446  1.00  0.00     0.108 A 
ATOM     16  C   UNL A   1      33.023  21.261  24.053  1.00  0.00     0.019 A 
ATOM     17  O   UNL A   1      34.611  23.021  24.326  1.00  0.00    -0.475 OA
ATOM     18  C   UNL A   1      32.773  19.893  24.065  1.00  0.00     0.036 A 
ATOM     19  C   UNL A   1      32.068  22.263  23.614  1.00  0.00     0.027 C 
ATOM     20  C   UNL A   1      33.546  23.989  24.540  1.00  0.00     0.316 C 
BRANCH  12  21
ATOM     21  C   UNL A   1      36.585  21.262  25.429  1.00  0.00     0.036 C 
ATOM     22  C   UNL A   1      37.692  20.329  24.967  1.00  0.00     0.009 C 
ENDBRANCH  12  21
BRANCH  15  23
ATOM     23  S   UNL A   1      33.407  17.219  24.437  1.00  0.00     0.310 S 
ATOM     24  F   UNL A   1      31.908  17.446  23.970  1.00  0.00    -0.094 F 
ATOM     25  F   UNL A   1      32.891  17.341  25.920  1.00  0.00    -0.094 F 
ATOM     26  F   UNL A   1      33.112  15.691  24.430  1.00  0.00    -0.094 F 
ATOM     27  F   UNL A   1      33.795  17.142  22.908  1.00  0.00    -0.094 F 
ATOM     28  F   UNL A   1      33.603  18.787  24.393  1.00  0.00    -0.094 F 
ENDBRANCH  15  23
BRANCH  20  29
ATOM     29  C   UNL A   1      33.994  25.344  24.019  1.00  0.00     0.430 C 
ATOM     30  F   UNL A   1      34.816  25.907  24.899  1.00  0.00    -0.167 F 
ATOM     31  F   UNL A   1      34.628  25.186  22.859  1.00  0.00    -0.167 F 
ATOM     32  F   UNL A   1      32.933  26.124  23.840  1.00  0.00    -0.167 F 
ENDBRANCH  20  29
ENDBRANCH   9  11
ENDBRANCH   8   9
ENDBRANCH   7   8
ENDBRANCH   6   7
ENDBRANCH   5   6
ENDBRANCH   4   5
ENDBRANCH   3   4
ENDBRANCH   2   3
ENDBRANCH   1   2
BRANCH   1  33
ATOM     33  C   UNL A   1      32.948  30.769  27.008  1.00  0.00     0.188 C 
BRANCH  33  34
ATOM     34  O   UNL A   1      31.689  31.103  26.445  1.00  0.00    -0.376 OA
BRANCH  34  35
ATOM     35  C   UNL A   1      31.387  32.460  26.732  1.00  0.00     0.202 C 
BRANCH  35  36
ATOM     36  C   UNL A   1      32.515  33.069  27.548  1.00  0.00     0.261 C 
BRANCH  36  37
ATOM     37  O   UNL A   1      32.243  34.443  27.781  1.00  0.00    -0.460 OA
BRANCH  37  38
ATOM     38  C   UNL A   1      32.918  35.135  28.820  1.00  0.00     0.338 C 
ATOM     39  O   UNL A   1      32.441  36.221  29.275  1.00  0.00    -0.246 OA
BRANCH  38  40
ATOM     40  C   UNL A   1      34.213  34.578  29.388  1.00  0.00     0.060 A 
ATOM     41  C   UNL A   1      34.067  33.879  30.576  1.00  0.00     0.016 A 
ATOM     42  C   UNL A   1      35.379  34.621  28.754  1.00  0.00     0.016 A 
ATOM     43  C   UNL A   1      35.292  33.493  31.169  1.00  0.00     0.010 A 
ATOM     44  C   UNL A   1      36.511  34.102  29.335  1.00  0.00     0.010 A 
ATOM     45  C   UNL A   1      36.450  33.451  30.535  1.00  0.00    -0.014 A 
BRANCH  45  46
ATOM     46  C   UNL A   1      37.650  32.716  31.110  1.00  0.00     0.031 A 
ATOM     47  C   UNL A   1      38.176  31.580  30.493  1.00  0.00     0.074 A 
ATOM     48  C   UNL A   1      38.068  33.191  32.341  1.00  0.00     0.049 A 
ATOM     49  N   UNL A   1      39.158  30.794  30.936  1.00  0.00    -0.248 NA
ATOM     50  C   UNL A   1      37.711  31.053  29.201  1.00  0.00     0.031 C 
ATOM     51  C   UNL A   1      37.549  34.342  32.966  1.00  0.00     0.029 A 
ATOM     52  N   UNL A   1      39.032  32.661  33.169  1.00  0.00    -0.354 N 
ATOM     53  C   UNL A   1      39.398  29.815  30.060  1.00  0.00     0.074 A 
ATOM     54  C   UNL A   1      38.465  29.964  28.935  1.00  0.00     0.031 C 
ATOM     55  C   UNL A   1      38.182  34.496  34.159  1.00  0.00     0.029 A 
ATOM     56  C   UNL A   1      39.108  33.445  34.298  1.00  0.00     0.049 A 
ATOM     57  H   UNL A   1      39.574  31.859  32.985  1.00  0.00     0.167 HD
ATOM     58  C   UNL A   1      40.356  28.806  30.156  1.00  0.00     0.034 A 
ATOM     59  C   UNL A   1      39.931  33.269  35.400  1.00  0.00     0.034 A 
ATOM     60  C   UNL A   1      41.208  28.655  31.238  1.00  0.00     0.049 A 
ATOM     61  C   UNL A   1      40.851  32.225  35.522  1.00  0.00     0.074 A 
ATOM     62  C   UNL A   1      42.187  27.648  31.346  1.00  0.00     0.029 A 
ATOM     63  N   UNL A   1      41.267  29.425  32.379  1.00  0.00    -0.354 N 
ATOM     64  N   UNL A   1      41.116  31.270  34.629  1.00  0.00    -0.248 NA
ATOM     65  C   UNL A   1      41.704  32.009  36.698  1.00  0.00     0.031 C 
ATOM     66  C   UNL A   1      42.820  27.802  32.540  1.00  0.00     0.029 A 
ATOM     67  C   UNL A   1      42.248  28.908  33.196  1.00  0.00     0.049 A 
ATOM     68  H   UNL A   1      40.707  30.210  32.575  1.00  0.00     0.167 HD
ATOM     69  C   UNL A   1      42.070  30.460  35.092  1.00  0.00     0.074 A 
ATOM     70  C   UNL A   1      42.457  30.920  36.433  1.00  0.00     0.031 C 
ATOM     71  C   UNL A   1      42.636  29.358  34.449  1.00  0.00     0.034 A 
BRANCH  58  72
ATOM     72  C   UNL A   1      40.472  27.816  29.008  1.00  0.00     0.023 A 
ATOM     73  C   UNL A   1      39.723  26.652  29.043  1.00  0.00     0.012 A 
ATOM     74  C   UNL A   1      41.269  28.092  27.981  1.00  0.00     0.148 A 
ATOM     75  C   UNL A   1      40.104  25.695  28.073  1.00  0.00     0.002 A 
ATOM     76  C   UNL A   1      41.490  27.158  26.998  1.00  0.00     0.091 A 
ATOM     77  F   UNL A   1      41.857  29.281  27.905  1.00  0.00    -0.205 F 
ATOM     78  C   UNL A   1      40.827  25.962  27.002  1.00  0.00     0.022 A 
BRANCH  76  79
ATOM     79  S   UNL A   1      42.674  27.517  25.678  1.00  0.00     0.127 S 
ATOM     80  O   UNL A   1      42.192  28.728  24.875  1.00  0.00    -0.237 OA
ATOM     81  O   UNL A   1      44.044  27.821  26.288  1.00  0.00    -0.237 OA
ATOM     82  O   UNL A   1      42.801  26.162  24.642  1.00  0.00    -0.744 OA
ENDBRANCH  76  79
ENDBRANCH  58  72
BRANCH  59  83
ATOM     83  C   UNL A   1      39.826  34.269  36.540  1.00  0.00     0.023 A 
ATOM     84  C   UNL A   1      40.434  35.508  36.411  1.00  0.00     0.012 A 
ATOM     85  C   UNL A   1      39.173  33.934  37.647  1.00  0.00     0.148 A 
ATOM     86  C   UNL A   1      40.544  36.220  37.628  1.00  0.00     0.002 A 
ATOM     87  C   UNL A   1      39.213  34.744  38.755  1.00  0.00     0.091 A 
ATOM     88  F   UNL A   1      38.475  32.803  37.682  1.00  0.00    -0.205 F 
ATOM     89  C   UNL A   1      39.846  35.956  38.717  1.00  0.00     0.022 A 
BRANCH  87  90
ATOM     90  S   UNL A   1      38.415  34.202  40.286  1.00  0.00     0.127 S 
ATOM     91  O   UNL A   1      38.140  35.416  41.176  1.00  0.00    -0.237 OA
ATOM     92  O   UNL A   1      37.095  33.502  39.954  1.00  0.00    -0.237 OA
ATOM     93  O   UNL A   1      39.445  33.113  41.110  1.00  0.00    -0.744 OA
ENDBRANCH  87  90
ENDBRANCH  59  83
BRANCH  71  94
ATOM     94  C   UNL A   1      43.746  28.606  35.165  1.00  0.00     0.023 A 
ATOM     95  C   UNL A   1      43.316  27.546  35.946  1.00  0.00     0.012 A 
ATOM     96  C   UNL A   1      45.039  28.863  35.004  1.00  0.00     0.148 A 
ATOM     97  C   UNL A   1      44.329  26.982  36.757  1.00  0.00     0.002 A 
ATOM     98  C   UNL A   1      45.983  28.178  35.730  1.00  0.00     0.091 A 
ATOM     99  F   UNL A   1      45.422  29.789  34.131  1.00  0.00    -0.205 F 
ATOM    100  C   UNL A   1      45.624  27.157  36.566  1.00  0.00     0.022 A 
BRANCH  98 101
ATOM    101  S   UNL A   1      47.729  28.634  35.579  1.00  0.00     0.127 S 
ATOM    102  O   UNL A   1      48.138  28.606  34.105  1.00  0.00    -0.237 OA
ATOM    103  O   UNL A   1      47.939  30.043  36.140  1.00  0.00    -0.237 OA
ATOM    104  O   UNL A   1      48.685  27.522  36.458  1.00  0.00    -0.744 OA
ENDBRANCH  98 101
ENDBRANCH  71  94
ENDBRANCH  45  46
ENDBRANCH  38  40
ENDBRANCH  37  38
ENDBRANCH  36  37
ENDBRANCH  35  36
ENDBRANCH  34  35
ENDBRANCH  33  34
ENDBRANCH   1  33
TORSDOF 26
ENDMDL
MODEL 3
REMARK VINA RESULT:      -9.6      5.333     10.260
REMARK SMILES CCc1cc(S(F)(F)(F)(F)F)cc2c1O[C@@H](C(F)(F)F)C(C(=O)OCCOCCOCCOCCOC(=O)c1ccc(-c3c4nc(c(-c5cccc(S(=O)(=O)[O-])c5F)c5ccc([nH]5)c(-c5cccc(S(=O)(=O)[O-])c5F)c5nc(c(-c6cccc(S(=O)(=O)[O-])c6F)c6ccc3[nH]6)C=C5)C=C4)cc1)=C2
REMARK SMILES IDX 31 1 30 2 29 3 28 4 27 5 26 6 25 7 24 8 22 9 23 10 21 11
REMARK SMILES IDX 3 12 4 13 14 14 5 15 13 16 15 17 12 18 102 19 16 20 2 21
REMARK SMILES IDX 1 22 6 23 7 24 8 25 9 26 10 27 11 28 17 29 18 30 19 31 20 32
REMARK SMILES IDX 32 33 33 34 34 35 35 36 36 37 37 38 38 39 39 40 40 41 101 42
REMARK SMILES IDX 41 43 100 44 42 45 43 46 44 47 94 48 45 49 99 50 93 51 95 52
REMARK SMILES IDX 46 53 98 54 92 55 91 56 47 58 79 59 59 60 78 61 60 62 63 63
REMARK SMILES IDX 77 64 96 65 61 66 62 67 76 69 97 70 64 71 48 72 49 73 57 74
REMARK SMILES IDX 50 75 52 76 58 77 51 78 53 79 54 80 55 81 56 82 80 83 81 84
REMARK SMILES IDX 89 85 82 86 84 87 90 88 83 89 85 90 86 91 87 92 88 93 65 94
REMARK SMILES IDX 66 95 74 96 67 97 69 98 75 99 68 100 70 101 71 102 72 103
REMARK SMILES IDX 73 104
REMARK H PARENT 95 57 63 68
REMARK Flexibility Score: inf
ROOT
ATOM      1  C   UNL A   1      35.376  21.244  26.009  1.00  0.00     0.188 C 
ENDROOT
BRANCH   1   2
ATOM      2  O   UNL A   1      35.402  20.658  24.715  1.00  0.00    -0.377 OA
BRANCH   2   3
ATOM      3  C   UNL A   1      34.518  19.547  24.681  1.00  0.00     0.188 C 
BRANCH   3   4
ATOM      4  C   UNL A   1      33.188  19.938  25.303  1.00  0.00     0.188 C 
BRANCH   4   5
ATOM      5  O   UNL A   1      32.274  20.298  24.278  1.00  0.00    -0.376 OA
BRANCH   5   6
ATOM      6  C   UNL A   1      32.027  21.696  24.334  1.00  0.00     0.202 C 
BRANCH   6   7
ATOM      7  C   UNL A   1      32.450  22.337  23.023  1.00  0.00     0.261 C 
BRANCH   7   8
ATOM      8  O   UNL A   1      31.803  23.594  22.880  1.00  0.00    -0.460 OA
BRANCH   8   9
ATOM      9  C   UNL A   1      32.531  24.716  22.403  1.00  0.00     0.338 C 
ATOM     10  O   UNL A   1      33.424  24.562  21.511  1.00  0.00    -0.246 OA
BRANCH   9  11
ATOM     11  C   UNL A   1      32.244  26.101  22.960  1.00  0.00     0.087 C 
ATOM     12  C   UNL A   1      31.261  29.668  24.898  1.00  0.00    -0.004 A 
ATOM     13  C   UNL A   1      30.275  30.487  24.378  1.00  0.00     0.032 A 
ATOM     14  C   UNL A   1      31.527  28.476  24.270  1.00  0.00     0.131 A 
ATOM     15  C   UNL A   1      29.570  30.120  23.261  1.00  0.00     0.108 A 
ATOM     16  C   UNL A   1      30.849  28.080  23.131  1.00  0.00     0.019 A 
ATOM     17  O   UNL A   1      32.428  27.623  24.861  1.00  0.00    -0.475 OA
ATOM     18  C   UNL A   1      29.862  28.925  22.636  1.00  0.00     0.036 A 
ATOM     19  C   UNL A   1      31.177  26.784  22.563  1.00  0.00     0.027 C 
ATOM     20  C   UNL A   1      33.176  26.735  23.984  1.00  0.00     0.316 C 
BRANCH  12  21
ATOM     21  C   UNL A   1      32.110  30.218  26.032  1.00  0.00     0.036 C 
ATOM     22  C   UNL A   1      31.521  31.533  26.515  1.00  0.00     0.009 C 
ENDBRANCH  12  21
BRANCH  15  23
ATOM     23  S   UNL A   1      28.269  31.195  22.610  1.00  0.00     0.310 S 
ATOM     24  F   UNL A   1      29.025  32.505  23.085  1.00  0.00    -0.094 F 
ATOM     25  F   UNL A   1      27.577  31.164  24.025  1.00  0.00    -0.094 F 
ATOM     26  F   UNL A   1      27.148  32.119  22.051  1.00  0.00    -0.094 F 
ATOM     27  F   UNL A   1      29.048  31.328  21.243  1.00  0.00    -0.094 F 
ATOM     28  F   UNL A   1      29.470  30.351  23.196  1.00  0.00    -0.094 F 
ENDBRANCH  15  23
BRANCH  20  29
ATOM     29  C   UNL A   1      33.817  25.638  24.818  1.00  0.00     0.430 C 
ATOM     30  F   UNL A   1      32.873  24.819  25.273  1.00  0.00    -0.167 F 
ATOM     31  F   UNL A   1      34.674  24.953  24.065  1.00  0.00    -0.167 F 
ATOM     32  F   UNL A   1      34.465  26.182  25.844  1.00  0.00    -0.167 F 
ENDBRANCH  20  29
ENDBRANCH   9  11
ENDBRANCH   8   9
ENDBRANCH   7   8
ENDBRANCH   6   7
ENDBRANCH   5   6
ENDBRANCH   4   5
ENDBRANCH   3   4
ENDBRANCH   2   3
ENDBRANCH   1   2
BRANCH   1  33
ATOM     33  C   UNL A   1      35.731  22.718  25.905  1.00  0.00     0.188 C 
BRANCH  33  34
ATOM     34  O   UNL A   1      36.903  22.868  25.119  1.00  0.00    -0.376 OA
BRANCH  34  35
ATOM     35  C   UNL A   1      38.047  22.805  25.958  1.00  0.00     0.202 C 
BRANCH  35  36
ATOM     36  C   UNL A   1      38.272  24.158  26.612  1.00  0.00     0.261 C 
BRANCH  36  37
ATOM     37  O   UNL A   1      39.567  24.635  26.279  1.00  0.00    -0.460 OA
BRANCH  37  38
ATOM     38  C   UNL A   1      40.608  24.597  27.243  1.00  0.00     0.338 C 
ATOM     39  O   UNL A   1      41.028  23.480  27.680  1.00  0.00    -0.246 OA
BRANCH  38  40
ATOM     40  C   UNL A   1      41.219  25.891  27.754  1.00  0.00     0.060 A 
ATOM     41  C   UNL A   1      40.713  27.039  27.165  1.00  0.00     0.016 A 
ATOM     42  C   UNL A   1      42.068  25.958  28.773  1.00  0.00     0.016 A 
ATOM     43  C   UNL A   1      41.390  28.223  27.540  1.00  0.00     0.010 A 
ATOM     44  C   UNL A   1      42.586  27.166  29.174  1.00  0.00     0.010 A 
ATOM     45  C   UNL A   1      42.175  28.334  28.597  1.00  0.00    -0.014 A 
BRANCH  45  46
ATOM     46  C   UNL A   1      42.597  29.689  29.141  1.00  0.00     0.031 A 
ATOM     47  C   UNL A   1      43.882  30.193  28.929  1.00  0.00     0.074 A 
ATOM     48  C   UNL A   1      41.655  30.290  29.958  1.00  0.00     0.049 A 
ATOM     49  N   UNL A   1      44.408  31.314  29.423  1.00  0.00    -0.248 NA
ATOM     50  C   UNL A   1      44.896  29.539  28.088  1.00  0.00     0.031 C 
ATOM     51  C   UNL A   1      40.355  29.792  30.170  1.00  0.00     0.029 A 
ATOM     52  N   UNL A   1      41.791  31.444  30.698  1.00  0.00    -0.354 N 
ATOM     53  C   UNL A   1      45.657  31.473  28.980  1.00  0.00     0.074 A 
ATOM     54  C   UNL A   1      45.991  30.330  28.121  1.00  0.00     0.031 C 
ATOM     55  C   UNL A   1      39.720  30.627  31.034  1.00  0.00     0.029 A 
ATOM     56  C   UNL A   1      40.612  31.660  31.375  1.00  0.00     0.049 A 
ATOM     57  H   UNL A   1      42.592  32.014  30.735  1.00  0.00     0.167 HD
ATOM     58  C   UNL A   1      46.529  32.526  29.259  1.00  0.00     0.034 A 
ATOM     59  C   UNL A   1      40.313  32.695  32.249  1.00  0.00     0.034 A 
ATOM     60  C   UNL A   1      46.215  33.583  30.098  1.00  0.00     0.049 A 
ATOM     61  C   UNL A   1      41.207  33.718  32.573  1.00  0.00     0.074 A 
ATOM     62  C   UNL A   1      47.080  34.657  30.384  1.00  0.00     0.029 A 
ATOM     63  N   UNL A   1      45.045  33.787  30.796  1.00  0.00    -0.354 N 
ATOM     64  N   UNL A   1      42.441  33.896  32.100  1.00  0.00    -0.248 NA
ATOM     65  C   UNL A   1      40.913  34.801  33.521  1.00  0.00     0.031 C 
ATOM     66  C   UNL A   1      46.444  35.493  31.248  1.00  0.00     0.029 A 
ATOM     67  C   UNL A   1      45.172  34.954  31.517  1.00  0.00     0.049 A 
ATOM     68  H   UNL A   1      44.254  33.202  30.780  1.00  0.00     0.167 HD
ATOM     69  C   UNL A   1      42.981  34.997  32.628  1.00  0.00     0.074 A 
ATOM     70  C   UNL A   1      42.008  35.591  33.556  1.00  0.00     0.031 C 
ATOM     71  C   UNL A   1      44.245  35.532  32.370  1.00  0.00     0.034 A 
BRANCH  58  72
ATOM     72  C   UNL A   1      47.902  32.513  28.605  1.00  0.00     0.023 A 
ATOM     73  C   UNL A   1      48.893  31.705  29.136  1.00  0.00     0.012 A 
ATOM     74  C   UNL A   1      48.121  33.254  27.525  1.00  0.00     0.148 A 
ATOM     75  C   UNL A   1      50.185  31.970  28.621  1.00  0.00     0.002 A 
ATOM     76  C   UNL A   1      49.384  33.359  26.995  1.00  0.00     0.091 A 
ATOM     77  F   UNL A   1      47.110  33.900  26.953  1.00  0.00    -0.205 F 
ATOM     78  C   UNL A   1      50.425  32.635  27.507  1.00  0.00     0.022 A 
BRANCH  76  79
ATOM     79  S   UNL A   1      49.675  34.472  25.598  1.00  0.00     0.127 S 
ATOM     80  O   UNL A   1      50.684  33.835  24.639  1.00  0.00    -0.237 OA
ATOM     81  O   UNL A   1      48.358  34.723  24.861  1.00  0.00    -0.237 OA
ATOM     82  O   UNL A   1      50.297  35.958  26.173  1.00  0.00    -0.744 OA
ENDBRANCH  76  79
ENDBRANCH  58  72
BRANCH  59  83
ATOM     83  C   UNL A   1      38.934  32.716  32.889  1.00  0.00     0.023 A 
ATOM     84  C   UNL A   1      38.742  32.079  34.104  1.00  0.00     0.012 A 
ATOM     85  C   UNL A   1      37.933  33.324  32.264  1.00  0.00     0.148 A 
ATOM     86  C   UNL A   1      37.382  31.890  34.443  1.00  0.00     0.002 A 
ATOM     87  C   UNL A   1      36.646  33.208  32.728  1.00  0.00     0.091 A 
ATOM     88  F   UNL A   1      38.179  34.053  31.179  1.00  0.00    -0.205 F 
ATOM     89  C   UNL A   1      36.375  32.543  33.892  1.00  0.00     0.022 A 
BRANCH  87  90
ATOM     90  S   UNL A   1      35.288  33.947  31.787  1.00  0.00     0.127 S 
ATOM     91  O   UNL A   1      34.001  33.157  32.040  1.00  0.00    -0.237 OA
ATOM     92  O   UNL A   1      35.090  35.399  32.231  1.00  0.00    -0.237 OA
ATOM     93  O   UNL A   1      35.662  33.907  30.119  1.00  0.00    -0.744 OA
ENDBRANCH  87  90
ENDBRANCH  59  83
BRANCH  71  94
ATOM     94  C   UNL A   1      44.626  36.828  33.066  1.00  0.00     0.023 A 
ATOM     95  C   UNL A   1      44.148  37.976  32.454  1.00  0.00     0.012 A 
ATOM     96  C   UNL A   1      45.285  36.885  34.217  1.00  0.00     0.148 A 
ATOM     97  C   UNL A   1      44.671  39.174  32.995  1.00  0.00     0.002 A 
ATOM     98  C   UNL A   1      45.645  38.096  34.757  1.00  0.00     0.091 A 
ATOM     99  F   UNL A   1      45.598  35.761  34.853  1.00  0.00    -0.205 F 
ATOM    100  C   UNL A   1      45.258  39.270  34.174  1.00  0.00     0.022 A 
BRANCH  98 101
ATOM    101  S   UNL A   1      46.649  38.138  36.264  1.00  0.00     0.127 S 
ATOM    102  O   UNL A   1      47.040  39.583  36.576  1.00  0.00    -0.237 OA
ATOM    103  O   UNL A   1      45.842  37.563  37.431  1.00  0.00    -0.237 OA
ATOM    104  O   UNL A   1      48.061  37.202  36.033  1.00  0.00    -0.744 OA
ENDBRANCH  98 101
ENDBRANCH  71  94
ENDBRANCH  45  46
ENDBRANCH  38  40
ENDBRANCH  37  38
ENDBRANCH  36  37
ENDBRANCH  35  36
ENDBRANCH  34  35
ENDBRANCH  33  34
ENDBRANCH   1  33
TORSDOF 26
ENDMDL
