MODEL 1
REMARK VINA RESULT:      -7.6      0.000      0.000
REMARK SMILES O=C(CCCCc1nc2cccc(Cl)c2s1)OCCOCCOCCOCCOC(=O)c1ccc(-c2c3nc(c(-c4cccc(S(=O)(=O)[O-])c4F)c4ccc([nH]4)c(-c4cccc(S(=O)(=O)[O-])c4F)c4nc(c(-c5cccc(S(=O)(=O)[O-])c5F)c5ccc2[nH]5)C=C4)C=C3)cc1
REMARK SMILES IDX 22 1 21 2 20 3 19 4 18 5 17 6 2 7 1 8 3 9 4 10 5 11 6 12
REMARK SMILES IDX 7 13 8 14 16 15 9 16 15 17 10 18 13 19 11 20 12 21 14 22
REMARK SMILES IDX 23 23 24 24 25 25 26 26 27 27 28 28 29 29 30 30 31 31 32 32
REMARK SMILES IDX 33 33 94 34 34 35 93 36 35 37 36 38 37 39 87 40 38 41 92 42
REMARK SMILES IDX 86 43 88 44 39 45 91 46 85 47 84 48 40 50 72 51 52 52 71 53
REMARK SMILES IDX 53 54 56 55 70 56 89 57 54 58 55 59 69 61 90 62 57 63 41 64
REMARK SMILES IDX 42 65 50 66 43 67 45 68 51 69 44 70 46 71 47 72 48 73 49 74
REMARK SMILES IDX 73 75 74 76 82 77 75 78 77 79 83 80 76 81 78 82 79 83 80 84
REMARK SMILES IDX 81 85 58 86 59 87 67 88 60 89 62 90 68 91 61 92 63 93 64 94
REMARK SMILES IDX 65 95 66 96
REMARK H PARENT 88 49 56 60
REMARK Flexibility Score: inf
ROOT
ATOM      1  C   UNL A   1      42.871  23.472  28.826  1.00  0.00     0.188 C 
ENDROOT
BRANCH   1   2
ATOM      2  C   UNL A   1      41.578  23.456  28.004  1.00  0.00     0.188 C 
BRANCH   2   3
ATOM      3  O   UNL A   1      40.833  24.670  28.065  1.00  0.00    -0.376 OA
BRANCH   3   4
ATOM      4  C   UNL A   1      40.000  24.933  26.948  1.00  0.00     0.202 C 
BRANCH   4   5
ATOM      5  C   UNL A   1      39.030  23.778  26.779  1.00  0.00     0.261 C 
BRANCH   5   6
ATOM      6  O   UNL A   1      37.929  24.127  25.920  1.00  0.00    -0.463 OA
BRANCH   6   7
ATOM      7  C   UNL A   1      37.030  23.265  25.399  1.00  0.00     0.305 C 
ATOM      8  O   UNL A   1      37.399  22.441  24.563  1.00  0.00    -0.252 OA
BRANCH   7   9
ATOM      9  C   UNL A   1      35.572  23.330  25.802  1.00  0.00     0.123 C 
BRANCH   9  10
ATOM     10  C   UNL A   1      34.720  24.339  25.035  1.00  0.00     0.012 C 
BRANCH  10  11
ATOM     11  C   UNL A   1      33.412  24.825  25.693  1.00  0.00     0.008 C 
BRANCH  11  12
ATOM     12  C   UNL A   1      32.717  26.065  25.113  1.00  0.00     0.068 C 
BRANCH  12  13
ATOM     13  C   UNL A   1      32.958  27.393  25.779  1.00  0.00     0.094 A 
ATOM     14  N   UNL A   1      34.072  27.644  26.433  1.00  0.00    -0.241 NA
ATOM     15  S   UNL A   1      31.844  28.691  25.734  1.00  0.00    -0.117 S 
ATOM     16  C   UNL A   1      34.085  28.949  26.895  1.00  0.00     0.083 A 
ATOM     17  C   UNL A   1      32.935  29.691  26.615  1.00  0.00     0.073 A 
ATOM     18  C   UNL A   1      35.140  29.560  27.602  1.00  0.00     0.030 A 
ATOM     19  C   UNL A   1      32.815  31.027  27.035  1.00  0.00     0.060 A 
ATOM     20  C   UNL A   1      35.031  30.893  28.008  1.00  0.00     0.004 A 
ATOM     21  C   UNL A   1      33.877  31.616  27.730  1.00  0.00     0.022 A 
ATOM     22  Cl  UNL A   1      31.402  31.961  26.716  1.00  0.00    -0.083 Cl
ENDBRANCH  12  13
ENDBRANCH  11  12
ENDBRANCH  10  11
ENDBRANCH   9  10
ENDBRANCH   7   9
ENDBRANCH   6   7
ENDBRANCH   5   6
ENDBRANCH   4   5
ENDBRANCH   3   4
ENDBRANCH   2   3
ENDBRANCH   1   2
BRANCH   1  23
ATOM     23  O   UNL A   1      44.069  23.974  28.244  1.00  0.00    -0.377 OA
BRANCH  23  24
ATOM     24  C   UNL A   1      44.809  24.997  28.882  1.00  0.00     0.188 C 
BRANCH  24  25
ATOM     25  C   UNL A   1      43.998  25.919  29.805  1.00  0.00     0.188 C 
BRANCH  25  26
ATOM     26  O   UNL A   1      44.199  25.846  31.210  1.00  0.00    -0.376 OA
BRANCH  26  27
ATOM     27  C   UNL A   1      44.669  24.645  31.825  1.00  0.00     0.202 C 
BRANCH  27  28
ATOM     28  C   UNL A   1      44.176  24.212  33.204  1.00  0.00     0.261 C 
BRANCH  28  29
ATOM     29  O   UNL A   1      43.946  25.345  34.038  1.00  0.00    -0.460 OA
BRANCH  29  30
ATOM     30  C   UNL A   1      43.388  25.048  35.228  1.00  0.00     0.338 C 
ATOM     31  O   UNL A   1      43.096  23.938  35.641  1.00  0.00    -0.246 OA
BRANCH  30  32
ATOM     32  C   UNL A   1      43.173  26.257  36.028  1.00  0.00     0.060 A 
ATOM     33  C   UNL A   1      41.838  26.644  36.182  1.00  0.00     0.016 A 
ATOM     34  C   UNL A   1      44.239  27.123  36.291  1.00  0.00     0.016 A 
ATOM     35  C   UNL A   1      41.560  27.983  36.300  1.00  0.00     0.010 A 
ATOM     36  C   UNL A   1      43.961  28.468  36.405  1.00  0.00     0.010 A 
ATOM     37  C   UNL A   1      42.632  28.877  36.269  1.00  0.00    -0.014 A 
BRANCH  37  38
ATOM     38  C   UNL A   1      42.320  30.220  35.824  1.00  0.00     0.031 A 
ATOM     39  C   UNL A   1      42.025  31.212  36.866  1.00  0.00     0.074 A 
ATOM     40  C   UNL A   1      42.348  30.533  34.513  1.00  0.00     0.049 A 
ATOM     41  N   UNL A   1      40.911  31.833  37.076  1.00  0.00    -0.248 NA
ATOM     42  C   UNL A   1      43.091  31.492  37.834  1.00  0.00     0.031 C 
ATOM     43  C   UNL A   1      42.905  29.728  33.420  1.00  0.00     0.029 A 
ATOM     44  N   UNL A   1      42.018  31.707  33.904  1.00  0.00    -0.354 N 
ATOM     45  C   UNL A   1      41.207  32.755  38.070  1.00  0.00     0.074 A 
ATOM     46  C   UNL A   1      42.501  32.403  38.606  1.00  0.00     0.031 C 
ATOM     47  C   UNL A   1      43.110  30.528  32.352  1.00  0.00     0.029 A 
ATOM     48  C   UNL A   1      42.592  31.851  32.648  1.00  0.00     0.049 A 
ATOM     49  H   UNL A   1      41.431  32.384  34.315  1.00  0.00     0.167 HD
ATOM     50  C   UNL A   1      40.508  33.907  38.227  1.00  0.00     0.034 A 
ATOM     51  C   UNL A   1      42.723  33.010  31.961  1.00  0.00     0.034 A 
ATOM     52  C   UNL A   1      39.252  33.930  37.541  1.00  0.00     0.049 A 
ATOM     53  C   UNL A   1      41.730  33.965  32.513  1.00  0.00     0.074 A 
ATOM     54  C   UNL A   1      38.104  33.168  37.565  1.00  0.00     0.029 A 
ATOM     55  N   UNL A   1      39.176  34.707  36.412  1.00  0.00    -0.354 N 
ATOM     56  N   UNL A   1      40.438  33.859  32.377  1.00  0.00    -0.248 NA
ATOM     57  C   UNL A   1      42.175  34.933  33.505  1.00  0.00     0.031 C 
ATOM     58  C   UNL A   1      37.575  33.236  36.245  1.00  0.00     0.029 A 
ATOM     59  C   UNL A   1      38.445  34.019  35.482  1.00  0.00     0.049 A 
ATOM     60  H   UNL A   1      39.575  35.600  36.293  1.00  0.00     0.167 HD
ATOM     61  C   UNL A   1      39.912  34.443  33.522  1.00  0.00     0.074 A 
ATOM     62  C   UNL A   1      41.010  35.211  34.092  1.00  0.00     0.031 C 
ATOM     63  C   UNL A   1      38.730  34.018  34.060  1.00  0.00     0.034 A 
BRANCH  50  64
ATOM     64  C   UNL A   1      41.161  35.149  38.746  1.00  0.00     0.023 A 
ATOM     65  C   UNL A   1      40.596  35.815  39.845  1.00  0.00     0.012 A 
ATOM     66  C   UNL A   1      42.214  35.785  38.055  1.00  0.00     0.148 A 
ATOM     67  C   UNL A   1      41.099  37.052  40.266  1.00  0.00     0.002 A 
ATOM     68  C   UNL A   1      42.771  36.959  38.535  1.00  0.00     0.091 A 
ATOM     69  F   UNL A   1      42.618  35.307  36.869  1.00  0.00    -0.205 F 
ATOM     70  C   UNL A   1      42.207  37.610  39.631  1.00  0.00     0.022 A 
BRANCH  68  71
ATOM     71  S   UNL A   1      44.276  37.587  37.792  1.00  0.00     0.127 S 
ATOM     72  O   UNL A   1      45.124  36.400  37.777  1.00  0.00    -0.237 OA
ATOM     73  O   UNL A   1      43.817  38.039  36.477  1.00  0.00    -0.237 OA
ATOM     74  O   UNL A   1      44.676  38.672  38.681  1.00  0.00    -0.744 OA
ENDBRANCH  68  71
ENDBRANCH  50  64
BRANCH  51  75
ATOM     75  C   UNL A   1      43.775  33.430  31.001  1.00  0.00     0.023 A 
ATOM     76  C   UNL A   1      45.075  33.680  31.486  1.00  0.00     0.012 A 
ATOM     77  C   UNL A   1      43.603  33.363  29.599  1.00  0.00     0.148 A 
ATOM     78  C   UNL A   1      46.164  33.819  30.616  1.00  0.00     0.002 A 
ATOM     79  C   UNL A   1      44.684  33.539  28.736  1.00  0.00     0.091 A 
ATOM     80  F   UNL A   1      42.408  33.031  29.095  1.00  0.00    -0.205 F 
ATOM     81  C   UNL A   1      45.969  33.748  29.241  1.00  0.00     0.022 A 
BRANCH  79  82
ATOM     82  S   UNL A   1      44.455  33.500  26.952  1.00  0.00     0.127 S 
ATOM     83  O   UNL A   1      43.413  34.509  26.741  1.00  0.00    -0.237 OA
ATOM     84  O   UNL A   1      45.775  33.876  26.458  1.00  0.00    -0.237 OA
ATOM     85  O   UNL A   1      44.021  32.138  26.662  1.00  0.00    -0.744 OA
ENDBRANCH  79  82
ENDBRANCH  51  75
BRANCH  63  86
ATOM     86  C   UNL A   1      37.811  33.179  33.209  1.00  0.00     0.023 A 
ATOM     87  C   UNL A   1      36.873  33.773  32.339  1.00  0.00     0.012 A 
ATOM     88  C   UNL A   1      38.042  31.794  33.123  1.00  0.00     0.148 A 
ATOM     89  C   UNL A   1      36.170  33.000  31.413  1.00  0.00     0.002 A 
ATOM     90  C   UNL A   1      37.368  31.035  32.171  1.00  0.00     0.091 A 
ATOM     91  F   UNL A   1      38.951  31.250  33.946  1.00  0.00    -0.205 F 
ATOM     92  C   UNL A   1      36.427  31.634  31.320  1.00  0.00     0.022 A 
BRANCH  90  93
ATOM     93  S   UNL A   1      37.737  29.297  31.900  1.00  0.00     0.127 S 
ATOM     94  O   UNL A   1      39.179  29.323  31.663  1.00  0.00    -0.237 OA
ATOM     95  O   UNL A   1      37.338  28.690  33.171  1.00  0.00    -0.237 OA
ATOM     96  O   UNL A   1      36.926  28.884  30.761  1.00  0.00    -0.744 OA
ENDBRANCH  90  93
ENDBRANCH  63  86
ENDBRANCH  37  38
ENDBRANCH  30  32
ENDBRANCH  29  30
ENDBRANCH  28  29
ENDBRANCH  27  28
ENDBRANCH  26  27
ENDBRANCH  25  26
ENDBRANCH  24  25
ENDBRANCH  23  24
ENDBRANCH   1  23
TORSDOF 27
ENDMDL
MODEL 2
REMARK VINA RESULT:      -7.4      1.986      2.340
REMARK SMILES O=C(CCCCc1nc2cccc(Cl)c2s1)OCCOCCOCCOCCOC(=O)c1ccc(-c2c3nc(c(-c4cccc(S(=O)(=O)[O-])c4F)c4ccc([nH]4)c(-c4cccc(S(=O)(=O)[O-])c4F)c4nc(c(-c5cccc(S(=O)(=O)[O-])c5F)c5ccc2[nH]5)C=C4)C=C3)cc1
REMARK SMILES IDX 22 1 21 2 20 3 19 4 18 5 17 6 2 7 1 8 3 9 4 10 5 11 6 12
REMARK SMILES IDX 7 13 8 14 16 15 9 16 15 17 10 18 13 19 11 20 12 21 14 22
REMARK SMILES IDX 23 23 24 24 25 25 26 26 27 27 28 28 29 29 30 30 31 31 32 32
REMARK SMILES IDX 33 33 94 34 34 35 93 36 35 37 36 38 37 39 87 40 38 41 92 42
REMARK SMILES IDX 86 43 88 44 39 45 91 46 85 47 84 48 40 50 72 51 52 52 71 53
REMARK SMILES IDX 53 54 56 55 70 56 89 57 54 58 55 59 69 61 90 62 57 63 41 64
REMARK SMILES IDX 42 65 50 66 43 67 45 68 51 69 44 70 46 71 47 72 48 73 49 74
REMARK SMILES IDX 73 75 74 76 82 77 75 78 77 79 83 80 76 81 78 82 79 83 80 84
REMARK SMILES IDX 81 85 58 86 59 87 67 88 60 89 62 90 68 91 61 92 63 93 64 94
REMARK SMILES IDX 65 95 66 96
REMARK H PARENT 88 49 56 60
REMARK Flexibility Score: inf
ROOT
ATOM      1  C   UNL A   1      42.882  23.688  28.852  1.00  0.00     0.188 C 
ENDROOT
BRANCH   1   2
ATOM      2  C   UNL A   1      41.540  23.576  28.122  1.00  0.00     0.188 C 
BRANCH   2   3
ATOM      3  O   UNL A   1      40.845  24.813  27.984  1.00  0.00    -0.376 OA
BRANCH   3   4
ATOM      4  C   UNL A   1      40.055  24.945  26.814  1.00  0.00     0.202 C 
BRANCH   4   5
ATOM      5  C   UNL A   1      39.045  23.812  26.777  1.00  0.00     0.261 C 
BRANCH   5   6
ATOM      6  O   UNL A   1      37.959  24.096  25.877  1.00  0.00    -0.463 OA
BRANCH   6   7
ATOM      7  C   UNL A   1      37.060  23.200  25.417  1.00  0.00     0.305 C 
ATOM      8  O   UNL A   1      37.420  22.345  24.609  1.00  0.00    -0.252 OA
BRANCH   7   9
ATOM      9  C   UNL A   1      35.611  23.263  25.853  1.00  0.00     0.123 C 
BRANCH   9  10
ATOM     10  C   UNL A   1      34.725  24.223  25.063  1.00  0.00     0.012 C 
BRANCH  10  11
ATOM     11  C   UNL A   1      33.454  24.763  25.750  1.00  0.00     0.008 C 
BRANCH  11  12
ATOM     12  C   UNL A   1      32.762  25.994  25.150  1.00  0.00     0.068 C 
BRANCH  12  13
ATOM     13  C   UNL A   1      32.989  27.330  25.805  1.00  0.00     0.094 A 
ATOM     14  N   UNL A   1      34.112  27.608  26.432  1.00  0.00    -0.241 NA
ATOM     15  S   UNL A   1      31.846  28.603  25.782  1.00  0.00    -0.117 S 
ATOM     16  C   UNL A   1      34.106  28.914  26.889  1.00  0.00     0.083 A 
ATOM     17  C   UNL A   1      32.934  29.630  26.634  1.00  0.00     0.073 A 
ATOM     18  C   UNL A   1      35.165  29.552  27.569  1.00  0.00     0.030 A 
ATOM     19  C   UNL A   1      32.795  30.964  27.052  1.00  0.00     0.060 A 
ATOM     20  C   UNL A   1      35.036  30.883  27.974  1.00  0.00     0.004 A 
ATOM     21  C   UNL A   1      33.859  31.580  27.720  1.00  0.00     0.022 A 
ATOM     22  Cl  UNL A   1      31.355  31.866  26.762  1.00  0.00    -0.083 Cl
ENDBRANCH  12  13
ENDBRANCH  11  12
ENDBRANCH  10  11
ENDBRANCH   9  10
ENDBRANCH   7   9
ENDBRANCH   6   7
ENDBRANCH   5   6
ENDBRANCH   4   5
ENDBRANCH   3   4
ENDBRANCH   2   3
ENDBRANCH   1   2
BRANCH   1  23
ATOM     23  O   UNL A   1      44.058  24.008  28.118  1.00  0.00    -0.377 OA
BRANCH  23  24
ATOM     24  C   UNL A   1      44.905  25.063  28.534  1.00  0.00     0.188 C 
BRANCH  24  25
ATOM     25  C   UNL A   1      44.202  26.231  29.243  1.00  0.00     0.188 C 
BRANCH  25  26
ATOM     26  O   UNL A   1      44.418  26.430  30.633  1.00  0.00    -0.376 OA
BRANCH  26  27
ATOM     27  C   UNL A   1      45.155  25.481  31.407  1.00  0.00     0.202 C 
BRANCH  27  28
ATOM     28  C   UNL A   1      44.597  24.911  32.710  1.00  0.00     0.261 C 
BRANCH  28  29
ATOM     29  O   UNL A   1      44.360  25.951  33.655  1.00  0.00    -0.460 OA
BRANCH  29  30
ATOM     30  C   UNL A   1      43.715  25.547  34.767  1.00  0.00     0.338 C 
ATOM     31  O   UNL A   1      43.357  24.411  35.032  1.00  0.00    -0.246 OA
BRANCH  30  32
ATOM     32  C   UNL A   1      43.490  26.667  35.686  1.00  0.00     0.060 A 
ATOM     33  C   UNL A   1      42.156  26.890  36.042  1.00  0.00     0.016 A 
ATOM     34  C   UNL A   1      44.488  27.627  35.878  1.00  0.00     0.016 A 
ATOM     35  C   UNL A   1      41.762  28.179  36.305  1.00  0.00     0.010 A 
ATOM     36  C   UNL A   1      44.093  28.921  36.137  1.00  0.00     0.010 A 
ATOM     37  C   UNL A   1      42.723  29.188  36.209  1.00  0.00    -0.014 A 
BRANCH  37  38
ATOM     38  C   UNL A   1      42.217  30.514  35.920  1.00  0.00     0.031 A 
ATOM     39  C   UNL A   1      41.929  31.379  37.072  1.00  0.00     0.074 A 
ATOM     40  C   UNL A   1      42.069  30.930  34.647  1.00  0.00     0.049 A 
ATOM     41  N   UNL A   1      40.782  31.844  37.446  1.00  0.00    -0.248 NA
ATOM     42  C   UNL A   1      43.055  31.708  37.951  1.00  0.00     0.031 C 
ATOM     43  C   UNL A   1      42.590  30.286  33.435  1.00  0.00     0.029 A 
ATOM     44  N   UNL A   1      41.547  32.100  34.182  1.00  0.00    -0.354 N 
ATOM     45  C   UNL A   1      41.079  32.713  38.485  1.00  0.00     0.074 A 
ATOM     46  C   UNL A   1      42.455  32.478  38.857  1.00  0.00     0.031 C 
ATOM     47  C   UNL A   1      42.588  31.186  32.429  1.00  0.00     0.029 A 
ATOM     48  C   UNL A   1      41.962  32.410  32.894  1.00  0.00     0.049 A 
ATOM     49  H   UNL A   1      40.936  32.668  34.707  1.00  0.00     0.167 HD
ATOM     50  C   UNL A   1      40.278  33.758  38.813  1.00  0.00     0.034 A 
ATOM     51  C   UNL A   1      41.888  33.627  32.305  1.00  0.00     0.034 A 
ATOM     52  C   UNL A   1      38.961  33.684  38.259  1.00  0.00     0.049 A 
ATOM     53  C   UNL A   1      40.861  34.410  33.036  1.00  0.00     0.074 A 
ATOM     54  C   UNL A   1      37.913  32.790  38.326  1.00  0.00     0.029 A 
ATOM     55  N   UNL A   1      38.677  34.532  37.218  1.00  0.00    -0.354 N 
ATOM     56  N   UNL A   1      39.581  34.161  33.018  1.00  0.00    -0.248 NA
ATOM     57  C   UNL A   1      41.300  35.343  34.063  1.00  0.00     0.031 C 
ATOM     58  C   UNL A   1      37.240  32.897  37.076  1.00  0.00     0.029 A 
ATOM     59  C   UNL A   1      37.930  33.836  36.305  1.00  0.00     0.049 A 
ATOM     60  H   UNL A   1      38.959  35.473  37.142  1.00  0.00     0.167 HD
ATOM     61  C   UNL A   1      39.120  34.586  34.257  1.00  0.00     0.074 A 
ATOM     62  C   UNL A   1      40.182  35.432  34.784  1.00  0.00     0.031 C 
ATOM     63  C   UNL A   1      38.058  33.981  34.868  1.00  0.00     0.034 A 
BRANCH  50  64
ATOM     64  C   UNL A   1      40.841  35.024  39.375  1.00  0.00     0.023 A 
ATOM     65  C   UNL A   1      41.695  35.808  38.584  1.00  0.00     0.012 A 
ATOM     66  C   UNL A   1      40.702  35.365  40.737  1.00  0.00     0.148 A 
ATOM     67  C   UNL A   1      42.349  36.921  39.125  1.00  0.00     0.002 A 
ATOM     68  C   UNL A   1      41.272  36.522  41.242  1.00  0.00     0.091 A 
ATOM     69  F   UNL A   1      40.097  34.513  41.579  1.00  0.00    -0.205 F 
ATOM     70  C   UNL A   1      42.114  37.298  40.446  1.00  0.00     0.022 A 
BRANCH  68  71
ATOM     71  S   UNL A   1      40.849  37.062  42.898  1.00  0.00     0.127 S 
ATOM     72  O   UNL A   1      41.929  37.996  43.197  1.00  0.00    -0.237 OA
ATOM     73  O   UNL A   1      39.534  37.676  42.706  1.00  0.00    -0.237 OA
ATOM     74  O   UNL A   1      40.815  35.824  43.669  1.00  0.00    -0.744 OA
ENDBRANCH  68  71
ENDBRANCH  50  64
BRANCH  51  75
ATOM     75  C   UNL A   1      42.777  34.244  31.288  1.00  0.00     0.023 A 
ATOM     76  C   UNL A   1      42.432  34.128  29.926  1.00  0.00     0.012 A 
ATOM     77  C   UNL A   1      43.817  35.142  31.624  1.00  0.00     0.148 A 
ATOM     78  C   UNL A   1      43.068  34.898  28.944  1.00  0.00     0.002 A 
ATOM     79  C   UNL A   1      44.472  35.880  30.639  1.00  0.00     0.091 A 
ATOM     80  F   UNL A   1      44.112  35.360  32.912  1.00  0.00    -0.205 F 
ATOM     81  C   UNL A   1      44.087  35.775  29.300  1.00  0.00     0.022 A 
BRANCH  79  82
ATOM     82  S   UNL A   1      45.826  36.985  31.063  1.00  0.00     0.127 S 
ATOM     83  O   UNL A   1      46.269  37.467  29.752  1.00  0.00    -0.237 OA
ATOM     84  O   UNL A   1      45.164  37.990  31.887  1.00  0.00    -0.237 OA
ATOM     85  O   UNL A   1      46.802  36.137  31.738  1.00  0.00    -0.744 OA
ENDBRANCH  79  82
ENDBRANCH  51  75
BRANCH  63  86
ATOM     86  C   UNL A   1      37.152  33.108  34.039  1.00  0.00     0.023 A 
ATOM     87  C   UNL A   1      36.000  33.631  33.415  1.00  0.00     0.012 A 
ATOM     88  C   UNL A   1      37.578  31.808  33.708  1.00  0.00     0.148 A 
ATOM     89  C   UNL A   1      35.281  32.870  32.492  1.00  0.00     0.002 A 
ATOM     90  C   UNL A   1      36.881  31.069  32.758  1.00  0.00     0.091 A 
ATOM     91  F   UNL A   1      38.685  31.335  34.298  1.00  0.00    -0.205 F 
ATOM     92  C   UNL A   1      35.728  31.595  32.153  1.00  0.00     0.022 A 
BRANCH  90  93
ATOM     93  S   UNL A   1      37.465  29.474  32.172  1.00  0.00     0.127 S 
ATOM     94  O   UNL A   1      37.307  28.635  33.358  1.00  0.00    -0.237 OA
ATOM     95  O   UNL A   1      36.529  29.178  31.086  1.00  0.00    -0.237 OA
ATOM     96  O   UNL A   1      38.840  29.681  31.735  1.00  0.00    -0.744 OA
ENDBRANCH  90  93
ENDBRANCH  63  86
ENDBRANCH  37  38
ENDBRANCH  30  32
ENDBRANCH  29  30
ENDBRANCH  28  29
ENDBRANCH  27  28
ENDBRANCH  26  27
ENDBRANCH  25  26
ENDBRANCH  24  25
ENDBRANCH  23  24
ENDBRANCH   1  23
TORSDOF 27
ENDMDL
MODEL 3
REMARK VINA RESULT:      -7.4      6.231     12.007
REMARK SMILES O=C(CCCCc1nc2cccc(Cl)c2s1)OCCOCCOCCOCCOC(=O)c1ccc(-c2c3nc(c(-c4cccc(S(=O)(=O)[O-])c4F)c4ccc([nH]4)c(-c4cccc(S(=O)(=O)[O-])c4F)c4nc(c(-c5cccc(S(=O)(=O)[O-])c5F)c5ccc2[nH]5)C=C4)C=C3)cc1
REMARK SMILES IDX 22 1 21 2 20 3 19 4 18 5 17 6 2 7 1 8 3 9 4 10 5 11 6 12
REMARK SMILES IDX 7 13 8 14 16 15 9 16 15 17 10 18 13 19 11 20 12 21 14 22
REMARK SMILES IDX 23 23 24 24 25 25 26 26 27 27 28 28 29 29 30 30 31 31 32 32
REMARK SMILES IDX 33 33 94 34 34 35 93 36 35 37 36 38 37 39 87 40 38 41 92 42
REMARK SMILES IDX 86 43 88 44 39 45 91 46 85 47 84 48 40 50 72 51 52 52 71 53
REMARK SMILES IDX 53 54 56 55 70 56 89 57 54 58 55 59 69 61 90 62 57 63 41 64
REMARK SMILES IDX 42 65 50 66 43 67 45 68 51 69 44 70 46 71 47 72 48 73 49 74
REMARK SMILES IDX 73 75 74 76 82 77 75 78 77 79 83 80 76 81 78 82 79 83 80 84
REMARK SMILES IDX 81 85 58 86 59 87 67 88 60 89 62 90 68 91 61 92 63 93 64 94
REMARK SMILES IDX 65 95 66 96
REMARK H PARENT 88 49 56 60
REMARK Flexibility Score: inf
ROOT
ATOM      1  C   UNL A   1      45.754  25.402  28.897  1.00  0.00     0.188 C 
ENDROOT
BRANCH   1   2
ATOM      2  C   UNL A   1      46.677  25.614  27.692  1.00  0.00     0.188 C 
BRANCH   2   3
ATOM      3  O   UNL A   1      46.211  26.594  26.767  1.00  0.00    -0.376 OA
BRANCH   3   4
ATOM      4  C   UNL A   1      46.888  26.629  25.521  1.00  0.00     0.202 C 
BRANCH   4   5
ATOM      5  C   UNL A   1      48.277  26.045  25.703  1.00  0.00     0.261 C 
BRANCH   5   6
ATOM      6  O   UNL A   1      49.263  27.073  25.912  1.00  0.00    -0.463 OA
BRANCH   6   7
ATOM      7  C   UNL A   1      50.290  27.362  25.084  1.00  0.00     0.305 C 
ATOM      8  O   UNL A   1      50.400  28.503  24.636  1.00  0.00    -0.252 OA
BRANCH   7   9
ATOM      9  C   UNL A   1      51.277  26.291  24.670  1.00  0.00     0.123 C 
BRANCH   9  10
ATOM     10  C   UNL A   1      52.049  25.630  25.810  1.00  0.00     0.012 C 
BRANCH  10  11
ATOM     11  C   UNL A   1      53.042  24.505  25.451  1.00  0.00     0.008 C 
BRANCH  11  12
ATOM     12  C   UNL A   1      54.539  24.838  25.397  1.00  0.00     0.068 C 
BRANCH  12  13
ATOM     13  C   UNL A   1      55.405  24.417  26.553  1.00  0.00     0.094 A 
ATOM     14  N   UNL A   1      55.469  25.125  27.660  1.00  0.00    -0.241 NA
ATOM     15  S   UNL A   1      56.354  22.993  26.556  1.00  0.00    -0.117 S 
ATOM     16  C   UNL A   1      56.275  24.499  28.595  1.00  0.00     0.083 A 
ATOM     17  C   UNL A   1      56.865  23.307  28.170  1.00  0.00     0.073 A 
ATOM     18  C   UNL A   1      56.532  24.964  29.902  1.00  0.00     0.030 A 
ATOM     19  C   UNL A   1      57.713  22.575  29.020  1.00  0.00     0.060 A 
ATOM     20  C   UNL A   1      57.363  24.232  30.754  1.00  0.00     0.004 A 
ATOM     21  C   UNL A   1      57.950  23.051  30.314  1.00  0.00     0.022 A 
ATOM     22  Cl  UNL A   1      58.465  21.109  28.516  1.00  0.00    -0.083 Cl
ENDBRANCH  12  13
ENDBRANCH  11  12
ENDBRANCH  10  11
ENDBRANCH   9  10
ENDBRANCH   7   9
ENDBRANCH   6   7
ENDBRANCH   5   6
ENDBRANCH   4   5
ENDBRANCH   3   4
ENDBRANCH   2   3
ENDBRANCH   1   2
BRANCH   1  23
ATOM     23  O   UNL A   1      44.859  24.296  28.911  1.00  0.00    -0.377 OA
BRANCH  23  24
ATOM     24  C   UNL A   1      44.825  23.379  27.835  1.00  0.00     0.188 C 
BRANCH  24  25
ATOM     25  C   UNL A   1      43.507  22.605  27.670  1.00  0.00     0.188 C 
BRANCH  25  26
ATOM     26  O   UNL A   1      43.119  22.163  26.377  1.00  0.00    -0.376 OA
BRANCH  26  27
ATOM     27  C   UNL A   1      41.771  21.774  26.106  1.00  0.00     0.202 C 
BRANCH  27  28
ATOM     28  C   UNL A   1      40.610  22.280  26.960  1.00  0.00     0.261 C 
BRANCH  28  29
ATOM     29  O   UNL A   1      40.061  23.474  26.409  1.00  0.00    -0.460 OA
BRANCH  29  30
ATOM     30  C   UNL A   1      39.843  24.448  27.315  1.00  0.00     0.338 C 
ATOM     31  O   UNL A   1      38.924  24.510  28.115  1.00  0.00    -0.246 OA
BRANCH  30  32
ATOM     32  C   UNL A   1      40.888  25.474  27.251  1.00  0.00     0.060 A 
ATOM     33  C   UNL A   1      41.658  25.619  28.410  1.00  0.00     0.016 A 
ATOM     34  C   UNL A   1      40.854  26.447  26.248  1.00  0.00     0.016 A 
ATOM     35  C   UNL A   1      42.150  26.865  28.710  1.00  0.00     0.010 A 
ATOM     36  C   UNL A   1      41.344  27.699  26.550  1.00  0.00     0.010 A 
ATOM     37  C   UNL A   1      41.859  27.911  27.832  1.00  0.00    -0.014 A 
BRANCH  37  38
ATOM     38  C   UNL A   1      41.867  29.240  28.409  1.00  0.00     0.031 A 
ATOM     39  C   UNL A   1      43.036  30.081  28.120  1.00  0.00     0.074 A 
ATOM     40  C   UNL A   1      40.820  29.679  29.136  1.00  0.00     0.049 A 
ATOM     41  N   UNL A   1      43.913  30.531  28.955  1.00  0.00    -0.248 NA
ATOM     42  C   UNL A   1      43.290  30.400  26.712  1.00  0.00     0.031 C 
ATOM     43  C   UNL A   1      39.494  29.060  29.247  1.00  0.00     0.029 A 
ATOM     44  N   UNL A   1      40.678  30.854  29.812  1.00  0.00    -0.354 N 
ATOM     45  C   UNL A   1      44.708  31.383  28.202  1.00  0.00     0.074 A 
ATOM     46  C   UNL A   1      44.386  31.149  26.814  1.00  0.00     0.031 C 
ATOM     47  C   UNL A   1      38.624  29.979  29.718  1.00  0.00     0.029 A 
ATOM     48  C   UNL A   1      39.352  31.191  30.049  1.00  0.00     0.049 A 
ATOM     49  H   UNL A   1      41.440  31.408  30.102  1.00  0.00     0.167 HD
ATOM     50  C   UNL A   1      45.394  32.416  28.752  1.00  0.00     0.034 A 
ATOM     51  C   UNL A   1      38.891  32.418  30.386  1.00  0.00     0.034 A 
ATOM     52  C   UNL A   1      45.522  32.345  30.176  1.00  0.00     0.049 A 
ATOM     53  C   UNL A   1      40.033  33.181  30.947  1.00  0.00     0.074 A 
ATOM     54  C   UNL A   1      46.056  31.443  31.072  1.00  0.00     0.029 A 
ATOM     55  N   UNL A   1      44.753  33.211  30.912  1.00  0.00    -0.354 N 
ATOM     56  N   UNL A   1      40.614  32.924  32.086  1.00  0.00    -0.248 NA
ATOM     57  C   UNL A   1      40.752  34.097  30.074  1.00  0.00     0.031 C 
ATOM     58  C   UNL A   1      45.270  31.570  32.253  1.00  0.00     0.029 A 
ATOM     59  C   UNL A   1      44.284  32.528  32.002  1.00  0.00     0.049 A 
ATOM     60  H   UNL A   1      44.571  34.155  30.695  1.00  0.00     0.167 HD
ATOM     61  C   UNL A   1      41.932  33.323  31.910  1.00  0.00     0.074 A 
ATOM     62  C   UNL A   1      41.915  34.166  30.722  1.00  0.00     0.031 C 
ATOM     63  C   UNL A   1      42.958  32.701  32.563  1.00  0.00     0.034 A 
BRANCH  50  64
ATOM     64  C   UNL A   1      45.651  33.675  27.986  1.00  0.00     0.023 A 
ATOM     65  C   UNL A   1      44.592  34.568  27.755  1.00  0.00     0.012 A 
ATOM     66  C   UNL A   1      46.872  33.911  27.321  1.00  0.00     0.148 A 
ATOM     67  C   UNL A   1      44.765  35.681  26.925  1.00  0.00     0.002 A 
ATOM     68  C   UNL A   1      47.068  35.066  26.582  1.00  0.00     0.091 A 
ATOM     69  F   UNL A   1      47.824  32.965  27.320  1.00  0.00    -0.205 F 
ATOM     70  C   UNL A   1      46.011  35.949  26.362  1.00  0.00     0.022 A 
BRANCH  68  71
ATOM     71  S   UNL A   1      48.711  35.461  25.983  1.00  0.00     0.127 S 
ATOM     72  O   UNL A   1      48.936  34.405  25.001  1.00  0.00    -0.237 OA
ATOM     73  O   UNL A   1      48.532  36.801  25.424  1.00  0.00    -0.237 OA
ATOM     74  O   UNL A   1      49.535  35.428  27.187  1.00  0.00    -0.744 OA
ENDBRANCH  68  71
ENDBRANCH  50  64
BRANCH  51  75
ATOM     75  C   UNL A   1      37.588  33.059  30.076  1.00  0.00     0.023 A 
ATOM     76  C   UNL A   1      37.131  33.058  28.742  1.00  0.00     0.012 A 
ATOM     77  C   UNL A   1      36.674  33.458  31.079  1.00  0.00     0.148 A 
ATOM     78  C   UNL A   1      35.812  33.403  28.422  1.00  0.00     0.002 A 
ATOM     79  C   UNL A   1      35.372  33.836  30.752  1.00  0.00     0.091 A 
ATOM     80  F   UNL A   1      37.030  33.381  32.368  1.00  0.00    -0.205 F 
ATOM     81  C   UNL A   1      34.932  33.791  29.427  1.00  0.00     0.022 A 
BRANCH  79  82
ATOM     82  S   UNL A   1      34.225  34.389  32.023  1.00  0.00     0.127 S 
ATOM     83  O   UNL A   1      35.015  35.380  32.758  1.00  0.00    -0.237 OA
ATOM     84  O   UNL A   1      33.130  34.947  31.236  1.00  0.00    -0.237 OA
ATOM     85  O   UNL A   1      33.920  33.190  32.795  1.00  0.00    -0.744 OA
ENDBRANCH  79  82
ENDBRANCH  51  75
BRANCH  63  86
ATOM     86  C   UNL A   1      42.635  31.838  33.756  1.00  0.00     0.023 A 
ATOM     87  C   UNL A   1      42.388  32.404  35.024  1.00  0.00     0.012 A 
ATOM     88  C   UNL A   1      42.364  30.472  33.552  1.00  0.00     0.148 A 
ATOM     89  C   UNL A   1      41.896  31.621  36.070  1.00  0.00     0.002 A 
ATOM     90  C   UNL A   1      41.836  29.706  34.586  1.00  0.00     0.091 A 
ATOM     91  F   UNL A   1      42.588  29.956  32.334  1.00  0.00    -0.205 F 
ATOM     92  C   UNL A   1      41.607  30.277  35.848  1.00  0.00     0.022 A 
BRANCH  90  93
ATOM     93  S   UNL A   1      41.316  28.003  34.344  1.00  0.00     0.127 S 
ATOM     94  O   UNL A   1      41.125  27.543  35.718  1.00  0.00    -0.237 OA
ATOM     95  O   UNL A   1      40.079  28.160  33.576  1.00  0.00    -0.237 OA
ATOM     96  O   UNL A   1      42.394  27.349  33.613  1.00  0.00    -0.744 OA
ENDBRANCH  90  93
ENDBRANCH  63  86
ENDBRANCH  37  38
ENDBRANCH  30  32
ENDBRANCH  29  30
ENDBRANCH  28  29
ENDBRANCH  27  28
ENDBRANCH  26  27
ENDBRANCH  25  26
ENDBRANCH  24  25
ENDBRANCH  23  24
ENDBRANCH   1  23
TORSDOF 27
ENDMDL
