MODEL 1
REMARK VINA RESULT:      -7.5      0.000      0.000
REMARK SMILES NS(=O)(=O)c1ccc(/N=N/c2ccc(O)c(C(=O)OCCOCCOCCOCCOC(=O)c3ccc(-c4c5nc(c(-c6cccc(S(=O)(=O)[O-])c6F)c6ccc([nH]6)c(-c6cccc(S(=O)(=O)[O-])c6F)c6nc(c(-c7cccc(S(=O)(=O)[O-])c7F)c7ccc4[nH]7)C=C6)C=C5)cc3)c2)cc1
REMARK SMILES IDX 24 1 23 2 22 3 21 4 20 5 19 6 17 7 18 8 16 9 11 10 12 11
REMARK SMILES IDX 97 12 13 13 14 14 10 15 9 16 8 17 5 18 6 19 99 20 7 21 98 22
REMARK SMILES IDX 2 23 3 24 4 25 1 26 15 29 25 31 26 32 27 33 28 34 29 35
REMARK SMILES IDX 30 36 31 37 32 38 33 39 34 40 35 41 96 42 36 43 95 44 37 45
REMARK SMILES IDX 38 46 39 47 89 48 40 49 94 50 88 51 90 52 41 53 93 54 87 55
REMARK SMILES IDX 86 56 42 58 74 59 54 60 73 61 55 62 58 63 72 64 91 65 56 66
REMARK SMILES IDX 57 67 71 69 92 70 59 71 43 72 44 73 52 74 45 75 47 76 53 77
REMARK SMILES IDX 46 78 48 79 49 80 50 81 51 82 75 83 76 84 84 85 77 86 79 87
REMARK SMILES IDX 85 88 78 89 80 90 81 91 82 92 83 93 60 94 61 95 69 96 62 97
REMARK SMILES IDX 64 98 70 99 63 100 65 101 66 102 67 103 68 104
REMARK H PARENT 1 27 1 28 15 30 90 57 58 68
REMARK Flexibility Score: inf
ROOT
ATOM      1  C   UNL A   1      41.065  34.714  30.542  1.00  0.00     0.188 C 
ENDROOT
BRANCH   1   2
ATOM      2  C   UNL A   1      42.531  34.320  30.262  1.00  0.00     0.188 C 
BRANCH   2   3
ATOM      3  O   UNL A   1      42.682  33.165  29.459  1.00  0.00    -0.376 OA
BRANCH   3   4
ATOM      4  C   UNL A   1      42.913  31.910  30.065  1.00  0.00     0.202 C 
BRANCH   4   5
ATOM      5  C   UNL A   1      41.826  30.827  30.005  1.00  0.00     0.261 C 
BRANCH   5   6
ATOM      6  O   UNL A   1      42.247  29.514  29.621  1.00  0.00    -0.460 OA
BRANCH   6   7
ATOM      7  C   UNL A   1      42.036  29.137  28.344  1.00  0.00     0.342 C 
ATOM      8  O   UNL A   1      42.442  29.693  27.334  1.00  0.00    -0.246 OA
BRANCH   7   9
ATOM      9  C   UNL A   1      41.484  27.765  28.343  1.00  0.00     0.104 A 
ATOM     10  C   UNL A   1      41.707  25.396  27.826  1.00  0.00     0.087 A 
ATOM     11  C   UNL A   1      40.339  25.237  28.090  1.00  0.00     0.034 A 
ATOM     12  C   UNL A   1      42.270  26.674  27.945  1.00  0.00     0.049 A 
ATOM     13  C   UNL A   1      39.547  26.320  28.480  1.00  0.00     0.049 A 
ATOM     14  C   UNL A   1      40.121  27.579  28.616  1.00  0.00     0.130 A 
BRANCH  10  15
ATOM     15  N   UNL A   1      42.424  24.266  27.385  1.00  0.00    -0.151 NA
ATOM     16  N   UNL A   1      42.443  24.171  26.141  1.00  0.00    -0.151 NA
BRANCH  16  17
ATOM     17  C   UNL A   1      43.169  23.051  25.674  1.00  0.00     0.086 A 
ATOM     18  C   UNL A   1      44.463  20.716  24.784  1.00  0.00     0.082 A 
ATOM     19  C   UNL A   1      43.504  20.635  25.795  1.00  0.00     0.024 A 
ATOM     20  C   UNL A   1      44.800  21.950  24.226  1.00  0.00     0.024 A 
ATOM     21  C   UNL A   1      42.864  21.801  26.231  1.00  0.00     0.031 A 
ATOM     22  C   UNL A   1      44.151  23.107  24.668  1.00  0.00     0.031 A 
BRANCH  18  23
ATOM     23  S   UNL A   1      45.294  19.259  24.223  1.00  0.00     0.238 S 
ATOM     24  O   UNL A   1      44.702  18.112  24.888  1.00  0.00    -0.207 OA
ATOM     25  O   UNL A   1      46.710  19.507  24.253  1.00  0.00    -0.207 OA
BRANCH  23  26
ATOM     26  N   UNL A   1      44.838  19.140  22.626  1.00  0.00    -0.225 NA
ATOM     27  H   UNL A   1      44.010  19.714  22.466  1.00  0.00     0.137 HD
ATOM     28  H   UNL A   1      44.625  18.167  22.405  1.00  0.00     0.137 HD
ENDBRANCH  23  26
ENDBRANCH  18  23
ENDBRANCH  16  17
ENDBRANCH  10  15
BRANCH  14  29
ATOM     29  O   UNL A   1      39.276  28.601  28.956  1.00  0.00    -0.507 OA
ATOM     30  H   UNL A   1      38.349  28.462  28.958  1.00  0.00     0.293 HD
ENDBRANCH  14  29
ENDBRANCH   7   9
ENDBRANCH   6   7
ENDBRANCH   5   6
ENDBRANCH   4   5
ENDBRANCH   3   4
ENDBRANCH   2   3
ENDBRANCH   1   2
BRANCH   1  31
ATOM     31  O   UNL A   1      40.097  33.716  30.832  1.00  0.00    -0.377 OA
BRANCH  31  32
ATOM     32  C   UNL A   1      39.068  33.421  29.895  1.00  0.00     0.188 C 
BRANCH  32  33
ATOM     33  C   UNL A   1      38.381  32.034  29.889  1.00  0.00     0.188 C 
BRANCH  33  34
ATOM     34  O   UNL A   1      37.303  31.915  28.976  1.00  0.00    -0.376 OA
BRANCH  34  35
ATOM     35  C   UNL A   1      36.621  33.102  28.612  1.00  0.00     0.202 C 
BRANCH  35  36
ATOM     36  C   UNL A   1      35.349  33.466  29.392  1.00  0.00     0.261 C 
BRANCH  36  37
ATOM     37  O   UNL A   1      35.532  33.949  30.730  1.00  0.00    -0.460 OA
BRANCH  37  38
ATOM     38  C   UNL A   1      35.110  33.167  31.748  1.00  0.00     0.338 C 
ATOM     39  O   UNL A   1      34.055  32.565  31.825  1.00  0.00    -0.246 OA
BRANCH  38  40
ATOM     40  C   UNL A   1      36.255  33.009  32.673  1.00  0.00     0.060 A 
ATOM     41  C   UNL A   1      36.526  31.748  33.224  1.00  0.00     0.016 A 
ATOM     42  C   UNL A   1      37.086  34.095  32.950  1.00  0.00     0.016 A 
ATOM     43  C   UNL A   1      37.626  31.577  34.066  1.00  0.00     0.010 A 
ATOM     44  C   UNL A   1      38.171  33.928  33.813  1.00  0.00     0.010 A 
ATOM     45  C   UNL A   1      38.432  32.673  34.394  1.00  0.00    -0.014 A 
BRANCH  45  46
ATOM     46  C   UNL A   1      39.442  32.562  35.475  1.00  0.00     0.031 A 
ATOM     47  C   UNL A   1      40.806  32.038  35.121  1.00  0.00     0.074 A 
ATOM     48  C   UNL A   1      39.150  32.890  36.745  1.00  0.00     0.049 A 
ATOM     49  N   UNL A   1      41.822  31.779  35.900  1.00  0.00    -0.248 NA
ATOM     50  C   UNL A   1      41.052  31.764  33.695  1.00  0.00     0.031 C 
ATOM     51  C   UNL A   1      37.869  33.417  37.212  1.00  0.00     0.029 A 
ATOM     52  N   UNL A   1      39.911  32.793  37.885  1.00  0.00    -0.354 N 
ATOM     53  C   UNL A   1      42.817  31.280  35.068  1.00  0.00     0.074 A 
ATOM     54  C   UNL A   1      42.279  31.266  33.725  1.00  0.00     0.031 C 
ATOM     55  C   UNL A   1      37.919  33.562  38.547  1.00  0.00     0.029 A 
ATOM     56  C   UNL A   1      39.222  33.107  39.033  1.00  0.00     0.049 A 
ATOM     57  H   UNL A   1      40.858  32.524  37.880  1.00  0.00     0.167 HD
ATOM     58  C   UNL A   1      44.067  30.875  35.390  1.00  0.00     0.034 A 
ATOM     59  C   UNL A   1      39.589  33.005  40.327  1.00  0.00     0.034 A 
ATOM     60  C   UNL A   1      44.600  30.894  36.725  1.00  0.00     0.049 A 
ATOM     61  C   UNL A   1      40.976  32.516  40.663  1.00  0.00     0.074 A 
ATOM     62  C   UNL A   1      45.871  30.548  37.146  1.00  0.00     0.029 A 
ATOM     63  N   UNL A   1      43.887  31.255  37.857  1.00  0.00    -0.354 N 
ATOM     64  N   UNL A   1      41.946  32.155  39.858  1.00  0.00    -0.248 NA
ATOM     65  C   UNL A   1      41.330  32.447  42.090  1.00  0.00     0.031 C 
ATOM     66  C   UNL A   1      45.914  30.659  38.538  1.00  0.00     0.029 A 
ATOM     67  C   UNL A   1      44.685  31.122  38.980  1.00  0.00     0.049 A 
ATOM     68  H   UNL A   1      42.953  31.563  37.861  1.00  0.00     0.167 HD
ATOM     69  C   UNL A   1      43.032  31.852  40.675  1.00  0.00     0.074 A 
ATOM     70  C   UNL A   1      42.607  32.093  42.037  1.00  0.00     0.031 C 
ATOM     71  C   UNL A   1      44.266  31.407  40.328  1.00  0.00     0.034 A 
BRANCH  58  72
ATOM     72  C   UNL A   1      44.948  30.375  34.276  1.00  0.00     0.023 A 
ATOM     73  C   UNL A   1      45.824  31.263  33.619  1.00  0.00     0.012 A 
ATOM     74  C   UNL A   1      44.941  29.015  33.913  1.00  0.00     0.148 A 
ATOM     75  C   UNL A   1      46.656  30.811  32.595  1.00  0.00     0.002 A 
ATOM     76  C   UNL A   1      45.807  28.562  32.926  1.00  0.00     0.091 A 
ATOM     77  F   UNL A   1      44.083  28.193  34.533  1.00  0.00    -0.205 F 
ATOM     78  C   UNL A   1      46.655  29.461  32.258  1.00  0.00     0.022 A 
BRANCH  76  79
ATOM     79  S   UNL A   1      45.942  26.830  32.475  1.00  0.00     0.127 S 
ATOM     80  O   UNL A   1      45.335  26.823  31.144  1.00  0.00    -0.237 OA
ATOM     81  O   UNL A   1      47.390  26.622  32.486  1.00  0.00    -0.237 OA
ATOM     82  O   UNL A   1      45.212  26.090  33.495  1.00  0.00    -0.744 OA
ENDBRANCH  76  79
ENDBRANCH  58  72
BRANCH  59  83
ATOM     83  C   UNL A   1      38.634  33.382  41.409  1.00  0.00     0.023 A 
ATOM     84  C   UNL A   1      38.721  34.656  42.004  1.00  0.00     0.012 A 
ATOM     85  C   UNL A   1      37.641  32.486  41.850  1.00  0.00     0.148 A 
ATOM     86  C   UNL A   1      37.862  35.016  43.043  1.00  0.00     0.002 A 
ATOM     87  C   UNL A   1      36.750  32.871  42.845  1.00  0.00     0.091 A 
ATOM     88  F   UNL A   1      37.583  31.272  41.283  1.00  0.00    -0.205 F 
ATOM     89  C   UNL A   1      36.871  34.129  43.456  1.00  0.00     0.022 A 
BRANCH  87  90
ATOM     90  S   UNL A   1      35.368  31.843  43.357  1.00  0.00     0.127 S 
ATOM     91  O   UNL A   1      34.809  31.428  42.074  1.00  0.00    -0.237 OA
ATOM     92  O   UNL A   1      36.043  30.784  44.109  1.00  0.00    -0.237 OA
ATOM     93  O   UNL A   1      34.508  32.697  44.166  1.00  0.00    -0.744 OA
ENDBRANCH  87  90
ENDBRANCH  59  83
BRANCH  71  94
ATOM     94  C   UNL A   1      45.272  31.189  41.432  1.00  0.00     0.023 A 
ATOM     95  C   UNL A   1      46.213  32.190  41.740  1.00  0.00     0.012 A 
ATOM     96  C   UNL A   1      45.228  30.017  42.217  1.00  0.00     0.148 A 
ATOM     97  C   UNL A   1      47.120  32.013  42.785  1.00  0.00     0.002 A 
ATOM     98  C   UNL A   1      46.098  29.872  43.290  1.00  0.00     0.091 A 
ATOM     99  F   UNL A   1      44.333  29.069  41.901  1.00  0.00    -0.205 F 
ATOM    100  C   UNL A   1      47.055  30.862  43.567  1.00  0.00     0.022 A 
BRANCH  98 101
ATOM    101  S   UNL A   1      46.022  28.471  44.412  1.00  0.00     0.127 S 
ATOM    102  O   UNL A   1      47.129  27.646  43.932  1.00  0.00    -0.237 OA
ATOM    103  O   UNL A   1      46.252  29.103  45.712  1.00  0.00    -0.237 OA
ATOM    104  O   UNL A   1      44.696  27.892  44.246  1.00  0.00    -0.744 OA
ENDBRANCH  98 101
ENDBRANCH  71  94
ENDBRANCH  45  46
ENDBRANCH  38  40
ENDBRANCH  37  38
ENDBRANCH  36  37
ENDBRANCH  35  36
ENDBRANCH  34  35
ENDBRANCH  33  34
ENDBRANCH  32  33
ENDBRANCH  31  32
ENDBRANCH   1  31
TORSDOF 28
ENDMDL
MODEL 2
REMARK VINA RESULT:      -7.0      4.899      9.186
REMARK SMILES NS(=O)(=O)c1ccc(/N=N/c2ccc(O)c(C(=O)OCCOCCOCCOCCOC(=O)c3ccc(-c4c5nc(c(-c6cccc(S(=O)(=O)[O-])c6F)c6ccc([nH]6)c(-c6cccc(S(=O)(=O)[O-])c6F)c6nc(c(-c7cccc(S(=O)(=O)[O-])c7F)c7ccc4[nH]7)C=C6)C=C5)cc3)c2)cc1
REMARK SMILES IDX 24 1 23 2 22 3 21 4 20 5 19 6 17 7 18 8 16 9 11 10 12 11
REMARK SMILES IDX 97 12 13 13 14 14 10 15 9 16 8 17 5 18 6 19 99 20 7 21 98 22
REMARK SMILES IDX 2 23 3 24 4 25 1 26 15 29 25 31 26 32 27 33 28 34 29 35
REMARK SMILES IDX 30 36 31 37 32 38 33 39 34 40 35 41 96 42 36 43 95 44 37 45
REMARK SMILES IDX 38 46 39 47 89 48 40 49 94 50 88 51 90 52 41 53 93 54 87 55
REMARK SMILES IDX 86 56 42 58 74 59 54 60 73 61 55 62 58 63 72 64 91 65 56 66
REMARK SMILES IDX 57 67 71 69 92 70 59 71 43 72 44 73 52 74 45 75 47 76 53 77
REMARK SMILES IDX 46 78 48 79 49 80 50 81 51 82 75 83 76 84 84 85 77 86 79 87
REMARK SMILES IDX 85 88 78 89 80 90 81 91 82 92 83 93 60 94 61 95 69 96 62 97
REMARK SMILES IDX 64 98 70 99 63 100 65 101 66 102 67 103 68 104
REMARK H PARENT 1 27 1 28 15 30 90 57 58 68
REMARK Flexibility Score: inf
ROOT
ATOM      1  C   UNL A   1      44.782  35.247  26.783  1.00  0.00     0.188 C 
ENDROOT
BRANCH   1   2
ATOM      2  C   UNL A   1      44.331  34.013  27.595  1.00  0.00     0.188 C 
BRANCH   2   3
ATOM      3  O   UNL A   1      44.591  32.773  26.966  1.00  0.00    -0.376 OA
BRANCH   3   4
ATOM      4  C   UNL A   1      43.856  31.626  27.340  1.00  0.00     0.202 C 
BRANCH   4   5
ATOM      5  C   UNL A   1      44.598  30.382  27.852  1.00  0.00     0.261 C 
BRANCH   5   6
ATOM      6  O   UNL A   1      43.804  29.220  28.109  1.00  0.00    -0.460 OA
BRANCH   6   7
ATOM      7  C   UNL A   1      42.926  29.274  29.131  1.00  0.00     0.342 C 
ATOM      8  O   UNL A   1      43.079  29.838  30.205  1.00  0.00    -0.246 OA
BRANCH   7   9
ATOM      9  C   UNL A   1      41.612  28.798  28.649  1.00  0.00     0.104 A 
ATOM     10  C   UNL A   1      39.229  29.161  28.301  1.00  0.00     0.087 A 
ATOM     11  C   UNL A   1      39.093  27.798  27.998  1.00  0.00     0.034 A 
ATOM     12  C   UNL A   1      40.499  29.650  28.639  1.00  0.00     0.049 A 
ATOM     13  C   UNL A   1      40.196  26.941  28.013  1.00  0.00     0.049 A 
ATOM     14  C   UNL A   1      41.454  27.442  28.329  1.00  0.00     0.130 A 
BRANCH  10  15
ATOM     15  N   UNL A   1      38.060  29.947  28.317  1.00  0.00    -0.151 NA
ATOM     16  N   UNL A   1      38.206  31.003  28.965  1.00  0.00    -0.151 NA
BRANCH  16  17
ATOM     17  C   UNL A   1      37.050  31.816  28.984  1.00  0.00     0.086 A 
ATOM     18  C   UNL A   1      34.837  33.552  28.901  1.00  0.00     0.082 A 
ATOM     19  C   UNL A   1      36.124  34.060  28.721  1.00  0.00     0.024 A 
ATOM     20  C   UNL A   1      34.641  32.191  29.144  1.00  0.00     0.024 A 
ATOM     21  C   UNL A   1      37.219  33.191  28.763  1.00  0.00     0.031 A 
ATOM     22  C   UNL A   1      35.743  31.332  29.180  1.00  0.00     0.031 A 
BRANCH  18  23
ATOM     23  S   UNL A   1      33.436  34.632  28.864  1.00  0.00     0.238 S 
ATOM     24  O   UNL A   1      33.014  34.877  30.232  1.00  0.00    -0.207 OA
ATOM     25  O   UNL A   1      32.522  34.152  27.862  1.00  0.00    -0.207 OA
BRANCH  23  26
ATOM     26  N   UNL A   1      34.068  36.074  28.321  1.00  0.00    -0.225 NA
ATOM     27  H   UNL A   1      33.464  36.457  27.595  1.00  0.00     0.137 HD
ATOM     28  H   UNL A   1      35.000  35.913  27.939  1.00  0.00     0.137 HD
ENDBRANCH  23  26
ENDBRANCH  18  23
ENDBRANCH  16  17
ENDBRANCH  10  15
BRANCH  14  29
ATOM     29  O   UNL A   1      42.479  26.536  28.369  1.00  0.00    -0.507 OA
ATOM     30  H   UNL A   1      43.292  26.765  28.777  1.00  0.00     0.293 HD
ENDBRANCH  14  29
ENDBRANCH   7   9
ENDBRANCH   6   7
ENDBRANCH   5   6
ENDBRANCH   4   5
ENDBRANCH   3   4
ENDBRANCH   2   3
ENDBRANCH   1   2
BRANCH   1  31
ATOM     31  O   UNL A   1      46.088  35.302  26.230  1.00  0.00    -0.377 OA
BRANCH  31  32
ATOM     32  C   UNL A   1      47.219  35.478  27.075  1.00  0.00     0.188 C 
BRANCH  32  33
ATOM     33  C   UNL A   1      47.131  36.370  28.335  1.00  0.00     0.188 C 
BRANCH  33  34
ATOM     34  O   UNL A   1      47.698  37.661  28.185  1.00  0.00    -0.376 OA
BRANCH  34  35
ATOM     35  C   UNL A   1      48.321  38.237  29.319  1.00  0.00     0.202 C 
BRANCH  35  36
ATOM     36  C   UNL A   1      47.883  37.743  30.705  1.00  0.00     0.261 C 
BRANCH  36  37
ATOM     37  O   UNL A   1      47.028  38.615  31.458  1.00  0.00    -0.460 OA
BRANCH  37  38
ATOM     38  C   UNL A   1      45.739  38.730  31.066  1.00  0.00     0.338 C 
ATOM     39  O   UNL A   1      45.330  39.127  29.991  1.00  0.00    -0.246 OA
BRANCH  38  40
ATOM     40  C   UNL A   1      44.912  38.089  32.112  1.00  0.00     0.060 A 
ATOM     41  C   UNL A   1      43.882  38.822  32.722  1.00  0.00     0.016 A 
ATOM     42  C   UNL A   1      45.123  36.751  32.450  1.00  0.00     0.016 A 
ATOM     43  C   UNL A   1      43.069  38.217  33.681  1.00  0.00     0.010 A 
ATOM     44  C   UNL A   1      44.325  36.156  33.429  1.00  0.00     0.010 A 
ATOM     45  C   UNL A   1      43.310  36.892  34.066  1.00  0.00    -0.014 A 
BRANCH  45  46
ATOM     46  C   UNL A   1      42.625  36.323  35.252  1.00  0.00     0.031 A 
ATOM     47  C   UNL A   1      41.434  35.434  35.025  1.00  0.00     0.074 A 
ATOM     48  C   UNL A   1      43.030  36.608  36.502  1.00  0.00     0.049 A 
ATOM     49  N   UNL A   1      40.631  34.886  35.898  1.00  0.00    -0.248 NA
ATOM     50  C   UNL A   1      41.102  35.129  33.624  1.00  0.00     0.031 C 
ATOM     51  C   UNL A   1      44.175  37.447  36.851  1.00  0.00     0.029 A 
ATOM     52  N   UNL A   1      42.496  36.244  37.714  1.00  0.00    -0.354 N 
ATOM     53  C   UNL A   1      39.678  34.200  35.154  1.00  0.00     0.074 A 
ATOM     54  C   UNL A   1      40.000  34.406  33.759  1.00  0.00     0.031 C 
ATOM     55  C   UNL A   1      44.235  37.565  38.189  1.00  0.00     0.029 A 
ATOM     56  C   UNL A   1      43.116  36.839  38.788  1.00  0.00     0.049 A 
ATOM     57  H   UNL A   1      41.741  35.618  37.805  1.00  0.00     0.167 HD
ATOM     58  C   UNL A   1      38.633  33.460  35.591  1.00  0.00     0.034 A 
ATOM     59  C   UNL A   1      42.795  36.827  40.098  1.00  0.00     0.034 A 
ATOM     60  C   UNL A   1      38.318  33.253  36.978  1.00  0.00     0.049 A 
ATOM     61  C   UNL A   1      41.602  36.023  40.557  1.00  0.00     0.074 A 
ATOM     62  C   UNL A   1      37.308  32.480  37.522  1.00  0.00     0.029 A 
ATOM     63  N   UNL A   1      38.991  33.838  38.038  1.00  0.00    -0.354 N 
ATOM     64  N   UNL A   1      40.778  35.286  39.853  1.00  0.00    -0.248 NA
ATOM     65  C   UNL A   1      41.313  36.027  42.000  1.00  0.00     0.031 C 
ATOM     66  C   UNL A   1      37.343  32.633  38.911  1.00  0.00     0.029 A 
ATOM     67  C   UNL A   1      38.405  33.461  39.235  1.00  0.00     0.049 A 
ATOM     68  H   UNL A   1      39.770  34.432  37.954  1.00  0.00     0.167 HD
ATOM     69  C   UNL A   1      39.899  34.712  40.766  1.00  0.00     0.074 A 
ATOM     70  C   UNL A   1      40.304  35.170  42.078  1.00  0.00     0.031 C 
ATOM     71  C   UNL A   1      38.845  33.887  40.539  1.00  0.00     0.034 A 
BRANCH  58  72
ATOM     72  C   UNL A   1      37.752  32.816  34.553  1.00  0.00     0.023 A 
ATOM     73  C   UNL A   1      36.665  33.530  34.012  1.00  0.00     0.012 A 
ATOM     74  C   UNL A   1      38.032  31.520  34.081  1.00  0.00     0.148 A 
ATOM     75  C   UNL A   1      35.849  32.952  33.040  1.00  0.00     0.002 A 
ATOM     76  C   UNL A   1      37.246  30.968  33.078  1.00  0.00     0.091 A 
ATOM     77  F   UNL A   1      39.056  30.848  34.627  1.00  0.00    -0.205 F 
ATOM     78  C   UNL A   1      36.147  31.677  32.566  1.00  0.00     0.022 A 
BRANCH  76  79
ATOM     79  S   UNL A   1      37.595  29.368  32.342  1.00  0.00     0.127 S 
ATOM     80  O   UNL A   1      38.977  29.544  31.895  1.00  0.00    -0.237 OA
ATOM     81  O   UNL A   1      37.434  28.465  33.481  1.00  0.00    -0.237 OA
ATOM     82  O   UNL A   1      36.616  29.190  31.280  1.00  0.00    -0.744 OA
ENDBRANCH  76  79
ENDBRANCH  58  72
BRANCH  59  83
ATOM     83  C   UNL A   1      43.617  37.592  41.078  1.00  0.00     0.023 A 
ATOM     84  C   UNL A   1      43.297  38.934  41.361  1.00  0.00     0.012 A 
ATOM     85  C   UNL A   1      44.714  36.997  41.731  1.00  0.00     0.148 A 
ATOM     86  C   UNL A   1      44.075  39.680  42.247  1.00  0.00     0.002 A 
ATOM     87  C   UNL A   1      45.450  37.726  42.657  1.00  0.00     0.091 A 
ATOM     88  F   UNL A   1      45.014  35.723  41.438  1.00  0.00    -0.205 F 
ATOM     89  C   UNL A   1      45.145  39.074  42.903  1.00  0.00     0.022 A 
BRANCH  87  90
ATOM     90  S   UNL A   1      46.768  36.997  43.638  1.00  0.00     0.127 S 
ATOM     91  O   UNL A   1      47.898  37.054  42.716  1.00  0.00    -0.237 OA
ATOM     92  O   UNL A   1      46.847  37.920  44.770  1.00  0.00    -0.237 OA
ATOM     93  O   UNL A   1      46.315  35.657  43.988  1.00  0.00    -0.744 OA
ENDBRANCH  87  90
ENDBRANCH  59  83
BRANCH  71  94
ATOM     94  C   UNL A   1      38.073  33.384  41.734  1.00  0.00     0.023 A 
ATOM     95  C   UNL A   1      36.892  34.036  42.139  1.00  0.00     0.012 A 
ATOM     96  C   UNL A   1      38.481  32.213  42.406  1.00  0.00     0.148 A 
ATOM     97  C   UNL A   1      36.150  33.553  43.217  1.00  0.00     0.002 A 
ATOM     98  C   UNL A   1      37.708  31.708  43.444  1.00  0.00     0.091 A 
ATOM     99  F   UNL A   1      39.616  31.614  42.015  1.00  0.00    -0.205 F 
ATOM    100  C   UNL A   1      36.550  32.384  43.861  1.00  0.00     0.022 A 
BRANCH  98 101
ATOM    101  S   UNL A   1      38.090  30.157  44.266  1.00  0.00     0.127 S 
ATOM    102  O   UNL A   1      37.996  29.204  43.162  1.00  0.00    -0.237 OA
ATOM    103  O   UNL A   1      39.450  30.393  44.754  1.00  0.00    -0.237 OA
ATOM    104  O   UNL A   1      37.091  29.998  45.313  1.00  0.00    -0.744 OA
ENDBRANCH  98 101
ENDBRANCH  71  94
ENDBRANCH  45  46
ENDBRANCH  38  40
ENDBRANCH  37  38
ENDBRANCH  36  37
ENDBRANCH  35  36
ENDBRANCH  34  35
ENDBRANCH  33  34
ENDBRANCH  32  33
ENDBRANCH  31  32
ENDBRANCH   1  31
TORSDOF 28
ENDMDL
MODEL 3
REMARK VINA RESULT:      -7.0      7.593     12.389
REMARK SMILES NS(=O)(=O)c1ccc(/N=N/c2ccc(O)c(C(=O)OCCOCCOCCOCCOC(=O)c3ccc(-c4c5nc(c(-c6cccc(S(=O)(=O)[O-])c6F)c6ccc([nH]6)c(-c6cccc(S(=O)(=O)[O-])c6F)c6nc(c(-c7cccc(S(=O)(=O)[O-])c7F)c7ccc4[nH]7)C=C6)C=C5)cc3)c2)cc1
REMARK SMILES IDX 24 1 23 2 22 3 21 4 20 5 19 6 17 7 18 8 16 9 11 10 12 11
REMARK SMILES IDX 97 12 13 13 14 14 10 15 9 16 8 17 5 18 6 19 99 20 7 21 98 22
REMARK SMILES IDX 2 23 3 24 4 25 1 26 15 29 25 31 26 32 27 33 28 34 29 35
REMARK SMILES IDX 30 36 31 37 32 38 33 39 34 40 35 41 96 42 36 43 95 44 37 45
REMARK SMILES IDX 38 46 39 47 89 48 40 49 94 50 88 51 90 52 41 53 93 54 87 55
REMARK SMILES IDX 86 56 42 58 74 59 54 60 73 61 55 62 58 63 72 64 91 65 56 66
REMARK SMILES IDX 57 67 71 69 92 70 59 71 43 72 44 73 52 74 45 75 47 76 53 77
REMARK SMILES IDX 46 78 48 79 49 80 50 81 51 82 75 83 76 84 84 85 77 86 79 87
REMARK SMILES IDX 85 88 78 89 80 90 81 91 82 92 83 93 60 94 61 95 69 96 62 97
REMARK SMILES IDX 64 98 70 99 63 100 65 101 66 102 67 103 68 104
REMARK H PARENT 1 27 1 28 15 30 90 57 58 68
REMARK Flexibility Score: inf
ROOT
ATOM      1  C   UNL A   1      46.501  36.775  31.590  1.00  0.00     0.188 C 
ENDROOT
BRANCH   1   2
ATOM      2  C   UNL A   1      45.751  37.799  32.468  1.00  0.00     0.188 C 
BRANCH   2   3
ATOM      3  O   UNL A   1      44.680  38.455  31.816  1.00  0.00    -0.376 OA
BRANCH   3   4
ATOM      4  C   UNL A   1      44.894  39.087  30.571  1.00  0.00     0.202 C 
BRANCH   4   5
ATOM      5  C   UNL A   1      43.698  39.386  29.656  1.00  0.00     0.261 C 
BRANCH   5   6
ATOM      6  O   UNL A   1      43.940  40.256  28.546  1.00  0.00    -0.460 OA
BRANCH   6   7
ATOM      7  C   UNL A   1      43.715  39.772  27.309  1.00  0.00     0.342 C 
ATOM      8  O   UNL A   1      42.680  39.274  26.889  1.00  0.00    -0.246 OA
BRANCH   7   9
ATOM      9  C   UNL A   1      44.819  40.205  26.425  1.00  0.00     0.104 A 
ATOM     10  C   UNL A   1      45.656  41.609  24.620  1.00  0.00     0.087 A 
ATOM     11  C   UNL A   1      46.816  40.822  24.582  1.00  0.00     0.034 A 
ATOM     12  C   UNL A   1      44.653  41.283  25.543  1.00  0.00     0.049 A 
ATOM     13  C   UNL A   1      46.986  39.742  25.452  1.00  0.00     0.049 A 
ATOM     14  C   UNL A   1      45.993  39.441  26.378  1.00  0.00     0.130 A 
BRANCH  10  15
ATOM     15  N   UNL A   1      45.537  42.646  23.673  1.00  0.00    -0.151 NA
ATOM     16  N   UNL A   1      45.319  42.216  22.522  1.00  0.00    -0.151 NA
BRANCH  16  17
ATOM     17  C   UNL A   1      45.182  43.240  21.557  1.00  0.00     0.086 A 
ATOM     18  C   UNL A   1      44.727  45.226  19.616  1.00  0.00     0.082 A 
ATOM     19  C   UNL A   1      43.986  44.044  19.585  1.00  0.00     0.024 A 
ATOM     20  C   UNL A   1      45.708  45.421  20.590  1.00  0.00     0.024 A 
ATOM     21  C   UNL A   1      44.218  43.061  20.554  1.00  0.00     0.031 A 
ATOM     22  C   UNL A   1      45.927  44.433  21.556  1.00  0.00     0.031 A 
BRANCH  18  23
ATOM     23  S   UNL A   1      44.463  46.479  18.396  1.00  0.00     0.238 S 
ATOM     24  O   UNL A   1      43.078  46.410  17.965  1.00  0.00    -0.207 OA
ATOM     25  O   UNL A   1      45.553  46.435  17.458  1.00  0.00    -0.207 OA
BRANCH  23  26
ATOM     26  N   UNL A   1      44.597  47.898  19.257  1.00  0.00    -0.225 NA
ATOM     27  H   UNL A   1      45.580  48.163  19.324  1.00  0.00     0.137 HD
ATOM     28  H   UNL A   1      44.217  47.763  20.194  1.00  0.00     0.137 HD
ENDBRANCH  23  26
ENDBRANCH  18  23
ENDBRANCH  16  17
ENDBRANCH  10  15
BRANCH  14  29
ATOM     29  O   UNL A   1      46.207  38.342  27.166  1.00  0.00    -0.507 OA
ATOM     30  H   UNL A   1      46.788  37.665  26.878  1.00  0.00     0.293 HD
ENDBRANCH  14  29
ENDBRANCH   7   9
ENDBRANCH   6   7
ENDBRANCH   5   6
ENDBRANCH   4   5
ENDBRANCH   3   4
ENDBRANCH   2   3
ENDBRANCH   1   2
BRANCH   1  31
ATOM     31  O   UNL A   1      47.786  36.308  31.973  1.00  0.00    -0.377 OA
BRANCH  31  32
ATOM     32  C   UNL A   1      48.939  36.685  31.229  1.00  0.00     0.188 C 
BRANCH  32  33
ATOM     33  C   UNL A   1      49.937  35.616  30.725  1.00  0.00     0.188 C 
BRANCH  33  34
ATOM     34  O   UNL A   1      49.679  35.140  29.415  1.00  0.00    -0.376 OA
BRANCH  34  35
ATOM     35  C   UNL A   1      48.562  35.680  28.732  1.00  0.00     0.202 C 
BRANCH  35  36
ATOM     36  C   UNL A   1      47.773  34.748  27.800  1.00  0.00     0.261 C 
BRANCH  36  37
ATOM     37  O   UNL A   1      46.782  35.363  26.965  1.00  0.00    -0.460 OA
BRANCH  37  38
ATOM     38  C   UNL A   1      45.750  34.599  26.541  1.00  0.00     0.338 C 
ATOM     39  O   UNL A   1      45.676  33.976  25.498  1.00  0.00    -0.246 OA
BRANCH  38  40
ATOM     40  C   UNL A   1      44.801  34.492  27.671  1.00  0.00     0.060 A 
ATOM     41  C   UNL A   1      44.336  35.660  28.294  1.00  0.00     0.016 A 
ATOM     42  C   UNL A   1      44.334  33.241  28.076  1.00  0.00     0.016 A 
ATOM     43  C   UNL A   1      43.410  35.574  29.334  1.00  0.00     0.010 A 
ATOM     44  C   UNL A   1      43.427  33.155  29.134  1.00  0.00     0.010 A 
ATOM     45  C   UNL A   1      42.978  34.320  29.784  1.00  0.00    -0.014 A 
BRANCH  45  46
ATOM     46  C   UNL A   1      42.199  34.204  31.040  1.00  0.00     0.031 A 
ATOM     47  C   UNL A   1      42.948  33.957  32.320  1.00  0.00     0.074 A 
ATOM     48  C   UNL A   1      40.857  34.287  31.045  1.00  0.00     0.049 A 
ATOM     49  N   UNL A   1      42.485  33.744  33.523  1.00  0.00    -0.248 NA
ATOM     50  C   UNL A   1      44.417  33.942  32.227  1.00  0.00     0.031 C 
ATOM     51  C   UNL A   1      40.019  34.534  29.873  1.00  0.00     0.029 A 
ATOM     52  N   UNL A   1      39.961  34.139  32.076  1.00  0.00    -0.354 N 
ATOM     53  C   UNL A   1      43.602  33.536  34.324  1.00  0.00     0.074 A 
ATOM     54  C   UNL A   1      44.763  33.641  33.469  1.00  0.00     0.031 C 
ATOM     55  C   UNL A   1      38.728  34.481  30.243  1.00  0.00     0.029 A 
ATOM     56  C   UNL A   1      38.647  34.166  31.669  1.00  0.00     0.049 A 
ATOM     57  H   UNL A   1      40.233  34.023  33.015  1.00  0.00     0.167 HD
ATOM     58  C   UNL A   1      43.656  33.285  35.653  1.00  0.00     0.034 A 
ATOM     59  C   UNL A   1      37.515  33.927  32.361  1.00  0.00     0.034 A 
ATOM     60  C   UNL A   1      42.500  33.185  36.501  1.00  0.00     0.049 A 
ATOM     61  C   UNL A   1      37.603  33.613  33.835  1.00  0.00     0.074 A 
ATOM     62  C   UNL A   1      42.455  32.980  37.869  1.00  0.00     0.029 A 
ATOM     63  N   UNL A   1      41.188  33.257  36.062  1.00  0.00    -0.354 N 
ATOM     64  N   UNL A   1      38.662  33.533  34.603  1.00  0.00    -0.248 NA
ATOM     65  C   UNL A   1      36.334  33.385  34.544  1.00  0.00     0.031 C 
ATOM     66  C   UNL A   1      41.113  32.885  38.250  1.00  0.00     0.029 A 
ATOM     67  C   UNL A   1      40.323  33.080  37.129  1.00  0.00     0.049 A 
ATOM     68  H   UNL A   1      40.911  33.412  35.131  1.00  0.00     0.167 HD
ATOM     69  C   UNL A   1      38.188  33.282  35.888  1.00  0.00     0.074 A 
ATOM     70  C   UNL A   1      36.744  33.245  35.798  1.00  0.00     0.031 C 
ATOM     71  C   UNL A   1      38.885  33.090  37.036  1.00  0.00     0.034 A 
BRANCH  58  72
ATOM     72  C   UNL A   1      45.016  33.102  36.273  1.00  0.00     0.023 A 
ATOM     73  C   UNL A   1      45.522  31.805  36.489  1.00  0.00     0.012 A 
ATOM     74  C   UNL A   1      45.811  34.218  36.596  1.00  0.00     0.148 A 
ATOM     75  C   UNL A   1      46.787  31.621  37.049  1.00  0.00     0.002 A 
ATOM     76  C   UNL A   1      47.088  34.028  37.107  1.00  0.00     0.091 A 
ATOM     77  F   UNL A   1      45.301  35.443  36.405  1.00  0.00    -0.205 F 
ATOM     78  C   UNL A   1      47.572  32.731  37.347  1.00  0.00     0.022 A 
BRANCH  76  79
ATOM     79  S   UNL A   1      48.210  35.388  37.446  1.00  0.00     0.127 S 
ATOM     80  O   UNL A   1      49.373  34.684  37.984  1.00  0.00    -0.237 OA
ATOM     81  O   UNL A   1      48.406  35.962  36.115  1.00  0.00    -0.237 OA
ATOM     82  O   UNL A   1      47.518  36.256  38.389  1.00  0.00    -0.744 OA
ENDBRANCH  76  79
ENDBRANCH  58  72
BRANCH  59  83
ATOM     83  C   UNL A   1      36.191  33.985  31.676  1.00  0.00     0.023 A 
ATOM     84  C   UNL A   1      35.868  33.020  30.702  1.00  0.00     0.012 A 
ATOM     85  C   UNL A   1      35.254  34.990  31.984  1.00  0.00     0.148 A 
ATOM     86  C   UNL A   1      34.650  33.076  30.022  1.00  0.00     0.002 A 
ATOM     87  C   UNL A   1      34.019  35.006  31.346  1.00  0.00     0.091 A 
ATOM     88  F   UNL A   1      35.585  35.908  32.902  1.00  0.00    -0.205 F 
ATOM     89  C   UNL A   1      33.722  34.062  30.351  1.00  0.00     0.022 A 
BRANCH  87  90
ATOM     90  S   UNL A   1      32.717  36.163  31.788  1.00  0.00     0.127 S 
ATOM     91  O   UNL A   1      31.706  35.276  32.356  1.00  0.00    -0.237 OA
ATOM     92  O   UNL A   1      33.396  37.026  32.756  1.00  0.00    -0.237 OA
ATOM     93  O   UNL A   1      32.336  36.833  30.551  1.00  0.00    -0.744 OA
ENDBRANCH  87  90
ENDBRANCH  59  83
BRANCH  71  94
ATOM     94  C   UNL A   1      38.103  32.866  38.307  1.00  0.00     0.023 A 
ATOM     95  C   UNL A   1      37.339  31.693  38.469  1.00  0.00     0.012 A 
ATOM     96  C   UNL A   1      38.192  33.786  39.372  1.00  0.00     0.148 A 
ATOM     97  C   UNL A   1      36.646  31.458  39.657  1.00  0.00     0.002 A 
ATOM     98  C   UNL A   1      37.542  33.518  40.571  1.00  0.00     0.091 A 
ATOM     99  F   UNL A   1      38.912  34.903  39.194  1.00  0.00    -0.205 F 
ATOM    100  C   UNL A   1      36.756  32.363  40.710  1.00  0.00     0.022 A 
BRANCH  98 101
ATOM    101  S   UNL A   1      37.707  34.575  42.014  1.00  0.00     0.127 S 
ATOM    102  O   UNL A   1      36.431  34.352  42.693  1.00  0.00    -0.237 OA
ATOM    103  O   UNL A   1      38.867  33.994  42.691  1.00  0.00    -0.237 OA
ATOM    104  O   UNL A   1      37.915  35.924  41.507  1.00  0.00    -0.744 OA
ENDBRANCH  98 101
ENDBRANCH  71  94
ENDBRANCH  45  46
ENDBRANCH  38  40
ENDBRANCH  37  38
ENDBRANCH  36  37
ENDBRANCH  35  36
ENDBRANCH  34  35
ENDBRANCH  33  34
ENDBRANCH  32  33
ENDBRANCH  31  32
ENDBRANCH   1  31
TORSDOF 28
ENDMDL
