MODEL 1
REMARK VINA RESULT:     -11.5      0.000      0.000
REMARK SMILES CC[C@](C)(NC(=O)c1cccc2ncccc12)C(=O)OCCOCCOCCOCCOC(=O)c1ccc(-c2c3nc(c(-c4cccc(S(=O)(=O)[O-])c4F)c4ccc([nH]4)c(-c4cccc(S(=O)(=O)[O-])c4F)c4nc(c(-c5cccc(S(=O)(=O)[O-])c5F)c5ccc2[nH]5)C=C4)C=C3)cc1
REMARK SMILES IDX 27 1 26 2 25 3 24 4 23 5 22 6 21 7 20 8 18 9 19 10 3 11 4 12
REMARK SMILES IDX 2 13 1 14 5 15 6 16 7 18 8 19 9 20 17 21 10 22 12 23 16 24
REMARK SMILES IDX 11 25 13 26 15 27 14 28 28 29 29 30 30 31 31 32 32 33 33 34
REMARK SMILES IDX 34 35 35 36 36 37 97 38 37 39 96 40 38 41 39 42 40 43 90 44
REMARK SMILES IDX 41 45 95 46 89 47 91 48 42 49 94 50 88 51 87 52 43 54 75 55
REMARK SMILES IDX 55 56 74 57 56 58 59 59 73 60 92 61 57 62 58 63 72 65 93 66
REMARK SMILES IDX 60 67 44 68 45 69 53 70 46 71 48 72 54 73 47 74 49 75 50 76
REMARK SMILES IDX 51 77 52 78 76 79 77 80 85 81 78 82 80 83 86 84 79 85 81 86
REMARK SMILES IDX 82 87 83 88 84 89 61 90 62 91 70 92 63 93 65 94 71 95 64 96
REMARK SMILES IDX 66 97 67 98 68 99 69 100
REMARK H PARENT 5 17 91 53 59 64
REMARK Flexibility Score: inf
ROOT
ATOM      1  C   UNL A   1      38.843  23.931  26.322  1.00  0.00     0.188 C 
ENDROOT
BRANCH   1   2
ATOM      2  O   UNL A   1      37.427  23.192  25.745  1.00  0.00    -0.377 OA
BRANCH   2   3
ATOM      3  C   UNL A   1      36.564  23.314  24.409  1.00  0.00     0.188 C 
BRANCH   3   4
ATOM      4  C   UNL A   1      35.244  24.325  23.957  1.00  0.00     0.188 C 
BRANCH   4   5
ATOM      5  O   UNL A   1      34.213  24.792  24.843  1.00  0.00    -0.376 OA
BRANCH   5   6
ATOM      6  C   UNL A   1      34.344  26.018  25.597  1.00  0.00     0.202 C 
BRANCH   6   7
ATOM      7  C   UNL A   1      33.808  27.371  25.047  1.00  0.00     0.261 C 
BRANCH   7   8
ATOM      8  O   UNL A   1      32.671  27.233  24.208  1.00  0.00    -0.462 OA
BRANCH   8   9
ATOM      9  C   UNL A   1      31.491  27.016  24.814  1.00  0.00     0.331 C 
ATOM     10  O   UNL A   1      31.163  27.529  25.876  1.00  0.00    -0.249 OA
BRANCH   9  11
ATOM     11  C   UNL A   1      30.628  26.054  23.962  1.00  0.00     0.135 C 
ATOM     12  C   UNL A   1      31.535  25.575  22.783  1.00  0.00     0.047 C 
BRANCH  11  13
ATOM     13  C   UNL A   1      29.419  26.806  23.357  1.00  0.00     0.037 C 
ATOM     14  C   UNL A   1      28.082  26.555  24.061  1.00  0.00     0.007 C 
ENDBRANCH  11  13
BRANCH  11  15
ATOM     15  N   UNL A   1      30.155  24.803  24.707  1.00  0.00    -0.336 N 
ATOM     16  C   UNL A   1      30.614  24.118  25.839  1.00  0.00     0.252 C 
ATOM     17  H   UNL A   1      29.357  24.392  24.304  1.00  0.00     0.165 HD
ATOM     18  O   UNL A   1      29.939  24.254  26.863  1.00  0.00    -0.269 OA
BRANCH  16  19
ATOM     19  C   UNL A   1      31.852  23.129  25.889  1.00  0.00     0.049 A 
ATOM     20  C   UNL A   1      32.164  23.035  27.275  1.00  0.00     0.014 A 
ATOM     21  C   UNL A   1      32.396  22.026  24.871  1.00  0.00     0.013 A 
ATOM     22  C   UNL A   1      33.174  22.245  27.821  1.00  0.00     0.003 A 
ATOM     23  C   UNL A   1      33.647  21.146  25.757  1.00  0.00     0.071 A 
ATOM     24  C   UNL A   1      31.831  21.083  23.295  1.00  0.00     0.013 A 
ATOM     25  C   UNL A   1      33.987  21.445  27.043  1.00  0.00     0.029 A 
ATOM     26  N   UNL A   1      34.196  19.646  25.382  1.00  0.00    -0.256 NA
ATOM     27  C   UNL A   1      32.484  19.342  23.060  1.00  0.00     0.021 A 
ATOM     28  C   UNL A   1      33.657  18.786  24.122  1.00  0.00     0.112 A 
ENDBRANCH  16  19
ENDBRANCH  11  15
ENDBRANCH   9  11
ENDBRANCH   8   9
ENDBRANCH   7   8
ENDBRANCH   6   7
ENDBRANCH   5   6
ENDBRANCH   4   5
ENDBRANCH   3   4
ENDBRANCH   2   3
ENDBRANCH   1   2
BRANCH   1  29
ATOM     29  C   UNL A   1      40.398  22.977  26.987  1.00  0.00     0.188 C 
BRANCH  29  30
ATOM     30  O   UNL A   1      41.372  21.810  25.608  1.00  0.00    -0.376 OA
BRANCH  30  31
ATOM     31  C   UNL A   1      43.151  21.395  25.606  1.00  0.00     0.202 C 
BRANCH  31  32
ATOM     32  C   UNL A   1      44.489  22.440  24.849  1.00  0.00     0.261 C 
BRANCH  32  33
ATOM     33  O   UNL A   1      44.333  24.017  24.587  1.00  0.00    -0.460 OA
BRANCH  33  34
ATOM     34  C   UNL A   1      45.013  25.051  25.232  1.00  0.00     0.338 C 
ATOM     35  O   UNL A   1      45.841  25.745  24.654  1.00  0.00    -0.246 OA
BRANCH  34  36
ATOM     36  C   UNL A   1      44.333  25.563  26.548  1.00  0.00     0.060 A 
ATOM     37  C   UNL A   1      44.557  26.902  26.956  1.00  0.00     0.016 A 
ATOM     38  C   UNL A   1      43.496  24.827  27.391  1.00  0.00     0.016 A 
ATOM     39  C   UNL A   1      43.839  27.529  28.021  1.00  0.00     0.010 A 
ATOM     40  C   UNL A   1      42.849  25.434  28.531  1.00  0.00     0.010 A 
ATOM     41  C   UNL A   1      42.975  26.805  28.851  1.00  0.00    -0.014 A 
BRANCH  41  42
ATOM     42  C   UNL A   1      42.407  27.422  30.127  1.00  0.00     0.031 A 
ATOM     43  C   UNL A   1      41.064  28.137  30.052  1.00  0.00     0.074 A 
ATOM     44  C   UNL A   1      42.996  27.394  31.351  1.00  0.00     0.049 A 
ATOM     45  N   UNL A   1      40.430  28.843  30.960  1.00  0.00    -0.248 NA
ATOM     46  C   UNL A   1      40.337  28.025  28.779  1.00  0.00     0.031 C 
ATOM     47  C   UNL A   1      44.224  26.683  31.700  1.00  0.00     0.029 A 
ATOM     48  N   UNL A   1      42.634  28.007  32.547  1.00  0.00    -0.354 N 
ATOM     49  C   UNL A   1      39.262  29.297  30.353  1.00  0.00     0.074 A 
ATOM     50  C   UNL A   1      39.251  28.748  29.015  1.00  0.00     0.031 C 
ATOM     51  C   UNL A   1      44.540  26.942  32.986  1.00  0.00     0.029 A 
ATOM     52  C   UNL A   1      43.565  27.872  33.562  1.00  0.00     0.049 A 
ATOM     53  H   UNL A   1      41.787  28.496  32.660  1.00  0.00     0.167 HD
ATOM     54  C   UNL A   1      38.287  30.108  30.832  1.00  0.00     0.034 A 
ATOM     55  C   UNL A   1      43.661  28.453  34.786  1.00  0.00     0.034 A 
ATOM     56  C   UNL A   1      38.244  30.682  32.150  1.00  0.00     0.049 A 
ATOM     57  C   UNL A   1      42.605  29.437  35.267  1.00  0.00     0.074 A 
ATOM     58  C   UNL A   1      37.268  31.503  32.693  1.00  0.00     0.029 A 
ATOM     59  N   UNL A   1      39.215  30.527  33.120  1.00  0.00    -0.354 N 
ATOM     60  N   UNL A   1      41.471  29.778  34.706  1.00  0.00    -0.248 NA
ATOM     61  C   UNL A   1      42.841  30.111  36.561  1.00  0.00     0.031 C 
ATOM     62  C   UNL A   1      37.670  31.878  33.978  1.00  0.00     0.029 A 
ATOM     63  C   UNL A   1      38.878  31.261  34.246  1.00  0.00     0.049 A 
ATOM     64  H   UNL A   1      40.026  29.977  33.025  1.00  0.00     0.167 HD
ATOM     65  C   UNL A   1      40.859  30.678  35.581  1.00  0.00     0.074 A 
ATOM     66  C   UNL A   1      41.725  30.807  36.728  1.00  0.00     0.031 C 
ATOM     67  C   UNL A   1      39.694  31.355  35.427  1.00  0.00     0.034 A 
BRANCH  54  68
ATOM     68  C   UNL A   1      37.161  30.466  29.899  1.00  0.00     0.023 A 
ATOM     69  C   UNL A   1      36.393  29.449  29.300  1.00  0.00     0.012 A 
ATOM     70  C   UNL A   1      36.818  31.817  29.683  1.00  0.00     0.148 A 
ATOM     71  C   UNL A   1      35.312  29.771  28.480  1.00  0.00     0.002 A 
ATOM     72  C   UNL A   1      35.716  32.129  28.899  1.00  0.00     0.091 A 
ATOM     73  F   UNL A   1      37.575  32.765  30.253  1.00  0.00    -0.205 F 
ATOM     74  C   UNL A   1      34.968  31.108  28.289  1.00  0.00     0.022 A 
BRANCH  72  75
ATOM     75  S   UNL A   1      35.146  33.814  28.651  1.00  0.00     0.127 S 
ATOM     76  O   UNL A   1      34.608  33.745  27.293  1.00  0.00    -0.237 OA
ATOM     77  O   UNL A   1      34.138  33.952  29.702  1.00  0.00    -0.237 OA
ATOM     78  O   UNL A   1      36.317  34.665  28.811  1.00  0.00    -0.744 OA
ENDBRANCH  72  75
ENDBRANCH  54  68
BRANCH  55  79
ATOM     79  C   UNL A   1      44.840  28.190  35.684  1.00  0.00     0.023 A 
ATOM     80  C   UNL A   1      45.984  29.015  35.612  1.00  0.00     0.012 A 
ATOM     81  C   UNL A   1      44.872  27.068  36.536  1.00  0.00     0.148 A 
ATOM     82  C   UNL A   1      47.141  28.706  36.336  1.00  0.00     0.002 A 
ATOM     83  C   UNL A   1      46.005  26.801  37.302  1.00  0.00     0.091 A 
ATOM     84  F   UNL A   1      43.805  26.257  36.559  1.00  0.00    -0.205 F 
ATOM     85  C   UNL A   1      47.148  27.606  37.189  1.00  0.00     0.022 A 
BRANCH  83  86
ATOM     86  S   UNL A   1      46.068  25.465  38.503  1.00  0.00     0.127 S 
ATOM     87  O   UNL A   1      46.814  24.441  37.776  1.00  0.00    -0.237 OA
ATOM     88  O   UNL A   1      46.798  26.087  39.609  1.00  0.00    -0.237 OA
ATOM     89  O   UNL A   1      44.680  25.143  38.802  1.00  0.00    -0.744 OA
ENDBRANCH  83  86
ENDBRANCH  55  79
BRANCH  67  90
ATOM     90  C   UNL A   1      39.241  32.290  36.525  1.00  0.00     0.023 A 
ATOM     91  C   UNL A   1      39.685  33.628  36.533  1.00  0.00     0.012 A 
ATOM     92  C   UNL A   1      38.295  31.878  37.488  1.00  0.00     0.148 A 
ATOM     93  C   UNL A   1      39.217  34.530  37.491  1.00  0.00     0.002 A 
ATOM     94  C   UNL A   1      37.800  32.793  38.412  1.00  0.00     0.091 A 
ATOM     95  F   UNL A   1      37.888  30.600  37.475  1.00  0.00    -0.205 F 
ATOM     96  C   UNL A   1      38.268  34.116  38.422  1.00  0.00     0.022 A 
BRANCH  94  97
ATOM     97  S   UNL A   1      36.505  32.380  39.591  1.00  0.00     0.127 S 
ATOM     98  O   UNL A   1      36.876  31.019  39.977  1.00  0.00    -0.237 OA
ATOM     99  O   UNL A   1      36.703  33.385  40.636  1.00  0.00    -0.237 OA
ATOM    100  O   UNL A   1      35.247  32.500  38.866  1.00  0.00    -0.744 OA
ENDBRANCH  94  97
ENDBRANCH  67  90
ENDBRANCH  41  42
ENDBRANCH  34  36
ENDBRANCH  33  34
ENDBRANCH  32  33
ENDBRANCH  31  32
ENDBRANCH  30  31
ENDBRANCH  29  30
ENDBRANCH   1  29
TORSDOF 26
ENDMDL
MODEL 2
REMARK VINA RESULT:     -11.1      4.382      8.063
REMARK SMILES CC[C@](C)(NC(=O)c1cccc2ncccc12)C(=O)OCCOCCOCCOCCOC(=O)c1ccc(-c2c3nc(c(-c4cccc(S(=O)(=O)[O-])c4F)c4ccc([nH]4)c(-c4cccc(S(=O)(=O)[O-])c4F)c4nc(c(-c5cccc(S(=O)(=O)[O-])c5F)c5ccc2[nH]5)C=C4)C=C3)cc1
REMARK SMILES IDX 27 1 26 2 25 3 24 4 23 5 22 6 21 7 20 8 18 9 19 10 3 11 4 12
REMARK SMILES IDX 2 13 1 14 5 15 6 16 7 18 8 19 9 20 17 21 10 22 12 23 16 24
REMARK SMILES IDX 11 25 13 26 15 27 14 28 28 29 29 30 30 31 31 32 32 33 33 34
REMARK SMILES IDX 34 35 35 36 36 37 97 38 37 39 96 40 38 41 39 42 40 43 90 44
REMARK SMILES IDX 41 45 95 46 89 47 91 48 42 49 94 50 88 51 87 52 43 54 75 55
REMARK SMILES IDX 55 56 74 57 56 58 59 59 73 60 92 61 57 62 58 63 72 65 93 66
REMARK SMILES IDX 60 67 44 68 45 69 53 70 46 71 48 72 54 73 47 74 49 75 50 76
REMARK SMILES IDX 51 77 52 78 76 79 77 80 85 81 78 82 80 83 86 84 79 85 81 86
REMARK SMILES IDX 82 87 83 88 84 89 61 90 62 91 70 92 63 93 65 94 71 95 64 96
REMARK SMILES IDX 66 97 67 98 68 99 69 100
REMARK H PARENT 5 17 91 53 59 64
REMARK Flexibility Score: inf
ROOT
ATOM      1  C   UNL A   1      38.372  24.557  26.543  1.00  0.00     0.188 C 
ENDROOT
BRANCH   1   2
ATOM      2  O   UNL A   1      36.875  23.850  26.168  1.00  0.00    -0.377 OA
BRANCH   2   3
ATOM      3  C   UNL A   1      35.783  24.078  25.028  1.00  0.00     0.188 C 
BRANCH   3   4
ATOM      4  C   UNL A   1      34.459  25.172  24.878  1.00  0.00     0.188 C 
BRANCH   4   5
ATOM      5  O   UNL A   1      33.997  26.064  25.905  1.00  0.00    -0.376 OA
BRANCH   5   6
ATOM      6  C   UNL A   1      34.600  27.357  26.130  1.00  0.00     0.202 C 
BRANCH   6   7
ATOM      7  C   UNL A   1      33.830  28.676  25.832  1.00  0.00     0.261 C 
BRANCH   7   8
ATOM      8  O   UNL A   1      33.086  28.638  24.624  1.00  0.00    -0.462 OA
BRANCH   8   9
ATOM      9  C   UNL A   1      31.781  28.332  24.723  1.00  0.00     0.331 C 
ATOM     10  O   UNL A   1      31.152  28.349  25.774  1.00  0.00    -0.249 OA
BRANCH   9  11
ATOM     11  C   UNL A   1      31.211  27.987  23.327  1.00  0.00     0.135 C 
ATOM     12  C   UNL A   1      32.423  27.519  22.459  1.00  0.00     0.047 C 
BRANCH  11  13
ATOM     13  C   UNL A   1      30.609  29.248  22.662  1.00  0.00     0.037 C 
ATOM     14  C   UNL A   1      29.108  29.170  22.366  1.00  0.00     0.007 C 
ENDBRANCH  11  13
BRANCH  11  15
ATOM     15  N   UNL A   1      30.187  26.849  23.327  1.00  0.00    -0.336 N 
ATOM     16  C   UNL A   1      29.975  25.736  24.150  1.00  0.00     0.252 C 
ATOM     17  H   UNL A   1      29.538  26.912  22.590  1.00  0.00     0.165 HD
ATOM     18  O   UNL A   1      29.008  25.805  24.913  1.00  0.00    -0.269 OA
BRANCH  16  19
ATOM     19  C   UNL A   1      30.805  24.386  24.120  1.00  0.00     0.049 A 
ATOM     20  C   UNL A   1      31.437  24.396  22.843  1.00  0.00     0.014 A 
ATOM     21  C   UNL A   1      31.350  23.425  25.272  1.00  0.00     0.013 A 
ATOM     22  C   UNL A   1      32.306  23.416  22.367  1.00  0.00     0.003 A 
ATOM     23  C   UNL A   1      32.422  22.278  24.461  1.00  0.00     0.071 A 
ATOM     24  C   UNL A   1      31.602  23.422  27.178  1.00  0.00     0.013 A 
ATOM     25  C   UNL A   1      32.654  22.311  23.117  1.00  0.00     0.029 A 
ATOM     26  N   UNL A   1      33.592  21.393  25.195  1.00  0.00    -0.256 NA
ATOM     27  C   UNL A   1      33.040  22.425  27.849  1.00  0.00     0.021 A 
ATOM     28  C   UNL A   1      33.896  21.453  26.783  1.00  0.00     0.112 A 
ENDBRANCH  16  19
ENDBRANCH  11  15
ENDBRANCH   9  11
ENDBRANCH   8   9
ENDBRANCH   7   8
ENDBRANCH   6   7
ENDBRANCH   5   6
ENDBRANCH   4   5
ENDBRANCH   3   4
ENDBRANCH   2   3
ENDBRANCH   1   2
BRANCH   1  29
ATOM     29  C   UNL A   1      39.748  23.726  27.634  1.00  0.00     0.188 C 
BRANCH  29  30
ATOM     30  O   UNL A   1      40.037  21.720  27.309  1.00  0.00    -0.376 OA
BRANCH  30  31
ATOM     31  C   UNL A   1      41.630  20.831  27.388  1.00  0.00     0.202 C 
BRANCH  31  32
ATOM     32  C   UNL A   1      42.829  20.662  25.978  1.00  0.00     0.261 C 
BRANCH  32  33
ATOM     33  O   UNL A   1      43.087  21.822  24.897  1.00  0.00    -0.460 OA
BRANCH  33  34
ATOM     34  C   UNL A   1      44.181  22.685  24.829  1.00  0.00     0.338 C 
ATOM     35  O   UNL A   1      45.007  22.619  23.926  1.00  0.00    -0.246 OA
BRANCH  34  36
ATOM     36  C   UNL A   1      44.035  23.998  25.671  1.00  0.00     0.060 A 
ATOM     37  C   UNL A   1      43.967  25.241  24.993  1.00  0.00     0.016 A 
ATOM     38  C   UNL A   1      43.955  24.086  27.064  1.00  0.00     0.016 A 
ATOM     39  C   UNL A   1      43.639  26.472  25.641  1.00  0.00     0.010 A 
ATOM     40  C   UNL A   1      43.726  25.349  27.728  1.00  0.00     0.010 A 
ATOM     41  C   UNL A   1      43.526  26.563  27.033  1.00  0.00    -0.014 A 
BRANCH  41  42
ATOM     42  C   UNL A   1      43.420  27.918  27.728  1.00  0.00     0.031 A 
ATOM     43  C   UNL A   1      44.704  28.675  28.043  1.00  0.00     0.074 A 
ATOM     44  C   UNL A   1      42.265  28.529  28.101  1.00  0.00     0.049 A 
ATOM     45  N   UNL A   1      44.887  29.778  28.731  1.00  0.00    -0.248 NA
ATOM     46  C   UNL A   1      45.944  28.111  27.493  1.00  0.00     0.031 C 
ATOM     47  C   UNL A   1      40.911  28.059  27.816  1.00  0.00     0.029 A 
ATOM     48  N   UNL A   1      42.049  29.695  28.830  1.00  0.00    -0.354 N 
ATOM     49  C   UNL A   1      46.260  30.009  28.737  1.00  0.00     0.074 A 
ATOM     50  C   UNL A   1      46.859  28.958  27.944  1.00  0.00     0.031 C 
ATOM     51  C   UNL A   1      40.018  28.884  28.403  1.00  0.00     0.029 A 
ATOM     52  C   UNL A   1      40.722  29.931  29.148  1.00  0.00     0.049 A 
ATOM     53  H   UNL A   1      42.778  30.299  29.097  1.00  0.00     0.167 HD
ATOM     54  C   UNL A   1      46.981  30.980  29.349  1.00  0.00     0.034 A 
ATOM     55  C   UNL A   1      40.136  30.841  29.969  1.00  0.00     0.034 A 
ATOM     56  C   UNL A   1      46.443  32.048  30.147  1.00  0.00     0.049 A 
ATOM     57  C   UNL A   1      40.973  31.862  30.724  1.00  0.00     0.074 A 
ATOM     58  C   UNL A   1      47.131  33.071  30.782  1.00  0.00     0.029 A 
ATOM     59  N   UNL A   1      45.106  32.225  30.448  1.00  0.00    -0.354 N 
ATOM     60  N   UNL A   1      42.258  32.108  30.642  1.00  0.00    -0.248 NA
ATOM     61  C   UNL A   1      40.272  32.740  31.685  1.00  0.00     0.031 C 
ATOM     62  C   UNL A   1      46.213  33.842  31.500  1.00  0.00     0.029 A 
ATOM     63  C   UNL A   1      44.951  33.320  31.283  1.00  0.00     0.049 A 
ATOM     64  H   UNL A   1      44.373  31.657  30.117  1.00  0.00     0.167 HD
ATOM     65  C   UNL A   1      42.507  33.171  31.511  1.00  0.00     0.074 A 
ATOM     66  C   UNL A   1      41.240  33.552  32.089  1.00  0.00     0.031 C 
ATOM     67  C   UNL A   1      43.690  33.757  31.820  1.00  0.00     0.034 A 
BRANCH  54  68
ATOM     68  C   UNL A   1      48.480  30.926  29.209  1.00  0.00     0.023 A 
ATOM     69  C   UNL A   1      49.232  30.065  30.029  1.00  0.00     0.012 A 
ATOM     70  C   UNL A   1      49.126  31.675  28.204  1.00  0.00     0.148 A 
ATOM     71  C   UNL A   1      50.614  29.965  29.867  1.00  0.00     0.002 A 
ATOM     72  C   UNL A   1      50.496  31.540  28.022  1.00  0.00     0.091 A 
ATOM     73  F   UNL A   1      48.388  32.498  27.447  1.00  0.00    -0.205 F 
ATOM     74  C   UNL A   1      51.243  30.693  28.859  1.00  0.00     0.022 A 
BRANCH  72  75
ATOM     75  S   UNL A   1      51.388  32.375  26.706  1.00  0.00     0.127 S 
ATOM     76  O   UNL A   1      50.862  31.700  25.521  1.00  0.00    -0.237 OA
ATOM     77  O   UNL A   1      50.943  33.760  26.869  1.00  0.00    -0.237 OA
ATOM     78  O   UNL A   1      52.802  32.152  26.970  1.00  0.00    -0.744 OA
ENDBRANCH  72  75
ENDBRANCH  54  68
BRANCH  55  79
ATOM     79  C   UNL A   1      38.650  30.834  30.206  1.00  0.00     0.023 A 
ATOM     80  C   UNL A   1      38.066  29.838  31.019  1.00  0.00     0.012 A 
ATOM     81  C   UNL A   1      37.802  31.748  29.549  1.00  0.00     0.148 A 
ATOM     82  C   UNL A   1      36.676  29.731  31.140  1.00  0.00     0.002 A 
ATOM     83  C   UNL A   1      36.422  31.674  29.723  1.00  0.00     0.091 A 
ATOM     84  F   UNL A   1      38.357  32.656  28.734  1.00  0.00    -0.205 F 
ATOM     85  C   UNL A   1      35.855  30.655  30.501  1.00  0.00     0.022 A 
BRANCH  83  86
ATOM     86  S   UNL A   1      35.292  32.884  29.021  1.00  0.00     0.127 S 
ATOM     87  O   UNL A   1      34.096  32.689  29.837  1.00  0.00    -0.237 OA
ATOM     88  O   UNL A   1      36.004  34.139  29.264  1.00  0.00    -0.237 OA
ATOM     89  O   UNL A   1      35.161  32.527  27.615  1.00  0.00    -0.744 OA
ENDBRANCH  83  86
ENDBRANCH  55  79
BRANCH  67  90
ATOM     90  C   UNL A   1      43.704  34.900  32.809  1.00  0.00     0.023 A 
ATOM     91  C   UNL A   1      43.626  36.230  32.345  1.00  0.00     0.012 A 
ATOM     92  C   UNL A   1      43.687  34.660  34.200  1.00  0.00     0.148 A 
ATOM     93  C   UNL A   1      43.556  37.297  33.243  1.00  0.00     0.002 A 
ATOM     94  C   UNL A   1      43.574  35.726  35.089  1.00  0.00     0.091 A 
ATOM     95  F   UNL A   1      43.772  33.392  34.629  1.00  0.00    -0.205 F 
ATOM     96  C   UNL A   1      43.519  37.044  34.612  1.00  0.00     0.022 A 
BRANCH  94  97
ATOM     97  S   UNL A   1      43.423  35.496  36.866  1.00  0.00     0.127 S 
ATOM     98  O   UNL A   1      43.595  36.863  37.359  1.00  0.00    -0.237 OA
ATOM     99  O   UNL A   1      42.064  34.969  36.998  1.00  0.00    -0.237 OA
ATOM    100  O   UNL A   1      44.475  34.562  37.243  1.00  0.00    -0.744 OA
ENDBRANCH  94  97
ENDBRANCH  67  90
ENDBRANCH  41  42
ENDBRANCH  34  36
ENDBRANCH  33  34
ENDBRANCH  32  33
ENDBRANCH  31  32
ENDBRANCH  30  31
ENDBRANCH  29  30
ENDBRANCH   1  29
TORSDOF 26
ENDMDL
MODEL 3
REMARK VINA RESULT:     -10.9      4.083      7.552
REMARK SMILES CC[C@](C)(NC(=O)c1cccc2ncccc12)C(=O)OCCOCCOCCOCCOC(=O)c1ccc(-c2c3nc(c(-c4cccc(S(=O)(=O)[O-])c4F)c4ccc([nH]4)c(-c4cccc(S(=O)(=O)[O-])c4F)c4nc(c(-c5cccc(S(=O)(=O)[O-])c5F)c5ccc2[nH]5)C=C4)C=C3)cc1
REMARK SMILES IDX 27 1 26 2 25 3 24 4 23 5 22 6 21 7 20 8 18 9 19 10 3 11 4 12
REMARK SMILES IDX 2 13 1 14 5 15 6 16 7 18 8 19 9 20 17 21 10 22 12 23 16 24
REMARK SMILES IDX 11 25 13 26 15 27 14 28 28 29 29 30 30 31 31 32 32 33 33 34
REMARK SMILES IDX 34 35 35 36 36 37 97 38 37 39 96 40 38 41 39 42 40 43 90 44
REMARK SMILES IDX 41 45 95 46 89 47 91 48 42 49 94 50 88 51 87 52 43 54 75 55
REMARK SMILES IDX 55 56 74 57 56 58 59 59 73 60 92 61 57 62 58 63 72 65 93 66
REMARK SMILES IDX 60 67 44 68 45 69 53 70 46 71 48 72 54 73 47 74 49 75 50 76
REMARK SMILES IDX 51 77 52 78 76 79 77 80 85 81 78 82 80 83 86 84 79 85 81 86
REMARK SMILES IDX 82 87 83 88 84 89 61 90 62 91 70 92 63 93 65 94 71 95 64 96
REMARK SMILES IDX 66 97 67 98 68 99 69 100
REMARK H PARENT 5 17 91 53 59 64
REMARK Flexibility Score: inf
ROOT
ATOM      1  C   UNL A   1      38.569  24.667  26.834  1.00  0.00     0.188 C 
ENDROOT
BRANCH   1   2
ATOM      2  O   UNL A   1      37.031  24.026  26.506  1.00  0.00    -0.377 OA
BRANCH   2   3
ATOM      3  C   UNL A   1      36.061  24.034  25.239  1.00  0.00     0.188 C 
BRANCH   3   4
ATOM      4  C   UNL A   1      34.684  24.984  24.827  1.00  0.00     0.188 C 
BRANCH   4   5
ATOM      5  O   UNL A   1      33.974  25.853  25.724  1.00  0.00    -0.376 OA
BRANCH   5   6
ATOM      6  C   UNL A   1      34.547  27.084  26.217  1.00  0.00     0.202 C 
BRANCH   6   7
ATOM      7  C   UNL A   1      33.757  28.424  26.167  1.00  0.00     0.261 C 
BRANCH   7   8
ATOM      8  O   UNL A   1      33.142  28.675  24.913  1.00  0.00    -0.462 OA
BRANCH   8   9
ATOM      9  C   UNL A   1      31.883  28.233  24.754  1.00  0.00     0.331 C 
ATOM     10  O   UNL A   1      31.081  28.109  25.671  1.00  0.00    -0.249 OA
BRANCH   9  11
ATOM     11  C   UNL A   1      31.610  27.938  23.260  1.00  0.00     0.135 C 
ATOM     12  C   UNL A   1      32.970  27.472  22.647  1.00  0.00     0.047 C 
BRANCH  11  13
ATOM     13  C   UNL A   1      31.173  29.227  22.524  1.00  0.00     0.037 C 
ATOM     14  C   UNL A   1      29.665  29.362  22.295  1.00  0.00     0.007 C 
ENDBRANCH  11  13
BRANCH  11  15
ATOM     15  N   UNL A   1      30.595  26.818  23.013  1.00  0.00    -0.336 N 
ATOM     16  C   UNL A   1      30.206  25.686  23.739  1.00  0.00     0.252 C 
ATOM     17  H   UNL A   1      30.112  26.915  22.161  1.00  0.00     0.165 HD
ATOM     18  O   UNL A   1      29.103  25.749  24.289  1.00  0.00    -0.269 OA
BRANCH  16  19
ATOM     19  C   UNL A   1      31.009  24.322  23.836  1.00  0.00     0.049 A 
ATOM     20  C   UNL A   1      31.743  24.266  22.617  1.00  0.00     0.014 A 
ATOM     21  C   UNL A   1      31.439  23.406  25.070  1.00  0.00     0.013 A 
ATOM     22  C   UNL A   1      32.629  23.252  22.257  1.00  0.00     0.003 A 
ATOM     23  C   UNL A   1      32.552  22.207  24.400  1.00  0.00     0.071 A 
ATOM     24  C   UNL A   1      31.534  23.484  26.988  1.00  0.00     0.013 A 
ATOM     25  C   UNL A   1      32.893  22.175  23.080  1.00  0.00     0.029 A 
ATOM     26  N   UNL A   1      33.640  21.336  25.266  1.00  0.00    -0.256 NA
ATOM     27  C   UNL A   1      32.893  22.495  27.818  1.00  0.00     0.021 A 
ATOM     28  C   UNL A   1      33.814  21.463  26.870  1.00  0.00     0.112 A 
ENDBRANCH  16  19
ENDBRANCH  11  15
ENDBRANCH   9  11
ENDBRANCH   8   9
ENDBRANCH   7   8
ENDBRANCH   6   7
ENDBRANCH   5   6
ENDBRANCH   4   5
ENDBRANCH   3   4
ENDBRANCH   2   3
ENDBRANCH   1   2
BRANCH   1  29
ATOM     29  C   UNL A   1      40.083  23.637  27.480  1.00  0.00     0.188 C 
BRANCH  29  30
ATOM     30  O   UNL A   1      40.503  21.929  26.423  1.00  0.00    -0.376 OA
BRANCH  30  31
ATOM     31  C   UNL A   1      41.976  20.867  26.623  1.00  0.00     0.202 C 
BRANCH  31  32
ATOM     32  C   UNL A   1      43.570  21.069  25.690  1.00  0.00     0.261 C 
BRANCH  32  33
ATOM     33  O   UNL A   1      43.821  22.234  24.613  1.00  0.00    -0.460 OA
BRANCH  33  34
ATOM     34  C   UNL A   1      44.844  23.181  24.616  1.00  0.00     0.338 C 
ATOM     35  O   UNL A   1      45.596  23.331  23.660  1.00  0.00    -0.246 OA
BRANCH  34  36
ATOM     36  C   UNL A   1      44.679  24.323  25.677  1.00  0.00     0.060 A 
ATOM     37  C   UNL A   1      45.838  24.862  26.288  1.00  0.00     0.016 A 
ATOM     38  C   UNL A   1      43.475  24.895  26.100  1.00  0.00     0.016 A 
ATOM     39  C   UNL A   1      45.821  26.028  27.114  1.00  0.00     0.010 A 
ATOM     40  C   UNL A   1      43.451  26.010  27.018  1.00  0.00     0.010 A 
ATOM     41  C   UNL A   1      44.621  26.626  27.517  1.00  0.00    -0.014 A 
BRANCH  41  42
ATOM     42  C   UNL A   1      44.603  27.712  28.590  1.00  0.00     0.031 A 
ATOM     43  C   UNL A   1      44.424  27.295  30.043  1.00  0.00     0.074 A 
ATOM     44  C   UNL A   1      44.736  29.047  28.368  1.00  0.00     0.049 A 
ATOM     45  N   UNL A   1      44.254  28.029  31.119  1.00  0.00    -0.248 NA
ATOM     46  C   UNL A   1      44.455  25.850  30.315  1.00  0.00     0.031 C 
ATOM     47  C   UNL A   1      45.023  29.682  27.084  1.00  0.00     0.029 A 
ATOM     48  N   UNL A   1      44.626  30.127  29.238  1.00  0.00    -0.354 N 
ATOM     49  C   UNL A   1      44.109  27.138  32.178  1.00  0.00     0.074 A 
ATOM     50  C   UNL A   1      44.258  25.810  31.625  1.00  0.00     0.031 C 
ATOM     51  C   UNL A   1      45.011  31.023  27.236  1.00  0.00     0.029 A 
ATOM     52  C   UNL A   1      44.676  31.365  28.621  1.00  0.00     0.049 A 
ATOM     53  H   UNL A   1      44.520  30.019  30.211  1.00  0.00     0.167 HD
ATOM     54  C   UNL A   1      43.856  27.373  33.490  1.00  0.00     0.034 A 
ATOM     55  C   UNL A   1      44.440  32.619  29.086  1.00  0.00     0.034 A 
ATOM     56  C   UNL A   1      43.699  28.667  34.096  1.00  0.00     0.049 A 
ATOM     57  C   UNL A   1      44.061  32.852  30.541  1.00  0.00     0.074 A 
ATOM     58  C   UNL A   1      43.453  28.962  35.428  1.00  0.00     0.029 A 
ATOM     59  N   UNL A   1      43.741  29.873  33.424  1.00  0.00    -0.354 N 
ATOM     60  N   UNL A   1      44.015  31.999  31.535  1.00  0.00    -0.248 NA
ATOM     61  C   UNL A   1      43.707  34.231  30.940  1.00  0.00     0.031 C 
ATOM     62  C   UNL A   1      43.307  30.347  35.554  1.00  0.00     0.029 A 
ATOM     63  C   UNL A   1      43.497  30.914  34.307  1.00  0.00     0.049 A 
ATOM     64  H   UNL A   1      43.919  29.978  32.461  1.00  0.00     0.167 HD
ATOM     65  C   UNL A   1      43.656  32.736  32.664  1.00  0.00     0.074 A 
ATOM     66  C   UNL A   1      43.527  34.112  32.248  1.00  0.00     0.031 C 
ATOM     67  C   UNL A   1      43.427  32.299  33.927  1.00  0.00     0.034 A 
BRANCH  54  68
ATOM     68  C   UNL A   1      43.696  26.177  34.391  1.00  0.00     0.023 A 
ATOM     69  C   UNL A   1      42.409  25.702  34.709  1.00  0.00     0.012 A 
ATOM     70  C   UNL A   1      44.831  25.480  34.855  1.00  0.00     0.148 A 
ATOM     71  C   UNL A   1      42.252  24.562  35.495  1.00  0.00     0.002 A 
ATOM     72  C   UNL A   1      44.666  24.322  35.603  1.00  0.00     0.091 A 
ATOM     73  F   UNL A   1      46.043  25.962  34.550  1.00  0.00    -0.205 F 
ATOM     74  C   UNL A   1      43.378  23.867  35.933  1.00  0.00     0.022 A 
BRANCH  72  75
ATOM     75  S   UNL A   1      46.049  23.315  36.150  1.00  0.00     0.127 S 
ATOM     76  O   UNL A   1      46.696  24.204  37.115  1.00  0.00    -0.237 OA
ATOM     77  O   UNL A   1      45.371  22.162  36.742  1.00  0.00    -0.237 OA
ATOM     78  O   UNL A   1      46.832  23.020  34.958  1.00  0.00    -0.744 OA
ENDBRANCH  72  75
ENDBRANCH  54  68
BRANCH  55  79
ATOM     79  C   UNL A   1      44.486  33.812  28.170  1.00  0.00     0.023 A 
ATOM     80  C   UNL A   1      43.309  34.261  27.531  1.00  0.00     0.012 A 
ATOM     81  C   UNL A   1      45.706  34.440  27.850  1.00  0.00     0.148 A 
ATOM     82  C   UNL A   1      43.355  35.279  26.572  1.00  0.00     0.002 A 
ATOM     83  C   UNL A   1      45.735  35.494  26.939  1.00  0.00     0.091 A 
ATOM     84  F   UNL A   1      46.828  33.973  28.416  1.00  0.00    -0.205 F 
ATOM     85  C   UNL A   1      44.565  35.902  26.284  1.00  0.00     0.022 A 
BRANCH  83  86
ATOM     86  S   UNL A   1      47.233  36.423  26.583  1.00  0.00     0.127 S 
ATOM     87  O   UNL A   1      48.028  35.442  25.848  1.00  0.00    -0.237 OA
ATOM     88  O   UNL A   1      46.717  37.527  25.773  1.00  0.00    -0.237 OA
ATOM     89  O   UNL A   1      47.764  36.821  27.879  1.00  0.00    -0.744 OA
ENDBRANCH  83  86
ENDBRANCH  55  79
BRANCH  67  90
ATOM     90  C   UNL A   1      43.036  33.302  34.989  1.00  0.00     0.023 A 
ATOM     91  C   UNL A   1      44.036  33.940  35.751  1.00  0.00     0.012 A 
ATOM     92  C   UNL A   1      41.691  33.694  35.161  1.00  0.00     0.148 A 
ATOM     93  C   UNL A   1      43.704  34.927  36.681  1.00  0.00     0.002 A 
ATOM     94  C   UNL A   1      41.372  34.709  36.058  1.00  0.00     0.091 A 
ATOM     95  F   UNL A   1      40.749  33.073  34.437  1.00  0.00    -0.205 F 
ATOM     96  C   UNL A   1      42.376  35.320  36.826  1.00  0.00     0.022 A 
BRANCH  94  97
ATOM     97  S   UNL A   1      39.702  35.349  36.247  1.00  0.00     0.127 S 
ATOM     98  O   UNL A   1      39.944  36.619  36.930  1.00  0.00    -0.237 OA
ATOM     99  O   UNL A   1      39.260  35.481  34.858  1.00  0.00    -0.237 OA
ATOM    100  O   UNL A   1      38.974  34.354  37.023  1.00  0.00    -0.744 OA
ENDBRANCH  94  97
ENDBRANCH  67  90
ENDBRANCH  41  42
ENDBRANCH  34  36
ENDBRANCH  33  34
ENDBRANCH  32  33
ENDBRANCH  31  32
ENDBRANCH  30  31
ENDBRANCH  29  30
ENDBRANCH   1  29
TORSDOF 26
ENDMDL
