MODEL 1
REMARK VINA RESULT:      -7.9      0.000      0.000
REMARK SMILES CC[C@H]1CCCC[C@@H]1Sc1csc(C(=O)OCCOCCOCCOCCOC(=O)c2ccc(-c3c4nc(c(-c5cccc(S(=O)(=O)[O-])c5F)c5ccc([nH]5)c(-c5cccc(S(=O)(=O)[O-])c5F)c5nc(c(-c6cccc(S(=O)(=O)[O-])c6F)c6ccc3[nH]6)C=C5)C=C4)cc2)c1
REMARK SMILES IDX 22 1 21 2 20 3 19 4 18 5 17 6 16 7 14 8 15 9 13 10 10 11
REMARK SMILES IDX 11 12 94 13 12 14 9 15 8 16 3 17 4 18 5 19 7 20 6 21 2 22
REMARK SMILES IDX 1 23 23 24 24 25 25 26 26 27 27 28 28 29 29 30 30 31 31 32
REMARK SMILES IDX 32 33 93 34 33 35 92 36 34 37 35 38 36 39 86 40 37 41 91 42
REMARK SMILES IDX 85 43 87 44 38 45 90 46 84 47 83 48 39 50 71 51 51 52 70 53
REMARK SMILES IDX 52 54 55 55 69 56 88 57 53 58 54 59 68 61 89 62 56 63 40 64
REMARK SMILES IDX 41 65 49 66 42 67 44 68 50 69 43 70 45 71 46 72 47 73 48 74
REMARK SMILES IDX 72 75 73 76 81 77 74 78 76 79 82 80 75 81 77 82 78 83 79 84
REMARK SMILES IDX 80 85 57 86 58 87 66 88 59 89 61 90 67 91 60 92 62 93 63 94
REMARK SMILES IDX 64 95 65 96
REMARK H PARENT 87 49 55 60
REMARK Flexibility Score: inf
ROOT
ATOM      1  O   UNL A   1      36.832  30.295  30.219  1.00  0.00    -0.377 OA
ENDROOT
BRANCH   1   2
ATOM      2  C   UNL A   1      37.121  31.072  29.073  1.00  0.00     0.188 C 
BRANCH   2   3
ATOM      3  C   UNL A   1      35.995  31.098  28.027  1.00  0.00     0.188 C 
BRANCH   3   4
ATOM      4  O   UNL A   1      35.934  29.922  27.222  1.00  0.00    -0.376 OA
BRANCH   4   5
ATOM      5  C   UNL A   1      34.727  29.170  27.290  1.00  0.00     0.202 C 
BRANCH   5   6
ATOM      6  C   UNL A   1      33.462  29.906  26.830  1.00  0.00     0.261 C 
BRANCH   6   7
ATOM      7  O   UNL A   1      32.260  29.122  26.863  1.00  0.00    -0.459 OA
BRANCH   7   8
ATOM      8  C   UNL A   1      31.746  28.690  25.682  1.00  0.00     0.348 C 
ATOM      9  O   UNL A   1      31.196  29.411  24.856  1.00  0.00    -0.245 OA
BRANCH   8  10
ATOM     10  C   UNL A   1      32.068  27.289  25.524  1.00  0.00     0.113 A 
ATOM     11  C   UNL A   1      33.126  25.288  24.928  1.00  0.00     0.019 A 
ATOM     12  C   UNL A   1      31.928  24.827  25.422  1.00  0.00     0.080 A 
ATOM     13  C   UNL A   1      33.194  26.711  24.964  1.00  0.00     0.042 A 
ATOM     14  S   UNL A   1      30.932  26.099  25.998  1.00  0.00    -0.136 S 
BRANCH  11  15
ATOM     15  S   UNL A   1      34.479  24.360  24.304  1.00  0.00    -0.122 SA
BRANCH  15  16
ATOM     16  C   UNL A   1      35.484  23.909  25.775  1.00  0.00     0.055 C 
ATOM     17  C   UNL A   1      36.957  23.710  25.328  1.00  0.00     0.002 C 
ATOM     18  C   UNL A   1      37.184  22.361  24.617  1.00  0.00     0.005 C 
ATOM     19  C   UNL A   1      36.609  21.165  25.359  1.00  0.00     0.000 C 
ATOM     20  C   UNL A   1      34.875  22.662  26.442  1.00  0.00     0.015 C 
ATOM     21  C   UNL A   1      35.134  21.359  25.685  1.00  0.00     0.001 C 
BRANCH  17  22
ATOM     22  C   UNL A   1      38.013  23.983  26.431  1.00  0.00     0.001 C 
ATOM     23  C   UNL A   1      39.247  23.099  26.491  1.00  0.00     0.004 C 
ENDBRANCH  17  22
ENDBRANCH  15  16
ENDBRANCH  11  15
ENDBRANCH   8  10
ENDBRANCH   7   8
ENDBRANCH   6   7
ENDBRANCH   5   6
ENDBRANCH   4   5
ENDBRANCH   3   4
ENDBRANCH   2   3
ENDBRANCH   1   2
BRANCH   1  24
ATOM     24  C   UNL A   1      37.300  28.950  30.281  1.00  0.00     0.188 C 
BRANCH  24  25
ATOM     25  C   UNL A   1      38.751  28.561  29.925  1.00  0.00     0.188 C 
BRANCH  25  26
ATOM     26  O   UNL A   1      38.887  27.804  28.723  1.00  0.00    -0.376 OA
BRANCH  26  27
ATOM     27  C   UNL A   1      40.149  27.182  28.515  1.00  0.00     0.202 C 
BRANCH  27  28
ATOM     28  C   UNL A   1      40.391  26.796  27.051  1.00  0.00     0.261 C 
BRANCH  28  29
ATOM     29  O   UNL A   1      41.673  26.202  26.802  1.00  0.00    -0.460 OA
BRANCH  29  30
ATOM     30  C   UNL A   1      42.524  26.908  26.026  1.00  0.00     0.338 C 
ATOM     31  O   UNL A   1      42.804  26.696  24.859  1.00  0.00    -0.246 OA
BRANCH  30  32
ATOM     32  C   UNL A   1      42.940  28.108  26.775  1.00  0.00     0.060 A 
ATOM     33  C   UNL A   1      43.598  27.937  27.998  1.00  0.00     0.016 A 
ATOM     34  C   UNL A   1      42.660  29.386  26.285  1.00  0.00     0.016 A 
ATOM     35  C   UNL A   1      43.927  29.053  28.767  1.00  0.00     0.010 A 
ATOM     36  C   UNL A   1      42.982  30.501  27.059  1.00  0.00     0.010 A 
ATOM     37  C   UNL A   1      43.576  30.334  28.321  1.00  0.00    -0.014 A 
BRANCH  37  38
ATOM     38  C   UNL A   1      43.642  31.477  29.261  1.00  0.00     0.031 A 
ATOM     39  C   UNL A   1      44.867  32.351  29.233  1.00  0.00     0.074 A 
ATOM     40  C   UNL A   1      42.643  31.733  30.122  1.00  0.00     0.049 A 
ATOM     41  N   UNL A   1      45.139  33.417  29.938  1.00  0.00    -0.248 NA
ATOM     42  C   UNL A   1      45.927  31.969  28.284  1.00  0.00     0.031 C 
ATOM     43  C   UNL A   1      41.419  30.946  30.258  1.00  0.00     0.029 A 
ATOM     44  N   UNL A   1      42.516  32.723  31.064  1.00  0.00    -0.354 N 
ATOM     45  C   UNL A   1      46.401  33.828  29.526  1.00  0.00     0.074 A 
ATOM     46  C   UNL A   1      46.853  32.883  28.530  1.00  0.00     0.031 C 
ATOM     47  C   UNL A   1      40.677  31.468  31.251  1.00  0.00     0.029 A 
ATOM     48  C   UNL A   1      41.374  32.619  31.821  1.00  0.00     0.049 A 
ATOM     49  H   UNL A   1      43.181  33.439  31.186  1.00  0.00     0.167 HD
ATOM     50  C   UNL A   1      47.110  34.910  29.921  1.00  0.00     0.034 A 
ATOM     51  C   UNL A   1      40.948  33.367  32.859  1.00  0.00     0.034 A 
ATOM     52  C   UNL A   1      46.660  35.854  30.905  1.00  0.00     0.049 A 
ATOM     53  C   UNL A   1      41.764  34.559  33.291  1.00  0.00     0.074 A 
ATOM     54  C   UNL A   1      47.289  37.003  31.347  1.00  0.00     0.029 A 
ATOM     55  N   UNL A   1      45.472  35.749  31.612  1.00  0.00    -0.354 N 
ATOM     56  N   UNL A   1      42.884  35.022  32.789  1.00  0.00    -0.248 NA
ATOM     57  C   UNL A   1      41.237  35.357  34.408  1.00  0.00     0.031 C 
ATOM     58  C   UNL A   1      46.486  37.588  32.333  1.00  0.00     0.029 A 
ATOM     59  C   UNL A   1      45.350  36.809  32.492  1.00  0.00     0.049 A 
ATOM     60  H   UNL A   1      44.812  35.026  31.502  1.00  0.00     0.167 HD
ATOM     61  C   UNL A   1      43.178  36.178  33.505  1.00  0.00     0.074 A 
ATOM     62  C   UNL A   1      42.104  36.359  34.461  1.00  0.00     0.031 C 
ATOM     63  C   UNL A   1      44.246  37.006  33.396  1.00  0.00     0.034 A 
BRANCH  50  64
ATOM     64  C   UNL A   1      48.431  35.153  29.244  1.00  0.00     0.023 A 
ATOM     65  C   UNL A   1      49.575  34.466  29.701  1.00  0.00     0.012 A 
ATOM     66  C   UNL A   1      48.540  36.025  28.144  1.00  0.00     0.148 A 
ATOM     67  C   UNL A   1      50.812  34.662  29.090  1.00  0.00     0.002 A 
ATOM     68  C   UNL A   1      49.769  36.188  27.517  1.00  0.00     0.091 A 
ATOM     69  F   UNL A   1      47.447  36.691  27.745  1.00  0.00    -0.205 F 
ATOM     70  C   UNL A   1      50.907  35.514  27.994  1.00  0.00     0.022 A 
BRANCH  68  71
ATOM     71  S   UNL A   1      49.981  37.214  26.059  1.00  0.00     0.127 S 
ATOM     72  O   UNL A   1      49.747  38.551  26.602  1.00  0.00    -0.237 OA
ATOM     73  O   UNL A   1      51.370  36.941  25.687  1.00  0.00    -0.237 OA
ATOM     74  O   UNL A   1      48.995  36.746  25.095  1.00  0.00    -0.744 OA
ENDBRANCH  68  71
ENDBRANCH  50  64
BRANCH  51  75
ATOM     75  C   UNL A   1      39.659  33.042  33.532  1.00  0.00     0.023 A 
ATOM     76  C   UNL A   1      39.665  32.251  34.697  1.00  0.00     0.012 A 
ATOM     77  C   UNL A   1      38.432  33.520  33.032  1.00  0.00     0.148 A 
ATOM     78  C   UNL A   1      38.470  31.917  35.335  1.00  0.00     0.002 A 
ATOM     79  C   UNL A   1      37.250  33.227  33.702  1.00  0.00     0.091 A 
ATOM     80  F   UNL A   1      38.446  34.253  31.910  1.00  0.00    -0.205 F 
ATOM     81  C   UNL A   1      37.265  32.413  34.844  1.00  0.00     0.022 A 
BRANCH  79  82
ATOM     82  S   UNL A   1      35.670  33.924  33.209  1.00  0.00     0.127 S 
ATOM     83  O   UNL A   1      34.797  33.485  34.293  1.00  0.00    -0.237 OA
ATOM     84  O   UNL A   1      35.962  35.359  33.195  1.00  0.00    -0.237 OA
ATOM     85  O   UNL A   1      35.389  33.360  31.895  1.00  0.00    -0.744 OA
ENDBRANCH  79  82
ENDBRANCH  51  75
BRANCH  63  86
ATOM     86  C   UNL A   1      44.307  38.199  34.314  1.00  0.00     0.023 A 
ATOM     87  C   UNL A   1      44.989  38.098  35.542  1.00  0.00     0.012 A 
ATOM     88  C   UNL A   1      43.763  39.440  33.925  1.00  0.00     0.148 A 
ATOM     89  C   UNL A   1      45.106  39.205  36.382  1.00  0.00     0.002 A 
ATOM     90  C   UNL A   1      43.922  40.550  34.746  1.00  0.00     0.091 A 
ATOM     91  F   UNL A   1      43.100  39.513  32.761  1.00  0.00    -0.205 F 
ATOM     92  C   UNL A   1      44.584  40.432  35.979  1.00  0.00     0.022 A 
BRANCH  90  93
ATOM     93  S   UNL A   1      43.363  42.187  34.262  1.00  0.00     0.127 S 
ATOM     94  O   UNL A   1      43.759  42.992  35.417  1.00  0.00    -0.237 OA
ATOM     95  O   UNL A   1      44.141  42.440  33.049  1.00  0.00    -0.237 OA
ATOM     96  O   UNL A   1      41.929  42.067  34.040  1.00  0.00    -0.744 OA
ENDBRANCH  90  93
ENDBRANCH  63  86
ENDBRANCH  37  38
ENDBRANCH  30  32
ENDBRANCH  29  30
ENDBRANCH  28  29
ENDBRANCH  27  28
ENDBRANCH  26  27
ENDBRANCH  25  26
ENDBRANCH  24  25
ENDBRANCH   1  24
TORSDOF 26
ENDMDL
MODEL 2
REMARK VINA RESULT:      -7.5      5.611      8.016
REMARK SMILES CC[C@H]1CCCC[C@@H]1Sc1csc(C(=O)OCCOCCOCCOCCOC(=O)c2ccc(-c3c4nc(c(-c5cccc(S(=O)(=O)[O-])c5F)c5ccc([nH]5)c(-c5cccc(S(=O)(=O)[O-])c5F)c5nc(c(-c6cccc(S(=O)(=O)[O-])c6F)c6ccc3[nH]6)C=C5)C=C4)cc2)c1
REMARK SMILES IDX 22 1 21 2 20 3 19 4 18 5 17 6 16 7 14 8 15 9 13 10 10 11
REMARK SMILES IDX 11 12 94 13 12 14 9 15 8 16 3 17 4 18 5 19 7 20 6 21 2 22
REMARK SMILES IDX 1 23 23 24 24 25 25 26 26 27 27 28 28 29 29 30 30 31 31 32
REMARK SMILES IDX 32 33 93 34 33 35 92 36 34 37 35 38 36 39 86 40 37 41 91 42
REMARK SMILES IDX 85 43 87 44 38 45 90 46 84 47 83 48 39 50 71 51 51 52 70 53
REMARK SMILES IDX 52 54 55 55 69 56 88 57 53 58 54 59 68 61 89 62 56 63 40 64
REMARK SMILES IDX 41 65 49 66 42 67 44 68 50 69 43 70 45 71 46 72 47 73 48 74
REMARK SMILES IDX 72 75 73 76 81 77 74 78 76 79 82 80 75 81 77 82 78 83 79 84
REMARK SMILES IDX 80 85 57 86 58 87 66 88 59 89 61 90 67 91 60 92 62 93 63 94
REMARK SMILES IDX 64 95 65 96
REMARK H PARENT 87 49 55 60
REMARK Flexibility Score: inf
ROOT
ATOM      1  O   UNL A   1      40.773  24.648  28.019  1.00  0.00    -0.377 OA
ENDROOT
BRANCH   1   2
ATOM      2  C   UNL A   1      41.063  23.497  27.249  1.00  0.00     0.188 C 
BRANCH   2   3
ATOM      3  C   UNL A   1      39.974  22.413  27.300  1.00  0.00     0.188 C 
BRANCH   3   4
ATOM      4  O   UNL A   1      38.983  22.549  26.283  1.00  0.00    -0.376 OA
BRANCH   4   5
ATOM      5  C   UNL A   1      38.451  21.341  25.752  1.00  0.00     0.202 C 
BRANCH   5   6
ATOM      6  C   UNL A   1      37.408  21.509  24.639  1.00  0.00     0.261 C 
BRANCH   6   7
ATOM      7  O   UNL A   1      36.723  22.770  24.638  1.00  0.00    -0.459 OA
BRANCH   7   8
ATOM      8  C   UNL A   1      36.084  23.150  23.500  1.00  0.00     0.348 C 
ATOM      9  O   UNL A   1      36.506  22.953  22.366  1.00  0.00    -0.245 OA
BRANCH   8  10
ATOM     10  C   UNL A   1      34.795  23.700  23.857  1.00  0.00     0.113 A 
ATOM     11  C   UNL A   1      32.993  24.583  25.060  1.00  0.00     0.019 A 
ATOM     12  C   UNL A   1      32.419  24.364  23.831  1.00  0.00     0.080 A 
ATOM     13  C   UNL A   1      34.358  24.176  25.081  1.00  0.00     0.042 A 
ATOM     14  S   UNL A   1      33.542  23.747  22.691  1.00  0.00    -0.136 S 
BRANCH  11  15
ATOM     15  S   UNL A   1      32.260  25.268  26.501  1.00  0.00    -0.122 SA
BRANCH  15  16
ATOM     16  C   UNL A   1      31.506  26.855  25.961  1.00  0.00     0.055 C 
ATOM     17  C   UNL A   1      32.325  27.411  24.766  1.00  0.00     0.002 C 
ATOM     18  C   UNL A   1      33.652  28.060  25.205  1.00  0.00     0.005 C 
ATOM     19  C   UNL A   1      33.508  29.047  26.354  1.00  0.00     0.000 C 
ATOM     20  C   UNL A   1      31.443  27.820  27.159  1.00  0.00     0.015 C 
ATOM     21  C   UNL A   1      32.792  28.425  27.545  1.00  0.00     0.001 C 
BRANCH  17  22
ATOM     22  C   UNL A   1      31.520  28.311  23.791  1.00  0.00     0.001 C 
ATOM     23  C   UNL A   1      30.083  27.936  23.473  1.00  0.00     0.004 C 
ENDBRANCH  17  22
ENDBRANCH  15  16
ENDBRANCH  11  15
ENDBRANCH   8  10
ENDBRANCH   7   8
ENDBRANCH   6   7
ENDBRANCH   5   6
ENDBRANCH   4   5
ENDBRANCH   3   4
ENDBRANCH   2   3
ENDBRANCH   1   2
BRANCH   1  24
ATOM     24  C   UNL A   1      40.229  25.796  27.372  1.00  0.00     0.188 C 
BRANCH  24  25
ATOM     25  C   UNL A   1      41.093  26.756  26.525  1.00  0.00     0.188 C 
BRANCH  25  26
ATOM     26  O   UNL A   1      41.438  26.263  25.232  1.00  0.00    -0.376 OA
BRANCH  26  27
ATOM     27  C   UNL A   1      42.821  26.023  25.003  1.00  0.00     0.202 C 
BRANCH  27  28
ATOM     28  C   UNL A   1      43.721  27.120  25.583  1.00  0.00     0.261 C 
BRANCH  28  29
ATOM     29  O   UNL A   1      45.028  26.669  25.967  1.00  0.00    -0.460 OA
BRANCH  29  30
ATOM     30  C   UNL A   1      45.086  25.794  26.994  1.00  0.00     0.338 C 
ATOM     31  O   UNL A   1      45.462  24.635  26.953  1.00  0.00    -0.246 OA
BRANCH  30  32
ATOM     32  C   UNL A   1      44.778  26.524  28.237  1.00  0.00     0.060 A 
ATOM     33  C   UNL A   1      43.763  26.034  29.067  1.00  0.00     0.016 A 
ATOM     34  C   UNL A   1      45.469  27.693  28.566  1.00  0.00     0.016 A 
ATOM     35  C   UNL A   1      43.394  26.750  30.204  1.00  0.00     0.010 A 
ATOM     36  C   UNL A   1      45.093  28.414  29.700  1.00  0.00     0.010 A 
ATOM     37  C   UNL A   1      44.026  27.967  30.496  1.00  0.00    -0.014 A 
BRANCH  37  38
ATOM     38  C   UNL A   1      43.436  28.871  31.511  1.00  0.00     0.031 A 
ATOM     39  C   UNL A   1      43.944  28.782  32.924  1.00  0.00     0.074 A 
ATOM     40  C   UNL A   1      42.469  29.747  31.189  1.00  0.00     0.049 A 
ATOM     41  N   UNL A   1      43.602  29.483  33.973  1.00  0.00    -0.248 NA
ATOM     42  C   UNL A   1      44.976  27.764  33.190  1.00  0.00     0.031 C 
ATOM     43  C   UNL A   1      41.879  29.908  29.862  1.00  0.00     0.029 A 
ATOM     44  N   UNL A   1      41.796  30.652  31.971  1.00  0.00    -0.354 N 
ATOM     45  C   UNL A   1      44.366  28.988  35.022  1.00  0.00     0.074 A 
ATOM     46  C   UNL A   1      45.171  27.910  34.492  1.00  0.00     0.031 C 
ATOM     47  C   UNL A   1      40.910  30.838  29.928  1.00  0.00     0.029 A 
ATOM     48  C   UNL A   1      40.808  31.331  31.301  1.00  0.00     0.049 A 
ATOM     49  H   UNL A   1      42.003  30.800  32.923  1.00  0.00     0.167 HD
ATOM     50  C   UNL A   1      44.416  29.409  36.306  1.00  0.00     0.034 A 
ATOM     51  C   UNL A   1      39.920  32.241  31.750  1.00  0.00     0.034 A 
ATOM     52  C   UNL A   1      43.622  30.483  36.834  1.00  0.00     0.049 A 
ATOM     53  C   UNL A   1      39.984  32.683  33.191  1.00  0.00     0.074 A 
ATOM     54  C   UNL A   1      43.625  31.010  38.112  1.00  0.00     0.029 A 
ATOM     55  N   UNL A   1      42.670  31.187  36.112  1.00  0.00    -0.354 N 
ATOM     56  N   UNL A   1      40.817  32.312  34.134  1.00  0.00    -0.248 NA
ATOM     57  C   UNL A   1      39.012  33.700  33.618  1.00  0.00     0.031 C 
ATOM     58  C   UNL A   1      42.665  32.026  38.168  1.00  0.00     0.029 A 
ATOM     59  C   UNL A   1      42.074  32.140  36.918  1.00  0.00     0.049 A 
ATOM     60  H   UNL A   1      42.451  31.032  35.164  1.00  0.00     0.167 HD
ATOM     61  C   UNL A   1      40.490  33.070  35.255  1.00  0.00     0.074 A 
ATOM     62  C   UNL A   1      39.399  33.939  34.865  1.00  0.00     0.031 C 
ATOM     63  C   UNL A   1      41.030  33.038  36.498  1.00  0.00     0.034 A 
BRANCH  50  64
ATOM     64  C   UNL A   1      45.402  28.730  37.217  1.00  0.00     0.023 A 
ATOM     65  C   UNL A   1      46.671  29.313  37.413  1.00  0.00     0.012 A 
ATOM     66  C   UNL A   1      45.070  27.547  37.903  1.00  0.00     0.148 A 
ATOM     67  C   UNL A   1      47.604  28.715  38.257  1.00  0.00     0.002 A 
ATOM     68  C   UNL A   1      45.992  26.976  38.771  1.00  0.00     0.091 A 
ATOM     69  F   UNL A   1      43.869  26.993  37.679  1.00  0.00    -0.205 F 
ATOM     70  C   UNL A   1      47.262  27.553  38.942  1.00  0.00     0.022 A 
BRANCH  68  71
ATOM     71  S   UNL A   1      45.623  25.515  39.748  1.00  0.00     0.127 S 
ATOM     72  O   UNL A   1      46.925  25.221  40.343  1.00  0.00    -0.237 OA
ATOM     73  O   UNL A   1      44.621  26.017  40.690  1.00  0.00    -0.237 OA
ATOM     74  O   UNL A   1      45.123  24.522  38.808  1.00  0.00    -0.744 OA
ENDBRANCH  68  71
ENDBRANCH  50  64
BRANCH  51  75
ATOM     75  C   UNL A   1      38.924  32.835  30.815  1.00  0.00     0.023 A 
ATOM     76  C   UNL A   1      39.259  33.996  30.091  1.00  0.00     0.012 A 
ATOM     77  C   UNL A   1      37.655  32.253  30.631  1.00  0.00     0.148 A 
ATOM     78  C   UNL A   1      38.337  34.584  29.224  1.00  0.00     0.002 A 
ATOM     79  C   UNL A   1      36.761  32.813  29.726  1.00  0.00     0.091 A 
ATOM     80  F   UNL A   1      37.348  31.160  31.345  1.00  0.00    -0.205 F 
ATOM     81  C   UNL A   1      37.094  33.987  29.034  1.00  0.00     0.022 A 
BRANCH  79  82
ATOM     82  S   UNL A   1      35.188  32.042  29.331  1.00  0.00     0.127 S 
ATOM     83  O   UNL A   1      35.572  30.643  29.170  1.00  0.00    -0.237 OA
ATOM     84  O   UNL A   1      34.398  32.330  30.529  1.00  0.00    -0.237 OA
ATOM     85  O   UNL A   1      34.715  32.715  28.128  1.00  0.00    -0.744 OA
ENDBRANCH  79  82
ENDBRANCH  51  75
BRANCH  63  86
ATOM     86  C   UNL A   1      40.471  33.983  37.531  1.00  0.00     0.023 A 
ATOM     87  C   UNL A   1      40.720  35.365  37.414  1.00  0.00     0.012 A 
ATOM     88  C   UNL A   1      39.635  33.515  38.563  1.00  0.00     0.148 A 
ATOM     89  C   UNL A   1      40.166  36.264  38.326  1.00  0.00     0.002 A 
ATOM     90  C   UNL A   1      39.051  34.420  39.441  1.00  0.00     0.091 A 
ATOM     91  F   UNL A   1      39.426  32.194  38.670  1.00  0.00    -0.205 F 
ATOM     92  C   UNL A   1      39.323  35.793  39.331  1.00  0.00     0.022 A 
BRANCH  90  93
ATOM     93  S   UNL A   1      37.880  33.910  40.705  1.00  0.00     0.127 S 
ATOM     94  O   UNL A   1      37.566  35.183  41.353  1.00  0.00    -0.237 OA
ATOM     95  O   UNL A   1      36.788  33.344  39.913  1.00  0.00    -0.237 OA
ATOM     96  O   UNL A   1      38.586  32.940  41.531  1.00  0.00    -0.744 OA
ENDBRANCH  90  93
ENDBRANCH  63  86
ENDBRANCH  37  38
ENDBRANCH  30  32
ENDBRANCH  29  30
ENDBRANCH  28  29
ENDBRANCH  27  28
ENDBRANCH  26  27
ENDBRANCH  25  26
ENDBRANCH  24  25
ENDBRANCH   1  24
TORSDOF 26
ENDMDL
MODEL 3
REMARK VINA RESULT:      -7.3      2.192      7.710
REMARK SMILES CC[C@H]1CCCC[C@@H]1Sc1csc(C(=O)OCCOCCOCCOCCOC(=O)c2ccc(-c3c4nc(c(-c5cccc(S(=O)(=O)[O-])c5F)c5ccc([nH]5)c(-c5cccc(S(=O)(=O)[O-])c5F)c5nc(c(-c6cccc(S(=O)(=O)[O-])c6F)c6ccc3[nH]6)C=C5)C=C4)cc2)c1
REMARK SMILES IDX 22 1 21 2 20 3 19 4 18 5 17 6 16 7 14 8 15 9 13 10 10 11
REMARK SMILES IDX 11 12 94 13 12 14 9 15 8 16 3 17 4 18 5 19 7 20 6 21 2 22
REMARK SMILES IDX 1 23 23 24 24 25 25 26 26 27 27 28 28 29 29 30 30 31 31 32
REMARK SMILES IDX 32 33 93 34 33 35 92 36 34 37 35 38 36 39 86 40 37 41 91 42
REMARK SMILES IDX 85 43 87 44 38 45 90 46 84 47 83 48 39 50 71 51 51 52 70 53
REMARK SMILES IDX 52 54 55 55 69 56 88 57 53 58 54 59 68 61 89 62 56 63 40 64
REMARK SMILES IDX 41 65 49 66 42 67 44 68 50 69 43 70 45 71 46 72 47 73 48 74
REMARK SMILES IDX 72 75 73 76 81 77 74 78 76 79 82 80 75 81 77 82 78 83 79 84
REMARK SMILES IDX 80 85 57 86 58 87 66 88 59 89 61 90 67 91 60 92 62 93 63 94
REMARK SMILES IDX 64 95 65 96
REMARK H PARENT 87 49 55 60
REMARK Flexibility Score: inf
ROOT
ATOM      1  O   UNL A   1      36.639  30.341  30.299  1.00  0.00    -0.377 OA
ENDROOT
BRANCH   1   2
ATOM      2  C   UNL A   1      36.987  30.950  29.070  1.00  0.00     0.188 C 
BRANCH   2   3
ATOM      3  C   UNL A   1      35.874  30.913  28.010  1.00  0.00     0.188 C 
BRANCH   3   4
ATOM      4  O   UNL A   1      35.821  29.689  27.279  1.00  0.00    -0.376 OA
BRANCH   4   5
ATOM      5  C   UNL A   1      34.574  29.003  27.283  1.00  0.00     0.202 C 
BRANCH   5   6
ATOM      6  C   UNL A   1      33.385  29.788  26.711  1.00  0.00     0.261 C 
BRANCH   6   7
ATOM      7  O   UNL A   1      32.144  29.067  26.679  1.00  0.00    -0.459 OA
BRANCH   7   8
ATOM      8  C   UNL A   1      31.652  28.696  25.469  1.00  0.00     0.348 C 
ATOM      9  O   UNL A   1      31.172  29.468  24.645  1.00  0.00    -0.245 OA
BRANCH   8  10
ATOM     10  C   UNL A   1      31.903  27.284  25.281  1.00  0.00     0.113 A 
ATOM     11  C   UNL A   1      32.859  25.246  24.642  1.00  0.00     0.019 A 
ATOM     12  C   UNL A   1      31.641  24.835  25.132  1.00  0.00     0.080 A 
ATOM     13  C   UNL A   1      32.998  26.662  24.706  1.00  0.00     0.042 A 
ATOM     14  S   UNL A   1      30.711  26.142  25.737  1.00  0.00    -0.136 S 
BRANCH  11  15
ATOM     15  S   UNL A   1      34.162  24.264  23.994  1.00  0.00    -0.122 SA
BRANCH  15  16
ATOM     16  C   UNL A   1      35.156  23.745  25.451  1.00  0.00     0.055 C 
ATOM     17  C   UNL A   1      36.613  23.480  24.989  1.00  0.00     0.002 C 
ATOM     18  C   UNL A   1      36.769  22.131  24.258  1.00  0.00     0.005 C 
ATOM     19  C   UNL A   1      36.141  20.955  24.991  1.00  0.00     0.000 C 
ATOM     20  C   UNL A   1      34.491  22.521  26.107  1.00  0.00     0.015 C 
ATOM     21  C   UNL A   1      34.680  21.217  25.332  1.00  0.00     0.001 C 
BRANCH  17  22
ATOM     22  C   UNL A   1      37.690  23.687  26.086  1.00  0.00     0.001 C 
ATOM     23  C   UNL A   1      38.862  22.722  26.146  1.00  0.00     0.004 C 
ENDBRANCH  17  22
ENDBRANCH  15  16
ENDBRANCH  11  15
ENDBRANCH   8  10
ENDBRANCH   7   8
ENDBRANCH   6   7
ENDBRANCH   5   6
ENDBRANCH   4   5
ENDBRANCH   3   4
ENDBRANCH   2   3
ENDBRANCH   1   2
BRANCH   1  24
ATOM     24  C   UNL A   1      37.055  29.001  30.550  1.00  0.00     0.188 C 
BRANCH  24  25
ATOM     25  C   UNL A   1      38.464  28.487  30.179  1.00  0.00     0.188 C 
BRANCH  25  26
ATOM     26  O   UNL A   1      38.485  27.488  29.161  1.00  0.00    -0.376 OA
BRANCH  26  27
ATOM     27  C   UNL A   1      39.752  26.902  28.886  1.00  0.00     0.202 C 
BRANCH  27  28
ATOM     28  C   UNL A   1      39.775  26.122  27.567  1.00  0.00     0.261 C 
BRANCH  28  29
ATOM     29  O   UNL A   1      41.032  25.496  27.275  1.00  0.00    -0.460 OA
BRANCH  29  30
ATOM     30  C   UNL A   1      41.718  25.984  26.218  1.00  0.00     0.338 C 
ATOM     31  O   UNL A   1      41.731  25.542  25.082  1.00  0.00    -0.246 OA
BRANCH  30  32
ATOM     32  C   UNL A   1      42.327  27.266  26.618  1.00  0.00     0.060 A 
ATOM     33  C   UNL A   1      43.290  27.260  27.632  1.00  0.00     0.016 A 
ATOM     34  C   UNL A   1      41.931  28.461  26.013  1.00  0.00     0.016 A 
ATOM     35  C   UNL A   1      43.821  28.466  28.088  1.00  0.00     0.010 A 
ATOM     36  C   UNL A   1      42.456  29.668  26.476  1.00  0.00     0.010 A 
ATOM     37  C   UNL A   1      43.368  29.676  27.544  1.00  0.00    -0.014 A 
BRANCH  37  38
ATOM     38  C   UNL A   1      43.691  30.949  28.227  1.00  0.00     0.031 A 
ATOM     39  C   UNL A   1      42.779  31.419  29.328  1.00  0.00     0.074 A 
ATOM     40  C   UNL A   1      44.766  31.677  27.878  1.00  0.00     0.049 A 
ATOM     41  N   UNL A   1      42.871  32.481  30.083  1.00  0.00    -0.248 NA
ATOM     42  C   UNL A   1      41.605  30.576  29.614  1.00  0.00     0.031 C 
ATOM     43  C   UNL A   1      45.708  31.339  26.813  1.00  0.00     0.029 A 
ATOM     44  N   UNL A   1      45.228  32.870  28.374  1.00  0.00    -0.354 N 
ATOM     45  C   UNL A   1      41.766  32.441  30.925  1.00  0.00     0.074 A 
ATOM     46  C   UNL A   1      41.003  31.265  30.572  1.00  0.00     0.031 C 
ATOM     47  C   UNL A   1      46.623  32.320  26.716  1.00  0.00     0.029 A 
ATOM     48  C   UNL A   1      46.327  33.355  27.706  1.00  0.00     0.049 A 
ATOM     49  H   UNL A   1      44.812  33.335  29.135  1.00  0.00     0.167 HD
ATOM     50  C   UNL A   1      41.429  33.291  31.922  1.00  0.00     0.034 A 
ATOM     51  C   UNL A   1      47.009  34.505  27.874  1.00  0.00     0.034 A 
ATOM     52  C   UNL A   1      42.189  34.456  32.279  1.00  0.00     0.049 A 
ATOM     53  C   UNL A   1      46.604  35.445  28.982  1.00  0.00     0.074 A 
ATOM     54  C   UNL A   1      41.951  35.361  33.297  1.00  0.00     0.029 A 
ATOM     55  N   UNL A   1      43.329  34.887  31.617  1.00  0.00    -0.354 N 
ATOM     56  N   UNL A   1      45.646  35.317  29.868  1.00  0.00    -0.248 NA
ATOM     57  C   UNL A   1      47.402  36.671  29.140  1.00  0.00     0.031 C 
ATOM     58  C   UNL A   1      42.942  36.348  33.244  1.00  0.00     0.029 A 
ATOM     59  C   UNL A   1      43.804  36.048  32.200  1.00  0.00     0.049 A 
ATOM     60  H   UNL A   1      43.740  34.432  30.846  1.00  0.00     0.167 HD
ATOM     61  C   UNL A   1      45.744  36.425  30.705  1.00  0.00     0.074 A 
ATOM     62  C   UNL A   1      46.872  37.202  30.234  1.00  0.00     0.031 C 
ATOM     63  C   UNL A   1      44.963  36.778  31.755  1.00  0.00     0.034 A 
BRANCH  50  64
ATOM     64  C   UNL A   1      40.205  32.957  32.729  1.00  0.00     0.023 A 
ATOM     65  C   UNL A   1      38.933  33.292  32.220  1.00  0.00     0.012 A 
ATOM     66  C   UNL A   1      40.303  32.288  33.963  1.00  0.00     0.148 A 
ATOM     67  C   UNL A   1      37.778  32.989  32.938  1.00  0.00     0.002 A 
ATOM     68  C   UNL A   1      39.145  31.956  34.657  1.00  0.00     0.091 A 
ATOM     69  F   UNL A   1      41.522  32.005  34.443  1.00  0.00    -0.205 F 
ATOM     70  C   UNL A   1      37.884  32.313  34.150  1.00  0.00     0.022 A 
BRANCH  68  71
ATOM     71  S   UNL A   1      39.174  31.029  36.195  1.00  0.00     0.127 S 
ATOM     72  O   UNL A   1      39.875  31.954  37.084  1.00  0.00    -0.237 OA
ATOM     73  O   UNL A   1      37.749  30.867  36.486  1.00  0.00    -0.237 OA
ATOM     74  O   UNL A   1      39.875  29.788  35.900  1.00  0.00    -0.744 OA
ENDBRANCH  68  71
ENDBRANCH  50  64
BRANCH  51  75
ATOM     75  C   UNL A   1      48.178  34.813  27.004  1.00  0.00     0.023 A 
ATOM     76  C   UNL A   1      47.973  35.449  25.764  1.00  0.00     0.012 A 
ATOM     77  C   UNL A   1      49.490  34.490  27.401  1.00  0.00     0.148 A 
ATOM     78  C   UNL A   1      49.049  35.730  24.922  1.00  0.00     0.002 A 
ATOM     79  C   UNL A   1      50.563  34.820  26.581  1.00  0.00     0.091 A 
ATOM     80  F   UNL A   1      49.664  33.865  28.575  1.00  0.00    -0.205 F 
ATOM     81  C   UNL A   1      50.344  35.426  25.335  1.00  0.00     0.022 A 
BRANCH  79  82
ATOM     82  S   UNL A   1      52.269  34.574  27.088  1.00  0.00     0.127 S 
ATOM     83  O   UNL A   1      52.984  35.451  26.166  1.00  0.00    -0.237 OA
ATOM     84  O   UNL A   1      52.242  35.033  28.478  1.00  0.00    -0.237 OA
ATOM     85  O   UNL A   1      52.519  33.147  26.934  1.00  0.00    -0.744 OA
ENDBRANCH  79  82
ENDBRANCH  51  75
BRANCH  63  86
ATOM     86  C   UNL A   1      45.306  38.048  32.490  1.00  0.00     0.023 A 
ATOM     87  C   UNL A   1      44.731  39.266  32.077  1.00  0.00     0.012 A 
ATOM     88  C   UNL A   1      46.127  38.023  33.635  1.00  0.00     0.148 A 
ATOM     89  C   UNL A   1      44.989  40.445  32.777  1.00  0.00     0.002 A 
ATOM     90  C   UNL A   1      46.344  39.193  34.352  1.00  0.00     0.091 A 
ATOM     91  F   UNL A   1      46.681  36.857  34.001  1.00  0.00    -0.205 F 
ATOM     92  C   UNL A   1      45.785  40.406  33.920  1.00  0.00     0.022 A 
BRANCH  90  93
ATOM     93  S   UNL A   1      47.279  39.216  35.887  1.00  0.00     0.127 S 
ATOM     94  O   UNL A   1      47.076  40.591  36.339  1.00  0.00    -0.237 OA
ATOM     95  O   UNL A   1      46.591  38.204  36.689  1.00  0.00    -0.237 OA
ATOM     96  O   UNL A   1      48.645  38.867  35.524  1.00  0.00    -0.744 OA
ENDBRANCH  90  93
ENDBRANCH  63  86
ENDBRANCH  37  38
ENDBRANCH  30  32
ENDBRANCH  29  30
ENDBRANCH  28  29
ENDBRANCH  27  28
ENDBRANCH  26  27
ENDBRANCH  25  26
ENDBRANCH  24  25
ENDBRANCH   1  24
TORSDOF 26
ENDMDL
