MODEL 1
REMARK VINA RESULT:      -8.8      0.000      0.000
REMARK SMILES CC[C@H](NC(=O)N1CCO[C@@H](CC(=O)OCCOCCOCCOCCOC(=O)c2ccc(-c3c4nc(c(-c5cccc(S(=O)(=O)[O-])c5F)c5ccc([nH]5)c(-c5cccc(S(=O)(=O)[O-])c5F)c5nc(c(-c6cccc(S(=O)(=O)[O-])c6F)c6ccc3[nH]6)C=C5)C=C4)cc2)C1)c1cccs1
REMARK SMILES IDX 20 1 19 2 18 3 17 4 16 5 15 6 13 7 14 8 12 9 11 10 7 11 8 12
REMARK SMILES IDX 93 13 9 14 10 15 5 16 4 17 6 19 3 20 2 21 1 22 94 23 95 24
REMARK SMILES IDX 98 25 96 26 97 27 21 28 22 29 23 30 24 31 25 32 26 33 27 34
REMARK SMILES IDX 28 35 29 36 30 37 31 38 92 39 32 40 91 41 33 42 34 43 35 44
REMARK SMILES IDX 85 45 36 46 90 47 84 48 86 49 37 50 89 51 83 52 82 53 38 55
REMARK SMILES IDX 70 56 50 57 69 58 51 59 54 60 68 61 87 62 52 63 53 64 67 66
REMARK SMILES IDX 88 67 55 68 39 69 40 70 48 71 41 72 43 73 49 74 42 75 44 76
REMARK SMILES IDX 45 77 46 78 47 79 71 80 72 81 80 82 73 83 75 84 81 85 74 86
REMARK SMILES IDX 76 87 77 88 78 89 79 90 56 91 57 92 65 93 58 94 60 95 66 96
REMARK SMILES IDX 59 97 61 98 62 99 63 100 64 101
REMARK H PARENT 4 18 86 54 54 65
REMARK Flexibility Score: inf
ROOT
ATOM      1  C   UNL A   1      42.126  21.878  26.589  1.00  0.00     0.188 C 
ENDROOT
BRANCH   1   2
ATOM      2  C   UNL A   1      40.865  21.207  27.145  1.00  0.00     0.188 C 
BRANCH   2   3
ATOM      3  O   UNL A   1      39.740  22.005  27.444  1.00  0.00    -0.376 OA
BRANCH   3   4
ATOM      4  C   UNL A   1      39.675  23.376  27.074  1.00  0.00     0.202 C 
BRANCH   4   5
ATOM      5  C   UNL A   1      38.638  24.020  26.135  1.00  0.00     0.261 C 
BRANCH   5   6
ATOM      6  O   UNL A   1      37.258  23.932  26.499  1.00  0.00    -0.463 OA
BRANCH   6   7
ATOM      7  C   UNL A   1      36.388  23.807  25.480  1.00  0.00     0.308 C 
ATOM      8  O   UNL A   1      36.648  23.252  24.414  1.00  0.00    -0.252 OA
BRANCH   7   9
ATOM      9  C   UNL A   1      35.025  24.390  25.731  1.00  0.00     0.156 C 
BRANCH   9  10
ATOM     10  C   UNL A   1      33.908  24.374  24.695  1.00  0.00     0.149 C 
ATOM     11  N   UNL A   1      33.004  24.522  22.424  1.00  0.00    -0.320 N 
ATOM     12  C   UNL A   1      32.280  23.275  22.618  1.00  0.00     0.150 C 
ATOM     13  C   UNL A   1      34.257  24.578  23.209  1.00  0.00     0.154 C 
ATOM     14  C   UNL A   1      32.090  22.956  24.103  1.00  0.00     0.182 C 
ATOM     15  O   UNL A   1      33.306  23.054  24.849  1.00  0.00    -0.374 OA
BRANCH  11  16
ATOM     16  C   UNL A   1      32.794  25.458  21.461  1.00  0.00     0.318 C 
ATOM     17  N   UNL A   1      32.398  26.715  21.714  1.00  0.00    -0.330 N 
ATOM     18  H   UNL A   1      32.189  27.174  20.869  1.00  0.00     0.166 HD
ATOM     19  O   UNL A   1      33.017  25.229  20.267  1.00  0.00    -0.249 OA
BRANCH  17  20
ATOM     20  C   UNL A   1      32.176  27.624  22.835  1.00  0.00     0.124 C 
BRANCH  20  21
ATOM     21  C   UNL A   1      31.825  29.073  22.431  1.00  0.00     0.027 C 
ATOM     22  C   UNL A   1      30.349  29.441  22.370  1.00  0.00     0.006 C 
ENDBRANCH  20  21
BRANCH  20  23
ATOM     23  C   UNL A   1      31.435  27.033  24.017  1.00  0.00     0.027 A 
ATOM     24  C   UNL A   1      31.764  27.003  25.365  1.00  0.00     0.017 A 
ATOM     25  S   UNL A   1      29.980  26.150  23.747  1.00  0.00    -0.147 S 
ATOM     26  C   UNL A   1      30.798  26.317  26.163  1.00  0.00     0.012 A 
ATOM     27  C   UNL A   1      29.766  25.818  25.404  1.00  0.00     0.065 A 
ENDBRANCH  20  23
ENDBRANCH  17  20
ENDBRANCH  11  16
ENDBRANCH   9  10
ENDBRANCH   7   9
ENDBRANCH   6   7
ENDBRANCH   5   6
ENDBRANCH   4   5
ENDBRANCH   3   4
ENDBRANCH   2   3
ENDBRANCH   1   2
BRANCH   1  28
ATOM     28  O   UNL A   1      43.153  21.000  26.201  1.00  0.00    -0.377 OA
BRANCH  28  29
ATOM     29  C   UNL A   1      42.844  19.705  25.695  1.00  0.00     0.188 C 
BRANCH  29  30
ATOM     30  C   UNL A   1      43.848  18.538  25.802  1.00  0.00     0.188 C 
BRANCH  30  31
ATOM     31  O   UNL A   1      44.625  18.316  24.635  1.00  0.00    -0.376 OA
BRANCH  31  32
ATOM     32  C   UNL A   1      45.231  19.436  24.014  1.00  0.00     0.202 C 
BRANCH  32  33
ATOM     33  C   UNL A   1      46.056  20.385  24.892  1.00  0.00     0.261 C 
BRANCH  33  34
ATOM     34  O   UNL A   1      46.380  21.661  24.323  1.00  0.00    -0.460 OA
BRANCH  34  35
ATOM     35  C   UNL A   1      45.353  22.476  24.017  1.00  0.00     0.338 C 
ATOM     36  O   UNL A   1      44.446  22.244  23.225  1.00  0.00    -0.246 OA
BRANCH  35  37
ATOM     37  C   UNL A   1      45.395  23.636  24.927  1.00  0.00     0.060 A 
ATOM     38  C   UNL A   1      46.601  23.945  25.569  1.00  0.00     0.016 A 
ATOM     39  C   UNL A   1      44.255  24.412  25.153  1.00  0.00     0.016 A 
ATOM     40  C   UNL A   1      46.666  25.019  26.458  1.00  0.00     0.010 A 
ATOM     41  C   UNL A   1      44.317  25.476  26.060  1.00  0.00     0.010 A 
ATOM     42  C   UNL A   1      45.516  25.768  26.735  1.00  0.00    -0.014 A 
BRANCH  42  43
ATOM     43  C   UNL A   1      45.529  26.774  27.825  1.00  0.00     0.031 A 
ATOM     44  C   UNL A   1      45.324  26.316  29.241  1.00  0.00     0.074 A 
ATOM     45  C   UNL A   1      45.704  28.080  27.558  1.00  0.00     0.049 A 
ATOM     46  N   UNL A   1      45.238  27.020  30.339  1.00  0.00    -0.248 NA
ATOM     47  C   UNL A   1      45.197  24.864  29.445  1.00  0.00     0.031 C 
ATOM     48  C   UNL A   1      45.934  28.646  26.231  1.00  0.00     0.029 A 
ATOM     49  N   UNL A   1      45.688  29.169  28.394  1.00  0.00    -0.354 N 
ATOM     50  C   UNL A   1      45.007  26.105  31.359  1.00  0.00     0.074 A 
ATOM     51  C   UNL A   1      44.966  24.794  30.748  1.00  0.00     0.031 C 
ATOM     52  C   UNL A   1      46.019  29.983  26.338  1.00  0.00     0.029 A 
ATOM     53  C   UNL A   1      45.806  30.368  27.733  1.00  0.00     0.049 A 
ATOM     54  H   UNL A   1      45.601  29.098  29.372  1.00  0.00     0.167 HD
ATOM     55  C   UNL A   1      44.848  26.335  32.686  1.00  0.00     0.034 A 
ATOM     56  C   UNL A   1      45.717  31.631  28.194  1.00  0.00     0.034 A 
ATOM     57  C   UNL A   1      44.893  27.640  33.288  1.00  0.00     0.049 A 
ATOM     58  C   UNL A   1      45.468  31.866  29.663  1.00  0.00     0.074 A 
ATOM     59  C   UNL A   1      44.801  27.973  34.628  1.00  0.00     0.029 A 
ATOM     60  N   UNL A   1      45.009  28.832  32.588  1.00  0.00    -0.354 N 
ATOM     61  N   UNL A   1      45.371  30.991  30.636  1.00  0.00    -0.248 NA
ATOM     62  C   UNL A   1      45.330  33.264  30.100  1.00  0.00     0.031 C 
ATOM     63  C   UNL A   1      44.810  29.369  34.732  1.00  0.00     0.029 A 
ATOM     64  C   UNL A   1      44.950  29.905  33.461  1.00  0.00     0.049 A 
ATOM     65  H   UNL A   1      45.117  28.905  31.612  1.00  0.00     0.167 HD
ATOM     66  C   UNL A   1      45.184  31.731  31.800  1.00  0.00     0.074 A 
ATOM     67  C   UNL A   1      45.204  33.127  31.413  1.00  0.00     0.031 C 
ATOM     68  C   UNL A   1      44.998  31.293  33.071  1.00  0.00     0.034 A 
BRANCH  55  69
ATOM     69  C   UNL A   1      44.596  25.138  33.568  1.00  0.00     0.023 A 
ATOM     70  C   UNL A   1      43.277  24.784  33.920  1.00  0.00     0.012 A 
ATOM     71  C   UNL A   1      45.669  24.355  34.038  1.00  0.00     0.148 A 
ATOM     72  C   UNL A   1      43.034  23.704  34.768  1.00  0.00     0.002 A 
ATOM     73  C   UNL A   1      45.414  23.251  34.844  1.00  0.00     0.091 A 
ATOM     74  F   UNL A   1      46.917  24.717  33.714  1.00  0.00    -0.205 F 
ATOM     75  C   UNL A   1      44.100  22.934  35.222  1.00  0.00     0.022 A 
BRANCH  73  76
ATOM     76  S   UNL A   1      46.716  22.154  35.416  1.00  0.00     0.127 S 
ATOM     77  O   UNL A   1      46.950  21.330  34.230  1.00  0.00    -0.237 OA
ATOM     78  O   UNL A   1      47.796  23.092  35.727  1.00  0.00    -0.237 OA
ATOM     79  O   UNL A   1      46.171  21.454  36.569  1.00  0.00    -0.744 OA
ENDBRANCH  73  76
ENDBRANCH  55  69
BRANCH  56  80
ATOM     80  C   UNL A   1      45.891  32.776  27.256  1.00  0.00     0.023 A 
ATOM     81  C   UNL A   1      44.755  33.345  26.648  1.00  0.00     0.012 A 
ATOM     82  C   UNL A   1      47.161  33.327  26.993  1.00  0.00     0.148 A 
ATOM     83  C   UNL A   1      44.882  34.434  25.784  1.00  0.00     0.002 A 
ATOM     84  C   UNL A   1      47.274  34.443  26.174  1.00  0.00     0.091 A 
ATOM     85  F   UNL A   1      48.230  32.759  27.570  1.00  0.00    -0.205 F 
ATOM     86  C   UNL A   1      46.138  34.989  25.557  1.00  0.00     0.022 A 
BRANCH  84  87
ATOM     87  S   UNL A   1      48.831  35.300  25.907  1.00  0.00     0.127 S 
ATOM     88  O   UNL A   1      48.379  36.585  25.376  1.00  0.00    -0.237 OA
ATOM     89  O   UNL A   1      49.378  35.353  27.262  1.00  0.00    -0.237 OA
ATOM     90  O   UNL A   1      49.588  34.475  24.976  1.00  0.00    -0.744 OA
ENDBRANCH  84  87
ENDBRANCH  56  80
BRANCH  68  91
ATOM     91  C   UNL A   1      44.808  32.328  34.152  1.00  0.00     0.023 A 
ATOM     92  C   UNL A   1      45.932  32.867  34.810  1.00  0.00     0.012 A 
ATOM     93  C   UNL A   1      43.526  32.830  34.457  1.00  0.00     0.148 A 
ATOM     94  C   UNL A   1      45.783  33.867  35.770  1.00  0.00     0.002 A 
ATOM     95  C   UNL A   1      43.390  33.862  35.379  1.00  0.00     0.091 A 
ATOM     96  F   UNL A   1      42.468  32.297  33.831  1.00  0.00    -0.205 F 
ATOM     97  C   UNL A   1      44.515  34.373  36.045  1.00  0.00     0.022 A 
BRANCH  95  98
ATOM     98  S   UNL A   1      41.811  34.644  35.734  1.00  0.00     0.127 S 
ATOM     99  O   UNL A   1      41.357  35.021  34.395  1.00  0.00    -0.237 OA
ATOM    100  O   UNL A   1      41.057  33.549  36.346  1.00  0.00    -0.237 OA
ATOM    101  O   UNL A   1      42.101  35.757  36.626  1.00  0.00    -0.744 OA
ENDBRANCH  95  98
ENDBRANCH  68  91
ENDBRANCH  42  43
ENDBRANCH  35  37
ENDBRANCH  34  35
ENDBRANCH  33  34
ENDBRANCH  32  33
ENDBRANCH  31  32
ENDBRANCH  30  31
ENDBRANCH  29  30
ENDBRANCH  28  29
ENDBRANCH   1  28
TORSDOF 28
ENDMDL
MODEL 2
REMARK VINA RESULT:      -8.8      1.492      2.629
REMARK SMILES CC[C@H](NC(=O)N1CCO[C@@H](CC(=O)OCCOCCOCCOCCOC(=O)c2ccc(-c3c4nc(c(-c5cccc(S(=O)(=O)[O-])c5F)c5ccc([nH]5)c(-c5cccc(S(=O)(=O)[O-])c5F)c5nc(c(-c6cccc(S(=O)(=O)[O-])c6F)c6ccc3[nH]6)C=C5)C=C4)cc2)C1)c1cccs1
REMARK SMILES IDX 20 1 19 2 18 3 17 4 16 5 15 6 13 7 14 8 12 9 11 10 7 11 8 12
REMARK SMILES IDX 93 13 9 14 10 15 5 16 4 17 6 19 3 20 2 21 1 22 94 23 95 24
REMARK SMILES IDX 98 25 96 26 97 27 21 28 22 29 23 30 24 31 25 32 26 33 27 34
REMARK SMILES IDX 28 35 29 36 30 37 31 38 92 39 32 40 91 41 33 42 34 43 35 44
REMARK SMILES IDX 85 45 36 46 90 47 84 48 86 49 37 50 89 51 83 52 82 53 38 55
REMARK SMILES IDX 70 56 50 57 69 58 51 59 54 60 68 61 87 62 52 63 53 64 67 66
REMARK SMILES IDX 88 67 55 68 39 69 40 70 48 71 41 72 43 73 49 74 42 75 44 76
REMARK SMILES IDX 45 77 46 78 47 79 71 80 72 81 80 82 73 83 75 84 81 85 74 86
REMARK SMILES IDX 76 87 77 88 78 89 79 90 56 91 57 92 65 93 58 94 60 95 66 96
REMARK SMILES IDX 59 97 61 98 62 99 63 100 64 101
REMARK H PARENT 4 18 86 54 54 65
REMARK Flexibility Score: inf
ROOT
ATOM      1  C   UNL A   1      42.056  21.467  26.487  1.00  0.00     0.188 C 
ENDROOT
BRANCH   1   2
ATOM      2  C   UNL A   1      40.837  20.645  26.918  1.00  0.00     0.188 C 
BRANCH   2   3
ATOM      3  O   UNL A   1      39.586  21.289  27.040  1.00  0.00    -0.376 OA
BRANCH   3   4
ATOM      4  C   UNL A   1      39.152  22.266  26.103  1.00  0.00     0.202 C 
BRANCH   4   5
ATOM      5  C   UNL A   1      37.717  22.449  25.576  1.00  0.00     0.261 C 
BRANCH   5   6
ATOM      6  O   UNL A   1      37.122  23.745  25.686  1.00  0.00    -0.463 OA
BRANCH   6   7
ATOM      7  C   UNL A   1      35.989  23.934  24.983  1.00  0.00     0.308 C 
ATOM      8  O   UNL A   1      35.607  23.195  24.078  1.00  0.00    -0.252 OA
BRANCH   7   9
ATOM      9  C   UNL A   1      35.180  25.133  25.391  1.00  0.00     0.156 C 
BRANCH   9  10
ATOM     10  C   UNL A   1      33.657  25.143  25.410  1.00  0.00     0.149 C 
ATOM     11  N   UNL A   1      31.458  24.549  26.312  1.00  0.00    -0.320 N 
ATOM     12  C   UNL A   1      31.055  25.947  26.280  1.00  0.00     0.150 C 
ATOM     13  C   UNL A   1      32.913  24.385  26.526  1.00  0.00     0.154 C 
ATOM     14  C   UNL A   1      31.915  26.763  25.312  1.00  0.00     0.182 C 
ATOM     15  O   UNL A   1      33.316  26.559  25.511  1.00  0.00    -0.374 OA
BRANCH  11  16
ATOM     16  C   UNL A   1      30.654  23.460  26.423  1.00  0.00     0.318 C 
ATOM     17  N   UNL A   1      30.620  22.461  25.528  1.00  0.00    -0.330 N 
ATOM     18  H   UNL A   1      29.882  21.847  25.743  1.00  0.00     0.166 HD
ATOM     19  O   UNL A   1      29.928  23.281  27.407  1.00  0.00    -0.249 OA
BRANCH  17  20
ATOM     20  C   UNL A   1      31.323  21.988  24.338  1.00  0.00     0.124 C 
BRANCH  20  21
ATOM     21  C   UNL A   1      31.600  23.077  23.277  1.00  0.00     0.027 C 
ATOM     22  C   UNL A   1      32.686  22.788  22.251  1.00  0.00     0.006 C 
ENDBRANCH  20  21
BRANCH  20  23
ATOM     23  C   UNL A   1      32.415  20.967  24.588  1.00  0.00     0.027 A 
ATOM     24  C   UNL A   1      33.554  21.038  25.376  1.00  0.00     0.017 A 
ATOM     25  S   UNL A   1      32.384  19.471  23.731  1.00  0.00    -0.147 S 
ATOM     26  C   UNL A   1      34.350  19.854  25.319  1.00  0.00     0.012 A 
ATOM     27  C   UNL A   1      33.814  18.915  24.470  1.00  0.00     0.065 A 
ENDBRANCH  20  23
ENDBRANCH  17  20
ENDBRANCH  11  16
ENDBRANCH   9  10
ENDBRANCH   7   9
ENDBRANCH   6   7
ENDBRANCH   5   6
ENDBRANCH   4   5
ENDBRANCH   3   4
ENDBRANCH   2   3
ENDBRANCH   1   2
BRANCH   1  28
ATOM     28  O   UNL A   1      43.225  20.725  26.242  1.00  0.00    -0.377 OA
BRANCH  28  29
ATOM     29  C   UNL A   1      43.152  19.445  25.622  1.00  0.00     0.188 C 
BRANCH  29  30
ATOM     30  C   UNL A   1      44.309  18.429  25.730  1.00  0.00     0.188 C 
BRANCH  30  31
ATOM     31  O   UNL A   1      45.068  18.267  24.541  1.00  0.00    -0.376 OA
BRANCH  31  32
ATOM     32  C   UNL A   1      45.545  19.431  23.889  1.00  0.00     0.202 C 
BRANCH  32  33
ATOM     33  C   UNL A   1      46.334  20.448  24.724  1.00  0.00     0.261 C 
BRANCH  33  34
ATOM     34  O   UNL A   1      46.485  21.757  24.157  1.00  0.00    -0.460 OA
BRANCH  34  35
ATOM     35  C   UNL A   1      45.362  22.471  23.950  1.00  0.00     0.338 C 
ATOM     36  O   UNL A   1      44.430  22.171  23.213  1.00  0.00    -0.246 OA
BRANCH  35  37
ATOM     37  C   UNL A   1      45.352  23.601  24.897  1.00  0.00     0.060 A 
ATOM     38  C   UNL A   1      46.552  23.972  25.517  1.00  0.00     0.016 A 
ATOM     39  C   UNL A   1      44.168  24.288  25.181  1.00  0.00     0.016 A 
ATOM     40  C   UNL A   1      46.569  25.018  26.440  1.00  0.00     0.010 A 
ATOM     41  C   UNL A   1      44.184  25.325  26.121  1.00  0.00     0.010 A 
ATOM     42  C   UNL A   1      45.379  25.678  26.773  1.00  0.00    -0.014 A 
BRANCH  42  43
ATOM     43  C   UNL A   1      45.354  26.646  27.896  1.00  0.00     0.031 A 
ATOM     44  C   UNL A   1      45.221  26.130  29.301  1.00  0.00     0.074 A 
ATOM     45  C   UNL A   1      45.434  27.969  27.670  1.00  0.00     0.049 A 
ATOM     46  N   UNL A   1      45.118  26.791  30.424  1.00  0.00    -0.248 NA
ATOM     47  C   UNL A   1      45.197  24.668  29.459  1.00  0.00     0.031 C 
ATOM     48  C   UNL A   1      45.590  28.592  26.356  1.00  0.00     0.029 A 
ATOM     49  N   UNL A   1      45.369  29.027  28.542  1.00  0.00    -0.354 N 
ATOM     50  C   UNL A   1      44.978  25.831  31.418  1.00  0.00     0.074 A 
ATOM     51  C   UNL A   1      45.007  24.540  30.763  1.00  0.00     0.031 C 
ATOM     52  C   UNL A   1      45.588  29.927  26.507  1.00  0.00     0.029 A 
ATOM     53  C   UNL A   1      45.388  30.252  27.919  1.00  0.00     0.049 A 
ATOM     54  H   UNL A   1      45.314  28.919  29.519  1.00  0.00     0.167 HD
ATOM     55  C   UNL A   1      44.840  26.006  32.755  1.00  0.00     0.034 A 
ATOM     56  C   UNL A   1      45.227  31.491  28.425  1.00  0.00     0.034 A 
ATOM     57  C   UNL A   1      44.814  27.291  33.399  1.00  0.00     0.049 A 
ATOM     58  C   UNL A   1      45.004  31.661  29.907  1.00  0.00     0.074 A 
ATOM     59  C   UNL A   1      44.738  27.574  34.752  1.00  0.00     0.029 A 
ATOM     60  N   UNL A   1      44.830  28.510  32.738  1.00  0.00    -0.354 N 
ATOM     61  N   UNL A   1      44.993  30.751  30.852  1.00  0.00    -0.248 NA
ATOM     62  C   UNL A   1      44.785  33.031  30.394  1.00  0.00     0.031 C 
ATOM     63  C   UNL A   1      44.656  28.963  34.903  1.00  0.00     0.029 A 
ATOM     64  C   UNL A   1      44.724  29.548  33.648  1.00  0.00     0.049 A 
ATOM     65  H   UNL A   1      44.907  28.622  31.762  1.00  0.00     0.167 HD
ATOM     66  C   UNL A   1      44.789  31.438  32.044  1.00  0.00     0.074 A 
ATOM     67  C   UNL A   1      44.705  32.844  31.705  1.00  0.00     0.031 C 
ATOM     68  C   UNL A   1      44.668  30.948  33.304  1.00  0.00     0.034 A 
BRANCH  55  69
ATOM     69  C   UNL A   1      44.693  24.768  33.602  1.00  0.00     0.023 A 
ATOM     70  C   UNL A   1      43.415  24.225  33.845  1.00  0.00     0.012 A 
ATOM     71  C   UNL A   1      45.827  24.133  34.148  1.00  0.00     0.148 A 
ATOM     72  C   UNL A   1      43.263  23.103  34.661  1.00  0.00     0.002 A 
ATOM     73  C   UNL A   1      45.670  22.987  34.919  1.00  0.00     0.091 A 
ATOM     74  F   UNL A   1      47.033  24.674  33.926  1.00  0.00    -0.205 F 
ATOM     75  C   UNL A   1      44.389  22.480  35.190  1.00  0.00     0.022 A 
BRANCH  73  76
ATOM     76  S   UNL A   1      47.067  22.072  35.580  1.00  0.00     0.127 S 
ATOM     77  O   UNL A   1      47.626  23.033  36.531  1.00  0.00    -0.237 OA
ATOM     78  O   UNL A   1      46.415  20.916  36.196  1.00  0.00    -0.237 OA
ATOM     79  O   UNL A   1      47.913  21.754  34.440  1.00  0.00    -0.744 OA
ENDBRANCH  73  76
ENDBRANCH  55  69
BRANCH  56  80
ATOM     80  C   UNL A   1      45.298  32.674  27.521  1.00  0.00     0.023 A 
ATOM     81  C   UNL A   1      44.104  33.231  27.023  1.00  0.00     0.012 A 
ATOM     82  C   UNL A   1      46.529  33.272  27.186  1.00  0.00     0.148 A 
ATOM     83  C   UNL A   1      44.135  34.354  26.196  1.00  0.00     0.002 A 
ATOM     84  C   UNL A   1      46.549  34.421  26.405  1.00  0.00     0.091 A 
ATOM     85  F   UNL A   1      47.653  32.716  27.658  1.00  0.00    -0.205 F 
ATOM     86  C   UNL A   1      45.354  34.956  25.897  1.00  0.00     0.022 A 
BRANCH  84  87
ATOM     87  S   UNL A   1      48.057  35.334  26.056  1.00  0.00     0.127 S 
ATOM     88  O   UNL A   1      48.703  35.360  27.368  1.00  0.00    -0.237 OA
ATOM     89  O   UNL A   1      48.705  34.471  25.069  1.00  0.00    -0.237 OA
ATOM     90  O   UNL A   1      47.632  36.630  25.547  1.00  0.00    -0.744 OA
ENDBRANCH  84  87
ENDBRANCH  56  80
BRANCH  68  91
ATOM     91  C   UNL A   1      44.439  31.933  34.425  1.00  0.00     0.023 A 
ATOM     92  C   UNL A   1      45.543  32.513  35.082  1.00  0.00     0.012 A 
ATOM     93  C   UNL A   1      43.137  32.348  34.768  1.00  0.00     0.148 A 
ATOM     94  C   UNL A   1      45.354  33.469  36.079  1.00  0.00     0.002 A 
ATOM     95  C   UNL A   1      42.958  33.338  35.728  1.00  0.00     0.091 A 
ATOM     96  F   UNL A   1      42.099  31.777  34.141  1.00  0.00    -0.205 F 
ATOM     97  C   UNL A   1      44.064  33.891  36.393  1.00  0.00     0.022 A 
BRANCH  95  98
ATOM     98  S   UNL A   1      41.344  34.015  36.136  1.00  0.00     0.127 S 
ATOM     99  O   UNL A   1      41.633  34.759  37.362  1.00  0.00    -0.237 OA
ATOM    100  O   UNL A   1      41.058  34.851  34.970  1.00  0.00    -0.237 OA
ATOM    101  O   UNL A   1      40.456  32.873  36.300  1.00  0.00    -0.744 OA
ENDBRANCH  95  98
ENDBRANCH  68  91
ENDBRANCH  42  43
ENDBRANCH  35  37
ENDBRANCH  34  35
ENDBRANCH  33  34
ENDBRANCH  32  33
ENDBRANCH  31  32
ENDBRANCH  30  31
ENDBRANCH  29  30
ENDBRANCH  28  29
ENDBRANCH   1  28
TORSDOF 28
ENDMDL
MODEL 3
REMARK VINA RESULT:      -8.5      4.249      7.358
REMARK SMILES CC[C@H](NC(=O)N1CCO[C@@H](CC(=O)OCCOCCOCCOCCOC(=O)c2ccc(-c3c4nc(c(-c5cccc(S(=O)(=O)[O-])c5F)c5ccc([nH]5)c(-c5cccc(S(=O)(=O)[O-])c5F)c5nc(c(-c6cccc(S(=O)(=O)[O-])c6F)c6ccc3[nH]6)C=C5)C=C4)cc2)C1)c1cccs1
REMARK SMILES IDX 20 1 19 2 18 3 17 4 16 5 15 6 13 7 14 8 12 9 11 10 7 11 8 12
REMARK SMILES IDX 93 13 9 14 10 15 5 16 4 17 6 19 3 20 2 21 1 22 94 23 95 24
REMARK SMILES IDX 98 25 96 26 97 27 21 28 22 29 23 30 24 31 25 32 26 33 27 34
REMARK SMILES IDX 28 35 29 36 30 37 31 38 92 39 32 40 91 41 33 42 34 43 35 44
REMARK SMILES IDX 85 45 36 46 90 47 84 48 86 49 37 50 89 51 83 52 82 53 38 55
REMARK SMILES IDX 70 56 50 57 69 58 51 59 54 60 68 61 87 62 52 63 53 64 67 66
REMARK SMILES IDX 88 67 55 68 39 69 40 70 48 71 41 72 43 73 49 74 42 75 44 76
REMARK SMILES IDX 45 77 46 78 47 79 71 80 72 81 80 82 73 83 75 84 81 85 74 86
REMARK SMILES IDX 76 87 77 88 78 89 79 90 56 91 57 92 65 93 58 94 60 95 66 96
REMARK SMILES IDX 59 97 61 98 62 99 63 100 64 101
REMARK H PARENT 4 18 86 54 54 65
REMARK Flexibility Score: inf
ROOT
ATOM      1  C   UNL A   1      42.077  22.075  27.039  1.00  0.00     0.188 C 
ENDROOT
BRANCH   1   2
ATOM      2  C   UNL A   1      40.934  21.129  26.654  1.00  0.00     0.188 C 
BRANCH   2   3
ATOM      3  O   UNL A   1      39.603  21.527  26.903  1.00  0.00    -0.376 OA
BRANCH   3   4
ATOM      4  C   UNL A   1      39.152  22.847  26.627  1.00  0.00     0.202 C 
BRANCH   4   5
ATOM      5  C   UNL A   1      38.017  23.240  25.663  1.00  0.00     0.261 C 
BRANCH   5   6
ATOM      6  O   UNL A   1      36.922  22.333  25.510  1.00  0.00    -0.463 OA
BRANCH   6   7
ATOM      7  C   UNL A   1      36.323  22.332  24.305  1.00  0.00     0.308 C 
ATOM      8  O   UNL A   1      36.906  22.548  23.244  1.00  0.00    -0.252 OA
BRANCH   7   9
ATOM      9  C   UNL A   1      34.851  22.026  24.326  1.00  0.00     0.156 C 
BRANCH   9  10
ATOM     10  C   UNL A   1      33.783  23.049  23.962  1.00  0.00     0.149 C 
ATOM     11  N   UNL A   1      32.442  24.380  22.402  1.00  0.00    -0.320 N 
ATOM     12  C   UNL A   1      31.222  23.956  23.072  1.00  0.00     0.150 C 
ATOM     13  C   UNL A   1      33.513  23.361  22.478  1.00  0.00     0.154 C 
ATOM     14  C   UNL A   1      31.499  23.459  24.493  1.00  0.00     0.182 C 
ATOM     15  O   UNL A   1      32.562  22.505  24.547  1.00  0.00    -0.374 OA
BRANCH  11  16
ATOM     16  C   UNL A   1      32.597  25.427  21.551  1.00  0.00     0.318 C 
ATOM     17  N   UNL A   1      32.155  26.669  21.805  1.00  0.00    -0.330 N 
ATOM     18  H   UNL A   1      32.262  27.230  21.004  1.00  0.00     0.166 HD
ATOM     19  O   UNL A   1      33.220  25.320  20.489  1.00  0.00    -0.249 OA
BRANCH  17  20
ATOM     20  C   UNL A   1      31.568  27.459  22.884  1.00  0.00     0.124 C 
BRANCH  20  21
ATOM     21  C   UNL A   1      30.076  27.167  23.159  1.00  0.00     0.027 C 
ATOM     22  C   UNL A   1      29.671  26.913  24.604  1.00  0.00     0.006 C 
ENDBRANCH  20  21
BRANCH  20  23
ATOM     23  C   UNL A   1      32.464  27.691  24.084  1.00  0.00     0.027 A 
ATOM     24  C   UNL A   1      33.231  26.802  24.823  1.00  0.00     0.017 A 
ATOM     25  S   UNL A   1      32.544  29.263  24.787  1.00  0.00    -0.147 S 
ATOM     26  C   UNL A   1      33.920  27.424  25.909  1.00  0.00     0.012 A 
ATOM     27  C   UNL A   1      33.643  28.769  25.989  1.00  0.00     0.065 A 
ENDBRANCH  20  23
ENDBRANCH  17  20
ENDBRANCH  11  16
ENDBRANCH   9  10
ENDBRANCH   7   9
ENDBRANCH   6   7
ENDBRANCH   5   6
ENDBRANCH   4   5
ENDBRANCH   3   4
ENDBRANCH   2   3
ENDBRANCH   1   2
BRANCH   1  28
ATOM     28  O   UNL A   1      43.342  21.729  26.531  1.00  0.00    -0.377 OA
BRANCH  28  29
ATOM     29  C   UNL A   1      43.517  20.528  25.786  1.00  0.00     0.188 C 
BRANCH  29  30
ATOM     30  C   UNL A   1      44.748  20.315  24.879  1.00  0.00     0.188 C 
BRANCH  30  31
ATOM     31  O   UNL A   1      44.612  20.835  23.566  1.00  0.00    -0.376 OA
BRANCH  31  32
ATOM     32  C   UNL A   1      44.664  22.240  23.395  1.00  0.00     0.202 C 
BRANCH  32  33
ATOM     33  C   UNL A   1      45.884  22.986  23.951  1.00  0.00     0.261 C 
BRANCH  33  34
ATOM     34  O   UNL A   1      45.616  24.193  24.678  1.00  0.00    -0.460 OA
BRANCH  34  35
ATOM     35  C   UNL A   1      45.926  24.204  25.988  1.00  0.00     0.338 C 
ATOM     36  O   UNL A   1      46.561  23.351  26.596  1.00  0.00    -0.246 OA
BRANCH  35  37
ATOM     37  C   UNL A   1      45.524  25.509  26.547  1.00  0.00     0.060 A 
ATOM     38  C   UNL A   1      44.884  26.433  25.710  1.00  0.00     0.016 A 
ATOM     39  C   UNL A   1      45.781  25.826  27.884  1.00  0.00     0.016 A 
ATOM     40  C   UNL A   1      44.519  27.686  26.202  1.00  0.00     0.010 A 
ATOM     41  C   UNL A   1      45.430  27.090  28.369  1.00  0.00     0.010 A 
ATOM     42  C   UNL A   1      44.821  28.035  27.524  1.00  0.00    -0.014 A 
BRANCH  42  43
ATOM     43  C   UNL A   1      44.621  29.429  27.990  1.00  0.00     0.031 A 
ATOM     44  C   UNL A   1      45.709  30.438  27.758  1.00  0.00     0.074 A 
ATOM     45  C   UNL A   1      43.492  29.790  28.625  1.00  0.00     0.049 A 
ATOM     46  N   UNL A   1      45.776  31.690  28.129  1.00  0.00    -0.248 NA
ATOM     47  C   UNL A   1      46.883  29.970  27.006  1.00  0.00     0.031 C 
ATOM     48  C   UNL A   1      42.355  28.910  28.890  1.00  0.00     0.029 A 
ATOM     49  N   UNL A   1      43.131  30.990  29.186  1.00  0.00    -0.354 N 
ATOM     50  C   UNL A   1      47.013  32.149  27.693  1.00  0.00     0.074 A 
ATOM     51  C   UNL A   1      47.664  31.039  27.029  1.00  0.00     0.031 C 
ATOM     52  C   UNL A   1      41.429  29.596  29.581  1.00  0.00     0.029 A 
ATOM     53  C   UNL A   1      41.925  30.946  29.844  1.00  0.00     0.049 A 
ATOM     54  H   UNL A   1      43.683  31.803  29.124  1.00  0.00     0.167 HD
ATOM     55  C   UNL A   1      47.556  33.383  27.829  1.00  0.00     0.034 A 
ATOM     56  C   UNL A   1      41.309  31.876  30.600  1.00  0.00     0.034 A 
ATOM     57  C   UNL A   1      46.904  34.482  28.487  1.00  0.00     0.049 A 
ATOM     58  C   UNL A   1      41.965  33.220  30.798  1.00  0.00     0.074 A 
ATOM     59  C   UNL A   1      47.345  35.786  28.627  1.00  0.00     0.029 A 
ATOM     60  N   UNL A   1      45.686  34.401  29.146  1.00  0.00    -0.354 N 
ATOM     61  N   UNL A   1      43.078  33.681  30.281  1.00  0.00    -0.248 NA
ATOM     62  C   UNL A   1      41.270  34.176  31.674  1.00  0.00     0.031 C 
ATOM     63  C   UNL A   1      46.417  36.479  29.414  1.00  0.00     0.029 A 
ATOM     64  C   UNL A   1      45.378  35.618  29.730  1.00  0.00     0.049 A 
ATOM     65  H   UNL A   1      45.122  33.594  29.193  1.00  0.00     0.167 HD
ATOM     66  C   UNL A   1      43.207  34.986  30.749  1.00  0.00     0.074 A 
ATOM     67  C   UNL A   1      42.045  35.249  31.573  1.00  0.00     0.031 C 
ATOM     68  C   UNL A   1      44.204  35.880  30.527  1.00  0.00     0.034 A 
BRANCH  55  69
ATOM     69  C   UNL A   1      48.937  33.596  27.261  1.00  0.00     0.023 A 
ATOM     70  C   UNL A   1      49.094  34.146  25.972  1.00  0.00     0.012 A 
ATOM     71  C   UNL A   1      50.081  33.261  28.012  1.00  0.00     0.148 A 
ATOM     72  C   UNL A   1      50.365  34.310  25.420  1.00  0.00     0.002 A 
ATOM     73  C   UNL A   1      51.345  33.473  27.473  1.00  0.00     0.091 A 
ATOM     74  F   UNL A   1      49.915  32.717  29.225  1.00  0.00    -0.205 F 
ATOM     75  C   UNL A   1      51.488  33.982  26.172  1.00  0.00     0.022 A 
BRANCH  73  76
ATOM     76  S   UNL A   1      52.852  33.151  28.395  1.00  0.00     0.127 S 
ATOM     77  O   UNL A   1      52.483  33.609  29.734  1.00  0.00    -0.237 OA
ATOM     78  O   UNL A   1      52.991  31.700  28.265  1.00  0.00    -0.237 OA
ATOM     79  O   UNL A   1      53.897  33.921  27.735  1.00  0.00    -0.744 OA
ENDBRANCH  73  76
ENDBRANCH  55  69
BRANCH  56  80
ATOM     80  C   UNL A   1      39.981  31.576  31.207  1.00  0.00     0.023 A 
ATOM     81  C   UNL A   1      39.928  30.912  32.448  1.00  0.00     0.012 A 
ATOM     82  C   UNL A   1      38.781  31.975  30.587  1.00  0.00     0.148 A 
ATOM     83  C   UNL A   1      38.701  30.639  33.055  1.00  0.00     0.002 A 
ATOM     84  C   UNL A   1      37.566  31.747  31.222  1.00  0.00     0.091 A 
ATOM     85  F   UNL A   1      38.855  32.590  29.399  1.00  0.00    -0.205 F 
ATOM     86  C   UNL A   1      37.523  31.066  32.449  1.00  0.00     0.022 A 
BRANCH  84  87
ATOM     87  S   UNL A   1      36.003  32.355  30.578  1.00  0.00     0.127 S 
ATOM     88  O   UNL A   1      35.685  31.350  29.565  1.00  0.00    -0.237 OA
ATOM     89  O   UNL A   1      35.155  32.316  31.770  1.00  0.00    -0.237 OA
ATOM     90  O   UNL A   1      36.272  33.691  30.066  1.00  0.00    -0.744 OA
ENDBRANCH  84  87
ENDBRANCH  56  80
BRANCH  68  91
ATOM     91  C   UNL A   1      44.090  37.238  31.175  1.00  0.00     0.023 A 
ATOM     92  C   UNL A   1      44.555  37.424  32.492  1.00  0.00     0.012 A 
ATOM     93  C   UNL A   1      43.603  38.347  30.454  1.00  0.00     0.148 A 
ATOM     94  C   UNL A   1      44.513  38.684  33.090  1.00  0.00     0.002 A 
ATOM     95  C   UNL A   1      43.611  39.608  31.038  1.00  0.00     0.091 A 
ATOM     96  F   UNL A   1      43.154  38.148  29.206  1.00  0.00    -0.205 F 
ATOM     97  C   UNL A   1      44.054  39.777  32.359  1.00  0.00     0.022 A 
BRANCH  95  98
ATOM     98  S   UNL A   1      43.127  41.093  30.147  1.00  0.00     0.127 S 
ATOM     99  O   UNL A   1      43.502  42.144  31.093  1.00  0.00    -0.237 OA
ATOM    100  O   UNL A   1      43.967  41.021  28.952  1.00  0.00    -0.237 OA
ATOM    101  O   UNL A   1      41.699  40.967  29.896  1.00  0.00    -0.744 OA
ENDBRANCH  95  98
ENDBRANCH  68  91
ENDBRANCH  42  43
ENDBRANCH  35  37
ENDBRANCH  34  35
ENDBRANCH  33  34
ENDBRANCH  32  33
ENDBRANCH  31  32
ENDBRANCH  30  31
ENDBRANCH  29  30
ENDBRANCH  28  29
ENDBRANCH   1  28
TORSDOF 28
ENDMDL
