MODEL 1
REMARK VINA RESULT:     -10.4      0.000      0.000
REMARK SMILES C[C@@H]1CCC[C@]1(Sc1ccc(F)cc1)C(=O)OCCOCCOCCOCCOC(=O)c1ccc(-c2c3nc(c(-c4cccc(S(=O)(=O)[O-])c4F)c4ccc([nH]4)c(-c4cccc(S(=O)(=O)[O-])c4F)c4nc(c(-c5cccc(S(=O)(=O)[O-])c5F)c5ccc2[nH]5)C=C4)C=C3)cc1
REMARK SMILES IDX 24 1 23 2 22 3 21 4 20 5 19 6 18 7 17 8 15 9 16 10 6 11 1 12
REMARK SMILES IDX 2 13 3 14 4 15 5 16 7 17 8 18 9 19 14 20 10 21 13 22 11 23
REMARK SMILES IDX 12 24 25 25 26 26 27 27 28 28 29 29 30 30 31 31 32 32 33 33
REMARK SMILES IDX 94 34 34 35 93 36 35 37 36 38 37 39 87 40 38 41 92 42 86 43
REMARK SMILES IDX 88 44 39 45 91 46 85 47 84 48 40 50 72 51 52 52 71 53 53 54
REMARK SMILES IDX 56 55 70 56 89 57 54 58 55 59 69 61 90 62 57 63 41 64 42 65
REMARK SMILES IDX 50 66 43 67 45 68 51 69 44 70 46 71 47 72 48 73 49 74 73 75
REMARK SMILES IDX 74 76 82 77 75 78 77 79 83 80 76 81 78 82 79 83 80 84 81 85
REMARK SMILES IDX 58 86 59 87 67 88 60 89 62 90 68 91 61 92 63 93 64 94 65 95
REMARK SMILES IDX 66 96
REMARK H PARENT 88 49 56 60
REMARK Flexibility Score: inf
ROOT
ATOM      1  C   UNL A   1      40.993  20.566  26.437  1.00  0.00     0.188 C 
ENDROOT
BRANCH   1   2
ATOM      2  O   UNL A   1      39.910  21.242  27.072  1.00  0.00    -0.377 OA
BRANCH   2   3
ATOM      3  C   UNL A   1      39.619  22.598  26.792  1.00  0.00     0.188 C 
BRANCH   3   4
ATOM      4  C   UNL A   1      38.512  22.769  25.754  1.00  0.00     0.188 C 
BRANCH   4   5
ATOM      5  O   UNL A   1      37.305  22.050  25.948  1.00  0.00    -0.376 OA
BRANCH   5   6
ATOM      6  C   UNL A   1      36.061  22.736  25.819  1.00  0.00     0.202 C 
BRANCH   6   7
ATOM      7  C   UNL A   1      35.924  23.973  24.904  1.00  0.00     0.261 C 
BRANCH   7   8
ATOM      8  O   UNL A   1      34.802  24.867  25.144  1.00  0.00    -0.462 OA
BRANCH   8   9
ATOM      9  C   UNL A   1      34.068  25.160  24.046  1.00  0.00     0.322 C 
ATOM     10  O   UNL A   1      34.461  24.891  22.904  1.00  0.00    -0.251 OA
BRANCH   9  11
ATOM     11  C   UNL A   1      32.736  25.953  24.234  1.00  0.00     0.120 C 
ATOM     12  C   UNL A   1      33.555  28.446  23.794  1.00  0.00     0.010 C 
ATOM     13  C   UNL A   1      32.430  27.434  23.868  1.00  0.00     0.014 C 
ATOM     14  C   UNL A   1      31.459  27.933  24.966  1.00  0.00     0.005 C 
ATOM     15  C   UNL A   1      31.783  27.153  26.218  1.00  0.00     0.002 C 
ATOM     16  C   UNL A   1      32.518  25.904  25.772  1.00  0.00     0.030 C 
BRANCH  11  17
ATOM     17  S   UNL A   1      31.571  24.801  23.237  1.00  0.00    -0.107 SA
BRANCH  17  18
ATOM     18  C   UNL A   1      31.841  23.179  23.884  1.00  0.00     0.009 A 
ATOM     19  C   UNL A   1      31.474  22.861  25.197  1.00  0.00     0.018 A 
ATOM     20  C   UNL A   1      32.333  22.178  23.041  1.00  0.00     0.018 A 
ATOM     21  C   UNL A   1      31.688  21.576  25.694  1.00  0.00     0.040 A 
ATOM     22  C   UNL A   1      32.515  20.884  23.528  1.00  0.00     0.040 A 
ATOM     23  C   UNL A   1      32.208  20.599  24.853  1.00  0.00     0.123 A 
ATOM     24  F   UNL A   1      32.411  19.362  25.325  1.00  0.00    -0.207 F 
ENDBRANCH  17  18
ENDBRANCH  11  17
ENDBRANCH   9  11
ENDBRANCH   8   9
ENDBRANCH   7   8
ENDBRANCH   6   7
ENDBRANCH   5   6
ENDBRANCH   4   5
ENDBRANCH   3   4
ENDBRANCH   2   3
ENDBRANCH   1   2
BRANCH   1  25
ATOM     25  C   UNL A   1      42.307  21.323  26.313  1.00  0.00     0.188 C 
BRANCH  25  26
ATOM     26  O   UNL A   1      43.234  20.836  25.337  1.00  0.00    -0.376 OA
BRANCH  26  27
ATOM     27  C   UNL A   1      44.478  21.517  25.183  1.00  0.00     0.202 C 
BRANCH  27  28
ATOM     28  C   UNL A   1      44.482  22.644  24.151  1.00  0.00     0.261 C 
BRANCH  28  29
ATOM     29  O   UNL A   1      43.645  23.741  24.544  1.00  0.00    -0.460 OA
BRANCH  29  30
ATOM     30  C   UNL A   1      44.312  24.831  24.993  1.00  0.00     0.338 C 
ATOM     31  O   UNL A   1      45.404  25.229  24.633  1.00  0.00    -0.246 OA
BRANCH  30  32
ATOM     32  C   UNL A   1      43.440  25.590  25.905  1.00  0.00     0.060 A 
ATOM     33  C   UNL A   1      43.651  26.969  26.030  1.00  0.00     0.016 A 
ATOM     34  C   UNL A   1      42.495  24.934  26.696  1.00  0.00     0.016 A 
ATOM     35  C   UNL A   1      42.957  27.691  26.994  1.00  0.00     0.010 A 
ATOM     36  C   UNL A   1      41.810  25.656  27.672  1.00  0.00     0.010 A 
ATOM     37  C   UNL A   1      42.077  27.024  27.853  1.00  0.00    -0.014 A 
BRANCH  37  38
ATOM     38  C   UNL A   1      41.592  27.711  29.066  1.00  0.00     0.031 A 
ATOM     39  C   UNL A   1      40.248  28.383  29.018  1.00  0.00     0.074 A 
ATOM     40  C   UNL A   1      42.336  27.734  30.183  1.00  0.00     0.049 A 
ATOM     41  N   UNL A   1      39.646  29.089  29.934  1.00  0.00    -0.248 NA
ATOM     42  C   UNL A   1      39.485  28.243  27.765  1.00  0.00     0.031 C 
ATOM     43  C   UNL A   1      43.643  27.098  30.336  1.00  0.00     0.029 A 
ATOM     44  N   UNL A   1      42.106  28.338  31.391  1.00  0.00    -0.354 N 
ATOM     45  C   UNL A   1      38.453  29.510  29.361  1.00  0.00     0.074 A 
ATOM     46  C   UNL A   1      38.417  28.987  28.014  1.00  0.00     0.031 C 
ATOM     47  C   UNL A   1      44.116  27.372  31.563  1.00  0.00     0.029 A 
ATOM     48  C   UNL A   1      43.159  28.227  32.265  1.00  0.00     0.049 A 
ATOM     49  H   UNL A   1      41.268  28.806  31.611  1.00  0.00     0.167 HD
ATOM     50  C   UNL A   1      37.471  30.257  29.914  1.00  0.00     0.034 A 
ATOM     51  C   UNL A   1      43.342  28.779  33.481  1.00  0.00     0.034 A 
ATOM     52  C   UNL A   1      37.511  30.749  31.264  1.00  0.00     0.049 A 
ATOM     53  C   UNL A   1      42.246  29.626  34.070  1.00  0.00     0.074 A 
ATOM     54  C   UNL A   1      36.544  31.466  31.943  1.00  0.00     0.029 A 
ATOM     55  N   UNL A   1      38.579  30.590  32.134  1.00  0.00    -0.354 N 
ATOM     56  N   UNL A   1      41.079  29.932  33.559  1.00  0.00    -0.248 NA
ATOM     57  C   UNL A   1      42.476  30.180  35.412  1.00  0.00     0.031 C 
ATOM     58  C   UNL A   1      37.045  31.779  33.208  1.00  0.00     0.029 A 
ATOM     59  C   UNL A   1      38.306  31.215  33.335  1.00  0.00     0.049 A 
ATOM     60  H   UNL A   1      39.410  30.104  31.925  1.00  0.00     0.167 HD
ATOM     61  C   UNL A   1      40.423  30.690  34.523  1.00  0.00     0.074 A 
ATOM     62  C   UNL A   1      41.319  30.782  35.657  1.00  0.00     0.031 C 
ATOM     63  C   UNL A   1      39.194  31.262  34.471  1.00  0.00     0.034 A 
BRANCH  50  64
ATOM     64  C   UNL A   1      36.265  30.578  29.073  1.00  0.00     0.023 A 
ATOM     65  C   UNL A   1      35.583  29.547  28.397  1.00  0.00     0.012 A 
ATOM     66  C   UNL A   1      35.761  31.893  29.018  1.00  0.00     0.148 A 
ATOM     67  C   UNL A   1      34.432  29.823  27.659  1.00  0.00     0.002 A 
ATOM     68  C   UNL A   1      34.587  32.152  28.323  1.00  0.00     0.091 A 
ATOM     69  F   UNL A   1      36.440  32.864  29.646  1.00  0.00    -0.205 F 
ATOM     70  C   UNL A   1      33.928  31.121  27.633  1.00  0.00     0.022 A 
BRANCH  68  71
ATOM     71  S   UNL A   1      33.809  33.770  28.303  1.00  0.00     0.127 S 
ATOM     72  O   UNL A   1      34.758  34.543  27.503  1.00  0.00    -0.237 OA
ATOM     73  O   UNL A   1      32.537  33.489  27.638  1.00  0.00    -0.237 OA
ATOM     74  O   UNL A   1      33.693  34.180  29.695  1.00  0.00    -0.744 OA
ENDBRANCH  68  71
ENDBRANCH  50  64
BRANCH  51  75
ATOM     75  C   UNL A   1      44.605  28.507  34.219  1.00  0.00     0.023 A 
ATOM     76  C   UNL A   1      44.737  27.319  34.961  1.00  0.00     0.012 A 
ATOM     77  C   UNL A   1      45.707  29.381  34.116  1.00  0.00     0.148 A 
ATOM     78  C   UNL A   1      45.940  27.007  35.595  1.00  0.00     0.002 A 
ATOM     79  C   UNL A   1      46.920  29.036  34.701  1.00  0.00     0.091 A 
ATOM     80  F   UNL A   1      45.555  30.511  33.413  1.00  0.00    -0.205 F 
ATOM     81  C   UNL A   1      47.034  27.857  35.453  1.00  0.00     0.022 A 
BRANCH  79  82
ATOM     82  S   UNL A   1      48.419  29.993  34.450  1.00  0.00     0.127 S 
ATOM     83  O   UNL A   1      48.258  30.443  33.070  1.00  0.00    -0.237 OA
ATOM     84  O   UNL A   1      48.276  31.039  35.462  1.00  0.00    -0.237 OA
ATOM     85  O   UNL A   1      49.523  29.071  34.685  1.00  0.00    -0.744 OA
ENDBRANCH  79  82
ENDBRANCH  51  75
BRANCH  63  86
ATOM     86  C   UNL A   1      38.713  32.028  35.676  1.00  0.00     0.023 A 
ATOM     87  C   UNL A   1      38.721  33.435  35.659  1.00  0.00     0.012 A 
ATOM     88  C   UNL A   1      38.125  31.350  36.763  1.00  0.00     0.148 A 
ATOM     89  C   UNL A   1      38.164  34.158  36.714  1.00  0.00     0.002 A 
ATOM     90  C   UNL A   1      37.524  32.075  37.783  1.00  0.00     0.091 A 
ATOM     91  F   UNL A   1      38.141  30.009  36.762  1.00  0.00    -0.205 F 
ATOM     92  C   UNL A   1      37.552  33.479  37.766  1.00  0.00     0.022 A 
BRANCH  90  93
ATOM     93  S   UNL A   1      36.614  31.292  39.121  1.00  0.00     0.127 S 
ATOM     94  O   UNL A   1      35.496  32.217  39.301  1.00  0.00    -0.237 OA
ATOM     95  O   UNL A   1      36.251  30.003  38.532  1.00  0.00    -0.237 OA
ATOM     96  O   UNL A   1      37.539  31.209  40.244  1.00  0.00    -0.744 OA
ENDBRANCH  90  93
ENDBRANCH  63  86
ENDBRANCH  37  38
ENDBRANCH  30  32
ENDBRANCH  29  30
ENDBRANCH  28  29
ENDBRANCH  27  28
ENDBRANCH  26  27
ENDBRANCH  25  26
ENDBRANCH   1  25
TORSDOF 25
ENDMDL
MODEL 2
REMARK VINA RESULT:      -9.5      2.148      2.473
REMARK SMILES C[C@@H]1CCC[C@]1(Sc1ccc(F)cc1)C(=O)OCCOCCOCCOCCOC(=O)c1ccc(-c2c3nc(c(-c4cccc(S(=O)(=O)[O-])c4F)c4ccc([nH]4)c(-c4cccc(S(=O)(=O)[O-])c4F)c4nc(c(-c5cccc(S(=O)(=O)[O-])c5F)c5ccc2[nH]5)C=C4)C=C3)cc1
REMARK SMILES IDX 24 1 23 2 22 3 21 4 20 5 19 6 18 7 17 8 15 9 16 10 6 11 1 12
REMARK SMILES IDX 2 13 3 14 4 15 5 16 7 17 8 18 9 19 14 20 10 21 13 22 11 23
REMARK SMILES IDX 12 24 25 25 26 26 27 27 28 28 29 29 30 30 31 31 32 32 33 33
REMARK SMILES IDX 94 34 34 35 93 36 35 37 36 38 37 39 87 40 38 41 92 42 86 43
REMARK SMILES IDX 88 44 39 45 91 46 85 47 84 48 40 50 72 51 52 52 71 53 53 54
REMARK SMILES IDX 56 55 70 56 89 57 54 58 55 59 69 61 90 62 57 63 41 64 42 65
REMARK SMILES IDX 50 66 43 67 45 68 51 69 44 70 46 71 47 72 48 73 49 74 73 75
REMARK SMILES IDX 74 76 82 77 75 78 77 79 83 80 76 81 78 82 79 83 80 84 81 85
REMARK SMILES IDX 58 86 59 87 67 88 60 89 62 90 68 91 61 92 63 93 64 94 65 95
REMARK SMILES IDX 66 96
REMARK H PARENT 88 49 56 60
REMARK Flexibility Score: inf
ROOT
ATOM      1  C   UNL A   1      40.686  20.513  26.527  1.00  0.00     0.188 C 
ENDROOT
BRANCH   1   2
ATOM      2  O   UNL A   1      39.468  21.237  26.688  1.00  0.00    -0.377 OA
BRANCH   2   3
ATOM      3  C   UNL A   1      38.749  21.730  25.574  1.00  0.00     0.188 C 
BRANCH   3   4
ATOM      4  C   UNL A   1      37.393  21.052  25.391  1.00  0.00     0.188 C 
BRANCH   4   5
ATOM      5  O   UNL A   1      36.236  21.763  25.798  1.00  0.00    -0.376 OA
BRANCH   5   6
ATOM      6  C   UNL A   1      35.790  22.869  25.015  1.00  0.00     0.202 C 
BRANCH   6   7
ATOM      7  C   UNL A   1      35.132  22.654  23.634  1.00  0.00     0.261 C 
BRANCH   7   8
ATOM      8  O   UNL A   1      34.649  23.831  22.928  1.00  0.00    -0.462 OA
BRANCH   8   9
ATOM      9  C   UNL A   1      33.431  23.687  22.357  1.00  0.00     0.322 C 
ATOM     10  O   UNL A   1      33.124  22.675  21.716  1.00  0.00    -0.251 OA
BRANCH   9  11
ATOM     11  C   UNL A   1      32.431  24.883  22.433  1.00  0.00     0.120 C 
ATOM     12  C   UNL A   1      32.541  25.803  19.938  1.00  0.00     0.010 C 
ATOM     13  C   UNL A   1      31.814  25.706  21.264  1.00  0.00     0.014 C 
ATOM     14  C   UNL A   1      31.688  27.151  21.805  1.00  0.00     0.005 C 
ATOM     15  C   UNL A   1      32.796  27.333  22.815  1.00  0.00     0.002 C 
ATOM     16  C   UNL A   1      33.219  25.943  23.250  1.00  0.00     0.030 C 
BRANCH  11  17
ATOM     17  S   UNL A   1      31.023  24.022  23.411  1.00  0.00    -0.107 SA
BRANCH  17  18
ATOM     18  C   UNL A   1      31.780  23.401  24.881  1.00  0.00     0.009 A 
ATOM     19  C   UNL A   1      32.159  24.268  25.913  1.00  0.00     0.018 A 
ATOM     20  C   UNL A   1      31.908  22.020  25.056  1.00  0.00     0.018 A 
ATOM     21  C   UNL A   1      32.751  23.764  27.071  1.00  0.00     0.040 A 
ATOM     22  C   UNL A   1      32.469  21.514  26.229  1.00  0.00     0.040 A 
ATOM     23  C   UNL A   1      32.901  22.391  27.217  1.00  0.00     0.123 A 
ATOM     24  F   UNL A   1      33.464  21.903  28.329  1.00  0.00    -0.207 F 
ENDBRANCH  17  18
ENDBRANCH  11  17
ENDBRANCH   9  11
ENDBRANCH   8   9
ENDBRANCH   7   8
ENDBRANCH   6   7
ENDBRANCH   5   6
ENDBRANCH   4   5
ENDBRANCH   3   4
ENDBRANCH   2   3
ENDBRANCH   1   2
BRANCH   1  25
ATOM     25  C   UNL A   1      41.931  21.317  26.181  1.00  0.00     0.188 C 
BRANCH  25  26
ATOM     26  O   UNL A   1      43.076  20.568  25.758  1.00  0.00    -0.376 OA
BRANCH  26  27
ATOM     27  C   UNL A   1      44.269  21.280  25.431  1.00  0.00     0.202 C 
BRANCH  27  28
ATOM     28  C   UNL A   1      44.078  22.481  24.506  1.00  0.00     0.261 C 
BRANCH  28  29
ATOM     29  O   UNL A   1      43.302  23.520  25.119  1.00  0.00    -0.460 OA
BRANCH  29  30
ATOM     30  C   UNL A   1      43.908  24.730  25.164  1.00  0.00     0.338 C 
ATOM     31  O   UNL A   1      44.863  25.103  24.510  1.00  0.00    -0.246 OA
BRANCH  30  32
ATOM     32  C   UNL A   1      43.133  25.626  26.039  1.00  0.00     0.060 A 
ATOM     33  C   UNL A   1      43.613  26.925  26.249  1.00  0.00     0.016 A 
ATOM     34  C   UNL A   1      42.005  25.160  26.717  1.00  0.00     0.016 A 
ATOM     35  C   UNL A   1      43.000  27.746  27.188  1.00  0.00     0.010 A 
ATOM     36  C   UNL A   1      41.400  25.978  27.668  1.00  0.00     0.010 A 
ATOM     37  C   UNL A   1      41.927  27.253  27.938  1.00  0.00    -0.014 A 
BRANCH  37  38
ATOM     38  C   UNL A   1      41.487  27.988  29.141  1.00  0.00     0.031 A 
ATOM     39  C   UNL A   1      40.163  28.698  29.100  1.00  0.00     0.074 A 
ATOM     40  C   UNL A   1      42.255  28.021  30.241  1.00  0.00     0.049 A 
ATOM     41  N   UNL A   1      39.601  29.447  30.007  1.00  0.00    -0.248 NA
ATOM     42  C   UNL A   1      39.370  28.545  27.867  1.00  0.00     0.031 C 
ATOM     43  C   UNL A   1      43.546  27.351  30.387  1.00  0.00     0.029 A 
ATOM     44  N   UNL A   1      42.068  28.666  31.436  1.00  0.00    -0.354 N 
ATOM     45  C   UNL A   1      38.408  29.887  29.446  1.00  0.00     0.074 A 
ATOM     46  C   UNL A   1      38.329  29.327  28.116  1.00  0.00     0.031 C 
ATOM     47  C   UNL A   1      44.052  27.645  31.595  1.00  0.00     0.029 A 
ATOM     48  C   UNL A   1      43.136  28.548  32.291  1.00  0.00     0.049 A 
ATOM     49  H   UNL A   1      41.248  29.164  31.659  1.00  0.00     0.167 HD
ATOM     50  C   UNL A   1      37.460  30.677  29.997  1.00  0.00     0.034 A 
ATOM     51  C   UNL A   1      43.359  29.129  33.487  1.00  0.00     0.034 A 
ATOM     52  C   UNL A   1      37.543  31.207  31.331  1.00  0.00     0.049 A 
ATOM     53  C   UNL A   1      42.301  30.024  34.073  1.00  0.00     0.074 A 
ATOM     54  C   UNL A   1      36.612  31.970  32.008  1.00  0.00     0.029 A 
ATOM     55  N   UNL A   1      38.624  31.041  32.183  1.00  0.00    -0.354 N 
ATOM     56  N   UNL A   1      41.133  30.350  33.577  1.00  0.00    -0.248 NA
ATOM     57  C   UNL A   1      42.576  30.608  35.393  1.00  0.00     0.031 C 
ATOM     58  C   UNL A   1      37.148  32.304  33.253  1.00  0.00     0.029 A 
ATOM     59  C   UNL A   1      38.394  31.707  33.372  1.00  0.00     0.049 A 
ATOM     60  H   UNL A   1      39.436  30.524  31.972  1.00  0.00     0.167 HD
ATOM     61  C   UNL A   1      40.519  31.153  34.531  1.00  0.00     0.074 A 
ATOM     62  C   UNL A   1      41.441  31.251  35.644  1.00  0.00     0.031 C 
ATOM     63  C   UNL A   1      39.307  31.760  34.487  1.00  0.00     0.034 A 
BRANCH  50  64
ATOM     64  C   UNL A   1      36.247  31.010  29.172  1.00  0.00     0.023 A 
ATOM     65  C   UNL A   1      35.487  29.977  28.589  1.00  0.00     0.012 A 
ATOM     66  C   UNL A   1      35.816  32.346  29.040  1.00  0.00     0.148 A 
ATOM     67  C   UNL A   1      34.329  30.268  27.867  1.00  0.00     0.002 A 
ATOM     68  C   UNL A   1      34.635  32.624  28.364  1.00  0.00     0.091 A 
ATOM     69  F   UNL A   1      36.568  33.315  29.579  1.00  0.00    -0.205 F 
ATOM     70  C   UNL A   1      33.897  31.589  27.766  1.00  0.00     0.022 A 
BRANCH  68  71
ATOM     71  S   UNL A   1      33.949  34.279  28.254  1.00  0.00     0.127 S 
ATOM     72  O   UNL A   1      34.776  34.873  27.205  1.00  0.00    -0.237 OA
ATOM     73  O   UNL A   1      32.566  34.011  27.861  1.00  0.00    -0.237 OA
ATOM     74  O   UNL A   1      34.103  34.869  29.576  1.00  0.00    -0.744 OA
ENDBRANCH  68  71
ENDBRANCH  50  64
BRANCH  51  75
ATOM     75  C   UNL A   1      44.630  28.841  34.207  1.00  0.00     0.023 A 
ATOM     76  C   UNL A   1      45.739  29.688  34.028  1.00  0.00     0.012 A 
ATOM     77  C   UNL A   1      44.714  27.782  35.134  1.00  0.00     0.148 A 
ATOM     78  C   UNL A   1      46.913  29.483  34.753  1.00  0.00     0.002 A 
ATOM     79  C   UNL A   1      45.864  27.619  35.895  1.00  0.00     0.091 A 
ATOM     80  F   UNL A   1      43.648  26.982  35.280  1.00  0.00    -0.205 F 
ATOM     81  C   UNL A   1      46.971  28.459  35.696  1.00  0.00     0.022 A 
BRANCH  79  82
ATOM     82  S   UNL A   1      45.977  26.424  37.232  1.00  0.00     0.127 S 
ATOM     83  O   UNL A   1      47.354  26.610  37.682  1.00  0.00    -0.237 OA
ATOM     84  O   UNL A   1      44.954  26.916  38.155  1.00  0.00    -0.237 OA
ATOM     85  O   UNL A   1      45.681  25.129  36.635  1.00  0.00    -0.744 OA
ENDBRANCH  79  82
ENDBRANCH  51  75
BRANCH  63  86
ATOM     86  C   UNL A   1      38.874  32.573  35.679  1.00  0.00     0.023 A 
ATOM     87  C   UNL A   1      38.060  31.988  36.667  1.00  0.00     0.012 A 
ATOM     88  C   UNL A   1      39.392  33.868  35.885  1.00  0.00     0.148 A 
ATOM     89  C   UNL A   1      37.754  32.686  37.836  1.00  0.00     0.002 A 
ATOM     90  C   UNL A   1      39.128  34.535  37.074  1.00  0.00     0.091 A 
ATOM     91  F   UNL A   1      40.155  34.409  34.924  1.00  0.00    -0.205 F 
ATOM     92  C   UNL A   1      38.301  33.950  38.046  1.00  0.00     0.022 A 
BRANCH  90  93
ATOM     93  S   UNL A   1      39.878  36.116  37.483  1.00  0.00     0.127 S 
ATOM     94  O   UNL A   1      41.209  35.707  37.930  1.00  0.00    -0.237 OA
ATOM     95  O   UNL A   1      39.852  36.811  36.196  1.00  0.00    -0.237 OA
ATOM     96  O   UNL A   1      39.033  36.710  38.511  1.00  0.00    -0.744 OA
ENDBRANCH  90  93
ENDBRANCH  63  86
ENDBRANCH  37  38
ENDBRANCH  30  32
ENDBRANCH  29  30
ENDBRANCH  28  29
ENDBRANCH  27  28
ENDBRANCH  26  27
ENDBRANCH  25  26
ENDBRANCH   1  25
TORSDOF 25
ENDMDL
MODEL 3
REMARK VINA RESULT:      -9.0      3.337      4.801
REMARK SMILES C[C@@H]1CCC[C@]1(Sc1ccc(F)cc1)C(=O)OCCOCCOCCOCCOC(=O)c1ccc(-c2c3nc(c(-c4cccc(S(=O)(=O)[O-])c4F)c4ccc([nH]4)c(-c4cccc(S(=O)(=O)[O-])c4F)c4nc(c(-c5cccc(S(=O)(=O)[O-])c5F)c5ccc2[nH]5)C=C4)C=C3)cc1
REMARK SMILES IDX 24 1 23 2 22 3 21 4 20 5 19 6 18 7 17 8 15 9 16 10 6 11 1 12
REMARK SMILES IDX 2 13 3 14 4 15 5 16 7 17 8 18 9 19 14 20 10 21 13 22 11 23
REMARK SMILES IDX 12 24 25 25 26 26 27 27 28 28 29 29 30 30 31 31 32 32 33 33
REMARK SMILES IDX 94 34 34 35 93 36 35 37 36 38 37 39 87 40 38 41 92 42 86 43
REMARK SMILES IDX 88 44 39 45 91 46 85 47 84 48 40 50 72 51 52 52 71 53 53 54
REMARK SMILES IDX 56 55 70 56 89 57 54 58 55 59 69 61 90 62 57 63 41 64 42 65
REMARK SMILES IDX 50 66 43 67 45 68 51 69 44 70 46 71 47 72 48 73 49 74 73 75
REMARK SMILES IDX 74 76 82 77 75 78 77 79 83 80 76 81 78 82 79 83 80 84 81 85
REMARK SMILES IDX 58 86 59 87 67 88 60 89 62 90 68 91 61 92 63 93 64 94 65 95
REMARK SMILES IDX 66 96
REMARK H PARENT 88 49 56 60
REMARK Flexibility Score: inf
ROOT
ATOM      1  C   UNL A   1      37.416  21.367  24.778  1.00  0.00     0.188 C 
ENDROOT
BRANCH   1   2
ATOM      2  O   UNL A   1      36.328  21.678  25.646  1.00  0.00    -0.377 OA
BRANCH   2   3
ATOM      3  C   UNL A   1      36.123  22.991  26.131  1.00  0.00     0.188 C 
BRANCH   3   4
ATOM      4  C   UNL A   1      34.687  23.241  26.589  1.00  0.00     0.188 C 
BRANCH   4   5
ATOM      5  O   UNL A   1      33.731  22.219  26.357  1.00  0.00    -0.376 OA
BRANCH   5   6
ATOM      6  C   UNL A   1      32.746  22.409  25.342  1.00  0.00     0.202 C 
BRANCH   6   7
ATOM      7  C   UNL A   1      31.397  23.092  25.658  1.00  0.00     0.261 C 
BRANCH   7   8
ATOM      8  O   UNL A   1      30.970  24.173  24.783  1.00  0.00    -0.462 OA
BRANCH   8   9
ATOM      9  C   UNL A   1      30.896  25.386  25.378  1.00  0.00     0.322 C 
ATOM     10  O   UNL A   1      30.366  25.542  26.485  1.00  0.00    -0.251 OA
BRANCH   9  11
ATOM     11  C   UNL A   1      31.410  26.631  24.589  1.00  0.00     0.120 C 
ATOM     12  C   UNL A   1      34.036  26.434  24.974  1.00  0.00     0.010 C 
ATOM     13  C   UNL A   1      32.869  26.981  24.176  1.00  0.00     0.014 C 
ATOM     14  C   UNL A   1      32.959  28.524  24.267  1.00  0.00     0.005 C 
ATOM     15  C   UNL A   1      31.984  28.952  25.339  1.00  0.00     0.002 C 
ATOM     16  C   UNL A   1      30.993  27.817  25.502  1.00  0.00     0.030 C 
BRANCH  11  17
ATOM     17  S   UNL A   1      30.337  26.436  23.011  1.00  0.00    -0.107 SA
BRANCH  17  18
ATOM     18  C   UNL A   1      29.573  28.010  22.761  1.00  0.00     0.009 A 
ATOM     19  C   UNL A   1      28.236  28.221  23.116  1.00  0.00     0.018 A 
ATOM     20  C   UNL A   1      30.344  29.081  22.300  1.00  0.00     0.018 A 
ATOM     21  C   UNL A   1      27.646  29.469  22.918  1.00  0.00     0.040 A 
ATOM     22  C   UNL A   1      29.764  30.338  22.135  1.00  0.00     0.040 A 
ATOM     23  C   UNL A   1      28.417  30.516  22.429  1.00  0.00     0.123 A 
ATOM     24  F   UNL A   1      27.856  31.718  22.242  1.00  0.00    -0.207 F 
ENDBRANCH  17  18
ENDBRANCH  11  17
ENDBRANCH   9  11
ENDBRANCH   8   9
ENDBRANCH   7   8
ENDBRANCH   6   7
ENDBRANCH   5   6
ENDBRANCH   4   5
ENDBRANCH   3   4
ENDBRANCH   2   3
ENDBRANCH   1   2
BRANCH   1  25
ATOM     25  C   UNL A   1      38.508  20.463  25.332  1.00  0.00     0.188 C 
BRANCH  25  26
ATOM     26  O   UNL A   1      39.527  21.099  26.112  1.00  0.00    -0.376 OA
BRANCH  26  27
ATOM     27  C   UNL A   1      40.798  20.460  26.219  1.00  0.00     0.202 C 
BRANCH  27  28
ATOM     28  C   UNL A   1      42.006  21.390  26.119  1.00  0.00     0.261 C 
BRANCH  28  29
ATOM     29  O   UNL A   1      41.633  22.724  25.745  1.00  0.00    -0.460 OA
BRANCH  29  30
ATOM     30  C   UNL A   1      42.657  23.609  25.704  1.00  0.00     0.338 C 
ATOM     31  O   UNL A   1      43.592  23.623  24.925  1.00  0.00    -0.246 OA
BRANCH  30  32
ATOM     32  C   UNL A   1      42.402  24.689  26.673  1.00  0.00     0.060 A 
ATOM     33  C   UNL A   1      43.350  25.714  26.788  1.00  0.00     0.016 A 
ATOM     34  C   UNL A   1      41.295  24.637  27.522  1.00  0.00     0.016 A 
ATOM     35  C   UNL A   1      43.225  26.663  27.796  1.00  0.00     0.010 A 
ATOM     36  C   UNL A   1      41.178  25.580  28.541  1.00  0.00     0.010 A 
ATOM     37  C   UNL A   1      42.169  26.563  28.708  1.00  0.00    -0.014 A 
BRANCH  37  38
ATOM     38  C   UNL A   1      42.211  27.357  29.952  1.00  0.00     0.031 A 
ATOM     39  C   UNL A   1      41.344  28.581  30.048  1.00  0.00     0.074 A 
ATOM     40  C   UNL A   1      43.006  26.993  30.970  1.00  0.00     0.049 A 
ATOM     41  N   UNL A   1      41.257  29.457  31.010  1.00  0.00    -0.248 NA
ATOM     42  C   UNL A   1      40.460  28.856  28.901  1.00  0.00     0.031 C 
ATOM     43  C   UNL A   1      43.871  25.814  30.981  1.00  0.00     0.029 A 
ATOM     44  N   UNL A   1      43.232  27.595  32.180  1.00  0.00    -0.354 N 
ATOM     45  C   UNL A   1      40.341  30.406  30.574  1.00  0.00     0.074 A 
ATOM     46  C   UNL A   1      39.904  30.004  29.256  1.00  0.00     0.031 C 
ATOM     47  C   UNL A   1      44.559  25.794  32.134  1.00  0.00     0.029 A 
ATOM     48  C   UNL A   1      44.206  26.974  32.923  1.00  0.00     0.049 A 
ATOM     49  H   UNL A   1      42.744  28.393  32.487  1.00  0.00     0.167 HD
ATOM     50  C   UNL A   1      39.897  31.507  31.221  1.00  0.00     0.034 A 
ATOM     51  C   UNL A   1      44.770  27.337  34.092  1.00  0.00     0.034 A 
ATOM     52  C   UNL A   1      40.325  31.879  32.542  1.00  0.00     0.049 A 
ATOM     53  C   UNL A   1      44.278  28.578  34.786  1.00  0.00     0.074 A 
ATOM     54  C   UNL A   1      39.895  32.942  33.313  1.00  0.00     0.029 A 
ATOM     55  N   UNL A   1      41.289  31.210  33.281  1.00  0.00    -0.354 N 
ATOM     56  N   UNL A   1      43.339  29.412  34.411  1.00  0.00    -0.248 NA
ATOM     57  C   UNL A   1      44.899  28.915  36.075  1.00  0.00     0.031 C 
ATOM     58  C   UNL A   1      40.632  32.943  34.500  1.00  0.00     0.029 A 
ATOM     59  C   UNL A   1      41.486  31.850  34.489  1.00  0.00     0.049 A 
ATOM     60  H   UNL A   1      41.764  30.398  32.986  1.00  0.00     0.167 HD
ATOM     61  C   UNL A   1      43.235  30.356  35.426  1.00  0.00     0.074 A 
ATOM     62  C   UNL A   1      44.197  29.981  36.441  1.00  0.00     0.031 C 
ATOM     63  C   UNL A   1      42.421  31.439  35.508  1.00  0.00     0.034 A 
BRANCH  50  64
ATOM     64  C   UNL A   1      38.892  32.383  30.524  1.00  0.00     0.023 A 
ATOM     65  C   UNL A   1      39.322  33.527  29.823  1.00  0.00     0.012 A 
ATOM     66  C   UNL A   1      37.529  32.027  30.498  1.00  0.00     0.148 A 
ATOM     67  C   UNL A   1      38.408  34.317  29.126  1.00  0.00     0.002 A 
ATOM     68  C   UNL A   1      36.633  32.789  29.761  1.00  0.00     0.091 A 
ATOM     69  F   UNL A   1      37.137  30.950  31.194  1.00  0.00    -0.205 F 
ATOM     70  C   UNL A   1      37.067  33.941  29.084  1.00  0.00     0.022 A 
BRANCH  68  71
ATOM     71  S   UNL A   1      34.904  32.340  29.572  1.00  0.00     0.127 S 
ATOM     72  O   UNL A   1      34.439  32.367  30.958  1.00  0.00    -0.237 OA
ATOM     73  O   UNL A   1      34.395  33.427  28.736  1.00  0.00    -0.237 OA
ATOM     74  O   UNL A   1      34.895  31.029  28.939  1.00  0.00    -0.744 OA
ENDBRANCH  68  71
ENDBRANCH  50  64
BRANCH  51  75
ATOM     75  C   UNL A   1      45.837  26.481  34.680  1.00  0.00     0.023 A 
ATOM     76  C   UNL A   1      47.188  26.836  34.508  1.00  0.00     0.012 A 
ATOM     77  C   UNL A   1      45.514  25.367  35.481  1.00  0.00     0.148 A 
ATOM     78  C   UNL A   1      48.200  26.093  35.116  1.00  0.00     0.002 A 
ATOM     79  C   UNL A   1      46.522  24.667  36.131  1.00  0.00     0.091 A 
ATOM     80  F   UNL A   1      44.221  25.042  35.621  1.00  0.00    -0.205 F 
ATOM     81  C   UNL A   1      47.867  25.019  35.939  1.00  0.00     0.022 A 
BRANCH  79  82
ATOM     82  S   UNL A   1      46.182  23.365  37.322  1.00  0.00     0.127 S 
ATOM     83  O   UNL A   1      47.526  23.025  37.783  1.00  0.00    -0.237 OA
ATOM     84  O   UNL A   1      45.353  24.069  38.300  1.00  0.00    -0.237 OA
ATOM     85  O   UNL A   1      45.489  22.320  36.582  1.00  0.00    -0.744 OA
ENDBRANCH  79  82
ENDBRANCH  51  75
BRANCH  63  86
ATOM     86  C   UNL A   1      42.503  32.300  36.740  1.00  0.00     0.023 A 
ATOM     87  C   UNL A   1      41.759  31.956  37.885  1.00  0.00     0.012 A 
ATOM     88  C   UNL A   1      43.424  33.366  36.806  1.00  0.00     0.148 A 
ATOM     89  C   UNL A   1      41.919  32.670  39.073  1.00  0.00     0.002 A 
ATOM     90  C   UNL A   1      43.618  34.036  38.007  1.00  0.00     0.091 A 
ATOM     91  F   UNL A   1      44.112  33.682  35.699  1.00  0.00    -0.205 F 
ATOM     92  C   UNL A   1      42.859  33.697  39.138  1.00  0.00     0.022 A 
BRANCH  90  93
ATOM     93  S   UNL A   1      44.883  35.295  38.218  1.00  0.00     0.127 S 
ATOM     94  O   UNL A   1      44.846  35.513  39.663  1.00  0.00    -0.237 OA
ATOM     95  O   UNL A   1      46.082  34.610  37.734  1.00  0.00    -0.237 OA
ATOM     96  O   UNL A   1      44.462  36.430  37.408  1.00  0.00    -0.744 OA
ENDBRANCH  90  93
ENDBRANCH  63  86
ENDBRANCH  37  38
ENDBRANCH  30  32
ENDBRANCH  29  30
ENDBRANCH  28  29
ENDBRANCH  27  28
ENDBRANCH  26  27
ENDBRANCH  25  26
ENDBRANCH   1  25
TORSDOF 25
ENDMDL
