MODEL 1
REMARK VINA RESULT:      -9.5      0.000      0.000
REMARK SMILES CCc1ccc(S(=O)(=O)N[C@H](C(=O)OCCOCCOCCOCCOC(=O)c2ccc(-c3c4nc(c(-c5cccc(S(=O)(=O)[O-])c5F)c5ccc([nH]5)c(-c5cccc(S(=O)(=O)[O-])c5F)c5nc(c(-c6cccc(S(=O)(=O)[O-])c6F)c6ccc3[nH]6)C=C5)C=C4)cc2)C(C)C)cc1
REMARK SMILES IDX 19 1 18 2 17 3 16 4 15 5 14 6 12 7 13 8 11 9 10 10 7 12 8 13
REMARK SMILES IDX 9 14 6 15 3 16 4 17 96 18 5 19 95 20 2 21 1 22 92 23 93 24
REMARK SMILES IDX 94 25 20 26 21 27 22 28 23 29 24 30 25 31 26 32 27 33 28 34
REMARK SMILES IDX 29 35 30 36 91 37 31 38 90 39 32 40 33 41 34 42 84 43 35 44
REMARK SMILES IDX 89 45 83 46 85 47 36 48 88 49 82 50 81 51 37 53 69 54 49 55
REMARK SMILES IDX 68 56 50 57 53 58 67 59 86 60 51 61 52 62 66 64 87 65 54 66
REMARK SMILES IDX 38 67 39 68 47 69 40 70 42 71 48 72 41 73 43 74 44 75 45 76
REMARK SMILES IDX 46 77 70 78 71 79 79 80 72 81 74 82 80 83 73 84 75 85 76 86
REMARK SMILES IDX 77 87 78 88 55 89 56 90 64 91 57 92 59 93 65 94 58 95 60 96
REMARK SMILES IDX 61 97 62 98 63 99
REMARK H PARENT 10 11 85 52 53 63
REMARK Flexibility Score: inf
ROOT
ATOM      1  C   UNL A   1      34.444  22.959  26.889  1.00  0.00     0.188 C 
ENDROOT
BRANCH   1   2
ATOM      2  C   UNL A   1      33.373  23.658  26.035  1.00  0.00     0.188 C 
BRANCH   2   3
ATOM      3  O   UNL A   1      32.995  22.965  24.853  1.00  0.00    -0.376 OA
BRANCH   3   4
ATOM      4  C   UNL A   1      33.601  23.434  23.651  1.00  0.00     0.202 C 
BRANCH   4   5
ATOM      5  C   UNL A   1      32.636  23.604  22.472  1.00  0.00     0.261 C 
BRANCH   5   6
ATOM      6  O   UNL A   1      31.466  24.363  22.801  1.00  0.00    -0.462 OA
BRANCH   6   7
ATOM      7  C   UNL A   1      31.418  25.640  22.385  1.00  0.00     0.324 C 
ATOM      8  O   UNL A   1      31.875  25.995  21.300  1.00  0.00    -0.250 OA
BRANCH   7   9
ATOM      9  C   UNL A   1      30.554  26.534  23.278  1.00  0.00     0.182 C 
BRANCH   9  10
ATOM     10  N   UNL A   1      29.856  27.736  22.754  1.00  0.00    -0.197 NA
ATOM     11  H   UNL A   1      29.793  27.571  21.749  1.00  0.00     0.142 HD
BRANCH  10  12
ATOM     12  S   UNL A   1      30.274  29.358  22.880  1.00  0.00     0.241 S 
ATOM     13  O   UNL A   1      29.198  30.113  23.468  1.00  0.00    -0.207 OA
ATOM     14  O   UNL A   1      30.830  29.695  21.584  1.00  0.00    -0.207 OA
BRANCH  12  15
ATOM     15  C   UNL A   1      31.630  29.384  24.016  1.00  0.00     0.082 A 
ATOM     16  C   UNL A   1      33.611  28.950  25.934  1.00  0.00    -0.048 A 
ATOM     17  C   UNL A   1      32.387  29.540  26.292  1.00  0.00     0.005 A 
ATOM     18  C   UNL A   1      33.868  28.698  24.578  1.00  0.00     0.005 A 
ATOM     19  C   UNL A   1      31.393  29.748  25.341  1.00  0.00     0.022 A 
ATOM     20  C   UNL A   1      32.888  28.942  23.615  1.00  0.00     0.022 A 
BRANCH  16  21
ATOM     21  C   UNL A   1      34.554  28.569  27.052  1.00  0.00     0.032 C 
ATOM     22  C   UNL A   1      35.810  29.414  27.203  1.00  0.00     0.009 C 
ENDBRANCH  16  21
ENDBRANCH  12  15
ENDBRANCH  10  12
ENDBRANCH   9  10
BRANCH   9  23
ATOM     23  C   UNL A   1      29.624  25.771  24.267  1.00  0.00     0.012 C 
ATOM     24  C   UNL A   1      30.011  25.859  25.749  1.00  0.00     0.009 C 
ATOM     25  C   UNL A   1      28.176  26.283  24.150  1.00  0.00     0.009 C 
ENDBRANCH   9  23
ENDBRANCH   7   9
ENDBRANCH   6   7
ENDBRANCH   5   6
ENDBRANCH   4   5
ENDBRANCH   3   4
ENDBRANCH   2   3
ENDBRANCH   1   2
BRANCH   1  26
ATOM     26  O   UNL A   1      34.661  21.570  26.741  1.00  0.00    -0.377 OA
BRANCH  26  27
ATOM     27  C   UNL A   1      35.554  21.099  25.732  1.00  0.00     0.188 C 
BRANCH  27  28
ATOM     28  C   UNL A   1      36.698  22.004  25.224  1.00  0.00     0.188 C 
BRANCH  28  29
ATOM     29  O   UNL A   1      37.983  21.395  25.191  1.00  0.00    -0.376 OA
BRANCH  29  30
ATOM     30  C   UNL A   1      38.006  19.997  24.930  1.00  0.00     0.202 C 
BRANCH  30  31
ATOM     31  C   UNL A   1      39.087  19.210  25.683  1.00  0.00     0.261 C 
BRANCH  31  32
ATOM     32  O   UNL A   1      39.687  19.917  26.780  1.00  0.00    -0.460 OA
BRANCH  32  33
ATOM     33  C   UNL A   1      40.987  20.258  26.648  1.00  0.00     0.338 C 
ATOM     34  O   UNL A   1      41.877  19.595  26.146  1.00  0.00    -0.246 OA
BRANCH  33  35
ATOM     35  C   UNL A   1      41.132  21.666  27.051  1.00  0.00     0.060 A 
ATOM     36  C   UNL A   1      40.652  22.662  26.193  1.00  0.00     0.016 A 
ATOM     37  C   UNL A   1      41.777  21.999  28.245  1.00  0.00     0.016 A 
ATOM     38  C   UNL A   1      40.874  24.002  26.498  1.00  0.00     0.010 A 
ATOM     39  C   UNL A   1      42.011  23.341  28.542  1.00  0.00     0.010 A 
ATOM     40  C   UNL A   1      41.604  24.343  27.645  1.00  0.00    -0.014 A 
BRANCH  40  41
ATOM     41  C   UNL A   1      42.117  25.725  27.783  1.00  0.00     0.031 A 
ATOM     42  C   UNL A   1      41.241  26.746  28.457  1.00  0.00     0.074 A 
ATOM     43  C   UNL A   1      43.335  26.064  27.333  1.00  0.00     0.049 A 
ATOM     44  N   UNL A   1      41.504  27.988  28.766  1.00  0.00    -0.248 NA
ATOM     45  C   UNL A   1      39.885  26.307  28.831  1.00  0.00     0.031 C 
ATOM     46  C   UNL A   1      44.257  25.173  26.634  1.00  0.00     0.029 A 
ATOM     47  N   UNL A   1      43.995  27.266  27.383  1.00  0.00    -0.354 N 
ATOM     48  C   UNL A   1      40.347  28.483  29.353  1.00  0.00     0.074 A 
ATOM     49  C   UNL A   1      39.371  27.417  29.340  1.00  0.00     0.031 C 
ATOM     50  C   UNL A   1      45.358  25.867  26.296  1.00  0.00     0.029 A 
ATOM     51  C   UNL A   1      45.216  27.249  26.755  1.00  0.00     0.049 A 
ATOM     52  H   UNL A   1      43.629  28.064  27.828  1.00  0.00     0.167 HD
ATOM     53  C   UNL A   1      40.124  29.710  29.878  1.00  0.00     0.034 A 
ATOM     54  C   UNL A   1      46.114  28.237  26.572  1.00  0.00     0.034 A 
ATOM     55  C   UNL A   1      41.100  30.763  29.904  1.00  0.00     0.049 A 
ATOM     56  C   UNL A   1      45.852  29.590  27.183  1.00  0.00     0.074 A 
ATOM     57  C   UNL A   1      40.997  32.019  30.473  1.00  0.00     0.029 A 
ATOM     58  N   UNL A   1      42.354  30.690  29.318  1.00  0.00    -0.354 N 
ATOM     59  N   UNL A   1      44.824  29.993  27.892  1.00  0.00    -0.248 NA
ATOM     60  C   UNL A   1      46.894  30.614  27.010  1.00  0.00     0.031 C 
ATOM     61  C   UNL A   1      42.182  32.713  30.212  1.00  0.00     0.029 A 
ATOM     62  C   UNL A   1      43.031  31.882  29.499  1.00  0.00     0.049 A 
ATOM     63  H   UNL A   1      42.710  29.904  28.842  1.00  0.00     0.167 HD
ATOM     64  C   UNL A   1      45.111  31.299  28.279  1.00  0.00     0.074 A 
ATOM     65  C   UNL A   1      46.418  31.614  27.739  1.00  0.00     0.031 C 
ATOM     66  C   UNL A   1      44.356  32.162  29.004  1.00  0.00     0.034 A 
BRANCH  53  67
ATOM     67  C   UNL A   1      38.776  29.960  30.500  1.00  0.00     0.023 A 
ATOM     68  C   UNL A   1      38.424  29.287  31.688  1.00  0.00     0.012 A 
ATOM     69  C   UNL A   1      37.875  30.879  29.930  1.00  0.00     0.148 A 
ATOM     70  C   UNL A   1      37.182  29.501  32.282  1.00  0.00     0.002 A 
ATOM     71  C   UNL A   1      36.653  31.116  30.551  1.00  0.00     0.091 A 
ATOM     72  F   UNL A   1      38.215  31.485  28.784  1.00  0.00    -0.205 F 
ATOM     73  C   UNL A   1      36.301  30.421  31.720  1.00  0.00     0.022 A 
BRANCH  71  74
ATOM     74  S   UNL A   1      35.488  32.337  29.938  1.00  0.00     0.127 S 
ATOM     75  O   UNL A   1      34.558  32.449  31.060  1.00  0.00    -0.237 OA
ATOM     76  O   UNL A   1      36.341  33.509  29.736  1.00  0.00    -0.237 OA
ATOM     77  O   UNL A   1      34.935  31.777  28.713  1.00  0.00    -0.744 OA
ENDBRANCH  71  74
ENDBRANCH  53  67
BRANCH  54  78
ATOM     78  C   UNL A   1      47.377  27.955  25.834  1.00  0.00     0.023 A 
ATOM     79  C   UNL A   1      48.551  27.659  26.553  1.00  0.00     0.012 A 
ATOM     80  C   UNL A   1      47.409  27.934  24.425  1.00  0.00     0.148 A 
ATOM     81  C   UNL A   1      49.740  27.368  25.882  1.00  0.00     0.002 A 
ATOM     82  C   UNL A   1      48.583  27.593  23.764  1.00  0.00     0.091 A 
ATOM     83  F   UNL A   1      46.285  28.236  23.761  1.00  0.00    -0.205 F 
ATOM     84  C   UNL A   1      49.754  27.324  24.490  1.00  0.00     0.022 A 
BRANCH  82  85
ATOM     85  S   UNL A   1      48.662  27.385  21.981  1.00  0.00     0.127 S 
ATOM     86  O   UNL A   1      49.998  27.894  21.679  1.00  0.00    -0.237 OA
ATOM     87  O   UNL A   1      48.507  25.938  21.836  1.00  0.00    -0.237 OA
ATOM     88  O   UNL A   1      47.553  28.162  21.443  1.00  0.00    -0.744 OA
ENDBRANCH  82  85
ENDBRANCH  54  78
BRANCH  66  89
ATOM     89  C   UNL A   1      44.924  33.528  29.289  1.00  0.00     0.023 A 
ATOM     90  C   UNL A   1      45.709  33.731  30.440  1.00  0.00     0.012 A 
ATOM     91  C   UNL A   1      44.759  34.583  28.369  1.00  0.00     0.148 A 
ATOM     92  C   UNL A   1      46.299  34.971  30.686  1.00  0.00     0.002 A 
ATOM     93  C   UNL A   1      45.388  35.802  28.598  1.00  0.00     0.091 A 
ATOM     94  F   UNL A   1      43.993  34.378  27.288  1.00  0.00    -0.205 F 
ATOM     95  C   UNL A   1      46.150  36.001  29.760  1.00  0.00     0.022 A 
BRANCH  93  96
ATOM     96  S   UNL A   1      45.325  37.148  27.409  1.00  0.00     0.127 S 
ATOM     97  O   UNL A   1      46.299  36.711  26.411  1.00  0.00    -0.237 OA
ATOM     98  O   UNL A   1      43.933  37.106  26.960  1.00  0.00    -0.237 OA
ATOM     99  O   UNL A   1      45.679  38.350  28.152  1.00  0.00    -0.744 OA
ENDBRANCH  93  96
ENDBRANCH  66  89
ENDBRANCH  40  41
ENDBRANCH  33  35
ENDBRANCH  32  33
ENDBRANCH  31  32
ENDBRANCH  30  31
ENDBRANCH  29  30
ENDBRANCH  28  29
ENDBRANCH  27  28
ENDBRANCH  26  27
ENDBRANCH   1  26
TORSDOF 28
ENDMDL
MODEL 2
REMARK VINA RESULT:      -9.1      1.909      2.379
REMARK SMILES CCc1ccc(S(=O)(=O)N[C@H](C(=O)OCCOCCOCCOCCOC(=O)c2ccc(-c3c4nc(c(-c5cccc(S(=O)(=O)[O-])c5F)c5ccc([nH]5)c(-c5cccc(S(=O)(=O)[O-])c5F)c5nc(c(-c6cccc(S(=O)(=O)[O-])c6F)c6ccc3[nH]6)C=C5)C=C4)cc2)C(C)C)cc1
REMARK SMILES IDX 19 1 18 2 17 3 16 4 15 5 14 6 12 7 13 8 11 9 10 10 7 12 8 13
REMARK SMILES IDX 9 14 6 15 3 16 4 17 96 18 5 19 95 20 2 21 1 22 92 23 93 24
REMARK SMILES IDX 94 25 20 26 21 27 22 28 23 29 24 30 25 31 26 32 27 33 28 34
REMARK SMILES IDX 29 35 30 36 91 37 31 38 90 39 32 40 33 41 34 42 84 43 35 44
REMARK SMILES IDX 89 45 83 46 85 47 36 48 88 49 82 50 81 51 37 53 69 54 49 55
REMARK SMILES IDX 68 56 50 57 53 58 67 59 86 60 51 61 52 62 66 64 87 65 54 66
REMARK SMILES IDX 38 67 39 68 47 69 40 70 42 71 48 72 41 73 43 74 44 75 45 76
REMARK SMILES IDX 46 77 70 78 71 79 79 80 72 81 74 82 80 83 73 84 75 85 76 86
REMARK SMILES IDX 77 87 78 88 55 89 56 90 64 91 57 92 59 93 65 94 58 95 60 96
REMARK SMILES IDX 61 97 62 98 63 99
REMARK H PARENT 10 11 85 52 53 63
REMARK Flexibility Score: inf
ROOT
ATOM      1  C   UNL A   1      34.232  22.127  26.752  1.00  0.00     0.188 C 
ENDROOT
BRANCH   1   2
ATOM      2  C   UNL A   1      32.842  22.777  26.654  1.00  0.00     0.188 C 
BRANCH   2   3
ATOM      3  O   UNL A   1      31.973  22.204  25.688  1.00  0.00    -0.376 OA
BRANCH   3   4
ATOM      4  C   UNL A   1      32.117  22.706  24.362  1.00  0.00     0.202 C 
BRANCH   4   5
ATOM      5  C   UNL A   1      30.855  23.358  23.784  1.00  0.00     0.261 C 
BRANCH   5   6
ATOM      6  O   UNL A   1      30.619  24.679  24.286  1.00  0.00    -0.462 OA
BRANCH   6   7
ATOM      7  C   UNL A   1      30.845  25.709  23.452  1.00  0.00     0.324 C 
ATOM      8  O   UNL A   1      31.294  25.550  22.319  1.00  0.00    -0.250 OA
BRANCH   7   9
ATOM      9  C   UNL A   1      30.283  27.036  23.966  1.00  0.00     0.182 C 
BRANCH   9  10
ATOM     10  N   UNL A   1      31.015  27.876  24.950  1.00  0.00    -0.197 NA
ATOM     11  H   UNL A   1      31.587  28.493  24.374  1.00  0.00     0.142 HD
BRANCH  10  12
ATOM     12  S   UNL A   1      32.035  27.416  26.203  1.00  0.00     0.241 S 
ATOM     13  O   UNL A   1      33.000  26.452  25.741  1.00  0.00    -0.207 OA
ATOM     14  O   UNL A   1      31.147  27.141  27.316  1.00  0.00    -0.207 OA
BRANCH  12  15
ATOM     15  C   UNL A   1      32.913  28.891  26.630  1.00  0.00     0.082 A 
ATOM     16  C   UNL A   1      34.133  31.121  27.783  1.00  0.00    -0.048 A 
ATOM     17  C   UNL A   1      32.833  31.209  27.259  1.00  0.00     0.005 A 
ATOM     18  C   UNL A   1      34.853  29.930  27.606  1.00  0.00     0.005 A 
ATOM     19  C   UNL A   1      32.217  30.096  26.693  1.00  0.00     0.022 A 
ATOM     20  C   UNL A   1      34.254  28.824  27.003  1.00  0.00     0.022 A 
BRANCH  16  21
ATOM     21  C   UNL A   1      34.651  32.307  28.562  1.00  0.00     0.032 C 
ATOM     22  C   UNL A   1      34.312  33.686  28.012  1.00  0.00     0.009 C 
ENDBRANCH  16  21
ENDBRANCH  12  15
ENDBRANCH  10  12
ENDBRANCH   9  10
BRANCH   9  23
ATOM     23  C   UNL A   1      29.635  27.940  22.877  1.00  0.00     0.012 C 
ATOM     24  C   UNL A   1      28.148  28.261  23.075  1.00  0.00     0.009 C 
ATOM     25  C   UNL A   1      30.376  29.288  22.783  1.00  0.00     0.009 C 
ENDBRANCH   9  23
ENDBRANCH   7   9
ENDBRANCH   6   7
ENDBRANCH   5   6
ENDBRANCH   4   5
ENDBRANCH   3   4
ENDBRANCH   2   3
ENDBRANCH   1   2
BRANCH   1  26
ATOM     26  O   UNL A   1      34.567  21.057  25.891  1.00  0.00    -0.377 OA
BRANCH  26  27
ATOM     27  C   UNL A   1      35.623  21.218  24.944  1.00  0.00     0.188 C 
BRANCH  27  28
ATOM     28  C   UNL A   1      36.723  22.277  25.180  1.00  0.00     0.188 C 
BRANCH  28  29
ATOM     29  O   UNL A   1      37.997  21.758  25.541  1.00  0.00    -0.376 OA
BRANCH  29  30
ATOM     30  C   UNL A   1      38.286  20.441  25.087  1.00  0.00     0.202 C 
BRANCH  30  31
ATOM     31  C   UNL A   1      39.351  19.690  25.899  1.00  0.00     0.261 C 
BRANCH  31  32
ATOM     32  O   UNL A   1      39.870  20.419  27.024  1.00  0.00    -0.460 OA
BRANCH  32  33
ATOM     33  C   UNL A   1      41.207  20.602  27.066  1.00  0.00     0.338 C 
ATOM     34  O   UNL A   1      42.072  19.796  26.774  1.00  0.00    -0.246 OA
BRANCH  33  35
ATOM     35  C   UNL A   1      41.464  22.022  27.356  1.00  0.00     0.060 A 
ATOM     36  C   UNL A   1      41.170  22.971  26.370  1.00  0.00     0.016 A 
ATOM     37  C   UNL A   1      42.032  22.406  28.573  1.00  0.00     0.016 A 
ATOM     38  C   UNL A   1      41.505  24.307  26.576  1.00  0.00     0.010 A 
ATOM     39  C   UNL A   1      42.380  23.742  28.772  1.00  0.00     0.010 A 
ATOM     40  C   UNL A   1      42.162  24.686  27.754  1.00  0.00    -0.014 A 
BRANCH  40  41
ATOM     41  C   UNL A   1      42.804  26.018  27.819  1.00  0.00     0.031 A 
ATOM     42  C   UNL A   1      42.040  27.146  28.459  1.00  0.00     0.074 A 
ATOM     43  C   UNL A   1      44.039  26.221  27.334  1.00  0.00     0.049 A 
ATOM     44  N   UNL A   1      42.424  28.370  28.705  1.00  0.00    -0.248 NA
ATOM     45  C   UNL A   1      40.657  26.854  28.874  1.00  0.00     0.031 C 
ATOM     46  C   UNL A   1      44.859  25.216  26.663  1.00  0.00     0.029 A 
ATOM     47  N   UNL A   1      44.809  27.357  27.318  1.00  0.00    -0.354 N 
ATOM     48  C   UNL A   1      41.330  28.998  29.287  1.00  0.00     0.074 A 
ATOM     49  C   UNL A   1      40.260  28.029  29.339  1.00  0.00     0.031 C 
ATOM     50  C   UNL A   1      46.013  25.788  26.275  1.00  0.00     0.029 A 
ATOM     51  C   UNL A   1      46.010  27.197  26.672  1.00  0.00     0.049 A 
ATOM     52  H   UNL A   1      44.527  28.205  27.731  1.00  0.00     0.167 HD
ATOM     53  C   UNL A   1      41.233  30.263  29.757  1.00  0.00     0.034 A 
ATOM     54  C   UNL A   1      46.992  28.087  26.428  1.00  0.00     0.034 A 
ATOM     55  C   UNL A   1      42.303  31.220  29.718  1.00  0.00     0.049 A 
ATOM     56  C   UNL A   1      46.870  29.485  26.979  1.00  0.00     0.074 A 
ATOM     57  C   UNL A   1      42.329  32.504  30.230  1.00  0.00     0.029 A 
ATOM     58  N   UNL A   1      43.533  31.003  29.116  1.00  0.00    -0.354 N 
ATOM     59  N   UNL A   1      45.898  30.014  27.685  1.00  0.00    -0.248 NA
ATOM     60  C   UNL A   1      47.999  30.398  26.741  1.00  0.00     0.031 C 
ATOM     61  C   UNL A   1      43.568  33.072  29.918  1.00  0.00     0.029 A 
ATOM     62  C   UNL A   1      44.321  32.133  29.230  1.00  0.00     0.049 A 
ATOM     63  H   UNL A   1      43.804  30.167  28.672  1.00  0.00     0.167 HD
ATOM     64  C   UNL A   1      46.312  31.303  28.006  1.00  0.00     0.074 A 
ATOM     65  C   UNL A   1      47.632  31.470  27.431  1.00  0.00     0.031 C 
ATOM     66  C   UNL A   1      45.656  32.265  28.702  1.00  0.00     0.034 A 
BRANCH  53  67
ATOM     67  C   UNL A   1      39.928  30.666  30.388  1.00  0.00     0.023 A 
ATOM     68  C   UNL A   1      38.815  30.941  29.566  1.00  0.00     0.012 A 
ATOM     69  C   UNL A   1      39.792  30.743  31.787  1.00  0.00     0.148 A 
ATOM     70  C   UNL A   1      37.596  31.319  30.126  1.00  0.00     0.002 A 
ATOM     71  C   UNL A   1      38.562  31.083  32.339  1.00  0.00     0.091 A 
ATOM     72  F   UNL A   1      40.869  30.509  32.549  1.00  0.00    -0.205 F 
ATOM     73  C   UNL A   1      37.466  31.380  31.512  1.00  0.00     0.022 A 
BRANCH  71  74
ATOM     74  S   UNL A   1      38.284  31.115  34.113  1.00  0.00     0.127 S 
ATOM     75  O   UNL A   1      36.951  31.709  34.193  1.00  0.00    -0.237 OA
ATOM     76  O   UNL A   1      38.339  29.695  34.463  1.00  0.00    -0.237 OA
ATOM     77  O   UNL A   1      39.366  31.914  34.669  1.00  0.00    -0.744 OA
ENDBRANCH  71  74
ENDBRANCH  53  67
BRANCH  54  78
ATOM     78  C   UNL A   1      48.207  27.655  25.684  1.00  0.00     0.023 A 
ATOM     79  C   UNL A   1      49.299  27.113  26.390  1.00  0.00     0.012 A 
ATOM     80  C   UNL A   1      48.269  27.736  24.278  1.00  0.00     0.148 A 
ATOM     81  C   UNL A   1      50.439  26.679  25.711  1.00  0.00     0.002 A 
ATOM     82  C   UNL A   1      49.386  27.255  23.605  1.00  0.00     0.091 A 
ATOM     83  F   UNL A   1      47.227  28.272  23.628  1.00  0.00    -0.205 F 
ATOM     84  C   UNL A   1      50.478  26.740  24.320  1.00  0.00     0.022 A 
BRANCH  82  85
ATOM     85  S   UNL A   1      49.472  27.174  21.812  1.00  0.00     0.127 S 
ATOM     86  O   UNL A   1      48.951  28.484  21.428  1.00  0.00    -0.237 OA
ATOM     87  O   UNL A   1      50.906  26.991  21.584  1.00  0.00    -0.237 OA
ATOM     88  O   UNL A   1      48.655  26.031  21.428  1.00  0.00    -0.744 OA
ENDBRANCH  82  85
ENDBRANCH  54  78
BRANCH  66  89
ATOM     89  C   UNL A   1      46.354  33.583  28.913  1.00  0.00     0.023 A 
ATOM     90  C   UNL A   1      47.015  33.835  30.131  1.00  0.00     0.012 A 
ATOM     91  C   UNL A   1      46.436  34.531  27.873  1.00  0.00     0.148 A 
ATOM     92  C   UNL A   1      47.724  35.022  30.320  1.00  0.00     0.002 A 
ATOM     93  C   UNL A   1      47.182  35.691  28.053  1.00  0.00     0.091 A 
ATOM     94  F   UNL A   1      45.784  34.284  26.728  1.00  0.00    -0.205 F 
ATOM     95  C   UNL A   1      47.818  35.942  29.279  1.00  0.00     0.022 A 
BRANCH  93  96
ATOM     96  S   UNL A   1      47.433  36.881  26.730  1.00  0.00     0.127 S 
ATOM     97  O   UNL A   1      48.537  37.682  27.254  1.00  0.00    -0.237 OA
ATOM     98  O   UNL A   1      47.786  36.023  25.598  1.00  0.00    -0.237 OA
ATOM     99  O   UNL A   1      46.163  37.579  26.579  1.00  0.00    -0.744 OA
ENDBRANCH  93  96
ENDBRANCH  66  89
ENDBRANCH  40  41
ENDBRANCH  33  35
ENDBRANCH  32  33
ENDBRANCH  31  32
ENDBRANCH  30  31
ENDBRANCH  29  30
ENDBRANCH  28  29
ENDBRANCH  27  28
ENDBRANCH  26  27
ENDBRANCH   1  26
TORSDOF 28
ENDMDL
MODEL 3
REMARK VINA RESULT:      -8.2      2.628      3.407
REMARK SMILES CCc1ccc(S(=O)(=O)N[C@H](C(=O)OCCOCCOCCOCCOC(=O)c2ccc(-c3c4nc(c(-c5cccc(S(=O)(=O)[O-])c5F)c5ccc([nH]5)c(-c5cccc(S(=O)(=O)[O-])c5F)c5nc(c(-c6cccc(S(=O)(=O)[O-])c6F)c6ccc3[nH]6)C=C5)C=C4)cc2)C(C)C)cc1
REMARK SMILES IDX 19 1 18 2 17 3 16 4 15 5 14 6 12 7 13 8 11 9 10 10 7 12 8 13
REMARK SMILES IDX 9 14 6 15 3 16 4 17 96 18 5 19 95 20 2 21 1 22 92 23 93 24
REMARK SMILES IDX 94 25 20 26 21 27 22 28 23 29 24 30 25 31 26 32 27 33 28 34
REMARK SMILES IDX 29 35 30 36 91 37 31 38 90 39 32 40 33 41 34 42 84 43 35 44
REMARK SMILES IDX 89 45 83 46 85 47 36 48 88 49 82 50 81 51 37 53 69 54 49 55
REMARK SMILES IDX 68 56 50 57 53 58 67 59 86 60 51 61 52 62 66 64 87 65 54 66
REMARK SMILES IDX 38 67 39 68 47 69 40 70 42 71 48 72 41 73 43 74 44 75 45 76
REMARK SMILES IDX 46 77 70 78 71 79 79 80 72 81 74 82 80 83 73 84 75 85 76 86
REMARK SMILES IDX 77 87 78 88 55 89 56 90 64 91 57 92 59 93 65 94 58 95 60 96
REMARK SMILES IDX 61 97 62 98 63 99
REMARK H PARENT 10 11 85 52 53 63
REMARK Flexibility Score: inf
ROOT
ATOM      1  C   UNL A   1      32.403  22.482  26.383  1.00  0.00     0.188 C 
ENDROOT
BRANCH   1   2
ATOM      2  C   UNL A   1      31.131  23.277  26.047  1.00  0.00     0.188 C 
BRANCH   2   3
ATOM      3  O   UNL A   1      30.864  23.436  24.661  1.00  0.00    -0.376 OA
BRANCH   3   4
ATOM      4  C   UNL A   1      31.165  24.722  24.125  1.00  0.00     0.202 C 
BRANCH   4   5
ATOM      5  C   UNL A   1      30.114  25.799  24.419  1.00  0.00     0.261 C 
BRANCH   5   6
ATOM      6  O   UNL A   1      30.570  26.799  25.339  1.00  0.00    -0.462 OA
BRANCH   6   7
ATOM      7  C   UNL A   1      31.817  27.272  25.173  1.00  0.00     0.324 C 
ATOM      8  O   UNL A   1      32.809  26.549  25.247  1.00  0.00    -0.250 OA
BRANCH   7   9
ATOM      9  C   UNL A   1      31.854  28.717  24.671  1.00  0.00     0.182 C 
BRANCH   9  10
ATOM     10  N   UNL A   1      32.555  29.795  25.413  1.00  0.00    -0.197 NA
ATOM     11  H   UNL A   1      33.137  30.247  24.708  1.00  0.00     0.142 HD
BRANCH  10  12
ATOM     12  S   UNL A   1      33.549  29.695  26.764  1.00  0.00     0.241 S 
ATOM     13  O   UNL A   1      34.926  29.554  26.369  1.00  0.00    -0.207 OA
ATOM     14  O   UNL A   1      32.895  28.731  27.629  1.00  0.00    -0.207 OA
BRANCH  12  15
ATOM     15  C   UNL A   1      33.379  31.263  27.563  1.00  0.00     0.082 A 
ATOM     16  C   UNL A   1      33.411  33.913  28.441  1.00  0.00    -0.048 A 
ATOM     17  C   UNL A   1      34.375  32.998  28.896  1.00  0.00     0.005 A 
ATOM     18  C   UNL A   1      32.361  33.445  27.637  1.00  0.00     0.005 A 
ATOM     19  C   UNL A   1      34.368  31.679  28.452  1.00  0.00     0.022 A 
ATOM     20  C   UNL A   1      32.328  32.113  27.221  1.00  0.00     0.022 A 
BRANCH  16  21
ATOM     21  C   UNL A   1      33.606  35.367  28.803  1.00  0.00     0.032 C 
ATOM     22  C   UNL A   1      34.467  36.196  27.860  1.00  0.00     0.009 C 
ENDBRANCH  16  21
ENDBRANCH  12  15
ENDBRANCH  10  12
ENDBRANCH   9  10
BRANCH   9  23
ATOM     23  C   UNL A   1      32.109  28.874  23.143  1.00  0.00     0.012 C 
ATOM     24  C   UNL A   1      33.206  27.977  22.554  1.00  0.00     0.009 C 
ATOM     25  C   UNL A   1      30.821  28.587  22.348  1.00  0.00     0.009 C 
ENDBRANCH   9  23
ENDBRANCH   7   9
ENDBRANCH   6   7
ENDBRANCH   5   6
ENDBRANCH   4   5
ENDBRANCH   3   4
ENDBRANCH   2   3
ENDBRANCH   1   2
BRANCH   1  26
ATOM     26  O   UNL A   1      32.856  21.478  25.496  1.00  0.00    -0.377 OA
BRANCH  26  27
ATOM     27  C   UNL A   1      33.824  21.802  24.498  1.00  0.00     0.188 C 
BRANCH  27  28
ATOM     28  C   UNL A   1      34.559  23.160  24.542  1.00  0.00     0.188 C 
BRANCH  28  29
ATOM     29  O   UNL A   1      35.962  23.081  24.768  1.00  0.00    -0.376 OA
BRANCH  29  30
ATOM     30  C   UNL A   1      36.654  22.063  24.055  1.00  0.00     0.202 C 
BRANCH  30  31
ATOM     31  C   UNL A   1      37.718  21.308  24.864  1.00  0.00     0.261 C 
BRANCH  31  32
ATOM     32  O   UNL A   1      38.151  21.980  26.057  1.00  0.00    -0.460 OA
BRANCH  32  33
ATOM     33  C   UNL A   1      39.423  21.758  26.453  1.00  0.00     0.338 C 
ATOM     34  O   UNL A   1      40.075  20.740  26.308  1.00  0.00    -0.246 OA
BRANCH  33  35
ATOM     35  C   UNL A   1      39.978  23.031  26.942  1.00  0.00     0.060 A 
ATOM     36  C   UNL A   1      39.566  24.221  26.329  1.00  0.00     0.016 A 
ATOM     37  C   UNL A   1      40.928  23.044  27.966  1.00  0.00     0.016 A 
ATOM     38  C   UNL A   1      40.156  25.427  26.697  1.00  0.00     0.010 A 
ATOM     39  C   UNL A   1      41.528  24.252  28.324  1.00  0.00     0.010 A 
ATOM     40  C   UNL A   1      41.179  25.438  27.656  1.00  0.00    -0.014 A 
BRANCH  40  41
ATOM     41  C   UNL A   1      42.017  26.649  27.795  1.00  0.00     0.031 A 
ATOM     42  C   UNL A   1      41.421  27.854  28.473  1.00  0.00     0.074 A 
ATOM     43  C   UNL A   1      43.281  26.679  27.344  1.00  0.00     0.049 A 
ATOM     44  N   UNL A   1      41.983  28.991  28.783  1.00  0.00    -0.248 NA
ATOM     45  C   UNL A   1      39.999  27.763  28.848  1.00  0.00     0.031 C 
ATOM     46  C   UNL A   1      43.952  25.589  26.641  1.00  0.00     0.029 A 
ATOM     47  N   UNL A   1      44.217  27.680  27.394  1.00  0.00    -0.354 N 
ATOM     48  C   UNL A   1      40.985  29.756  29.373  1.00  0.00     0.074 A 
ATOM     49  C   UNL A   1      39.776  28.964  29.360  1.00  0.00     0.031 C 
ATOM     50  C   UNL A   1      45.191  25.990  26.302  1.00  0.00     0.029 A 
ATOM     51  C   UNL A   1      45.395  27.363  26.764  1.00  0.00     0.049 A 
ATOM     52  H   UNL A   1      44.060  28.543  27.841  1.00  0.00     0.167 HD
ATOM     53  C   UNL A   1      41.072  30.999  29.900  1.00  0.00     0.034 A 
ATOM     54  C   UNL A   1      46.509  28.100  26.581  1.00  0.00     0.034 A 
ATOM     55  C   UNL A   1      42.278  31.778  29.927  1.00  0.00     0.049 A 
ATOM     56  C   UNL A   1      46.590  29.475  27.194  1.00  0.00     0.074 A 
ATOM     57  C   UNL A   1      42.489  33.020  30.498  1.00  0.00     0.029 A 
ATOM     58  N   UNL A   1      43.475  31.399  29.338  1.00  0.00    -0.354 N 
ATOM     59  N   UNL A   1      45.694  30.117  27.906  1.00  0.00    -0.248 NA
ATOM     60  C   UNL A   1      47.852  30.209  27.021  1.00  0.00     0.031 C 
ATOM     61  C   UNL A   1      43.809  33.401  30.236  1.00  0.00     0.029 A 
ATOM     62  C   UNL A   1      44.425  32.387  29.519  1.00  0.00     0.049 A 
ATOM     63  H   UNL A   1      43.625  30.551  28.860  1.00  0.00     0.167 HD
ATOM     64  C   UNL A   1      46.295  31.311  28.294  1.00  0.00     0.074 A 
ATOM     65  C   UNL A   1      47.638  31.295  27.753  1.00  0.00     0.031 C 
ATOM     66  C   UNL A   1      45.777  32.332  29.023  1.00  0.00     0.034 A 
BRANCH  53  67
ATOM     67  C   UNL A   1      39.829  31.573  30.525  1.00  0.00     0.023 A 
ATOM     68  C   UNL A   1      38.932  32.316  29.731  1.00  0.00     0.012 A 
ATOM     69  C   UNL A   1      39.533  31.353  31.884  1.00  0.00     0.148 A 
ATOM     70  C   UNL A   1      37.776  32.860  30.286  1.00  0.00     0.002 A 
ATOM     71  C   UNL A   1      38.357  31.865  32.421  1.00  0.00     0.091 A 
ATOM     72  F   UNL A   1      40.413  30.671  32.630  1.00  0.00    -0.205 F 
ATOM     73  C   UNL A   1      37.483  32.626  31.627  1.00  0.00     0.022 A 
BRANCH  71  74
ATOM     74  S   UNL A   1      37.864  31.553  34.120  1.00  0.00     0.127 S 
ATOM     75  O   UNL A   1      36.461  31.961  34.100  1.00  0.00    -0.237 OA
ATOM     76  O   UNL A   1      38.076  30.111  34.246  1.00  0.00    -0.237 OA
ATOM     77  O   UNL A   1      38.747  32.366  34.944  1.00  0.00    -0.744 OA
ENDBRANCH  71  74
ENDBRANCH  53  67
BRANCH  54  78
ATOM     78  C   UNL A   1      47.662  27.517  25.840  1.00  0.00     0.023 A 
ATOM     79  C   UNL A   1      47.756  27.697  24.446  1.00  0.00     0.012 A 
ATOM     80  C   UNL A   1      48.687  26.825  26.515  1.00  0.00     0.148 A 
ATOM     81  C   UNL A   1      48.840  27.180  23.735  1.00  0.00     0.002 A 
ATOM     82  C   UNL A   1      49.789  26.357  25.808  1.00  0.00     0.091 A 
ATOM     83  F   UNL A   1      48.569  26.649  27.838  1.00  0.00    -0.205 F 
ATOM     84  C   UNL A   1      49.860  26.521  24.416  1.00  0.00     0.022 A 
BRANCH  82  85
ATOM     85  S   UNL A   1      51.210  25.611  26.617  1.00  0.00     0.127 S 
ATOM     86  O   UNL A   1      50.574  24.631  27.494  1.00  0.00    -0.237 OA
ATOM     87  O   UNL A   1      51.941  25.041  25.484  1.00  0.00    -0.237 OA
ATOM     88  O   UNL A   1      51.902  26.704  27.287  1.00  0.00    -0.744 OA
ENDBRANCH  82  85
ENDBRANCH  54  78
BRANCH  66  89
ATOM     89  C   UNL A   1      46.665  33.515  29.308  1.00  0.00     0.023 A 
ATOM     90  C   UNL A   1      47.443  33.536  30.483  1.00  0.00     0.012 A 
ATOM     91  C   UNL A   1      46.801  34.558  28.370  1.00  0.00     0.148 A 
ATOM     92  C   UNL A   1      48.321  34.591  30.732  1.00  0.00     0.002 A 
ATOM     93  C   UNL A   1      47.712  35.583  28.605  1.00  0.00     0.091 A 
ATOM     94  F   UNL A   1      46.039  34.532  27.268  1.00  0.00    -0.205 F 
ATOM     95  C   UNL A   1      48.465  35.606  29.789  1.00  0.00     0.022 A 
BRANCH  93  96
ATOM     96  S   UNL A   1      48.028  36.876  27.397  1.00  0.00     0.127 S 
ATOM     97  O   UNL A   1      46.977  37.842  27.711  1.00  0.00    -0.237 OA
ATOM     98  O   UNL A   1      49.380  37.311  27.750  1.00  0.00    -0.237 OA
ATOM     99  O   UNL A   1      47.926  36.234  26.094  1.00  0.00    -0.744 OA
ENDBRANCH  93  96
ENDBRANCH  66  89
ENDBRANCH  40  41
ENDBRANCH  33  35
ENDBRANCH  32  33
ENDBRANCH  31  32
ENDBRANCH  30  31
ENDBRANCH  29  30
ENDBRANCH  28  29
ENDBRANCH  27  28
ENDBRANCH  26  27
ENDBRANCH   1  26
TORSDOF 28
ENDMDL
