MODEL 1
REMARK VINA RESULT:      -8.0      0.000      0.000
REMARK SMILES CC[NH2+][C@@]1(C(=O)OCCOCCOCCOCCOC(=O)c2ccc(-c3c4nc(c(-c5cccc(S(=O)(=O)[O-])c5F)c5ccc([nH]5)c(-c5cccc(S(=O)(=O)[O-])c5F)c5nc(c(-c6cccc(S(=O)(=O)[O-])c6F)c6ccc3[nH]6)C=C5)C=C4)cc2)CC[C@@H](SCC2CCCC2)C1
REMARK SMILES IDX 13 1 12 2 11 3 10 4 9 5 8 6 7 7 5 8 6 9 4 10 85 11 95 12
REMARK SMILES IDX 86 13 87 14 3 15 2 18 1 19 88 20 89 21 90 22 91 23 94 24
REMARK SMILES IDX 92 25 93 26 14 27 15 28 16 29 17 30 18 31 19 32 20 33 21 34
REMARK SMILES IDX 22 35 23 36 84 37 24 38 83 39 25 40 26 41 27 42 77 43 28 44
REMARK SMILES IDX 82 45 76 46 78 47 29 48 81 49 75 50 74 51 30 53 62 54 42 55
REMARK SMILES IDX 61 56 43 57 46 58 60 59 79 60 44 61 45 62 59 64 80 65 47 66
REMARK SMILES IDX 31 67 32 68 40 69 33 70 35 71 41 72 34 73 36 74 37 75 38 76
REMARK SMILES IDX 39 77 63 78 64 79 72 80 65 81 67 82 73 83 66 84 68 85 69 86
REMARK SMILES IDX 70 87 71 88 48 89 49 90 57 91 50 92 52 93 58 94 51 95 53 96
REMARK SMILES IDX 54 97 55 98 56 99
REMARK H PARENT 3 16 3 17 78 52 46 63
REMARK Flexibility Score: inf
ROOT
ATOM      1  O   UNL A   1      42.910  18.964  25.071  1.00  0.00    -0.377 OA
ENDROOT
BRANCH   1   2
ATOM      2  C   UNL A   1      42.502  19.304  26.384  1.00  0.00     0.188 C 
BRANCH   2   3
ATOM      3  C   UNL A   1      41.037  19.703  26.613  1.00  0.00     0.188 C 
BRANCH   3   4
ATOM      4  O   UNL A   1      40.574  20.796  25.856  1.00  0.00    -0.376 OA
BRANCH   4   5
ATOM      5  C   UNL A   1      40.414  22.092  26.412  1.00  0.00     0.202 C 
BRANCH   5   6
ATOM      6  C   UNL A   1      39.079  22.808  26.690  1.00  0.00     0.261 C 
BRANCH   6   7
ATOM      7  O   UNL A   1      38.176  22.974  25.597  1.00  0.00    -0.459 OA
BRANCH   7   8
ATOM      8  C   UNL A   1      37.135  23.797  25.845  1.00  0.00     0.368 C 
ATOM      9  O   UNL A   1      37.294  24.971  26.180  1.00  0.00    -0.245 OA
BRANCH   8  10
ATOM     10  C   UNL A   1      35.728  23.106  25.768  1.00  0.00     0.195 C 
ATOM     11  C   UNL A   1      35.935  22.066  24.667  1.00  0.00     0.082 C 
ATOM     12  C   UNL A   1      34.472  23.838  25.189  1.00  0.00     0.095 C 
ATOM     13  C   UNL A   1      35.800  22.933  23.401  1.00  0.00     0.022 C 
ATOM     14  C   UNL A   1      34.570  23.786  23.661  1.00  0.00     0.053 C 
BRANCH  10  15
ATOM     15  N   UNL A   1      35.346  22.619  27.127  1.00  0.00    -0.332 N 
ATOM     16  H   UNL A   1      35.614  21.636  27.190  1.00  0.00     0.347 HD
ATOM     17  H   UNL A   1      35.831  23.235  27.780  1.00  0.00     0.347 HD
BRANCH  15  18
ATOM     18  C   UNL A   1      33.934  22.716  27.486  1.00  0.00     0.257 C 
ATOM     19  C   UNL A   1      33.282  21.350  27.310  1.00  0.00     0.071 C 
ENDBRANCH  15  18
ENDBRANCH  10  15
BRANCH  14  20
ATOM     20  S   UNL A   1      33.021  23.294  22.762  1.00  0.00    -0.158 SA
BRANCH  20  21
ATOM     21  C   UNL A   1      32.268  21.931  23.731  1.00  0.00     0.073 C 
BRANCH  21  22
ATOM     22  C   UNL A   1      32.684  20.467  23.478  1.00  0.00    -0.001 C 
ATOM     23  C   UNL A   1      32.304  19.482  24.588  1.00  0.00     0.004 C 
ATOM     24  C   UNL A   1      32.100  19.752  22.273  1.00  0.00     0.004 C 
ATOM     25  C   UNL A   1      32.571  18.108  23.962  1.00  0.00     0.000 C 
ATOM     26  C   UNL A   1      32.353  18.274  22.468  1.00  0.00     0.000 C 
ENDBRANCH  21  22
ENDBRANCH  20  21
ENDBRANCH  14  20
ENDBRANCH   8  10
ENDBRANCH   7   8
ENDBRANCH   6   7
ENDBRANCH   5   6
ENDBRANCH   4   5
ENDBRANCH   3   4
ENDBRANCH   2   3
ENDBRANCH   1   2
BRANCH   1  27
ATOM     27  C   UNL A   1      44.250  18.574  24.798  1.00  0.00     0.188 C 
BRANCH  27  28
ATOM     28  C   UNL A   1      45.288  19.624  24.365  1.00  0.00     0.188 C 
BRANCH  28  29
ATOM     29  O   UNL A   1      45.689  20.521  25.382  1.00  0.00    -0.376 OA
BRANCH  29  30
ATOM     30  C   UNL A   1      45.417  21.902  25.219  1.00  0.00     0.202 C 
BRANCH  30  31
ATOM     31  C   UNL A   1      44.207  22.525  25.933  1.00  0.00     0.261 C 
BRANCH  31  32
ATOM     32  O   UNL A   1      44.389  23.820  26.532  1.00  0.00    -0.460 OA
BRANCH  32  33
ATOM     33  C   UNL A   1      43.664  24.866  26.087  1.00  0.00     0.338 C 
ATOM     34  O   UNL A   1      43.214  25.029  24.963  1.00  0.00    -0.246 OA
BRANCH  33  35
ATOM     35  C   UNL A   1      43.323  25.693  27.265  1.00  0.00     0.060 A 
ATOM     36  C   UNL A   1      44.056  26.860  27.529  1.00  0.00     0.016 A 
ATOM     37  C   UNL A   1      42.254  25.332  28.086  1.00  0.00     0.016 A 
ATOM     38  C   UNL A   1      43.721  27.668  28.617  1.00  0.00     0.010 A 
ATOM     39  C   UNL A   1      41.942  26.125  29.193  1.00  0.00     0.010 A 
ATOM     40  C   UNL A   1      42.683  27.287  29.474  1.00  0.00    -0.014 A 
BRANCH  40  41
ATOM     41  C   UNL A   1      42.443  28.014  30.744  1.00  0.00     0.031 A 
ATOM     42  C   UNL A   1      41.463  29.154  30.744  1.00  0.00     0.074 A 
ATOM     43  C   UNL A   1      43.126  27.705  31.862  1.00  0.00     0.049 A 
ATOM     44  N   UNL A   1      41.193  30.012  31.691  1.00  0.00    -0.248 NA
ATOM     45  C   UNL A   1      40.685  29.354  29.509  1.00  0.00     0.031 C 
ATOM     46  C   UNL A   1      44.083  26.608  31.994  1.00  0.00     0.029 A 
ATOM     47  N   UNL A   1      43.149  28.321  33.090  1.00  0.00    -0.354 N 
ATOM     48  C   UNL A   1      40.256  30.885  31.152  1.00  0.00     0.074 A 
ATOM     49  C   UNL A   1      39.986  30.442  29.802  1.00  0.00     0.031 C 
ATOM     50  C   UNL A   1      44.633  26.655  33.220  1.00  0.00     0.029 A 
ATOM     51  C   UNL A   1      44.101  27.810  33.941  1.00  0.00     0.049 A 
ATOM     52  H   UNL A   1      42.542  29.056  33.337  1.00  0.00     0.167 HD
ATOM     53  C   UNL A   1      39.678  31.962  31.732  1.00  0.00     0.034 A 
ATOM     54  C   UNL A   1      44.529  28.254  35.141  1.00  0.00     0.034 A 
ATOM     55  C   UNL A   1      39.933  32.388  33.081  1.00  0.00     0.049 A 
ATOM     56  C   UNL A   1      43.901  29.493  35.735  1.00  0.00     0.074 A 
ATOM     57  C   UNL A   1      39.335  33.422  33.779  1.00  0.00     0.029 A 
ATOM     58  N   UNL A   1      40.878  31.828  33.922  1.00  0.00    -0.354 N 
ATOM     59  N   UNL A   1      42.914  30.224  35.275  1.00  0.00    -0.248 NA
ATOM     60  C   UNL A   1      44.435  29.959  37.025  1.00  0.00     0.031 C 
ATOM     61  C   UNL A   1      39.958  33.523  35.025  1.00  0.00     0.029 A 
ATOM     62  C   UNL A   1      40.910  32.521  35.120  1.00  0.00     0.049 A 
ATOM     63  H   UNL A   1      41.444  31.053  33.702  1.00  0.00     0.167 HD
ATOM     64  C   UNL A   1      42.691  31.211  36.231  1.00  0.00     0.074 A 
ATOM     65  C   UNL A   1      43.624  30.968  37.309  1.00  0.00     0.031 C 
ATOM     66  C   UNL A   1      41.805  32.237  36.211  1.00  0.00     0.034 A 
BRANCH  53  67
ATOM     67  C   UNL A   1      38.710  32.776  30.917  1.00  0.00     0.023 A 
ATOM     68  C   UNL A   1      39.183  33.805  30.079  1.00  0.00     0.012 A 
ATOM     69  C   UNL A   1      37.341  32.443  30.904  1.00  0.00     0.148 A 
ATOM     70  C   UNL A   1      38.304  34.500  29.250  1.00  0.00     0.002 A 
ATOM     71  C   UNL A   1      36.480  33.108  30.042  1.00  0.00     0.091 A 
ATOM     72  F   UNL A   1      36.913  31.474  31.725  1.00  0.00    -0.205 F 
ATOM     73  C   UNL A   1      36.957  34.143  29.221  1.00  0.00     0.022 A 
BRANCH  71  74
ATOM     74  S   UNL A   1      34.747  32.666  29.869  1.00  0.00     0.127 S 
ATOM     75  O   UNL A   1      34.837  31.406  29.132  1.00  0.00    -0.237 OA
ATOM     76  O   UNL A   1      34.329  32.530  31.264  1.00  0.00    -0.237 OA
ATOM     77  O   UNL A   1      34.121  33.763  29.145  1.00  0.00    -0.744 OA
ENDBRANCH  71  74
ENDBRANCH  53  67
BRANCH  54  78
ATOM     78  C   UNL A   1      45.619  27.545  35.874  1.00  0.00     0.023 A 
ATOM     79  C   UNL A   1      46.963  27.856  35.587  1.00  0.00     0.012 A 
ATOM     80  C   UNL A   1      45.337  26.539  36.818  1.00  0.00     0.148 A 
ATOM     81  C   UNL A   1      48.003  27.146  36.189  1.00  0.00     0.002 A 
ATOM     82  C   UNL A   1      46.378  25.878  37.460  1.00  0.00     0.091 A 
ATOM     83  F   UNL A   1      44.053  26.240  37.064  1.00  0.00    -0.205 F 
ATOM     84  C   UNL A   1      47.711  26.164  37.131  1.00  0.00     0.022 A 
BRANCH  82  85
ATOM     85  S   UNL A   1      46.099  24.686  38.774  1.00  0.00     0.127 S 
ATOM     86  O   UNL A   1      45.350  25.480  39.744  1.00  0.00    -0.237 OA
ATOM     87  O   UNL A   1      45.318  23.657  38.085  1.00  0.00    -0.237 OA
ATOM     88  O   UNL A   1      47.423  24.251  39.196  1.00  0.00    -0.744 OA
ENDBRANCH  82  85
ENDBRANCH  54  78
BRANCH  66  89
ATOM     89  C   UNL A   1      41.766  33.163  37.400  1.00  0.00     0.023 A 
ATOM     90  C   UNL A   1      42.725  34.189  37.522  1.00  0.00     0.012 A 
ATOM     91  C   UNL A   1      40.723  33.077  38.344  1.00  0.00     0.148 A 
ATOM     92  C   UNL A   1      42.663  35.094  38.581  1.00  0.00     0.002 A 
ATOM     93  C   UNL A   1      40.637  34.014  39.365  1.00  0.00     0.091 A 
ATOM     94  F   UNL A   1      39.827  32.088  38.214  1.00  0.00    -0.205 F 
ATOM     95  C   UNL A   1      41.613  35.015  39.493  1.00  0.00     0.022 A 
BRANCH  93  96
ATOM     96  S   UNL A   1      39.272  34.055  40.532  1.00  0.00     0.127 S 
ATOM     97  O   UNL A   1      39.525  32.857  41.331  1.00  0.00    -0.237 OA
ATOM     98  O   UNL A   1      39.504  35.317  41.234  1.00  0.00    -0.237 OA
ATOM     99  O   UNL A   1      38.054  34.019  39.733  1.00  0.00    -0.744 OA
ENDBRANCH  93  96
ENDBRANCH  66  89
ENDBRANCH  40  41
ENDBRANCH  33  35
ENDBRANCH  32  33
ENDBRANCH  31  32
ENDBRANCH  30  31
ENDBRANCH  29  30
ENDBRANCH  28  29
ENDBRANCH  27  28
ENDBRANCH   1  27
TORSDOF 28
ENDMDL
MODEL 2
REMARK VINA RESULT:      -7.7      6.348      7.870
REMARK SMILES CC[NH2+][C@@]1(C(=O)OCCOCCOCCOCCOC(=O)c2ccc(-c3c4nc(c(-c5cccc(S(=O)(=O)[O-])c5F)c5ccc([nH]5)c(-c5cccc(S(=O)(=O)[O-])c5F)c5nc(c(-c6cccc(S(=O)(=O)[O-])c6F)c6ccc3[nH]6)C=C5)C=C4)cc2)CC[C@@H](SCC2CCCC2)C1
REMARK SMILES IDX 13 1 12 2 11 3 10 4 9 5 8 6 7 7 5 8 6 9 4 10 85 11 95 12
REMARK SMILES IDX 86 13 87 14 3 15 2 18 1 19 88 20 89 21 90 22 91 23 94 24
REMARK SMILES IDX 92 25 93 26 14 27 15 28 16 29 17 30 18 31 19 32 20 33 21 34
REMARK SMILES IDX 22 35 23 36 84 37 24 38 83 39 25 40 26 41 27 42 77 43 28 44
REMARK SMILES IDX 82 45 76 46 78 47 29 48 81 49 75 50 74 51 30 53 62 54 42 55
REMARK SMILES IDX 61 56 43 57 46 58 60 59 79 60 44 61 45 62 59 64 80 65 47 66
REMARK SMILES IDX 31 67 32 68 40 69 33 70 35 71 41 72 34 73 36 74 37 75 38 76
REMARK SMILES IDX 39 77 63 78 64 79 72 80 65 81 67 82 73 83 66 84 68 85 69 86
REMARK SMILES IDX 70 87 71 88 48 89 49 90 57 91 50 92 52 93 58 94 51 95 53 96
REMARK SMILES IDX 54 97 55 98 56 99
REMARK H PARENT 3 16 3 17 78 52 46 63
REMARK Flexibility Score: inf
ROOT
ATOM      1  O   UNL A   1      38.807  21.921  25.550  1.00  0.00    -0.377 OA
ENDROOT
BRANCH   1   2
ATOM      2  C   UNL A   1      37.412  22.124  25.696  1.00  0.00     0.188 C 
BRANCH   2   3
ATOM      3  C   UNL A   1      36.476  21.565  24.615  1.00  0.00     0.188 C 
BRANCH   3   4
ATOM      4  O   UNL A   1      35.746  20.415  24.969  1.00  0.00    -0.376 OA
BRANCH   4   5
ATOM      5  C   UNL A   1      34.332  20.354  24.878  1.00  0.00     0.202 C 
BRANCH   5   6
ATOM      6  C   UNL A   1      33.331  20.577  26.028  1.00  0.00     0.261 C 
BRANCH   6   7
ATOM      7  O   UNL A   1      32.496  21.733  25.964  1.00  0.00    -0.459 OA
BRANCH   7   8
ATOM      8  C   UNL A   1      33.162  22.906  25.892  1.00  0.00     0.368 C 
ATOM      9  O   UNL A   1      34.049  23.204  26.692  1.00  0.00    -0.245 OA
BRANCH   8  10
ATOM     10  C   UNL A   1      32.642  23.881  24.778  1.00  0.00     0.195 C 
ATOM     11  C   UNL A   1      32.852  25.252  25.422  1.00  0.00     0.082 C 
ATOM     12  C   UNL A   1      31.123  24.002  24.422  1.00  0.00     0.095 C 
ATOM     13  C   UNL A   1      31.629  25.342  26.352  1.00  0.00     0.022 C 
ATOM     14  C   UNL A   1      30.466  24.885  25.488  1.00  0.00     0.053 C 
BRANCH  10  15
ATOM     15  N   UNL A   1      33.355  23.591  23.499  1.00  0.00    -0.332 N 
ATOM     16  H   UNL A   1      34.041  22.858  23.687  1.00  0.00     0.347 HD
ATOM     17  H   UNL A   1      32.624  23.329  22.837  1.00  0.00     0.347 HD
BRANCH  15  18
ATOM     18  C   UNL A   1      34.059  24.706  22.873  1.00  0.00     0.257 C 
ATOM     19  C   UNL A   1      33.097  25.446  21.952  1.00  0.00     0.071 C 
ENDBRANCH  15  18
ENDBRANCH  10  15
BRANCH  14  20
ATOM     20  S   UNL A   1      29.333  26.216  24.859  1.00  0.00    -0.158 SA
BRANCH  20  21
ATOM     21  C   UNL A   1      30.408  27.515  24.138  1.00  0.00     0.073 C 
BRANCH  21  22
ATOM     22  C   UNL A   1      29.792  28.758  23.462  1.00  0.00    -0.001 C 
ATOM     23  C   UNL A   1      30.478  29.202  22.167  1.00  0.00     0.004 C 
ATOM     24  C   UNL A   1      28.351  28.679  22.990  1.00  0.00     0.004 C 
ATOM     25  C   UNL A   1      29.515  30.241  21.584  1.00  0.00     0.000 C 
ATOM     26  C   UNL A   1      28.127  29.844  22.054  1.00  0.00     0.000 C 
ENDBRANCH  21  22
ENDBRANCH  20  21
ENDBRANCH  14  20
ENDBRANCH   8  10
ENDBRANCH   7   8
ENDBRANCH   6   7
ENDBRANCH   5   6
ENDBRANCH   4   5
ENDBRANCH   3   4
ENDBRANCH   2   3
ENDBRANCH   1   2
BRANCH   1  27
ATOM     27  C   UNL A   1      39.719  22.355  26.550  1.00  0.00     0.188 C 
BRANCH  27  28
ATOM     28  C   UNL A   1      39.584  23.760  27.163  1.00  0.00     0.188 C 
BRANCH  28  29
ATOM     29  O   UNL A   1      40.348  24.765  26.525  1.00  0.00    -0.376 OA
BRANCH  29  30
ATOM     30  C   UNL A   1      41.464  25.310  27.209  1.00  0.00     0.202 C 
BRANCH  30  31
ATOM     31  C   UNL A   1      42.880  25.061  26.665  1.00  0.00     0.261 C 
BRANCH  31  32
ATOM     32  O   UNL A   1      43.694  26.216  26.394  1.00  0.00    -0.460 OA
BRANCH  32  33
ATOM     33  C   UNL A   1      43.120  27.330  25.898  1.00  0.00     0.338 C 
ATOM     34  O   UNL A   1      42.346  27.409  24.956  1.00  0.00    -0.246 OA
BRANCH  33  35
ATOM     35  C   UNL A   1      43.429  28.433  26.835  1.00  0.00     0.060 A 
ATOM     36  C   UNL A   1      44.108  28.157  28.032  1.00  0.00     0.016 A 
ATOM     37  C   UNL A   1      43.079  29.744  26.511  1.00  0.00     0.016 A 
ATOM     38  C   UNL A   1      44.436  29.194  28.908  1.00  0.00     0.010 A 
ATOM     39  C   UNL A   1      43.380  30.775  27.404  1.00  0.00     0.010 A 
ATOM     40  C   UNL A   1      44.045  30.504  28.613  1.00  0.00    -0.014 A 
BRANCH  40  41
ATOM     41  C   UNL A   1      44.200  31.585  29.617  1.00  0.00     0.031 A 
ATOM     42  C   UNL A   1      43.065  31.850  30.567  1.00  0.00     0.074 A 
ATOM     43  C   UNL A   1      45.303  32.355  29.646  1.00  0.00     0.049 A 
ATOM     44  N   UNL A   1      42.919  32.819  31.430  1.00  0.00    -0.248 NA
ATOM     45  C   UNL A   1      41.943  30.896  30.536  1.00  0.00     0.031 C 
ATOM     46  C   UNL A   1      46.479  32.181  28.795  1.00  0.00     0.029 A 
ATOM     47  N   UNL A   1      45.593  33.469  30.397  1.00  0.00    -0.354 N 
ATOM     48  C   UNL A   1      41.670  32.623  32.008  1.00  0.00     0.074 A 
ATOM     49  C   UNL A   1      41.106  31.432  31.413  1.00  0.00     0.031 C 
ATOM     50  C   UNL A   1      47.345  33.181  29.039  1.00  0.00     0.029 A 
ATOM     51  C   UNL A   1      46.766  34.086  30.029  1.00  0.00     0.049 A 
ATOM     52  H   UNL A   1      45.017  33.792  31.127  1.00  0.00     0.167 HD
ATOM     53  C   UNL A   1      41.050  33.375  32.946  1.00  0.00     0.034 A 
ATOM     54  C   UNL A   1      47.285  35.272  30.411  1.00  0.00     0.034 A 
ATOM     55  C   UNL A   1      41.621  34.546  33.550  1.00  0.00     0.049 A 
ATOM     56  C   UNL A   1      46.538  36.113  31.419  1.00  0.00     0.074 A 
ATOM     57  C   UNL A   1      41.098  35.328  34.565  1.00  0.00     0.029 A 
ATOM     58  N   UNL A   1      42.822  35.124  33.177  1.00  0.00    -0.354 N 
ATOM     59  N   UNL A   1      45.427  35.845  32.063  1.00  0.00    -0.248 NA
ATOM     60  C   UNL A   1      47.127  37.416  31.767  1.00  0.00     0.031 C 
ATOM     61  C   UNL A   1      41.958  36.410  34.769  1.00  0.00     0.029 A 
ATOM     62  C   UNL A   1      43.039  36.276  33.914  1.00  0.00     0.049 A 
ATOM     63  H   UNL A   1      43.431  34.770  32.490  1.00  0.00     0.167 HD
ATOM     64  C   UNL A   1      45.206  36.926  32.911  1.00  0.00     0.074 A 
ATOM     65  C   UNL A   1      46.310  37.841  32.721  1.00  0.00     0.031 C 
ATOM     66  C   UNL A   1      44.171  37.152  33.757  1.00  0.00     0.034 A 
BRANCH  53  67
ATOM     67  C   UNL A   1      39.669  32.968  33.386  1.00  0.00     0.023 A 
ATOM     68  C   UNL A   1      39.506  32.065  34.454  1.00  0.00     0.012 A 
ATOM     69  C   UNL A   1      38.536  33.571  32.805  1.00  0.00     0.148 A 
ATOM     70  C   UNL A   1      38.232  31.757  34.929  1.00  0.00     0.002 A 
ATOM     71  C   UNL A   1      37.274  33.295  33.313  1.00  0.00     0.091 A 
ATOM     72  F   UNL A   1      38.717  34.411  31.776  1.00  0.00    -0.205 F 
ATOM     73  C   UNL A   1      37.119  32.381  34.369  1.00  0.00     0.022 A 
BRANCH  71  74
ATOM     74  S   UNL A   1      35.788  34.109  32.718  1.00  0.00     0.127 S 
ATOM     75  O   UNL A   1      34.745  33.386  33.444  1.00  0.00    -0.237 OA
ATOM     76  O   UNL A   1      35.999  35.487  33.162  1.00  0.00    -0.237 OA
ATOM     77  O   UNL A   1      35.777  33.926  31.274  1.00  0.00    -0.744 OA
ENDBRANCH  71  74
ENDBRANCH  53  67
BRANCH  54  78
ATOM     78  C   UNL A   1      48.573  35.761  29.839  1.00  0.00     0.023 A 
ATOM     79  C   UNL A   1      49.790  35.365  30.430  1.00  0.00     0.012 A 
ATOM     80  C   UNL A   1      48.603  36.645  28.743  1.00  0.00     0.148 A 
ATOM     81  C   UNL A   1      51.005  35.878  29.973  1.00  0.00     0.002 A 
ATOM     82  C   UNL A   1      49.821  37.104  28.253  1.00  0.00     0.091 A 
ATOM     83  F   UNL A   1      47.437  37.030  28.205  1.00  0.00    -0.205 F 
ATOM     84  C   UNL A   1      51.021  36.739  28.881  1.00  0.00     0.022 A 
BRANCH  82  85
ATOM     85  S   UNL A   1      49.946  38.118  26.776  1.00  0.00     0.127 S 
ATOM     86  O   UNL A   1      48.831  39.044  26.954  1.00  0.00    -0.237 OA
ATOM     87  O   UNL A   1      51.274  38.715  26.935  1.00  0.00    -0.237 OA
ATOM     88  O   UNL A   1      49.833  37.195  25.656  1.00  0.00    -0.744 OA
ENDBRANCH  82  85
ENDBRANCH  54  78
BRANCH  66  89
ATOM     89  C   UNL A   1      44.188  38.417  34.577  1.00  0.00     0.023 A 
ATOM     90  C   UNL A   1      44.784  38.418  35.853  1.00  0.00     0.012 A 
ATOM     91  C   UNL A   1      43.698  39.626  34.042  1.00  0.00     0.148 A 
ATOM     92  C   UNL A   1      44.866  39.595  36.596  1.00  0.00     0.002 A 
ATOM     93  C   UNL A   1      43.832  40.804  34.765  1.00  0.00     0.091 A 
ATOM     94  F   UNL A   1      43.127  39.602  32.829  1.00  0.00    -0.205 F 
ATOM     95  C   UNL A   1      44.403  40.789  36.047  1.00  0.00     0.022 A 
BRANCH  93  96
ATOM     96  S   UNL A   1      43.354  42.406  34.106  1.00  0.00     0.127 S 
ATOM     97  O   UNL A   1      41.901  42.374  34.267  1.00  0.00    -0.237 OA
ATOM     98  O   UNL A   1      44.048  43.328  35.006  1.00  0.00    -0.237 OA
ATOM     99  O   UNL A   1      43.823  42.434  32.728  1.00  0.00    -0.744 OA
ENDBRANCH  93  96
ENDBRANCH  66  89
ENDBRANCH  40  41
ENDBRANCH  33  35
ENDBRANCH  32  33
ENDBRANCH  31  32
ENDBRANCH  30  31
ENDBRANCH  29  30
ENDBRANCH  28  29
ENDBRANCH  27  28
ENDBRANCH   1  27
TORSDOF 28
ENDMDL
MODEL 3
REMARK VINA RESULT:      -7.4      5.517      8.599
REMARK SMILES CC[NH2+][C@@]1(C(=O)OCCOCCOCCOCCOC(=O)c2ccc(-c3c4nc(c(-c5cccc(S(=O)(=O)[O-])c5F)c5ccc([nH]5)c(-c5cccc(S(=O)(=O)[O-])c5F)c5nc(c(-c6cccc(S(=O)(=O)[O-])c6F)c6ccc3[nH]6)C=C5)C=C4)cc2)CC[C@@H](SCC2CCCC2)C1
REMARK SMILES IDX 13 1 12 2 11 3 10 4 9 5 8 6 7 7 5 8 6 9 4 10 85 11 95 12
REMARK SMILES IDX 86 13 87 14 3 15 2 18 1 19 88 20 89 21 90 22 91 23 94 24
REMARK SMILES IDX 92 25 93 26 14 27 15 28 16 29 17 30 18 31 19 32 20 33 21 34
REMARK SMILES IDX 22 35 23 36 84 37 24 38 83 39 25 40 26 41 27 42 77 43 28 44
REMARK SMILES IDX 82 45 76 46 78 47 29 48 81 49 75 50 74 51 30 53 62 54 42 55
REMARK SMILES IDX 61 56 43 57 46 58 60 59 79 60 44 61 45 62 59 64 80 65 47 66
REMARK SMILES IDX 31 67 32 68 40 69 33 70 35 71 41 72 34 73 36 74 37 75 38 76
REMARK SMILES IDX 39 77 63 78 64 79 72 80 65 81 67 82 73 83 66 84 68 85 69 86
REMARK SMILES IDX 70 87 71 88 48 89 49 90 57 91 50 92 52 93 58 94 51 95 53 96
REMARK SMILES IDX 54 97 55 98 56 99
REMARK H PARENT 3 16 3 17 78 52 46 63
REMARK Flexibility Score: inf
ROOT
ATOM      1  O   UNL A   1      37.983  21.130  25.461  1.00  0.00    -0.377 OA
ENDROOT
BRANCH   1   2
ATOM      2  C   UNL A   1      36.748  21.763  25.748  1.00  0.00     0.188 C 
BRANCH   2   3
ATOM      3  C   UNL A   1      35.477  21.215  25.086  1.00  0.00     0.188 C 
BRANCH   3   4
ATOM      4  O   UNL A   1      34.356  21.080  25.927  1.00  0.00    -0.376 OA
BRANCH   4   5
ATOM      5  C   UNL A   1      33.141  21.774  25.692  1.00  0.00     0.202 C 
BRANCH   5   6
ATOM      6  C   UNL A   1      32.405  22.690  26.688  1.00  0.00     0.261 C 
BRANCH   6   7
ATOM      7  O   UNL A   1      31.960  23.960  26.215  1.00  0.00    -0.459 OA
BRANCH   7   8
ATOM      8  C   UNL A   1      32.941  24.766  25.755  1.00  0.00     0.368 C 
ATOM      9  O   UNL A   1      34.130  24.555  26.000  1.00  0.00    -0.245 OA
BRANCH   8  10
ATOM     10  C   UNL A   1      32.433  26.032  24.979  1.00  0.00     0.195 C 
ATOM     11  C   UNL A   1      33.632  26.975  25.075  1.00  0.00     0.082 C 
ATOM     12  C   UNL A   1      31.326  26.974  25.558  1.00  0.00     0.095 C 
ATOM     13  C   UNL A   1      33.465  27.536  26.500  1.00  0.00     0.022 C 
ATOM     14  C   UNL A   1      31.990  27.887  26.593  1.00  0.00     0.053 C 
BRANCH  10  15
ATOM     15  N   UNL A   1      31.972  25.622  23.620  1.00  0.00    -0.332 N 
ATOM     16  H   UNL A   1      31.997  24.602  23.579  1.00  0.00     0.347 HD
ATOM     17  H   UNL A   1      31.043  26.029  23.516  1.00  0.00     0.347 HD
BRANCH  15  18
ATOM     18  C   UNL A   1      32.741  26.127  22.486  1.00  0.00     0.257 C 
ATOM     19  C   UNL A   1      32.607  25.154  21.322  1.00  0.00     0.071 C 
ENDBRANCH  15  18
ENDBRANCH  10  15
BRANCH  14  20
ATOM     20  S   UNL A   1      31.563  29.691  26.481  1.00  0.00    -0.158 SA
BRANCH  20  21
ATOM     21  C   UNL A   1      31.359  30.066  24.697  1.00  0.00     0.073 C 
BRANCH  21  22
ATOM     22  C   UNL A   1      29.990  29.887  24.009  1.00  0.00    -0.001 C 
ATOM     23  C   UNL A   1      29.149  31.162  23.891  1.00  0.00     0.004 C 
ATOM     24  C   UNL A   1      29.967  29.415  22.566  1.00  0.00     0.004 C 
ATOM     25  C   UNL A   1      28.012  30.761  22.945  1.00  0.00     0.000 C 
ATOM     26  C   UNL A   1      28.579  29.686  22.033  1.00  0.00     0.000 C 
ENDBRANCH  21  22
ENDBRANCH  20  21
ENDBRANCH  14  20
ENDBRANCH   8  10
ENDBRANCH   7   8
ENDBRANCH   6   7
ENDBRANCH   5   6
ENDBRANCH   4   5
ENDBRANCH   3   4
ENDBRANCH   2   3
ENDBRANCH   1   2
BRANCH   1  27
ATOM     27  C   UNL A   1      39.210  21.672  25.933  1.00  0.00     0.188 C 
BRANCH  27  28
ATOM     28  C   UNL A   1      40.364  20.737  26.335  1.00  0.00     0.188 C 
BRANCH  28  29
ATOM     29  O   UNL A   1      41.634  21.107  25.835  1.00  0.00    -0.376 OA
BRANCH  29  30
ATOM     30  C   UNL A   1      42.325  22.180  26.452  1.00  0.00     0.202 C 
BRANCH  30  31
ATOM     31  C   UNL A   1      42.645  23.443  25.638  1.00  0.00     0.261 C 
BRANCH  31  32
ATOM     32  O   UNL A   1      42.579  24.705  26.325  1.00  0.00    -0.460 OA
BRANCH  32  33
ATOM     33  C   UNL A   1      41.493  25.489  26.169  1.00  0.00     0.338 C 
ATOM     34  O   UNL A   1      40.398  25.159  25.740  1.00  0.00    -0.246 OA
BRANCH  33  35
ATOM     35  C   UNL A   1      41.797  26.786  26.812  1.00  0.00     0.060 A 
ATOM     36  C   UNL A   1      42.463  26.810  28.047  1.00  0.00     0.016 A 
ATOM     37  C   UNL A   1      41.454  27.979  26.174  1.00  0.00     0.016 A 
ATOM     38  C   UNL A   1      42.786  28.028  28.647  1.00  0.00     0.010 A 
ATOM     39  C   UNL A   1      41.750  29.196  26.792  1.00  0.00     0.010 A 
ATOM     40  C   UNL A   1      42.402  29.228  28.038  1.00  0.00    -0.014 A 
BRANCH  40  41
ATOM     41  C   UNL A   1      42.550  30.520  28.749  1.00  0.00     0.031 A 
ATOM     42  C   UNL A   1      43.867  31.241  28.663  1.00  0.00     0.074 A 
ATOM     43  C   UNL A   1      41.553  31.017  29.506  1.00  0.00     0.049 A 
ATOM     44  N   UNL A   1      44.271  32.305  29.304  1.00  0.00    -0.248 NA
ATOM     45  C   UNL A   1      44.863  30.683  27.732  1.00  0.00     0.031 C 
ATOM     46  C   UNL A   1      40.224  30.425  29.649  1.00  0.00     0.029 A 
ATOM     47  N   UNL A   1      41.525  32.113  30.334  1.00  0.00    -0.354 N 
ATOM     48  C   UNL A   1      45.582  32.515  28.894  1.00  0.00     0.074 A 
ATOM     49  C   UNL A   1      45.902  31.481  27.935  1.00  0.00     0.031 C 
ATOM     50  C   UNL A   1      39.524  31.139  30.548  1.00  0.00     0.029 A 
ATOM     51  C   UNL A   1      40.369  32.209  31.074  1.00  0.00     0.049 A 
ATOM     52  H   UNL A   1      42.259  32.766  30.390  1.00  0.00     0.167 HD
ATOM     53  C   UNL A   1      46.443  33.481  29.289  1.00  0.00     0.034 A 
ATOM     54  C   UNL A   1      40.052  33.035  32.094  1.00  0.00     0.034 A 
ATOM     55  C   UNL A   1      46.116  34.520  30.228  1.00  0.00     0.049 A 
ATOM     56  C   UNL A   1      41.057  34.066  32.548  1.00  0.00     0.074 A 
ATOM     57  C   UNL A   1      46.899  35.587  30.630  1.00  0.00     0.029 A 
ATOM     58  N   UNL A   1      44.928  34.605  30.933  1.00  0.00    -0.354 N 
ATOM     59  N   UNL A   1      42.240  34.345  32.054  1.00  0.00    -0.248 NA
ATOM     60  C   UNL A   1      40.677  34.910  33.692  1.00  0.00     0.031 C 
ATOM     61  C   UNL A   1      46.205  36.288  31.619  1.00  0.00     0.029 A 
ATOM     62  C   UNL A   1      44.971  35.684  31.798  1.00  0.00     0.049 A 
ATOM     63  H   UNL A   1      44.166  33.989  30.834  1.00  0.00     0.167 HD
ATOM     64  C   UNL A   1      42.726  35.413  32.803  1.00  0.00     0.074 A 
ATOM     65  C   UNL A   1      41.701  35.749  33.766  1.00  0.00     0.031 C 
ATOM     66  C   UNL A   1      43.922  36.046  32.715  1.00  0.00     0.034 A 
BRANCH  53  67
ATOM     67  C   UNL A   1      47.835  33.472  28.720  1.00  0.00     0.023 A 
ATOM     68  C   UNL A   1      48.828  32.656  29.297  1.00  0.00     0.012 A 
ATOM     69  C   UNL A   1      48.123  34.193  27.544  1.00  0.00     0.148 A 
ATOM     70  C   UNL A   1      50.094  32.569  28.718  1.00  0.00     0.002 A 
ATOM     71  C   UNL A   1      49.371  34.065  26.949  1.00  0.00     0.091 A 
ATOM     72  F   UNL A   1      47.168  34.977  27.027  1.00  0.00    -0.205 F 
ATOM     73  C   UNL A   1      50.361  33.261  27.539  1.00  0.00     0.022 A 
BRANCH  71  74
ATOM     74  S   UNL A   1      49.784  34.847  25.386  1.00  0.00     0.127 S 
ATOM     75  O   UNL A   1      50.740  33.894  24.823  1.00  0.00    -0.237 OA
ATOM     76  O   UNL A   1      48.487  34.882  24.711  1.00  0.00    -0.237 OA
ATOM     77  O   UNL A   1      50.336  36.152  25.719  1.00  0.00    -0.744 OA
ENDBRANCH  71  74
ENDBRANCH  53  67
BRANCH  54  78
ATOM     78  C   UNL A   1      38.731  32.926  32.780  1.00  0.00     0.023 A 
ATOM     79  C   UNL A   1      38.590  32.053  33.877  1.00  0.00     0.012 A 
ATOM     80  C   UNL A   1      37.608  33.647  32.331  1.00  0.00     0.148 A 
ATOM     81  C   UNL A   1      37.345  31.863  34.481  1.00  0.00     0.002 A 
ATOM     82  C   UNL A   1      36.385  33.499  32.977  1.00  0.00     0.091 A 
ATOM     83  F   UNL A   1      37.753  34.457  31.273  1.00  0.00    -0.205 F 
ATOM     84  C   UNL A   1      36.247  32.592  34.037  1.00  0.00     0.022 A 
BRANCH  82  85
ATOM     85  S   UNL A   1      34.945  34.486  32.553  1.00  0.00     0.127 S 
ATOM     86  O   UNL A   1      34.909  34.353  31.099  1.00  0.00    -0.237 OA
ATOM     87  O   UNL A   1      33.878  33.780  33.264  1.00  0.00    -0.237 OA
ATOM     88  O   UNL A   1      35.223  35.822  33.061  1.00  0.00    -0.744 OA
ENDBRANCH  82  85
ENDBRANCH  54  78
BRANCH  66  89
ATOM     89  C   UNL A   1      44.187  37.194  33.655  1.00  0.00     0.023 A 
ATOM     90  C   UNL A   1      43.845  38.506  33.274  1.00  0.00     0.012 A 
ATOM     91  C   UNL A   1      44.686  36.959  34.953  1.00  0.00     0.148 A 
ATOM     92  C   UNL A   1      44.024  39.570  34.157  1.00  0.00     0.002 A 
ATOM     93  C   UNL A   1      44.810  38.016  35.845  1.00  0.00     0.091 A 
ATOM     94  F   UNL A   1      45.013  35.704  35.293  1.00  0.00    -0.205 F 
ATOM     95  C   UNL A   1      44.493  39.323  35.446  1.00  0.00     0.022 A 
BRANCH  93  96
ATOM     96  S   UNL A   1      45.314  37.787  37.555  1.00  0.00     0.127 S 
ATOM     97  O   UNL A   1      46.215  38.920  37.755  1.00  0.00    -0.237 OA
ATOM     98  O   UNL A   1      44.040  37.887  38.267  1.00  0.00    -0.237 OA
ATOM     99  O   UNL A   1      45.945  36.476  37.620  1.00  0.00    -0.744 OA
ENDBRANCH  93  96
ENDBRANCH  66  89
ENDBRANCH  40  41
ENDBRANCH  33  35
ENDBRANCH  32  33
ENDBRANCH  31  32
ENDBRANCH  30  31
ENDBRANCH  29  30
ENDBRANCH  28  29
ENDBRANCH  27  28
ENDBRANCH   1  27
TORSDOF 28
ENDMDL
