MODEL 1
REMARK VINA RESULT:      -9.8      0.000      0.000
REMARK SMILES O=C(C[C@H](C(=O)OCCOCCOCCOCCOC(=O)c1ccc(-c2c3nc(c(-c4cccc(S(=O)(=O)[O-])c4F)c4ccc([nH]4)c(-c4cccc(S(=O)(=O)[O-])c4F)c4nc(c(-c5cccc(S(=O)(=O)[O-])c5F)c5ccc2[nH]5)C=C4)C=C3)cc1)c1ccccc1)Nc1ccc(Cl)cc1Cl
REMARK SMILES IDX 13 1 12 2 11 3 10 4 9 5 8 6 7 7 5 8 6 9 4 10 3 11 2 12 1 13
REMARK SMILES IDX 91 14 92 16 93 17 98 18 94 19 97 20 99 21 95 22 96 23 85 24
REMARK SMILES IDX 86 25 90 26 87 27 89 28 88 29 14 30 15 31 16 32 17 33 18 34
REMARK SMILES IDX 19 35 20 36 21 37 22 38 23 39 84 40 24 41 83 42 25 43 26 44
REMARK SMILES IDX 27 45 77 46 28 47 82 48 76 49 78 50 29 51 81 52 75 53 74 54
REMARK SMILES IDX 30 56 62 57 42 58 61 59 43 60 46 61 60 62 79 63 44 64 45 65
REMARK SMILES IDX 59 67 80 68 47 69 31 70 32 71 40 72 33 73 35 74 41 75 34 76
REMARK SMILES IDX 36 77 37 78 38 79 39 80 63 81 64 82 72 83 65 84 67 85 73 86
REMARK SMILES IDX 66 87 68 88 69 89 70 90 71 91 48 92 49 93 57 94 50 95 52 96
REMARK SMILES IDX 58 97 51 98 53 99 54 100 55 101 56 102
REMARK H PARENT 91 15 78 55 46 66
REMARK Flexibility Score: inf
ROOT
ATOM      1  O   UNL A   1      39.822  22.478  27.233  1.00  0.00    -0.377 OA
ENDROOT
BRANCH   1   2
ATOM      2  C   UNL A   1      39.225  22.034  26.036  1.00  0.00     0.188 C 
BRANCH   2   3
ATOM      3  C   UNL A   1      37.720  22.217  25.823  1.00  0.00     0.188 C 
BRANCH   3   4
ATOM      4  O   UNL A   1      37.404  23.541  25.440  1.00  0.00    -0.376 OA
BRANCH   4   5
ATOM      5  C   UNL A   1      36.227  23.827  24.717  1.00  0.00     0.202 C 
BRANCH   5   6
ATOM      6  C   UNL A   1      35.051  24.616  25.325  1.00  0.00     0.261 C 
BRANCH   6   7
ATOM      7  O   UNL A   1      34.332  25.569  24.524  1.00  0.00    -0.463 OA
BRANCH   7   8
ATOM      8  C   UNL A   1      33.315  26.245  25.120  1.00  0.00     0.314 C 
ATOM      9  O   UNL A   1      33.487  27.108  25.972  1.00  0.00    -0.252 OA
BRANCH   8  10
ATOM     10  C   UNL A   1      31.936  25.756  24.663  1.00  0.00     0.138 C 
BRANCH  10  11
ATOM     11  C   UNL A   1      31.163  24.875  25.659  1.00  0.00     0.120 C 
BRANCH  11  12
ATOM     12  C   UNL A   1      31.494  23.383  25.748  1.00  0.00     0.225 C 
ATOM     13  O   UNL A   1      30.992  22.723  26.657  1.00  0.00    -0.275 OA
ATOM     14  N   UNL A   1      32.350  22.889  24.784  1.00  0.00    -0.325 N 
ATOM     15  H   UNL A   1      32.727  23.533  24.143  1.00  0.00     0.169 HD
BRANCH  14  16
ATOM     16  C   UNL A   1      32.731  21.527  24.641  1.00  0.00     0.060 A 
ATOM     17  C   UNL A   1      32.081  20.820  23.616  1.00  0.00     0.029 A 
ATOM     18  C   UNL A   1      33.687  20.848  25.421  1.00  0.00     0.066 A 
ATOM     19  C   UNL A   1      32.462  19.513  23.293  1.00  0.00     0.023 A 
ATOM     20  C   UNL A   1      34.062  19.538  25.097  1.00  0.00     0.043 A 
ATOM     21  Cl  UNL A   1      34.301  21.459  26.921  1.00  0.00    -0.082 Cl
ATOM     22  C   UNL A   1      33.465  18.885  24.024  1.00  0.00     0.042 A 
ATOM     23  Cl  UNL A   1      33.955  17.283  23.644  1.00  0.00    -0.084 Cl
ENDBRANCH  14  16
ENDBRANCH  11  12
ENDBRANCH  10  11
BRANCH  10  24
ATOM     24  C   UNL A   1      31.057  26.803  24.005  1.00  0.00    -0.033 A 
ATOM     25  C   UNL A   1      31.681  27.864  23.324  1.00  0.00     0.004 A 
ATOM     26  C   UNL A   1      29.657  26.740  24.006  1.00  0.00     0.004 A 
ATOM     27  C   UNL A   1      30.930  28.818  22.644  1.00  0.00     0.000 A 
ATOM     28  C   UNL A   1      28.906  27.699  23.326  1.00  0.00     0.000 A 
ATOM     29  C   UNL A   1      29.542  28.733  22.644  1.00  0.00     0.000 A 
ENDBRANCH  10  24
ENDBRANCH   8  10
ENDBRANCH   7   8
ENDBRANCH   6   7
ENDBRANCH   5   6
ENDBRANCH   4   5
ENDBRANCH   3   4
ENDBRANCH   2   3
ENDBRANCH   1   2
BRANCH   1  30
ATOM     30  C   UNL A   1      41.121  21.989  27.500  1.00  0.00     0.188 C 
BRANCH  30  31
ATOM     31  C   UNL A   1      41.607  21.010  26.416  1.00  0.00     0.188 C 
BRANCH  31  32
ATOM     32  O   UNL A   1      42.468  19.924  26.732  1.00  0.00    -0.376 OA
BRANCH  32  33
ATOM     33  C   UNL A   1      42.683  18.844  25.838  1.00  0.00     0.202 C 
BRANCH  33  34
ATOM     34  C   UNL A   1      44.035  18.550  25.153  1.00  0.00     0.261 C 
BRANCH  34  35
ATOM     35  O   UNL A   1      44.481  19.432  24.122  1.00  0.00    -0.460 OA
BRANCH  35  36
ATOM     36  C   UNL A   1      45.617  20.112  24.375  1.00  0.00     0.338 C 
ATOM     37  O   UNL A   1      46.758  19.775  24.093  1.00  0.00    -0.246 OA
BRANCH  36  38
ATOM     38  C   UNL A   1      45.251  21.440  24.904  1.00  0.00     0.060 A 
ATOM     39  C   UNL A   1      44.754  22.403  24.014  1.00  0.00     0.016 A 
ATOM     40  C   UNL A   1      45.415  21.743  26.257  1.00  0.00     0.016 A 
ATOM     41  C   UNL A   1      44.456  23.686  24.463  1.00  0.00     0.010 A 
ATOM     42  C   UNL A   1      45.156  23.042  26.700  1.00  0.00     0.010 A 
ATOM     43  C   UNL A   1      44.720  24.026  25.793  1.00  0.00    -0.014 A 
BRANCH  43  44
ATOM     44  C   UNL A   1      44.815  25.455  26.164  1.00  0.00     0.031 A 
ATOM     45  C   UNL A   1      46.181  26.087  26.131  1.00  0.00     0.074 A 
ATOM     46  C   UNL A   1      43.733  26.170  26.518  1.00  0.00     0.049 A 
ATOM     47  N   UNL A   1      46.551  27.280  26.509  1.00  0.00    -0.248 NA
ATOM     48  C   UNL A   1      47.277  25.261  25.589  1.00  0.00     0.031 C 
ATOM     49  C   UNL A   1      42.357  25.681  26.523  1.00  0.00     0.029 A 
ATOM     50  N   UNL A   1      43.635  27.457  26.985  1.00  0.00    -0.354 N 
ATOM     51  C   UNL A   1      47.923  27.333  26.295  1.00  0.00     0.074 A 
ATOM     52  C   UNL A   1      48.322  26.060  25.743  1.00  0.00     0.031 C 
ATOM     53  C   UNL A   1      41.558  26.633  27.040  1.00  0.00     0.029 A 
ATOM     54  C   UNL A   1      42.373  27.782  27.426  1.00  0.00     0.049 A 
ATOM     55  H   UNL A   1      44.393  28.085  27.004  1.00  0.00     0.167 HD
ATOM     56  C   UNL A   1      48.772  28.356  26.534  1.00  0.00     0.034 A 
ATOM     57  C   UNL A   1      41.944  28.867  28.102  1.00  0.00     0.034 A 
ATOM     58  C   UNL A   1      48.360  29.624  27.066  1.00  0.00     0.049 A 
ATOM     59  C   UNL A   1      42.928  29.969  28.412  1.00  0.00     0.074 A 
ATOM     60  C   UNL A   1      49.133  30.746  27.301  1.00  0.00     0.029 A 
ATOM     61  N   UNL A   1      47.069  29.930  27.462  1.00  0.00    -0.354 N 
ATOM     62  N   UNL A   1      44.200  30.049  28.110  1.00  0.00    -0.248 NA
ATOM     63  C   UNL A   1      42.408  31.147  29.124  1.00  0.00     0.031 C 
ATOM     64  C   UNL A   1      48.316  31.719  27.880  1.00  0.00     0.029 A 
ATOM     65  C   UNL A   1      47.025  31.220  27.955  1.00  0.00     0.049 A 
ATOM     66  H   UNL A   1      46.299  29.320  27.401  1.00  0.00     0.167 HD
ATOM     67  C   UNL A   1      44.617  31.306  28.536  1.00  0.00     0.074 A 
ATOM     68  C   UNL A   1      43.460  31.954  29.117  1.00  0.00     0.031 C 
ATOM     69  C   UNL A   1      45.845  31.873  28.455  1.00  0.00     0.034 A 
BRANCH  56  70
ATOM     70  C   UNL A   1      50.230  28.158  26.229  1.00  0.00     0.023 A 
ATOM     71  C   UNL A   1      50.723  28.421  24.936  1.00  0.00     0.012 A 
ATOM     72  C   UNL A   1      51.126  27.797  27.254  1.00  0.00     0.148 A 
ATOM     73  C   UNL A   1      52.086  28.314  24.664  1.00  0.00     0.002 A 
ATOM     74  C   UNL A   1      52.488  27.740  26.987  1.00  0.00     0.091 A 
ATOM     75  F   UNL A   1      50.630  27.530  28.470  1.00  0.00    -0.205 F 
ATOM     76  C   UNL A   1      52.968  27.989  25.691  1.00  0.00     0.022 A 
BRANCH  74  77
ATOM     77  S   UNL A   1      53.712  27.416  28.261  1.00  0.00     0.127 S 
ATOM     78  O   UNL A   1      54.890  27.084  27.459  1.00  0.00    -0.237 OA
ATOM     79  O   UNL A   1      53.785  28.704  28.948  1.00  0.00    -0.237 OA
ATOM     80  O   UNL A   1      53.183  26.322  29.063  1.00  0.00    -0.744 OA
ENDBRANCH  74  77
ENDBRANCH  56  70
BRANCH  57  81
ATOM     81  C   UNL A   1      40.520  28.983  28.534  1.00  0.00     0.023 A 
ATOM     82  C   UNL A   1      39.524  29.291  27.586  1.00  0.00     0.012 A 
ATOM     83  C   UNL A   1      40.151  28.825  29.883  1.00  0.00     0.148 A 
ATOM     84  C   UNL A   1      38.200  29.488  27.982  1.00  0.00     0.002 A 
ATOM     85  C   UNL A   1      38.820  28.957  30.261  1.00  0.00     0.091 A 
ATOM     86  F   UNL A   1      41.112  28.563  30.779  1.00  0.00    -0.205 F 
ATOM     87  C   UNL A   1      37.846  29.313  29.317  1.00  0.00     0.022 A 
BRANCH  85  88
ATOM     88  S   UNL A   1      38.259  28.599  31.929  1.00  0.00     0.127 S 
ATOM     89  O   UNL A   1      38.484  27.160  32.022  1.00  0.00    -0.237 OA
ATOM     90  O   UNL A   1      39.164  29.420  32.735  1.00  0.00    -0.237 OA
ATOM     91  O   UNL A   1      36.871  29.038  31.974  1.00  0.00    -0.744 OA
ENDBRANCH  85  88
ENDBRANCH  57  81
BRANCH  69  92
ATOM     92  C   UNL A   1      45.999  33.298  28.914  1.00  0.00     0.023 A 
ATOM     93  C   UNL A   1      46.557  33.586  30.173  1.00  0.00     0.012 A 
ATOM     94  C   UNL A   1      45.690  34.355  28.033  1.00  0.00     0.148 A 
ATOM     95  C   UNL A   1      46.782  34.907  30.559  1.00  0.00     0.002 A 
ATOM     96  C   UNL A   1      45.968  35.663  28.402  1.00  0.00     0.091 A 
ATOM     97  F   UNL A   1      45.145  34.056  26.845  1.00  0.00    -0.205 F 
ATOM     98  C   UNL A   1      46.502  35.943  29.670  1.00  0.00     0.022 A 
BRANCH  96  99
ATOM     99  S   UNL A   1      45.742  37.049  27.281  1.00  0.00     0.127 S 
ATOM    100  O   UNL A   1      46.192  38.172  28.102  1.00  0.00    -0.237 OA
ATOM    101  O   UNL A   1      46.637  36.702  26.177  1.00  0.00    -0.237 OA
ATOM    102  O   UNL A   1      44.327  37.063  26.933  1.00  0.00    -0.744 OA
ENDBRANCH  96  99
ENDBRANCH  69  92
ENDBRANCH  43  44
ENDBRANCH  36  38
ENDBRANCH  35  36
ENDBRANCH  34  35
ENDBRANCH  33  34
ENDBRANCH  32  33
ENDBRANCH  31  32
ENDBRANCH  30  31
ENDBRANCH   1  30
TORSDOF 27
ENDMDL
MODEL 2
REMARK VINA RESULT:      -9.1      2.259      3.818
REMARK SMILES O=C(C[C@H](C(=O)OCCOCCOCCOCCOC(=O)c1ccc(-c2c3nc(c(-c4cccc(S(=O)(=O)[O-])c4F)c4ccc([nH]4)c(-c4cccc(S(=O)(=O)[O-])c4F)c4nc(c(-c5cccc(S(=O)(=O)[O-])c5F)c5ccc2[nH]5)C=C4)C=C3)cc1)c1ccccc1)Nc1ccc(Cl)cc1Cl
REMARK SMILES IDX 13 1 12 2 11 3 10 4 9 5 8 6 7 7 5 8 6 9 4 10 3 11 2 12 1 13
REMARK SMILES IDX 91 14 92 16 93 17 98 18 94 19 97 20 99 21 95 22 96 23 85 24
REMARK SMILES IDX 86 25 90 26 87 27 89 28 88 29 14 30 15 31 16 32 17 33 18 34
REMARK SMILES IDX 19 35 20 36 21 37 22 38 23 39 84 40 24 41 83 42 25 43 26 44
REMARK SMILES IDX 27 45 77 46 28 47 82 48 76 49 78 50 29 51 81 52 75 53 74 54
REMARK SMILES IDX 30 56 62 57 42 58 61 59 43 60 46 61 60 62 79 63 44 64 45 65
REMARK SMILES IDX 59 67 80 68 47 69 31 70 32 71 40 72 33 73 35 74 41 75 34 76
REMARK SMILES IDX 36 77 37 78 38 79 39 80 63 81 64 82 72 83 65 84 67 85 73 86
REMARK SMILES IDX 66 87 68 88 69 89 70 90 71 91 48 92 49 93 57 94 50 95 52 96
REMARK SMILES IDX 58 97 51 98 53 99 54 100 55 101 56 102
REMARK H PARENT 91 15 78 55 46 66
REMARK Flexibility Score: inf
ROOT
ATOM      1  O   UNL A   1      39.727  22.511  27.097  1.00  0.00    -0.377 OA
ENDROOT
BRANCH   1   2
ATOM      2  C   UNL A   1      39.286  22.105  25.821  1.00  0.00     0.188 C 
BRANCH   2   3
ATOM      3  C   UNL A   1      37.792  21.887  25.566  1.00  0.00     0.188 C 
BRANCH   3   4
ATOM      4  O   UNL A   1      37.225  22.958  24.838  1.00  0.00    -0.376 OA
BRANCH   4   5
ATOM      5  C   UNL A   1      35.954  22.835  24.237  1.00  0.00     0.202 C 
BRANCH   5   6
ATOM      6  C   UNL A   1      35.118  24.057  23.810  1.00  0.00     0.261 C 
BRANCH   6   7
ATOM      7  O   UNL A   1      34.496  24.087  22.514  1.00  0.00    -0.463 OA
BRANCH   7   8
ATOM      8  C   UNL A   1      33.549  25.037  22.297  1.00  0.00     0.314 C 
ATOM      9  O   UNL A   1      33.248  25.446  21.182  1.00  0.00    -0.252 OA
BRANCH   8  10
ATOM     10  C   UNL A   1      32.958  25.587  23.600  1.00  0.00     0.138 C 
BRANCH  10  11
ATOM     11  C   UNL A   1      32.252  26.950  23.504  1.00  0.00     0.120 C 
BRANCH  11  12
ATOM     12  C   UNL A   1      32.870  28.162  24.206  1.00  0.00     0.225 C 
ATOM     13  O   UNL A   1      33.452  29.003  23.522  1.00  0.00    -0.275 OA
ATOM     14  N   UNL A   1      32.726  28.212  25.577  1.00  0.00    -0.325 N 
ATOM     15  H   UNL A   1      32.286  27.447  26.013  1.00  0.00     0.169 HD
BRANCH  14  16
ATOM     16  C   UNL A   1      33.160  29.277  26.412  1.00  0.00     0.060 A 
ATOM     17  C   UNL A   1      34.258  28.989  27.241  1.00  0.00     0.029 A 
ATOM     18  C   UNL A   1      32.598  30.567  26.471  1.00  0.00     0.066 A 
ATOM     19  C   UNL A   1      34.857  29.992  28.012  1.00  0.00     0.023 A 
ATOM     20  C   UNL A   1      33.198  31.566  27.247  1.00  0.00     0.043 A 
ATOM     21  Cl  UNL A   1      31.053  30.964  25.795  1.00  0.00    -0.082 Cl
ATOM     22  C   UNL A   1      34.335  31.281  27.996  1.00  0.00     0.042 A 
ATOM     23  Cl  UNL A   1      35.056  32.530  28.929  1.00  0.00    -0.084 Cl
ENDBRANCH  14  16
ENDBRANCH  11  12
ENDBRANCH  10  11
BRANCH  10  24
ATOM     24  C   UNL A   1      32.186  24.587  24.440  1.00  0.00    -0.033 A 
ATOM     25  C   UNL A   1      31.742  24.989  25.712  1.00  0.00     0.004 A 
ATOM     26  C   UNL A   1      31.857  23.301  23.992  1.00  0.00     0.004 A 
ATOM     27  C   UNL A   1      30.971  24.141  26.502  1.00  0.00     0.000 A 
ATOM     28  C   UNL A   1      31.087  22.452  24.787  1.00  0.00     0.000 A 
ATOM     29  C   UNL A   1      30.642  22.873  26.037  1.00  0.00     0.000 A 
ENDBRANCH  10  24
ENDBRANCH   8  10
ENDBRANCH   7   8
ENDBRANCH   6   7
ENDBRANCH   5   6
ENDBRANCH   4   5
ENDBRANCH   3   4
ENDBRANCH   2   3
ENDBRANCH   1   2
BRANCH   1  30
ATOM     30  C   UNL A   1      41.028  22.100  27.466  1.00  0.00     0.188 C 
BRANCH  30  31
ATOM     31  C   UNL A   1      41.608  21.062  26.489  1.00  0.00     0.188 C 
BRANCH  31  32
ATOM     32  O   UNL A   1      42.033  19.781  26.938  1.00  0.00    -0.376 OA
BRANCH  32  33
ATOM     33  C   UNL A   1      42.318  18.722  26.038  1.00  0.00     0.202 C 
BRANCH  33  34
ATOM     34  C   UNL A   1      43.710  18.471  25.417  1.00  0.00     0.261 C 
BRANCH  34  35
ATOM     35  O   UNL A   1      44.103  19.258  24.292  1.00  0.00    -0.460 OA
BRANCH  35  36
ATOM     36  C   UNL A   1      45.260  19.937  24.420  1.00  0.00     0.338 C 
ATOM     37  O   UNL A   1      46.369  19.587  24.044  1.00  0.00    -0.246 OA
BRANCH  36  38
ATOM     38  C   UNL A   1      44.949  21.282  24.944  1.00  0.00     0.060 A 
ATOM     39  C   UNL A   1      44.462  22.251  24.055  1.00  0.00     0.016 A 
ATOM     40  C   UNL A   1      45.152  21.592  26.290  1.00  0.00     0.016 A 
ATOM     41  C   UNL A   1      44.215  23.547  24.498  1.00  0.00     0.010 A 
ATOM     42  C   UNL A   1      44.945  22.903  26.725  1.00  0.00     0.010 A 
ATOM     43  C   UNL A   1      44.520  23.892  25.818  1.00  0.00    -0.014 A 
BRANCH  43  44
ATOM     44  C   UNL A   1      44.670  25.321  26.171  1.00  0.00     0.031 A 
ATOM     45  C   UNL A   1      46.048  25.916  26.073  1.00  0.00     0.074 A 
ATOM     46  C   UNL A   1      43.623  26.067  26.567  1.00  0.00     0.049 A 
ATOM     47  N   UNL A   1      46.466  27.101  26.424  1.00  0.00    -0.248 NA
ATOM     48  C   UNL A   1      47.098  25.057  25.491  1.00  0.00     0.031 C 
ATOM     49  C   UNL A   1      42.237  25.615  26.636  1.00  0.00     0.029 A 
ATOM     50  N   UNL A   1      43.580  27.359  27.027  1.00  0.00    -0.354 N 
ATOM     51  C   UNL A   1      47.828  27.116  26.150  1.00  0.00     0.074 A 
ATOM     52  C   UNL A   1      48.169  25.828  25.592  1.00  0.00     0.031 C 
ATOM     53  C   UNL A   1      41.487  26.592  27.180  1.00  0.00     0.029 A 
ATOM     54  C   UNL A   1      42.348  27.722  27.519  1.00  0.00     0.049 A 
ATOM     55  H   UNL A   1      44.355  27.967  27.007  1.00  0.00     0.167 HD
ATOM     56  C   UNL A   1      48.714  28.118  26.342  1.00  0.00     0.034 A 
ATOM     57  C   UNL A   1      41.977  28.823  28.204  1.00  0.00     0.034 A 
ATOM     58  C   UNL A   1      48.359  29.401  26.881  1.00  0.00     0.049 A 
ATOM     59  C   UNL A   1      43.003  29.900  28.462  1.00  0.00     0.074 A 
ATOM     60  C   UNL A   1      49.171  30.503  27.072  1.00  0.00     0.029 A 
ATOM     61  N   UNL A   1      47.096  29.744  27.330  1.00  0.00    -0.354 N 
ATOM     62  N   UNL A   1      44.262  29.944  28.103  1.00  0.00    -0.248 NA
ATOM     63  C   UNL A   1      42.547  31.097  29.185  1.00  0.00     0.031 C 
ATOM     64  C   UNL A   1      48.406  31.502  27.678  1.00  0.00     0.029 A 
ATOM     65  C   UNL A   1      47.107  31.038  27.814  1.00  0.00     0.049 A 
ATOM     66  H   UNL A   1      46.308  29.154  27.308  1.00  0.00     0.167 HD
ATOM     67  C   UNL A   1      44.731  31.193  28.499  1.00  0.00     0.074 A 
ATOM     68  C   UNL A   1      43.618  31.875  29.124  1.00  0.00     0.031 C 
ATOM     69  C   UNL A   1      45.968  31.726  28.360  1.00  0.00     0.034 A 
BRANCH  56  70
ATOM     70  C   UNL A   1      50.151  27.879  25.975  1.00  0.00     0.023 A 
ATOM     71  C   UNL A   1      50.614  28.202  24.684  1.00  0.00     0.012 A 
ATOM     72  C   UNL A   1      51.063  27.417  26.944  1.00  0.00     0.148 A 
ATOM     73  C   UNL A   1      51.962  28.056  24.359  1.00  0.00     0.002 A 
ATOM     74  C   UNL A   1      52.411  27.319  26.627  1.00  0.00     0.091 A 
ATOM     75  F   UNL A   1      50.595  27.094  28.157  1.00  0.00    -0.205 F 
ATOM     76  C   UNL A   1      52.861  27.629  25.333  1.00  0.00     0.022 A 
BRANCH  74  77
ATOM     77  S   UNL A   1      53.661  26.864  27.835  1.00  0.00     0.127 S 
ATOM     78  O   UNL A   1      54.647  27.928  27.654  1.00  0.00    -0.237 OA
ATOM     79  O   UNL A   1      52.911  26.932  29.088  1.00  0.00    -0.237 OA
ATOM     80  O   UNL A   1      54.115  25.531  27.464  1.00  0.00    -0.744 OA
ENDBRANCH  74  77
ENDBRANCH  56  70
BRANCH  57  81
ATOM     81  C   UNL A   1      40.578  28.980  28.697  1.00  0.00     0.023 A 
ATOM     82  C   UNL A   1      39.551  29.318  27.794  1.00  0.00     0.012 A 
ATOM     83  C   UNL A   1      40.263  28.830  30.062  1.00  0.00     0.148 A 
ATOM     84  C   UNL A   1      38.252  29.553  28.247  1.00  0.00     0.002 A 
ATOM     85  C   UNL A   1      38.954  29.001  30.497  1.00  0.00     0.091 A 
ATOM     86  F   UNL A   1      41.254  28.539  30.914  1.00  0.00    -0.205 F 
ATOM     87  C   UNL A   1      37.951  29.386  29.595  1.00  0.00     0.022 A 
BRANCH  85  88
ATOM     88  S   UNL A   1      38.455  28.658  32.188  1.00  0.00     0.127 S 
ATOM     89  O   UNL A   1      37.028  28.962  32.149  1.00  0.00    -0.237 OA
ATOM     90  O   UNL A   1      38.781  27.236  32.316  1.00  0.00    -0.237 OA
ATOM     91  O   UNL A   1      39.276  29.527  33.019  1.00  0.00    -0.744 OA
ENDBRANCH  85  88
ENDBRANCH  57  81
BRANCH  69  92
ATOM     92  C   UNL A   1      46.180  33.150  28.799  1.00  0.00     0.023 A 
ATOM     93  C   UNL A   1      46.733  33.432  30.061  1.00  0.00     0.012 A 
ATOM     94  C   UNL A   1      45.930  34.206  27.897  1.00  0.00     0.148 A 
ATOM     95  C   UNL A   1      47.012  34.748  30.430  1.00  0.00     0.002 A 
ATOM     96  C   UNL A   1      46.262  35.506  28.250  1.00  0.00     0.091 A 
ATOM     97  F   UNL A   1      45.389  33.912  26.706  1.00  0.00    -0.205 F 
ATOM     98  C   UNL A   1      46.791  35.782  29.522  1.00  0.00     0.022 A 
BRANCH  96  99
ATOM     99  S   UNL A   1      46.113  36.882  27.105  1.00  0.00     0.127 S 
ATOM    100  O   UNL A   1      44.672  36.911  26.860  1.00  0.00    -0.237 OA
ATOM    101  O   UNL A   1      46.620  38.001  27.901  1.00  0.00    -0.237 OA
ATOM    102  O   UNL A   1      46.932  36.539  25.950  1.00  0.00    -0.744 OA
ENDBRANCH  96  99
ENDBRANCH  69  92
ENDBRANCH  43  44
ENDBRANCH  36  38
ENDBRANCH  35  36
ENDBRANCH  34  35
ENDBRANCH  33  34
ENDBRANCH  32  33
ENDBRANCH  31  32
ENDBRANCH  30  31
ENDBRANCH   1  30
TORSDOF 27
ENDMDL
MODEL 3
REMARK VINA RESULT:      -9.0      2.987      8.345
REMARK SMILES O=C(C[C@H](C(=O)OCCOCCOCCOCCOC(=O)c1ccc(-c2c3nc(c(-c4cccc(S(=O)(=O)[O-])c4F)c4ccc([nH]4)c(-c4cccc(S(=O)(=O)[O-])c4F)c4nc(c(-c5cccc(S(=O)(=O)[O-])c5F)c5ccc2[nH]5)C=C4)C=C3)cc1)c1ccccc1)Nc1ccc(Cl)cc1Cl
REMARK SMILES IDX 13 1 12 2 11 3 10 4 9 5 8 6 7 7 5 8 6 9 4 10 3 11 2 12 1 13
REMARK SMILES IDX 91 14 92 16 93 17 98 18 94 19 97 20 99 21 95 22 96 23 85 24
REMARK SMILES IDX 86 25 90 26 87 27 89 28 88 29 14 30 15 31 16 32 17 33 18 34
REMARK SMILES IDX 19 35 20 36 21 37 22 38 23 39 84 40 24 41 83 42 25 43 26 44
REMARK SMILES IDX 27 45 77 46 28 47 82 48 76 49 78 50 29 51 81 52 75 53 74 54
REMARK SMILES IDX 30 56 62 57 42 58 61 59 43 60 46 61 60 62 79 63 44 64 45 65
REMARK SMILES IDX 59 67 80 68 47 69 31 70 32 71 40 72 33 73 35 74 41 75 34 76
REMARK SMILES IDX 36 77 37 78 38 79 39 80 63 81 64 82 72 83 65 84 67 85 73 86
REMARK SMILES IDX 66 87 68 88 69 89 70 90 71 91 48 92 49 93 57 94 50 95 52 96
REMARK SMILES IDX 58 97 51 98 53 99 54 100 55 101 56 102
REMARK H PARENT 91 15 78 55 46 66
REMARK Flexibility Score: inf
ROOT
ATOM      1  O   UNL A   1      35.435  23.353  23.750  1.00  0.00    -0.377 OA
ENDROOT
BRANCH   1   2
ATOM      2  C   UNL A   1      34.416  22.450  24.113  1.00  0.00     0.188 C 
BRANCH   2   3
ATOM      3  C   UNL A   1      33.524  22.755  25.319  1.00  0.00     0.188 C 
BRANCH   3   4
ATOM      4  O   UNL A   1      32.232  23.169  24.922  1.00  0.00    -0.376 OA
BRANCH   4   5
ATOM      5  C   UNL A   1      31.207  23.365  25.872  1.00  0.00     0.202 C 
BRANCH   5   6
ATOM      6  C   UNL A   1      30.616  24.754  26.180  1.00  0.00     0.261 C 
BRANCH   6   7
ATOM      7  O   UNL A   1      29.769  25.406  25.218  1.00  0.00    -0.463 OA
BRANCH   7   8
ATOM      8  C   UNL A   1      30.330  25.772  24.036  1.00  0.00     0.314 C 
ATOM      9  O   UNL A   1      30.545  24.988  23.120  1.00  0.00    -0.252 OA
BRANCH   8  10
ATOM     10  C   UNL A   1      30.731  27.252  24.009  1.00  0.00     0.138 C 
BRANCH  10  11
ATOM     11  C   UNL A   1      32.168  27.559  23.555  1.00  0.00     0.120 C 
BRANCH  11  12
ATOM     12  C   UNL A   1      33.015  28.538  24.372  1.00  0.00     0.225 C 
ATOM     13  O   UNL A   1      34.062  28.959  23.882  1.00  0.00    -0.275 OA
ATOM     14  N   UNL A   1      32.528  28.874  25.619  1.00  0.00    -0.325 N 
ATOM     15  H   UNL A   1      31.704  28.425  25.917  1.00  0.00     0.169 HD
BRANCH  14  16
ATOM     16  C   UNL A   1      33.116  29.814  26.507  1.00  0.00     0.060 A 
ATOM     17  C   UNL A   1      34.292  29.388  27.149  1.00  0.00     0.029 A 
ATOM     18  C   UNL A   1      32.633  31.106  26.786  1.00  0.00     0.066 A 
ATOM     19  C   UNL A   1      35.033  30.268  27.945  1.00  0.00     0.023 A 
ATOM     20  C   UNL A   1      33.375  31.982  27.588  1.00  0.00     0.043 A 
ATOM     21  Cl  UNL A   1      31.038  31.638  26.366  1.00  0.00    -0.082 Cl
ATOM     22  C   UNL A   1      34.580  31.568  28.145  1.00  0.00     0.042 A 
ATOM     23  Cl  UNL A   1      35.474  32.668  29.114  1.00  0.00    -0.084 Cl
ENDBRANCH  14  16
ENDBRANCH  11  12
ENDBRANCH  10  11
BRANCH  10  24
ATOM     24  C   UNL A   1      29.711  28.192  23.394  1.00  0.00    -0.033 A 
ATOM     25  C   UNL A   1      28.354  27.827  23.443  1.00  0.00     0.004 A 
ATOM     26  C   UNL A   1      30.052  29.425  22.823  1.00  0.00     0.004 A 
ATOM     27  C   UNL A   1      27.366  28.677  22.957  1.00  0.00     0.000 A 
ATOM     28  C   UNL A   1      29.060  30.275  22.334  1.00  0.00     0.000 A 
ATOM     29  C   UNL A   1      27.720  29.903  22.405  1.00  0.00     0.000 A 
ENDBRANCH  10  24
ENDBRANCH   8  10
ENDBRANCH   7   8
ENDBRANCH   6   7
ENDBRANCH   5   6
ENDBRANCH   4   5
ENDBRANCH   3   4
ENDBRANCH   2   3
ENDBRANCH   1   2
BRANCH   1  30
ATOM     30  C   UNL A   1      36.738  22.813  23.645  1.00  0.00     0.188 C 
BRANCH  30  31
ATOM     31  C   UNL A   1      36.856  21.445  24.340  1.00  0.00     0.188 C 
BRANCH  31  32
ATOM     32  O   UNL A   1      38.074  21.025  24.944  1.00  0.00    -0.376 OA
BRANCH  32  33
ATOM     33  C   UNL A   1      38.325  19.669  25.273  1.00  0.00     0.202 C 
BRANCH  33  34
ATOM     34  C   UNL A   1      39.725  19.110  25.607  1.00  0.00     0.261 C 
BRANCH  34  35
ATOM     35  O   UNL A   1      40.553  19.844  26.510  1.00  0.00    -0.460 OA
BRANCH  35  36
ATOM     36  C   UNL A   1      41.767  20.200  26.043  1.00  0.00     0.338 C 
ATOM     37  O   UNL A   1      42.475  19.571  25.271  1.00  0.00    -0.246 OA
BRANCH  36  38
ATOM     38  C   UNL A   1      42.043  21.582  26.484  1.00  0.00     0.060 A 
ATOM     39  C   UNL A   1      42.285  22.560  25.509  1.00  0.00     0.016 A 
ATOM     40  C   UNL A   1      42.083  21.906  27.842  1.00  0.00     0.016 A 
ATOM     41  C   UNL A   1      42.609  23.860  25.887  1.00  0.00     0.010 A 
ATOM     42  C   UNL A   1      42.449  23.200  28.221  1.00  0.00     0.010 A 
ATOM     43  C   UNL A   1      42.758  24.164  27.243  1.00  0.00    -0.014 A 
BRANCH  43  44
ATOM     44  C   UNL A   1      43.501  25.384  27.629  1.00  0.00     0.031 A 
ATOM     45  C   UNL A   1      42.712  26.510  28.241  1.00  0.00     0.074 A 
ATOM     46  C   UNL A   1      44.829  25.494  27.444  1.00  0.00     0.049 A 
ATOM     47  N   UNL A   1      43.099  27.713  28.563  1.00  0.00    -0.248 NA
ATOM     48  C   UNL A   1      41.292  26.236  28.536  1.00  0.00     0.031 C 
ATOM     49  C   UNL A   1      45.702  24.446  26.922  1.00  0.00     0.029 A 
ATOM     50  N   UNL A   1      45.665  26.564  27.639  1.00  0.00    -0.354 N 
ATOM     51  C   UNL A   1      41.968  28.353  29.055  1.00  0.00     0.074 A 
ATOM     52  C   UNL A   1      40.879  27.405  29.000  1.00  0.00     0.031 C 
ATOM     53  C   UNL A   1      46.942  24.948  26.771  1.00  0.00     0.029 A 
ATOM     54  C   UNL A   1      46.937  26.357  27.158  1.00  0.00     0.049 A 
ATOM     55  H   UNL A   1      45.383  27.398  28.080  1.00  0.00     0.167 HD
ATOM     56  C   UNL A   1      41.849  29.617  29.515  1.00  0.00     0.034 A 
ATOM     57  C   UNL A   1      47.960  27.223  27.010  1.00  0.00     0.034 A 
ATOM     58  C   UNL A   1      42.943  30.545  29.580  1.00  0.00     0.049 A 
ATOM     59  C   UNL A   1      47.781  28.648  27.474  1.00  0.00     0.074 A 
ATOM     60  C   UNL A   1      42.942  31.836  30.075  1.00  0.00     0.029 A 
ATOM     61  N   UNL A   1      44.223  30.287  29.122  1.00  0.00    -0.354 N 
ATOM     62  N   UNL A   1      46.737  29.209  28.033  1.00  0.00    -0.248 NA
ATOM     63  C   UNL A   1      48.933  29.549  27.321  1.00  0.00     0.031 C 
ATOM     64  C   UNL A   1      44.215  32.375  29.876  1.00  0.00     0.029 A 
ATOM     65  C   UNL A   1      45.020  31.401  29.307  1.00  0.00     0.049 A 
ATOM     66  H   UNL A   1      44.522  29.437  28.724  1.00  0.00     0.167 HD
ATOM     67  C   UNL A   1      47.126  30.506  28.355  1.00  0.00     0.074 A 
ATOM     68  C   UNL A   1      48.502  30.646  27.930  1.00  0.00     0.031 C 
ATOM     69  C   UNL A   1      46.410  31.491  28.948  1.00  0.00     0.034 A 
BRANCH  56  70
ATOM     70  C   UNL A   1      40.499  30.082  29.981  1.00  0.00     0.023 A 
ATOM     71  C   UNL A   1      39.661  30.806  29.111  1.00  0.00     0.012 A 
ATOM     72  C   UNL A   1      40.026  29.720  31.258  1.00  0.00     0.148 A 
ATOM     73  C   UNL A   1      38.377  31.174  29.508  1.00  0.00     0.002 A 
ATOM     74  C   UNL A   1      38.730  30.049  31.629  1.00  0.00     0.091 A 
ATOM     75  F   UNL A   1      40.851  29.052  32.077  1.00  0.00    -0.205 F 
ATOM     76  C   UNL A   1      37.907  30.784  30.760  1.00  0.00     0.022 A 
BRANCH  74  77
ATOM     77  S   UNL A   1      38.001  29.517  33.183  1.00  0.00     0.127 S 
ATOM     78  O   UNL A   1      39.113  29.713  34.112  1.00  0.00    -0.237 OA
ATOM     79  O   UNL A   1      36.899  30.464  33.342  1.00  0.00    -0.237 OA
ATOM     80  O   UNL A   1      37.596  28.132  32.987  1.00  0.00    -0.744 OA
ENDBRANCH  74  77
ENDBRANCH  56  70
BRANCH  57  81
ATOM     81  C   UNL A   1      49.250  26.784  26.403  1.00  0.00     0.023 A 
ATOM     82  C   UNL A   1      50.128  25.965  27.140  1.00  0.00     0.012 A 
ATOM     83  C   UNL A   1      49.629  27.200  25.112  1.00  0.00     0.148 A 
ATOM     84  C   UNL A   1      51.377  25.613  26.624  1.00  0.00     0.002 A 
ATOM     85  C   UNL A   1      50.845  26.791  24.578  1.00  0.00     0.091 A 
ATOM     86  F   UNL A   1      48.799  28.002  24.433  1.00  0.00    -0.205 F 
ATOM     87  C   UNL A   1      51.732  26.018  25.341  1.00  0.00     0.022 A 
BRANCH  85  88
ATOM     88  S   UNL A   1      51.311  27.142  22.879  1.00  0.00     0.127 S 
ATOM     89  O   UNL A   1      51.509  28.588  22.912  1.00  0.00    -0.237 OA
ATOM     90  O   UNL A   1      52.535  26.353  22.732  1.00  0.00    -0.237 OA
ATOM     91  O   UNL A   1      50.201  26.664  22.066  1.00  0.00    -0.744 OA
ENDBRANCH  85  88
ENDBRANCH  57  81
BRANCH  69  92
ATOM     92  C   UNL A   1      47.112  32.784  29.269  1.00  0.00     0.023 A 
ATOM     93  C   UNL A   1      47.772  32.951  30.500  1.00  0.00     0.012 A 
ATOM     94  C   UNL A   1      47.208  33.791  28.286  1.00  0.00     0.148 A 
ATOM     95  C   UNL A   1      48.497  34.114  30.758  1.00  0.00     0.002 A 
ATOM     96  C   UNL A   1      47.976  34.920  28.529  1.00  0.00     0.091 A 
ATOM     97  F   UNL A   1      46.557  33.614  27.127  1.00  0.00    -0.205 F 
ATOM     98  C   UNL A   1      48.612  35.090  29.770  1.00  0.00     0.022 A 
BRANCH  96  99
ATOM     99  S   UNL A   1      48.268  36.175  27.277  1.00  0.00     0.127 S 
ATOM    100  O   UNL A   1      46.925  36.719  27.084  1.00  0.00    -0.237 OA
ATOM    101  O   UNL A   1      49.200  37.076  27.956  1.00  0.00    -0.237 OA
ATOM    102  O   UNL A   1      48.827  35.477  26.127  1.00  0.00    -0.744 OA
ENDBRANCH  96  99
ENDBRANCH  69  92
ENDBRANCH  43  44
ENDBRANCH  36  38
ENDBRANCH  35  36
ENDBRANCH  34  35
ENDBRANCH  33  34
ENDBRANCH  32  33
ENDBRANCH  31  32
ENDBRANCH  30  31
ENDBRANCH   1  30
TORSDOF 27
ENDMDL
