MODEL 1
REMARK VINA RESULT:      -9.4      0.000      0.000
REMARK SMILES O=C(OCCOCCOCCOCCOC(=O)[C@@H](Cc1ccccc1)N1C(=O)/C(=C/c2ccncc2)SC1=S)c1ccc(-c2c3nc(c(-c4cccc(S(=O)(=O)[O-])c4F)c4ccc([nH]4)c(-c4cccc(S(=O)(=O)[O-])c4F)c4nc(c(-c5cccc(S(=O)(=O)[O-])c5F)c5ccc2[nH]5)C=C4)C=C3)cc1
REMARK SMILES IDX 8 1 7 2 6 3 5 4 4 5 3 6 2 7 1 8 40 9 41 10 102 11 42 12
REMARK SMILES IDX 101 13 43 14 44 15 45 16 95 17 46 18 100 19 94 20 96 21
REMARK SMILES IDX 47 22 99 23 93 24 92 25 48 27 80 28 60 29 79 30 61 31 64 32
REMARK SMILES IDX 78 33 97 34 62 35 63 36 77 38 98 39 65 40 49 41 50 42 58 43
REMARK SMILES IDX 51 44 53 45 59 46 52 47 54 48 55 49 56 50 57 51 81 52 82 53
REMARK SMILES IDX 90 54 83 55 85 56 91 57 84 58 86 59 87 60 88 61 89 62 66 63
REMARK SMILES IDX 67 64 75 65 68 66 70 67 76 68 69 69 71 70 72 71 73 72 74 73
REMARK SMILES IDX 9 74 10 75 11 76 12 77 13 78 14 79 15 80 16 81 17 82 18 83
REMARK SMILES IDX 19 84 20 85 21 86 25 87 22 88 24 89 23 90 26 91 27 92 38 93
REMARK SMILES IDX 28 94 29 95 37 96 39 97 30 98 31 99 32 100 36 101 33 102
REMARK SMILES IDX 35 103 34 104
REMARK H PARENT 96 26 64 37
REMARK Flexibility Score: inf
ROOT
ATOM      1  C   UNL A   1      34.339  21.320  24.653  1.00  0.00     0.188 C 
ENDROOT
BRANCH   1   2
ATOM      2  C   UNL A   1      35.454  20.307  24.792  1.00  0.00     0.188 C 
BRANCH   2   3
ATOM      3  O   UNL A   1      36.520  20.875  25.519  1.00  0.00    -0.376 OA
BRANCH   3   4
ATOM      4  C   UNL A   1      37.849  20.423  25.384  1.00  0.00     0.202 C 
BRANCH   4   5
ATOM      5  C   UNL A   1      38.996  21.381  25.647  1.00  0.00     0.261 C 
BRANCH   5   6
ATOM      6  O   UNL A   1      40.233  20.901  26.236  1.00  0.00    -0.460 OA
BRANCH   6   7
ATOM      7  C   UNL A   1      41.120  21.258  27.185  1.00  0.00     0.338 C 
ATOM      8  O   UNL A   1      41.677  20.361  27.817  1.00  0.00    -0.246 OA
BRANCH   7   9
ATOM      9  C   UNL A   1      41.452  22.657  27.553  1.00  0.00     0.060 A 
ATOM     10  C   UNL A   1      40.929  23.765  26.910  1.00  0.00     0.016 A 
ATOM     11  C   UNL A   1      42.229  22.893  28.697  1.00  0.00     0.016 A 
ATOM     12  C   UNL A   1      41.252  25.055  27.241  1.00  0.00     0.010 A 
ATOM     13  C   UNL A   1      42.525  24.202  29.099  1.00  0.00     0.010 A 
ATOM     14  C   UNL A   1      42.068  25.279  28.330  1.00  0.00    -0.014 A 
BRANCH  14  15
ATOM     15  C   UNL A   1      42.588  26.641  28.438  1.00  0.00     0.031 A 
ATOM     16  C   UNL A   1      43.885  26.915  27.750  1.00  0.00     0.074 A 
ATOM     17  C   UNL A   1      41.793  27.621  28.904  1.00  0.00     0.049 A 
ATOM     18  N   UNL A   1      44.582  28.011  27.710  1.00  0.00    -0.248 NA
ATOM     19  C   UNL A   1      44.463  25.802  26.968  1.00  0.00     0.031 C 
ATOM     20  C   UNL A   1      40.412  27.444  29.369  1.00  0.00     0.029 A 
ATOM     21  N   UNL A   1      42.018  28.962  29.032  1.00  0.00    -0.354 N 
ATOM     22  C   UNL A   1      45.715  27.699  26.971  1.00  0.00     0.074 A 
ATOM     23  C   UNL A   1      45.597  26.327  26.539  1.00  0.00     0.031 C 
ATOM     24  C   UNL A   1      39.922  28.634  29.751  1.00  0.00     0.029 A 
ATOM     25  C   UNL A   1      40.981  29.627  29.639  1.00  0.00     0.049 A 
ATOM     26  H   UNL A   1      42.840  29.406  28.720  1.00  0.00     0.167 HD
ATOM     27  C   UNL A   1      46.772  28.495  26.711  1.00  0.00     0.034 A 
ATOM     28  C   UNL A   1      40.941  30.885  30.111  1.00  0.00     0.034 A 
ATOM     29  C   UNL A   1      46.837  29.849  27.176  1.00  0.00     0.049 A 
ATOM     30  C   UNL A   1      42.180  31.719  29.920  1.00  0.00     0.074 A 
ATOM     31  C   UNL A   1      47.874  30.752  27.077  1.00  0.00     0.029 A 
ATOM     32  N   UNL A   1      45.801  30.485  27.852  1.00  0.00    -0.354 N 
ATOM     33  N   UNL A   1      43.286  31.412  29.280  1.00  0.00    -0.248 NA
ATOM     34  C   UNL A   1      42.173  33.062  30.506  1.00  0.00     0.031 C 
ATOM     35  C   UNL A   1      47.480  31.922  27.734  1.00  0.00     0.029 A 
ATOM     36  C   UNL A   1      46.178  31.767  28.193  1.00  0.00     0.049 A 
ATOM     37  H   UNL A   1      44.928  30.080  28.056  1.00  0.00     0.167 HD
ATOM     38  C   UNL A   1      44.099  32.534  29.360  1.00  0.00     0.074 A 
ATOM     39  C   UNL A   1      43.343  33.533  30.095  1.00  0.00     0.031 C 
ATOM     40  C   UNL A   1      45.355  32.727  28.888  1.00  0.00     0.034 A 
BRANCH  27  41
ATOM     41  C   UNL A   1      47.940  27.869  26.005  1.00  0.00     0.023 A 
ATOM     42  C   UNL A   1      47.956  27.750  24.600  1.00  0.00     0.012 A 
ATOM     43  C   UNL A   1      49.000  27.329  26.757  1.00  0.00     0.148 A 
ATOM     44  C   UNL A   1      48.991  27.068  23.961  1.00  0.00     0.002 A 
ATOM     45  C   UNL A   1      50.050  26.692  26.111  1.00  0.00     0.091 A 
ATOM     46  F   UNL A   1      48.941  27.415  28.094  1.00  0.00    -0.205 F 
ATOM     47  C   UNL A   1      50.040  26.546  24.714  1.00  0.00     0.022 A 
BRANCH  45  48
ATOM     48  S   UNL A   1      51.471  26.035  26.989  1.00  0.00     0.127 S 
ATOM     49  O   UNL A   1      51.068  24.645  27.205  1.00  0.00    -0.237 OA
ATOM     50  O   UNL A   1      52.541  26.215  26.009  1.00  0.00    -0.237 OA
ATOM     51  O   UNL A   1      51.606  26.835  28.198  1.00  0.00    -0.744 OA
ENDBRANCH  45  48
ENDBRANCH  27  41
BRANCH  28  52
ATOM     52  C   UNL A   1      39.745  31.392  30.844  1.00  0.00     0.023 A 
ATOM     53  C   UNL A   1      38.662  31.941  30.132  1.00  0.00     0.012 A 
ATOM     54  C   UNL A   1      39.675  31.332  32.252  1.00  0.00     0.148 A 
ATOM     55  C   UNL A   1      37.551  32.451  30.808  1.00  0.00     0.002 A 
ATOM     56  C   UNL A   1      38.543  31.791  32.916  1.00  0.00     0.091 A 
ATOM     57  F   UNL A   1      40.720  30.823  32.920  1.00  0.00    -0.205 F 
ATOM     58  C   UNL A   1      37.488  32.369  32.197  1.00  0.00     0.022 A 
BRANCH  56  59
ATOM     59  S   UNL A   1      38.328  31.618  34.691  1.00  0.00     0.127 S 
ATOM     60  O   UNL A   1      39.429  32.428  35.205  1.00  0.00    -0.237 OA
ATOM     61  O   UNL A   1      36.996  32.191  34.890  1.00  0.00    -0.237 OA
ATOM     62  O   UNL A   1      38.413  30.190  34.963  1.00  0.00    -0.744 OA
ENDBRANCH  56  59
ENDBRANCH  28  52
BRANCH  40  63
ATOM     63  C   UNL A   1      45.960  34.083  29.106  1.00  0.00     0.023 A 
ATOM     64  C   UNL A   1      46.622  34.374  30.314  1.00  0.00     0.012 A 
ATOM     65  C   UNL A   1      45.957  35.025  28.061  1.00  0.00     0.148 A 
ATOM     66  C   UNL A   1      47.251  35.604  30.488  1.00  0.00     0.002 A 
ATOM     67  C   UNL A   1      46.638  36.221  28.219  1.00  0.00     0.091 A 
ATOM     68  F   UNL A   1      45.301  34.724  26.930  1.00  0.00    -0.205 F 
ATOM     69  C   UNL A   1      47.274  36.519  29.435  1.00  0.00     0.022 A 
BRANCH  67  70
ATOM     70  S   UNL A   1      46.820  37.397  26.877  1.00  0.00     0.127 S 
ATOM     71  O   UNL A   1      45.472  37.955  26.787  1.00  0.00    -0.237 OA
ATOM     72  O   UNL A   1      47.829  38.315  27.408  1.00  0.00    -0.237 OA
ATOM     73  O   UNL A   1      47.255  36.625  25.721  1.00  0.00    -0.744 OA
ENDBRANCH  67  70
ENDBRANCH  40  63
ENDBRANCH  14  15
ENDBRANCH   7   9
ENDBRANCH   6   7
ENDBRANCH   5   6
ENDBRANCH   4   5
ENDBRANCH   3   4
ENDBRANCH   2   3
ENDBRANCH   1   2
BRANCH   1  74
ATOM     74  O   UNL A   1      33.248  21.150  25.547  1.00  0.00    -0.377 OA
BRANCH  74  75
ATOM     75  C   UNL A   1      32.336  22.215  25.823  1.00  0.00     0.188 C 
BRANCH  75  76
ATOM     76  C   UNL A   1      32.227  22.772  27.252  1.00  0.00     0.188 C 
BRANCH  76  77
ATOM     77  O   UNL A   1      31.216  23.742  27.408  1.00  0.00    -0.376 OA
BRANCH  77  78
ATOM     78  C   UNL A   1      30.669  24.337  26.235  1.00  0.00     0.202 C 
BRANCH  78  79
ATOM     79  C   UNL A   1      30.376  25.850  26.153  1.00  0.00     0.261 C 
BRANCH  79  80
ATOM     80  O   UNL A   1      31.449  26.687  25.679  1.00  0.00    -0.462 OA
BRANCH  80  81
ATOM     81  C   UNL A   1      31.868  27.673  26.511  1.00  0.00     0.329 C 
ATOM     82  O   UNL A   1      31.461  27.810  27.666  1.00  0.00    -0.250 OA
BRANCH  81  83
ATOM     83  C   UNL A   1      32.856  28.695  25.914  1.00  0.00     0.206 C 
BRANCH  83  84
ATOM     84  C   UNL A   1      33.395  28.812  24.471  1.00  0.00     0.073 C 
BRANCH  84  85
ATOM     85  C   UNL A   1      32.890  27.998  23.308  1.00  0.00    -0.045 A 
ATOM     86  C   UNL A   1      31.595  28.100  22.802  1.00  0.00     0.004 A 
ATOM     87  C   UNL A   1      33.701  26.942  22.848  1.00  0.00     0.004 A 
ATOM     88  C   UNL A   1      31.104  27.152  21.901  1.00  0.00     0.000 A 
ATOM     89  C   UNL A   1      33.217  26.004  21.937  1.00  0.00     0.000 A 
ATOM     90  C   UNL A   1      31.910  26.101  21.475  1.00  0.00     0.000 A 
ENDBRANCH  84  85
ENDBRANCH  83  84
BRANCH  83  91
ATOM     91  N   UNL A   1      32.719  30.021  26.528  1.00  0.00    -0.278 N 
ATOM     92  C   UNL A   1      33.713  30.375  27.433  1.00  0.00     0.267 C 
ATOM     93  C   UNL A   1      31.839  31.011  26.143  1.00  0.00     0.149 C 
ATOM     94  O   UNL A   1      34.580  29.659  27.893  1.00  0.00    -0.268 OA
ATOM     95  C   UNL A   1      33.621  31.816  27.726  1.00  0.00     0.081 C 
ATOM     96  S   UNL A   1      32.213  32.487  27.009  1.00  0.00    -0.054 SA
ATOM     97  S   UNL A   1      30.568  30.971  25.068  1.00  0.00    -0.052 S 
ATOM     98  C   UNL A   1      34.563  32.449  28.433  1.00  0.00     0.029 C 
BRANCH  98  99
ATOM     99  C   UNL A   1      34.382  33.846  28.804  1.00  0.00    -0.021 A 
ATOM    100  C   UNL A   1      33.763  34.123  30.022  1.00  0.00     0.028 A 
ATOM    101  C   UNL A   1      34.648  34.875  27.907  1.00  0.00     0.028 A 
ATOM    102  C   UNL A   1      33.391  35.425  30.279  1.00  0.00     0.111 A 
ATOM    103  C   UNL A   1      34.252  36.150  28.270  1.00  0.00     0.111 A 
ATOM    104  N   UNL A   1      33.631  36.449  29.433  1.00  0.00    -0.265 NA
ENDBRANCH  98  99
ENDBRANCH  83  91
ENDBRANCH  81  83
ENDBRANCH  80  81
ENDBRANCH  79  80
ENDBRANCH  78  79
ENDBRANCH  77  78
ENDBRANCH  76  77
ENDBRANCH  75  76
ENDBRANCH  74  75
ENDBRANCH   1  74
TORSDOF 27
ENDMDL
MODEL 2
REMARK VINA RESULT:      -9.4      4.123      9.099
REMARK SMILES O=C(OCCOCCOCCOCCOC(=O)[C@@H](Cc1ccccc1)N1C(=O)/C(=C/c2ccncc2)SC1=S)c1ccc(-c2c3nc(c(-c4cccc(S(=O)(=O)[O-])c4F)c4ccc([nH]4)c(-c4cccc(S(=O)(=O)[O-])c4F)c4nc(c(-c5cccc(S(=O)(=O)[O-])c5F)c5ccc2[nH]5)C=C4)C=C3)cc1
REMARK SMILES IDX 8 1 7 2 6 3 5 4 4 5 3 6 2 7 1 8 40 9 41 10 102 11 42 12
REMARK SMILES IDX 101 13 43 14 44 15 45 16 95 17 46 18 100 19 94 20 96 21
REMARK SMILES IDX 47 22 99 23 93 24 92 25 48 27 80 28 60 29 79 30 61 31 64 32
REMARK SMILES IDX 78 33 97 34 62 35 63 36 77 38 98 39 65 40 49 41 50 42 58 43
REMARK SMILES IDX 51 44 53 45 59 46 52 47 54 48 55 49 56 50 57 51 81 52 82 53
REMARK SMILES IDX 90 54 83 55 85 56 91 57 84 58 86 59 87 60 88 61 89 62 66 63
REMARK SMILES IDX 67 64 75 65 68 66 70 67 76 68 69 69 71 70 72 71 73 72 74 73
REMARK SMILES IDX 9 74 10 75 11 76 12 77 13 78 14 79 15 80 16 81 17 82 18 83
REMARK SMILES IDX 19 84 20 85 21 86 25 87 22 88 24 89 23 90 26 91 27 92 38 93
REMARK SMILES IDX 28 94 29 95 37 96 39 97 30 98 31 99 32 100 36 101 33 102
REMARK SMILES IDX 35 103 34 104
REMARK H PARENT 96 26 64 37
REMARK Flexibility Score: inf
ROOT
ATOM      1  C   UNL A   1      37.207  23.736  25.643  1.00  0.00     0.188 C 
ENDROOT
BRANCH   1   2
ATOM      2  C   UNL A   1      38.493  23.215  26.246  1.00  0.00     0.188 C 
BRANCH   2   3
ATOM      3  O   UNL A   1      38.879  24.041  27.322  1.00  0.00    -0.376 OA
BRANCH   3   4
ATOM      4  C   UNL A   1      40.229  24.344  27.591  1.00  0.00     0.202 C 
BRANCH   4   5
ATOM      5  C   UNL A   1      41.273  24.138  26.508  1.00  0.00     0.261 C 
BRANCH   5   6
ATOM      6  O   UNL A   1      42.509  23.436  26.804  1.00  0.00    -0.460 OA
BRANCH   6   7
ATOM      7  C   UNL A   1      43.832  23.558  26.582  1.00  0.00     0.338 C 
ATOM      8  O   UNL A   1      44.487  22.527  26.435  1.00  0.00    -0.246 OA
BRANCH   7   9
ATOM      9  C   UNL A   1      44.570  24.846  26.534  1.00  0.00     0.060 A 
ATOM     10  C   UNL A   1      44.799  25.557  25.369  1.00  0.00     0.016 A 
ATOM     11  C   UNL A   1      44.943  25.460  27.738  1.00  0.00     0.016 A 
ATOM     12  C   UNL A   1      45.496  26.737  25.328  1.00  0.00     0.010 A 
ATOM     13  C   UNL A   1      45.602  26.697  27.733  1.00  0.00     0.010 A 
ATOM     14  C   UNL A   1      45.916  27.304  26.512  1.00  0.00    -0.014 A 
BRANCH  14  15
ATOM     15  C   UNL A   1      46.884  28.390  26.362  1.00  0.00     0.031 A 
ATOM     16  C   UNL A   1      46.347  29.780  26.474  1.00  0.00     0.074 A 
ATOM     17  C   UNL A   1      48.200  28.117  26.392  1.00  0.00     0.049 A 
ATOM     18  N   UNL A   1      46.967  30.915  26.352  1.00  0.00    -0.248 NA
ATOM     19  C   UNL A   1      44.912  29.907  26.803  1.00  0.00     0.031 C 
ATOM     20  C   UNL A   1      48.786  26.777  26.528  1.00  0.00     0.029 A 
ATOM     21  N   UNL A   1      49.282  28.948  26.345  1.00  0.00    -0.354 N 
ATOM     22  C   UNL A   1      45.988  31.886  26.507  1.00  0.00     0.074 A 
ATOM     23  C   UNL A   1      44.740  31.217  26.780  1.00  0.00     0.031 C 
ATOM     24  C   UNL A   1      50.124  26.881  26.532  1.00  0.00     0.029 A 
ATOM     25  C   UNL A   1      50.479  28.276  26.310  1.00  0.00     0.049 A 
ATOM     26  H   UNL A   1      49.210  29.931  26.337  1.00  0.00     0.167 HD
ATOM     27  C   UNL A   1      46.131  33.223  26.396  1.00  0.00     0.034 A 
ATOM     28  C   UNL A   1      51.711  28.749  26.054  1.00  0.00     0.034 A 
ATOM     29  C   UNL A   1      47.397  33.832  26.114  1.00  0.00     0.049 A 
ATOM     30  C   UNL A   1      51.829  30.229  25.810  1.00  0.00     0.074 A 
ATOM     31  C   UNL A   1      47.689  35.158  25.879  1.00  0.00     0.029 A 
ATOM     32  N   UNL A   1      48.590  33.125  26.014  1.00  0.00    -0.354 N 
ATOM     33  N   UNL A   1      50.897  31.152  25.888  1.00  0.00    -0.248 NA
ATOM     34  C   UNL A   1      53.154  30.739  25.446  1.00  0.00     0.031 C 
ATOM     35  C   UNL A   1      49.055  35.247  25.593  1.00  0.00     0.029 A 
ATOM     36  C   UNL A   1      49.623  33.983  25.703  1.00  0.00     0.049 A 
ATOM     37  H   UNL A   1      48.683  32.153  26.145  1.00  0.00     0.167 HD
ATOM     38  C   UNL A   1      51.526  32.358  25.612  1.00  0.00     0.074 A 
ATOM     39  C   UNL A   1      52.926  32.044  25.386  1.00  0.00     0.031 C 
ATOM     40  C   UNL A   1      51.006  33.608  25.536  1.00  0.00     0.034 A 
BRANCH  27  41
ATOM     41  C   UNL A   1      44.880  34.051  26.470  1.00  0.00     0.023 A 
ATOM     42  C   UNL A   1      43.988  34.112  25.379  1.00  0.00     0.012 A 
ATOM     43  C   UNL A   1      44.628  34.831  27.615  1.00  0.00     0.148 A 
ATOM     44  C   UNL A   1      42.888  34.970  25.414  1.00  0.00     0.002 A 
ATOM     45  C   UNL A   1      43.506  35.647  27.660  1.00  0.00     0.091 A 
ATOM     46  F   UNL A   1      45.513  34.789  28.621  1.00  0.00    -0.205 F 
ATOM     47  C   UNL A   1      42.644  35.730  26.555  1.00  0.00     0.022 A 
BRANCH  45  48
ATOM     48  S   UNL A   1      43.077  36.622  29.105  1.00  0.00     0.127 S 
ATOM     49  O   UNL A   1      44.267  37.460  29.259  1.00  0.00    -0.237 OA
ATOM     50  O   UNL A   1      41.885  37.333  28.645  1.00  0.00    -0.237 OA
ATOM     51  O   UNL A   1      42.846  35.670  30.182  1.00  0.00    -0.744 OA
ENDBRANCH  45  48
ENDBRANCH  27  41
BRANCH  28  52
ATOM     52  C   UNL A   1      52.881  27.829  25.954  1.00  0.00     0.023 A 
ATOM     53  C   UNL A   1      53.179  27.199  24.731  1.00  0.00     0.012 A 
ATOM     54  C   UNL A   1      53.705  27.575  27.070  1.00  0.00     0.148 A 
ATOM     55  C   UNL A   1      54.250  26.308  24.633  1.00  0.00     0.002 A 
ATOM     56  C   UNL A   1      54.803  26.732  26.951  1.00  0.00     0.091 A 
ATOM     57  F   UNL A   1      53.401  28.169  28.234  1.00  0.00    -0.205 F 
ATOM     58  C   UNL A   1      55.067  26.081  25.738  1.00  0.00     0.022 A 
BRANCH  56  59
ATOM     59  S   UNL A   1      55.973  26.474  28.290  1.00  0.00     0.127 S 
ATOM     60  O   UNL A   1      56.186  27.839  28.766  1.00  0.00    -0.237 OA
ATOM     61  O   UNL A   1      55.208  25.617  29.197  1.00  0.00    -0.237 OA
ATOM     62  O   UNL A   1      57.130  25.827  27.687  1.00  0.00    -0.744 OA
ENDBRANCH  56  59
ENDBRANCH  28  52
BRANCH  40  63
ATOM     63  C   UNL A   1      51.966  34.725  25.251  1.00  0.00     0.023 A 
ATOM     64  C   UNL A   1      52.217  35.118  23.922  1.00  0.00     0.012 A 
ATOM     65  C   UNL A   1      52.532  35.448  26.317  1.00  0.00     0.148 A 
ATOM     66  C   UNL A   1      53.047  36.205  23.660  1.00  0.00     0.002 A 
ATOM     67  C   UNL A   1      53.306  36.565  26.049  1.00  0.00     0.091 A 
ATOM     68  F   UNL A   1      52.289  35.037  27.570  1.00  0.00    -0.205 F 
ATOM     69  C   UNL A   1      53.576  36.938  24.721  1.00  0.00     0.022 A 
BRANCH  67  70
ATOM     70  S   UNL A   1      53.922  37.633  27.352  1.00  0.00     0.127 S 
ATOM     71  O   UNL A   1      55.107  38.214  26.723  1.00  0.00    -0.237 OA
ATOM     72  O   UNL A   1      52.808  38.565  27.538  1.00  0.00    -0.237 OA
ATOM     73  O   UNL A   1      54.183  36.767  28.493  1.00  0.00    -0.744 OA
ENDBRANCH  67  70
ENDBRANCH  40  63
ENDBRANCH  14  15
ENDBRANCH   7   9
ENDBRANCH   6   7
ENDBRANCH   5   6
ENDBRANCH   4   5
ENDBRANCH   3   4
ENDBRANCH   2   3
ENDBRANCH   1   2
BRANCH   1  74
ATOM     74  O   UNL A   1      36.275  22.741  25.245  1.00  0.00    -0.377 OA
BRANCH  74  75
ATOM     75  C   UNL A   1      35.572  21.950  26.204  1.00  0.00     0.188 C 
BRANCH  75  76
ATOM     76  C   UNL A   1      34.536  20.918  25.728  1.00  0.00     0.188 C 
BRANCH  76  77
ATOM     77  O   UNL A   1      33.996  21.201  24.456  1.00  0.00    -0.376 OA
BRANCH  77  78
ATOM     78  C   UNL A   1      32.586  21.366  24.345  1.00  0.00     0.202 C 
BRANCH  78  79
ATOM     79  C   UNL A   1      31.926  21.858  23.040  1.00  0.00     0.261 C 
BRANCH  79  80
ATOM     80  O   UNL A   1      31.097  23.032  23.143  1.00  0.00    -0.462 OA
BRANCH  80  81
ATOM     81  C   UNL A   1      31.707  24.229  22.960  1.00  0.00     0.329 C 
ATOM     82  O   UNL A   1      32.556  24.436  22.091  1.00  0.00    -0.250 OA
BRANCH  81  83
ATOM     83  C   UNL A   1      31.338  25.343  23.959  1.00  0.00     0.206 C 
BRANCH  83  84
ATOM     84  C   UNL A   1      31.845  25.576  25.400  1.00  0.00     0.073 C 
BRANCH  84  85
ATOM     85  C   UNL A   1      32.347  26.898  25.920  1.00  0.00    -0.045 A 
ATOM     86  C   UNL A   1      33.700  27.214  26.040  1.00  0.00     0.004 A 
ATOM     87  C   UNL A   1      31.408  27.772  26.501  1.00  0.00     0.004 A 
ATOM     88  C   UNL A   1      34.108  28.340  26.758  1.00  0.00     0.000 A 
ATOM     89  C   UNL A   1      31.814  28.904  27.205  1.00  0.00     0.000 A 
ATOM     90  C   UNL A   1      33.168  29.179  27.347  1.00  0.00     0.000 A 
ENDBRANCH  84  85
ENDBRANCH  83  84
BRANCH  83  91
ATOM     91  N   UNL A   1      31.067  26.620  23.290  1.00  0.00    -0.278 N 
ATOM     92  C   UNL A   1      29.766  27.099  23.401  1.00  0.00     0.267 C 
ATOM     93  C   UNL A   1      32.007  27.476  22.756  1.00  0.00     0.149 C 
ATOM     94  O   UNL A   1      28.800  26.510  23.844  1.00  0.00    -0.268 OA
ATOM     95  C   UNL A   1      29.719  28.503  22.960  1.00  0.00     0.081 C 
ATOM     96  S   UNL A   1      31.226  28.973  22.286  1.00  0.00    -0.054 SA
ATOM     97  S   UNL A   1      33.641  27.271  22.507  1.00  0.00    -0.052 S 
ATOM     98  C   UNL A   1      28.625  29.254  23.126  1.00  0.00     0.029 C 
BRANCH  98  99
ATOM     99  C   UNL A   1      28.573  30.600  22.573  1.00  0.00    -0.021 A 
ATOM    100  C   UNL A   1      28.757  31.673  23.445  1.00  0.00     0.028 A 
ATOM    101  C   UNL A   1      28.178  30.830  21.260  1.00  0.00     0.028 A 
ATOM    102  C   UNL A   1      28.492  32.942  22.977  1.00  0.00     0.111 A 
ATOM    103  C   UNL A   1      27.958  32.144  20.884  1.00  0.00     0.111 A 
ATOM    104  N   UNL A   1      28.105  33.204  21.711  1.00  0.00    -0.265 NA
ENDBRANCH  98  99
ENDBRANCH  83  91
ENDBRANCH  81  83
ENDBRANCH  80  81
ENDBRANCH  79  80
ENDBRANCH  78  79
ENDBRANCH  77  78
ENDBRANCH  76  77
ENDBRANCH  75  76
ENDBRANCH  74  75
ENDBRANCH   1  74
TORSDOF 27
ENDMDL
MODEL 3
REMARK VINA RESULT:      -8.7      3.187      4.949
REMARK SMILES O=C(OCCOCCOCCOCCOC(=O)[C@@H](Cc1ccccc1)N1C(=O)/C(=C/c2ccncc2)SC1=S)c1ccc(-c2c3nc(c(-c4cccc(S(=O)(=O)[O-])c4F)c4ccc([nH]4)c(-c4cccc(S(=O)(=O)[O-])c4F)c4nc(c(-c5cccc(S(=O)(=O)[O-])c5F)c5ccc2[nH]5)C=C4)C=C3)cc1
REMARK SMILES IDX 8 1 7 2 6 3 5 4 4 5 3 6 2 7 1 8 40 9 41 10 102 11 42 12
REMARK SMILES IDX 101 13 43 14 44 15 45 16 95 17 46 18 100 19 94 20 96 21
REMARK SMILES IDX 47 22 99 23 93 24 92 25 48 27 80 28 60 29 79 30 61 31 64 32
REMARK SMILES IDX 78 33 97 34 62 35 63 36 77 38 98 39 65 40 49 41 50 42 58 43
REMARK SMILES IDX 51 44 53 45 59 46 52 47 54 48 55 49 56 50 57 51 81 52 82 53
REMARK SMILES IDX 90 54 83 55 85 56 91 57 84 58 86 59 87 60 88 61 89 62 66 63
REMARK SMILES IDX 67 64 75 65 68 66 70 67 76 68 69 69 71 70 72 71 73 72 74 73
REMARK SMILES IDX 9 74 10 75 11 76 12 77 13 78 14 79 15 80 16 81 17 82 18 83
REMARK SMILES IDX 19 84 20 85 21 86 25 87 22 88 24 89 23 90 26 91 27 92 38 93
REMARK SMILES IDX 28 94 29 95 37 96 39 97 30 98 31 99 32 100 36 101 33 102
REMARK SMILES IDX 35 103 34 104
REMARK H PARENT 96 26 64 37
REMARK Flexibility Score: inf
ROOT
ATOM      1  C   UNL A   1      37.214  21.571  24.739  1.00  0.00     0.188 C 
ENDROOT
BRANCH   1   2
ATOM      2  C   UNL A   1      37.762  22.733  25.537  1.00  0.00     0.188 C 
BRANCH   2   3
ATOM      3  O   UNL A   1      38.872  22.304  26.295  1.00  0.00    -0.376 OA
BRANCH   3   4
ATOM      4  C   UNL A   1      39.637  21.176  25.936  1.00  0.00     0.202 C 
BRANCH   4   5
ATOM      5  C   UNL A   1      41.078  21.069  26.404  1.00  0.00     0.261 C 
BRANCH   5   6
ATOM      6  O   UNL A   1      42.156  21.587  25.583  1.00  0.00    -0.460 OA
BRANCH   6   7
ATOM      7  C   UNL A   1      42.757  22.761  25.305  1.00  0.00     0.338 C 
ATOM      8  O   UNL A   1      43.488  22.811  24.316  1.00  0.00    -0.246 OA
BRANCH   7   9
ATOM      9  C   UNL A   1      42.630  23.994  26.122  1.00  0.00     0.060 A 
ATOM     10  C   UNL A   1      42.273  25.225  25.603  1.00  0.00     0.016 A 
ATOM     11  C   UNL A   1      42.740  23.898  27.517  1.00  0.00     0.016 A 
ATOM     12  C   UNL A   1      42.173  26.365  26.358  1.00  0.00     0.010 A 
ATOM     13  C   UNL A   1      42.582  25.034  28.322  1.00  0.00     0.010 A 
ATOM     14  C   UNL A   1      42.346  26.276  27.723  1.00  0.00    -0.014 A 
BRANCH  14  15
ATOM     15  C   UNL A   1      42.507  27.559  28.406  1.00  0.00     0.031 A 
ATOM     16  C   UNL A   1      43.900  28.092  28.498  1.00  0.00     0.074 A 
ATOM     17  C   UNL A   1      41.424  28.308  28.681  1.00  0.00     0.049 A 
ATOM     18  N   UNL A   1      44.331  29.177  29.070  1.00  0.00    -0.248 NA
ATOM     19  C   UNL A   1      44.952  27.307  27.821  1.00  0.00     0.031 C 
ATOM     20  C   UNL A   1      40.036  27.932  28.385  1.00  0.00     0.029 A 
ATOM     21  N   UNL A   1      41.321  29.550  29.237  1.00  0.00    -0.354 N 
ATOM     22  C   UNL A   1      45.707  29.163  28.893  1.00  0.00     0.074 A 
ATOM     23  C   UNL A   1      46.042  27.991  28.121  1.00  0.00     0.031 C 
ATOM     24  C   UNL A   1      39.219  28.919  28.785  1.00  0.00     0.029 A 
ATOM     25  C   UNL A   1      40.020  29.945  29.439  1.00  0.00     0.049 A 
ATOM     26  H   UNL A   1      42.099  30.106  29.470  1.00  0.00     0.167 HD
ATOM     27  C   UNL A   1      46.607  30.048  29.370  1.00  0.00     0.034 A 
ATOM     28  C   UNL A   1      39.550  30.989  30.141  1.00  0.00     0.034 A 
ATOM     29  C   UNL A   1      46.214  31.191  30.141  1.00  0.00     0.049 A 
ATOM     30  C   UNL A   1      40.574  31.896  30.771  1.00  0.00     0.074 A 
ATOM     31  C   UNL A   1      47.007  32.125  30.772  1.00  0.00     0.029 A 
ATOM     32  N   UNL A   1      44.891  31.536  30.393  1.00  0.00    -0.354 N 
ATOM     33  N   UNL A   1      41.883  31.855  30.667  1.00  0.00    -0.248 NA
ATOM     34  C   UNL A   1      40.068  32.987  31.609  1.00  0.00     0.031 C 
ATOM     35  C   UNL A   1      46.160  33.013  31.444  1.00  0.00     0.029 A 
ATOM     36  C   UNL A   1      44.841  32.663  31.186  1.00  0.00     0.049 A 
ATOM     37  H   UNL A   1      44.106  31.048  30.055  1.00  0.00     0.167 HD
ATOM     38  C   UNL A   1      42.360  32.931  31.401  1.00  0.00     0.074 A 
ATOM     39  C   UNL A   1      41.192  33.616  31.926  1.00  0.00     0.031 C 
ATOM     40  C   UNL A   1      43.638  33.320  31.637  1.00  0.00     0.034 A 
BRANCH  27  41
ATOM     41  C   UNL A   1      48.058  29.727  29.156  1.00  0.00     0.023 A 
ATOM     42  C   UNL A   1      48.788  29.003  30.121  1.00  0.00     0.012 A 
ATOM     43  C   UNL A   1      48.717  30.214  28.011  1.00  0.00     0.148 A 
ATOM     44  C   UNL A   1      50.161  28.806  29.966  1.00  0.00     0.002 A 
ATOM     45  C   UNL A   1      50.073  29.975  27.842  1.00  0.00     0.091 A 
ATOM     46  F   UNL A   1      48.011  30.937  27.130  1.00  0.00    -0.205 F 
ATOM     47  C   UNL A   1      50.801  29.285  28.826  1.00  0.00     0.022 A 
BRANCH  45  48
ATOM     48  S   UNL A   1      50.974  30.504  26.382  1.00  0.00     0.127 S 
ATOM     49  O   UNL A   1      52.361  30.324  26.810  1.00  0.00    -0.237 OA
ATOM     50  O   UNL A   1      50.515  29.542  25.380  1.00  0.00    -0.237 OA
ATOM     51  O   UNL A   1      50.575  31.882  26.137  1.00  0.00    -0.744 OA
ENDBRANCH  45  48
ENDBRANCH  27  41
BRANCH  28  52
ATOM     52  C   UNL A   1      38.085  31.187  30.334  1.00  0.00     0.023 A 
ATOM     53  C   UNL A   1      37.439  30.627  31.453  1.00  0.00     0.012 A 
ATOM     54  C   UNL A   1      37.323  31.934  29.410  1.00  0.00     0.148 A 
ATOM     55  C   UNL A   1      36.061  30.776  31.626  1.00  0.00     0.002 A 
ATOM     56  C   UNL A   1      35.962  32.124  29.619  1.00  0.00     0.091 A 
ATOM     57  F   UNL A   1      37.946  32.449  28.340  1.00  0.00    -0.205 F 
ATOM     58  C   UNL A   1      35.324  31.530  30.716  1.00  0.00     0.022 A 
BRANCH  56  59
ATOM     59  S   UNL A   1      34.961  33.177  28.561  1.00  0.00     0.127 S 
ATOM     60  O   UNL A   1      34.596  34.256  29.474  1.00  0.00    -0.237 OA
ATOM     61  O   UNL A   1      35.917  33.549  27.517  1.00  0.00    -0.237 OA
ATOM     62  O   UNL A   1      33.862  32.342  28.097  1.00  0.00    -0.744 OA
ENDBRANCH  56  59
ENDBRANCH  28  52
BRANCH  40  63
ATOM     63  C   UNL A   1      43.829  34.565  32.451  1.00  0.00     0.023 A 
ATOM     64  C   UNL A   1      43.965  35.812  31.811  1.00  0.00     0.012 A 
ATOM     65  C   UNL A   1      43.766  34.499  33.855  1.00  0.00     0.148 A 
ATOM     66  C   UNL A   1      44.064  36.978  32.566  1.00  0.00     0.002 A 
ATOM     67  C   UNL A   1      43.803  35.669  34.596  1.00  0.00     0.091 A 
ATOM     68  F   UNL A   1      43.656  33.294  34.434  1.00  0.00    -0.205 F 
ATOM     69  C   UNL A   1      43.966  36.908  33.955  1.00  0.00     0.022 A 
BRANCH  67  70
ATOM     70  S   UNL A   1      43.561  35.679  36.373  1.00  0.00     0.127 S 
ATOM     71  O   UNL A   1      42.247  35.049  36.495  1.00  0.00    -0.237 OA
ATOM     72  O   UNL A   1      44.679  34.859  36.841  1.00  0.00    -0.237 OA
ATOM     73  O   UNL A   1      43.623  37.076  36.780  1.00  0.00    -0.744 OA
ENDBRANCH  67  70
ENDBRANCH  40  63
ENDBRANCH  14  15
ENDBRANCH   7   9
ENDBRANCH   6   7
ENDBRANCH   5   6
ENDBRANCH   4   5
ENDBRANCH   3   4
ENDBRANCH   2   3
ENDBRANCH   1   2
BRANCH   1  74
ATOM     74  O   UNL A   1      36.219  20.798  25.395  1.00  0.00    -0.377 OA
BRANCH  74  75
ATOM     75  C   UNL A   1      34.891  21.291  25.577  1.00  0.00     0.188 C 
BRANCH  75  76
ATOM     76  C   UNL A   1      34.606  22.320  26.685  1.00  0.00     0.188 C 
BRANCH  76  77
ATOM     77  O   UNL A   1      33.564  21.941  27.557  1.00  0.00    -0.376 OA
BRANCH  77  78
ATOM     78  C   UNL A   1      32.415  22.778  27.636  1.00  0.00     0.202 C 
BRANCH  78  79
ATOM     79  C   UNL A   1      32.354  24.144  26.919  1.00  0.00     0.261 C 
BRANCH  79  80
ATOM     80  O   UNL A   1      31.148  24.912  27.103  1.00  0.00    -0.462 OA
BRANCH  80  81
ATOM     81  C   UNL A   1      30.700  25.611  26.032  1.00  0.00     0.329 C 
ATOM     82  O   UNL A   1      29.512  25.689  25.717  1.00  0.00    -0.250 OA
BRANCH  81  83
ATOM     83  C   UNL A   1      31.778  26.271  25.149  1.00  0.00     0.206 C 
BRANCH  83  84
ATOM     84  C   UNL A   1      32.756  25.622  24.144  1.00  0.00     0.073 C 
BRANCH  84  85
ATOM     85  C   UNL A   1      32.470  24.356  23.378  1.00  0.00    -0.045 A 
ATOM     86  C   UNL A   1      31.655  23.333  23.860  1.00  0.00     0.004 A 
ATOM     87  C   UNL A   1      33.225  24.111  22.215  1.00  0.00     0.004 A 
ATOM     88  C   UNL A   1      31.629  22.086  23.231  1.00  0.00     0.000 A 
ATOM     89  C   UNL A   1      33.188  22.872  21.577  1.00  0.00     0.000 A 
ATOM     90  C   UNL A   1      32.400  21.853  22.097  1.00  0.00     0.000 A 
ENDBRANCH  84  85
ENDBRANCH  83  84
BRANCH  83  91
ATOM     91  N   UNL A   1      31.381  27.610  24.698  1.00  0.00    -0.278 N 
ATOM     92  C   UNL A   1      30.561  27.653  23.577  1.00  0.00     0.267 C 
ATOM     93  C   UNL A   1      31.564  28.789  25.388  1.00  0.00     0.149 C 
ATOM     94  O   UNL A   1      30.271  26.732  22.839  1.00  0.00    -0.268 OA
ATOM     95  C   UNL A   1      30.001  29.008  23.429  1.00  0.00     0.081 C 
ATOM     96  S   UNL A   1      30.715  30.081  24.562  1.00  0.00    -0.054 SA
ATOM     97  S   UNL A   1      32.431  29.111  26.773  1.00  0.00    -0.052 S 
ATOM     98  C   UNL A   1      29.046  29.278  22.532  1.00  0.00     0.029 C 
BRANCH  98  99
ATOM     99  C   UNL A   1      28.601  30.650  22.332  1.00  0.00    -0.021 A 
ATOM    100  C   UNL A   1      28.150  31.012  21.062  1.00  0.00     0.028 A 
ATOM    101  C   UNL A   1      28.780  31.622  23.310  1.00  0.00     0.028 A 
ATOM    102  C   UNL A   1      27.937  32.349  20.806  1.00  0.00     0.111 A 
ATOM    103  C   UNL A   1      28.519  32.934  22.956  1.00  0.00     0.111 A 
ATOM    104  N   UNL A   1      28.102  33.319  21.729  1.00  0.00    -0.265 NA
ENDBRANCH  98  99
ENDBRANCH  83  91
ENDBRANCH  81  83
ENDBRANCH  80  81
ENDBRANCH  79  80
ENDBRANCH  78  79
ENDBRANCH  77  78
ENDBRANCH  76  77
ENDBRANCH  75  76
ENDBRANCH  74  75
ENDBRANCH   1  74
TORSDOF 27
ENDMDL
