MODEL 1
REMARK VINA RESULT:      -6.8      0.000      0.000
REMARK SMILES COC(=O)[C@]1(C)C[C@H](C(=O)OCCOCCOCCOCCOC(=O)c2ccc(-c3c4nc(c(-c5cccc(S(=O)(=O)[O-])c5F)c5ccc([nH]5)c(-c5cccc(S(=O)(=O)[O-])c5F)c5nc(c(-c6cccc(S(=O)(=O)[O-])c6F)c6ccc3[nH]6)C=C5)C=C4)cc2)[C@H](c2ccccc2F)[N@@H+]1C
REMARK SMILES IDX 18 1 17 2 16 3 15 4 14 5 13 6 12 7 11 8 9 9 10 10 8 11 5 12
REMARK SMILES IDX 7 13 97 14 6 15 89 16 98 17 3 19 4 20 2 21 1 22 90 23 91 24
REMARK SMILES IDX 95 25 92 26 94 27 96 28 93 29 19 30 20 31 21 32 22 33 23 34
REMARK SMILES IDX 24 35 25 36 26 37 27 38 88 39 28 40 87 41 29 42 30 43 31 44
REMARK SMILES IDX 81 45 32 46 86 47 80 48 82 49 33 50 85 51 79 52 78 53 34 55
REMARK SMILES IDX 66 56 46 57 65 58 47 59 50 60 64 61 83 62 48 63 49 64 63 66
REMARK SMILES IDX 84 67 51 68 35 69 36 70 44 71 37 72 39 73 45 74 38 75 40 76
REMARK SMILES IDX 41 77 42 78 43 79 67 80 68 81 76 82 69 83 71 84 77 85 70 86
REMARK SMILES IDX 72 87 73 88 74 89 75 90 52 91 53 92 61 93 54 94 56 95 62 96
REMARK SMILES IDX 55 97 57 98 58 99 59 100 60 101
REMARK H PARENT 97 18 82 54 50 65
REMARK Flexibility Score: inf
ROOT
ATOM      1  C   UNL A   1      40.713  22.732  27.224  1.00  0.00     0.188 C 
ENDROOT
BRANCH   1   2
ATOM      2  O   UNL A   1      40.454  24.042  26.736  1.00  0.00    -0.377 OA
BRANCH   2   3
ATOM      3  C   UNL A   1      40.621  25.148  27.597  1.00  0.00     0.188 C 
BRANCH   3   4
ATOM      4  C   UNL A   1      39.380  25.669  28.356  1.00  0.00     0.188 C 
BRANCH   4   5
ATOM      5  O   UNL A   1      39.342  27.076  28.560  1.00  0.00    -0.376 OA
BRANCH   5   6
ATOM      6  C   UNL A   1      39.818  27.580  29.801  1.00  0.00     0.202 C 
BRANCH   6   7
ATOM      7  C   UNL A   1      38.888  28.549  30.544  1.00  0.00     0.261 C 
BRANCH   7   8
ATOM      8  O   UNL A   1      39.600  29.554  31.276  1.00  0.00    -0.463 OA
BRANCH   8   9
ATOM      9  C   UNL A   1      38.849  30.617  31.657  1.00  0.00     0.315 C 
ATOM     10  O   UNL A   1      37.657  30.535  31.907  1.00  0.00    -0.252 OA
BRANCH   9  11
ATOM     11  C   UNL A   1      39.749  31.838  31.845  1.00  0.00     0.169 C 
ATOM     12  C   UNL A   1      38.816  33.297  30.230  1.00  0.00     0.194 C 
ATOM     13  C   UNL A   1      40.092  32.500  30.526  1.00  0.00     0.103 C 
ATOM     14  N   UNL A   1      38.450  33.774  31.611  1.00  0.00    -0.316 N 
ATOM     15  C   UNL A   1      39.129  34.456  29.271  1.00  0.00     0.092 C 
ATOM     16  C   UNL A   1      39.097  32.962  32.660  1.00  0.00     0.233 C 
ATOM     17  C   UNL A   1      37.133  34.319  31.789  1.00  0.00     0.334 C 
ATOM     18  H   UNL A   1      38.888  34.681  31.766  1.00  0.00     0.349 HD
BRANCH  12  19
ATOM     19  C   UNL A   1      37.767  32.352  29.551  1.00  0.00     0.367 C 
ATOM     20  O   UNL A   1      38.007  31.337  28.913  1.00  0.00    -0.245 OA
BRANCH  19  21
ATOM     21  O   UNL A   1      36.506  32.850  29.742  1.00  0.00    -0.464 OA
ATOM     22  C   UNL A   1      35.466  31.876  29.867  1.00  0.00     0.282 C 
ENDBRANCH  19  21
ENDBRANCH  12  19
BRANCH  16  23
ATOM     23  C   UNL A   1      38.557  32.407  33.983  1.00  0.00     0.046 A 
ATOM     24  C   UNL A   1      37.549  33.195  34.614  1.00  0.00     0.013 A 
ATOM     25  C   UNL A   1      39.078  31.368  34.753  1.00  0.00     0.132 A 
ATOM     26  C   UNL A   1      37.245  33.074  35.974  1.00  0.00     0.001 A 
ATOM     27  C   UNL A   1      38.764  31.231  36.112  1.00  0.00     0.040 A 
ATOM     28  F   UNL A   1      39.926  30.465  34.259  1.00  0.00    -0.206 F 
ATOM     29  C   UNL A   1      37.886  32.110  36.737  1.00  0.00     0.003 A 
ENDBRANCH  16  23
ENDBRANCH   9  11
ENDBRANCH   8   9
ENDBRANCH   7   8
ENDBRANCH   6   7
ENDBRANCH   5   6
ENDBRANCH   4   5
ENDBRANCH   3   4
ENDBRANCH   2   3
ENDBRANCH   1   2
BRANCH   1  30
ATOM     30  C   UNL A   1      41.786  21.814  26.588  1.00  0.00     0.188 C 
BRANCH  30  31
ATOM     31  O   UNL A   1      42.303  22.254  25.341  1.00  0.00    -0.376 OA
BRANCH  31  32
ATOM     32  C   UNL A   1      43.700  22.131  25.137  1.00  0.00     0.202 C 
BRANCH  32  33
ATOM     33  C   UNL A   1      44.377  23.271  24.363  1.00  0.00     0.261 C 
BRANCH  33  34
ATOM     34  O   UNL A   1      44.211  24.587  24.906  1.00  0.00    -0.460 OA
BRANCH  34  35
ATOM     35  C   UNL A   1      45.326  25.317  25.133  1.00  0.00     0.338 C 
ATOM     36  O   UNL A   1      46.385  25.244  24.534  1.00  0.00    -0.246 OA
BRANCH  35  37
ATOM     37  C   UNL A   1      44.971  26.377  26.100  1.00  0.00     0.060 A 
ATOM     38  C   UNL A   1      45.991  27.018  26.820  1.00  0.00     0.016 A 
ATOM     39  C   UNL A   1      43.639  26.764  26.260  1.00  0.00     0.016 A 
ATOM     40  C   UNL A   1      45.674  28.028  27.727  1.00  0.00     0.010 A 
ATOM     41  C   UNL A   1      43.321  27.754  27.190  1.00  0.00     0.010 A 
ATOM     42  C   UNL A   1      44.333  28.362  27.953  1.00  0.00    -0.014 A 
BRANCH  42  43
ATOM     43  C   UNL A   1      43.968  29.161  29.146  1.00  0.00     0.031 A 
ATOM     44  C   UNL A   1      43.859  30.654  28.979  1.00  0.00     0.074 A 
ATOM     45  C   UNL A   1      43.739  28.590  30.341  1.00  0.00     0.049 A 
ATOM     46  N   UNL A   1      43.608  31.573  29.872  1.00  0.00    -0.248 NA
ATOM     47  C   UNL A   1      44.066  31.177  27.616  1.00  0.00     0.031 C 
ATOM     48  C   UNL A   1      43.795  27.156  30.622  1.00  0.00     0.029 A 
ATOM     49  N   UNL A   1      43.438  29.161  31.554  1.00  0.00    -0.354 N 
ATOM     50  C   UNL A   1      43.648  32.782  29.187  1.00  0.00     0.074 A 
ATOM     51  C   UNL A   1      43.964  32.482  27.809  1.00  0.00     0.031 C 
ATOM     52  C   UNL A   1      43.562  26.962  31.933  1.00  0.00     0.029 A 
ATOM     53  C   UNL A   1      43.372  28.256  32.586  1.00  0.00     0.049 A 
ATOM     54  H   UNL A   1      43.285  30.126  31.671  1.00  0.00     0.167 HD
ATOM     55  C   UNL A   1      43.424  34.030  29.658  1.00  0.00     0.034 A 
ATOM     56  C   UNL A   1      43.201  28.459  33.909  1.00  0.00     0.034 A 
ATOM     57  C   UNL A   1      43.106  34.325  31.026  1.00  0.00     0.049 A 
ATOM     58  C   UNL A   1      43.009  29.868  34.417  1.00  0.00     0.074 A 
ATOM     59  C   UNL A   1      42.844  35.555  31.603  1.00  0.00     0.029 A 
ATOM     60  N   UNL A   1      43.019  33.381  32.038  1.00  0.00    -0.354 N 
ATOM     61  N   UNL A   1      42.950  30.992  33.744  1.00  0.00    -0.248 NA
ATOM     62  C   UNL A   1      42.830  30.032  35.868  1.00  0.00     0.031 C 
ATOM     63  C   UNL A   1      42.625  35.358  32.969  1.00  0.00     0.029 A 
ATOM     64  C   UNL A   1      42.714  34.000  33.237  1.00  0.00     0.049 A 
ATOM     65  H   UNL A   1      43.155  32.413  31.921  1.00  0.00     0.167 HD
ATOM     66  C   UNL A   1      42.680  31.986  34.679  1.00  0.00     0.074 A 
ATOM     67  C   UNL A   1      42.570  31.329  35.965  1.00  0.00     0.031 C 
ATOM     68  C   UNL A   1      42.546  33.323  34.496  1.00  0.00     0.034 A 
BRANCH  55  69
ATOM     69  C   UNL A   1      43.494  35.167  28.676  1.00  0.00     0.023 A 
ATOM     70  C   UNL A   1      42.318  35.607  28.033  1.00  0.00     0.012 A 
ATOM     71  C   UNL A   1      44.709  35.834  28.426  1.00  0.00     0.148 A 
ATOM     72  C   UNL A   1      42.355  36.673  27.136  1.00  0.00     0.002 A 
ATOM     73  C   UNL A   1      44.730  36.925  27.566  1.00  0.00     0.091 A 
ATOM     74  F   UNL A   1      45.819  35.385  29.028  1.00  0.00    -0.205 F 
ATOM     75  C   UNL A   1      43.558  37.338  26.911  1.00  0.00     0.022 A 
BRANCH  73  76
ATOM     76  S   UNL A   1      46.211  37.896  27.268  1.00  0.00     0.127 S 
ATOM     77  O   UNL A   1      47.115  36.891  26.710  1.00  0.00    -0.237 OA
ATOM     78  O   UNL A   1      45.734  38.890  26.305  1.00  0.00    -0.237 OA
ATOM     79  O   UNL A   1      46.605  38.439  28.561  1.00  0.00    -0.744 OA
ENDBRANCH  73  76
ENDBRANCH  55  69
BRANCH  56  80
ATOM     80  C   UNL A   1      43.176  27.307  34.857  1.00  0.00     0.023 A 
ATOM     81  C   UNL A   1      41.958  26.655  35.130  1.00  0.00     0.012 A 
ATOM     82  C   UNL A   1      44.346  26.868  35.506  1.00  0.00     0.148 A 
ATOM     83  C   UNL A   1      41.895  25.620  36.063  1.00  0.00     0.002 A 
ATOM     84  C   UNL A   1      44.289  25.797  36.391  1.00  0.00     0.091 A 
ATOM     85  F   UNL A   1      45.494  27.511  35.250  1.00  0.00    -0.205 F 
ATOM     86  C   UNL A   1      43.061  25.186  36.688  1.00  0.00     0.022 A 
BRANCH  84  87
ATOM     87  S   UNL A   1      45.757  25.088  37.143  1.00  0.00     0.127 S 
ATOM     88  O   UNL A   1      46.559  24.746  35.970  1.00  0.00    -0.237 OA
ATOM     89  O   UNL A   1      46.263  26.212  37.931  1.00  0.00    -0.237 OA
ATOM     90  O   UNL A   1      45.287  23.963  37.939  1.00  0.00    -0.744 OA
ENDBRANCH  84  87
ENDBRANCH  56  80
BRANCH  68  91
ATOM     91  C   UNL A   1      42.205  34.168  35.697  1.00  0.00     0.023 A 
ATOM     92  C   UNL A   1      40.861  34.452  36.004  1.00  0.00     0.012 A 
ATOM     93  C   UNL A   1      43.223  34.614  36.566  1.00  0.00     0.148 A 
ATOM     94  C   UNL A   1      40.535  35.198  37.137  1.00  0.00     0.002 A 
ATOM     95  C   UNL A   1      42.887  35.310  37.721  1.00  0.00     0.091 A 
ATOM     96  F   UNL A   1      44.497  34.346  36.249  1.00  0.00    -0.205 F 
ATOM     97  C   UNL A   1      41.546  35.616  38.000  1.00  0.00     0.022 A 
BRANCH  95  98
ATOM     98  S   UNL A   1      44.111  35.800  38.941  1.00  0.00     0.127 S 
ATOM     99  O   UNL A   1      44.372  34.534  39.625  1.00  0.00    -0.237 OA
ATOM    100  O   UNL A   1      45.210  36.277  38.102  1.00  0.00    -0.237 OA
ATOM    101  O   UNL A   1      43.479  36.829  39.756  1.00  0.00    -0.744 OA
ENDBRANCH  95  98
ENDBRANCH  68  91
ENDBRANCH  42  43
ENDBRANCH  35  37
ENDBRANCH  34  35
ENDBRANCH  33  34
ENDBRANCH  32  33
ENDBRANCH  31  32
ENDBRANCH  30  31
ENDBRANCH   1  30
TORSDOF 26
ENDMDL
MODEL 2
REMARK VINA RESULT:      -6.4      4.772      8.766
REMARK SMILES COC(=O)[C@]1(C)C[C@H](C(=O)OCCOCCOCCOCCOC(=O)c2ccc(-c3c4nc(c(-c5cccc(S(=O)(=O)[O-])c5F)c5ccc([nH]5)c(-c5cccc(S(=O)(=O)[O-])c5F)c5nc(c(-c6cccc(S(=O)(=O)[O-])c6F)c6ccc3[nH]6)C=C5)C=C4)cc2)[C@H](c2ccccc2F)[N@@H+]1C
REMARK SMILES IDX 18 1 17 2 16 3 15 4 14 5 13 6 12 7 11 8 9 9 10 10 8 11 5 12
REMARK SMILES IDX 7 13 97 14 6 15 89 16 98 17 3 19 4 20 2 21 1 22 90 23 91 24
REMARK SMILES IDX 95 25 92 26 94 27 96 28 93 29 19 30 20 31 21 32 22 33 23 34
REMARK SMILES IDX 24 35 25 36 26 37 27 38 88 39 28 40 87 41 29 42 30 43 31 44
REMARK SMILES IDX 81 45 32 46 86 47 80 48 82 49 33 50 85 51 79 52 78 53 34 55
REMARK SMILES IDX 66 56 46 57 65 58 47 59 50 60 64 61 83 62 48 63 49 64 63 66
REMARK SMILES IDX 84 67 51 68 35 69 36 70 44 71 37 72 39 73 45 74 38 75 40 76
REMARK SMILES IDX 41 77 42 78 43 79 67 80 68 81 76 82 69 83 71 84 77 85 70 86
REMARK SMILES IDX 72 87 73 88 74 89 75 90 52 91 53 92 61 93 54 94 56 95 62 96
REMARK SMILES IDX 55 97 57 98 58 99 59 100 60 101
REMARK H PARENT 97 18 82 54 50 65
REMARK Flexibility Score: inf
ROOT
ATOM      1  C   UNL A   1      40.589  27.522  28.463  1.00  0.00     0.188 C 
ENDROOT
BRANCH   1   2
ATOM      2  O   UNL A   1      40.748  26.514  27.472  1.00  0.00    -0.377 OA
BRANCH   2   3
ATOM      3  C   UNL A   1      41.091  25.202  27.866  1.00  0.00     0.188 C 
BRANCH   3   4
ATOM      4  C   UNL A   1      40.070  24.076  27.596  1.00  0.00     0.188 C 
BRANCH   4   5
ATOM      5  O   UNL A   1      38.929  24.462  26.839  1.00  0.00    -0.376 OA
BRANCH   5   6
ATOM      6  C   UNL A   1      38.173  23.437  26.208  1.00  0.00     0.202 C 
BRANCH   6   7
ATOM      7  C   UNL A   1      36.829  23.859  25.599  1.00  0.00     0.261 C 
BRANCH   7   8
ATOM      8  O   UNL A   1      35.813  22.860  25.746  1.00  0.00    -0.463 OA
BRANCH   8   9
ATOM      9  C   UNL A   1      34.543  23.340  25.754  1.00  0.00     0.315 C 
ATOM     10  O   UNL A   1      33.863  23.401  26.765  1.00  0.00    -0.252 OA
BRANCH   9  11
ATOM     11  C   UNL A   1      34.195  23.890  24.372  1.00  0.00     0.169 C 
ATOM     12  C   UNL A   1      32.695  22.218  23.622  1.00  0.00     0.194 C 
ATOM     13  C   UNL A   1      34.088  22.793  23.333  1.00  0.00     0.103 C 
ATOM     14  N   UNL A   1      31.929  23.474  23.945  1.00  0.00    -0.316 N 
ATOM     15  C   UNL A   1      32.152  21.501  22.377  1.00  0.00     0.092 C 
ATOM     16  C   UNL A   1      32.829  24.584  24.314  1.00  0.00     0.233 C 
ATOM     17  C   UNL A   1      30.640  23.315  24.559  1.00  0.00     0.334 C 
ATOM     18  H   UNL A   1      31.518  23.832  23.084  1.00  0.00     0.349 HD
BRANCH  12  19
ATOM     19  C   UNL A   1      32.802  21.182  24.792  1.00  0.00     0.367 C 
ATOM     20  O   UNL A   1      32.050  21.088  25.752  1.00  0.00    -0.245 OA
BRANCH  19  21
ATOM     21  O   UNL A   1      33.906  20.393  24.611  1.00  0.00    -0.464 OA
ATOM     22  C   UNL A   1      33.662  18.984  24.570  1.00  0.00     0.282 C 
ENDBRANCH  19  21
ENDBRANCH  12  19
BRANCH  16  23
ATOM     23  C   UNL A   1      32.727  25.639  25.421  1.00  0.00     0.046 A 
ATOM     24  C   UNL A   1      31.480  25.689  26.111  1.00  0.00     0.013 A 
ATOM     25  C   UNL A   1      33.601  26.694  25.684  1.00  0.00     0.132 A 
ATOM     26  C   UNL A   1      31.068  26.811  26.838  1.00  0.00     0.001 A 
ATOM     27  C   UNL A   1      33.201  27.813  26.426  1.00  0.00     0.040 A 
ATOM     28  F   UNL A   1      34.852  26.720  25.221  1.00  0.00    -0.206 F 
ATOM     29  C   UNL A   1      31.921  27.897  26.963  1.00  0.00     0.003 A 
ENDBRANCH  16  23
ENDBRANCH   9  11
ENDBRANCH   8   9
ENDBRANCH   7   8
ENDBRANCH   6   7
ENDBRANCH   5   6
ENDBRANCH   4   5
ENDBRANCH   3   4
ENDBRANCH   2   3
ENDBRANCH   1   2
BRANCH   1  30
ATOM     30  C   UNL A   1      40.314  29.001  28.097  1.00  0.00     0.188 C 
BRANCH  30  31
ATOM     31  O   UNL A   1      39.091  29.243  27.417  1.00  0.00    -0.376 OA
BRANCH  31  32
ATOM     32  C   UNL A   1      37.891  28.992  28.127  1.00  0.00     0.202 C 
BRANCH  32  33
ATOM     33  C   UNL A   1      36.685  29.864  27.754  1.00  0.00     0.261 C 
BRANCH  33  34
ATOM     34  O   UNL A   1      35.715  30.075  28.789  1.00  0.00    -0.460 OA
BRANCH  34  35
ATOM     35  C   UNL A   1      35.251  31.332  28.967  1.00  0.00     0.338 C 
ATOM     36  O   UNL A   1      34.188  31.783  28.579  1.00  0.00    -0.246 OA
BRANCH  35  37
ATOM     37  C   UNL A   1      36.168  32.012  29.905  1.00  0.00     0.060 A 
ATOM     38  C   UNL A   1      36.157  33.414  29.981  1.00  0.00     0.016 A 
ATOM     39  C   UNL A   1      37.003  31.265  30.738  1.00  0.00     0.016 A 
ATOM     40  C   UNL A   1      37.007  34.070  30.870  1.00  0.00     0.010 A 
ATOM     41  C   UNL A   1      37.874  31.924  31.605  1.00  0.00     0.010 A 
ATOM     42  C   UNL A   1      37.905  33.329  31.647  1.00  0.00    -0.014 A 
BRANCH  42  43
ATOM     43  C   UNL A   1      39.036  34.015  32.314  1.00  0.00     0.031 A 
ATOM     44  C   UNL A   1      40.220  34.395  31.466  1.00  0.00     0.074 A 
ATOM     45  C   UNL A   1      39.021  34.295  33.629  1.00  0.00     0.049 A 
ATOM     46  N   UNL A   1      41.348  34.951  31.816  1.00  0.00    -0.248 NA
ATOM     47  C   UNL A   1      40.114  34.103  30.025  1.00  0.00     0.031 C 
ATOM     48  C   UNL A   1      37.924  33.995  34.549  1.00  0.00     0.029 A 
ATOM     49  N   UNL A   1      39.978  34.876  34.423  1.00  0.00    -0.354 N 
ATOM     50  C   UNL A   1      42.094  35.056  30.648  1.00  0.00     0.074 A 
ATOM     51  C   UNL A   1      41.300  34.491  29.582  1.00  0.00     0.031 C 
ATOM     52  C   UNL A   1      38.284  34.371  35.790  1.00  0.00     0.029 A 
ATOM     53  C   UNL A   1      39.643  34.909  35.756  1.00  0.00     0.049 A 
ATOM     54  H   UNL A   1      40.824  35.235  34.070  1.00  0.00     0.167 HD
ATOM     55  C   UNL A   1      43.324  35.592  30.473  1.00  0.00     0.034 A 
ATOM     56  C   UNL A   1      40.365  35.307  36.823  1.00  0.00     0.034 A 
ATOM     57  C   UNL A   1      44.110  36.156  31.533  1.00  0.00     0.049 A 
ATOM     58  C   UNL A   1      41.758  35.848  36.608  1.00  0.00     0.074 A 
ATOM     59  C   UNL A   1      45.362  36.740  31.459  1.00  0.00     0.029 A 
ATOM     60  N   UNL A   1      43.727  36.198  32.865  1.00  0.00    -0.354 N 
ATOM     61  N   UNL A   1      42.412  36.033  35.486  1.00  0.00    -0.248 NA
ATOM     62  C   UNL A   1      42.502  36.265  37.807  1.00  0.00     0.031 C 
ATOM     63  C   UNL A   1      45.747  37.110  32.751  1.00  0.00     0.029 A 
ATOM     64  C   UNL A   1      44.719  36.791  33.625  1.00  0.00     0.049 A 
ATOM     65  H   UNL A   1      42.874  35.856  33.218  1.00  0.00     0.167 HD
ATOM     66  C   UNL A   1      43.619  36.629  35.838  1.00  0.00     0.074 A 
ATOM     67  C   UNL A   1      43.599  36.790  37.277  1.00  0.00     0.031 C 
ATOM     68  C   UNL A   1      44.656  37.001  35.047  1.00  0.00     0.034 A 
BRANCH  55  69
ATOM     69  C   UNL A   1      43.883  35.609  29.077  1.00  0.00     0.023 A 
ATOM     70  C   UNL A   1      43.556  36.671  28.208  1.00  0.00     0.012 A 
ATOM     71  C   UNL A   1      44.770  34.607  28.641  1.00  0.00     0.148 A 
ATOM     72  C   UNL A   1      44.080  36.719  26.918  1.00  0.00     0.002 A 
ATOM     73  C   UNL A   1      45.325  34.686  27.369  1.00  0.00     0.091 A 
ATOM     74  F   UNL A   1      45.049  33.594  29.473  1.00  0.00    -0.205 F 
ATOM     75  C   UNL A   1      44.971  35.734  26.502  1.00  0.00     0.022 A 
BRANCH  73  76
ATOM     76  S   UNL A   1      46.541  33.511  26.766  1.00  0.00     0.127 S 
ATOM     77  O   UNL A   1      46.698  33.936  25.375  1.00  0.00    -0.237 OA
ATOM     78  O   UNL A   1      47.692  33.796  27.624  1.00  0.00    -0.237 OA
ATOM     79  O   UNL A   1      45.955  32.191  26.951  1.00  0.00    -0.744 OA
ENDBRANCH  73  76
ENDBRANCH  55  69
BRANCH  56  80
ATOM     80  C   UNL A   1      39.789  35.237  38.198  1.00  0.00     0.023 A 
ATOM     81  C   UNL A   1      39.283  36.405  38.801  1.00  0.00     0.012 A 
ATOM     82  C   UNL A   1      39.760  34.028  38.919  1.00  0.00     0.148 A 
ATOM     83  C   UNL A   1      38.801  36.381  40.111  1.00  0.00     0.002 A 
ATOM     84  C   UNL A   1      39.225  33.998  40.202  1.00  0.00     0.091 A 
ATOM     85  F   UNL A   1      40.263  32.929  38.338  1.00  0.00    -0.205 F 
ATOM     86  C   UNL A   1      38.765  35.177  40.808  1.00  0.00     0.022 A 
BRANCH  84  87
ATOM     87  S   UNL A   1      39.020  32.471  41.125  1.00  0.00     0.127 S 
ATOM     88  O   UNL A   1      38.081  31.735  40.282  1.00  0.00    -0.237 OA
ATOM     89  O   UNL A   1      40.384  31.943  41.138  1.00  0.00    -0.237 OA
ATOM     90  O   UNL A   1      38.519  32.867  42.434  1.00  0.00    -0.744 OA
ENDBRANCH  84  87
ENDBRANCH  56  80
BRANCH  68  91
ATOM     91  C   UNL A   1      45.835  37.673  35.702  1.00  0.00     0.023 A 
ATOM     92  C   UNL A   1      45.830  39.066  35.910  1.00  0.00     0.012 A 
ATOM     93  C   UNL A   1      46.917  36.906  36.182  1.00  0.00     0.148 A 
ATOM     94  C   UNL A   1      46.899  39.691  36.552  1.00  0.00     0.002 A 
ATOM     95  C   UNL A   1      47.952  37.529  36.869  1.00  0.00     0.091 A 
ATOM     96  F   UNL A   1      46.910  35.585  35.963  1.00  0.00    -0.205 F 
ATOM     97  C   UNL A   1      47.952  38.922  37.042  1.00  0.00     0.022 A 
BRANCH  95  98
ATOM     98  S   UNL A   1      49.299  36.609  37.623  1.00  0.00     0.127 S 
ATOM     99  O   UNL A   1      50.045  36.160  36.449  1.00  0.00    -0.237 OA
ATOM    100  O   UNL A   1      49.970  37.639  38.415  1.00  0.00    -0.237 OA
ATOM    101  O   UNL A   1      48.675  35.551  38.407  1.00  0.00    -0.744 OA
ENDBRANCH  95  98
ENDBRANCH  68  91
ENDBRANCH  42  43
ENDBRANCH  35  37
ENDBRANCH  34  35
ENDBRANCH  33  34
ENDBRANCH  32  33
ENDBRANCH  31  32
ENDBRANCH  30  31
ENDBRANCH   1  30
TORSDOF 26
ENDMDL
MODEL 3
REMARK VINA RESULT:      -6.3      5.741      9.935
REMARK SMILES COC(=O)[C@]1(C)C[C@H](C(=O)OCCOCCOCCOCCOC(=O)c2ccc(-c3c4nc(c(-c5cccc(S(=O)(=O)[O-])c5F)c5ccc([nH]5)c(-c5cccc(S(=O)(=O)[O-])c5F)c5nc(c(-c6cccc(S(=O)(=O)[O-])c6F)c6ccc3[nH]6)C=C5)C=C4)cc2)[C@H](c2ccccc2F)[N@@H+]1C
REMARK SMILES IDX 18 1 17 2 16 3 15 4 14 5 13 6 12 7 11 8 9 9 10 10 8 11 5 12
REMARK SMILES IDX 7 13 97 14 6 15 89 16 98 17 3 19 4 20 2 21 1 22 90 23 91 24
REMARK SMILES IDX 95 25 92 26 94 27 96 28 93 29 19 30 20 31 21 32 22 33 23 34
REMARK SMILES IDX 24 35 25 36 26 37 27 38 88 39 28 40 87 41 29 42 30 43 31 44
REMARK SMILES IDX 81 45 32 46 86 47 80 48 82 49 33 50 85 51 79 52 78 53 34 55
REMARK SMILES IDX 66 56 46 57 65 58 47 59 50 60 64 61 83 62 48 63 49 64 63 66
REMARK SMILES IDX 84 67 51 68 35 69 36 70 44 71 37 72 39 73 45 74 38 75 40 76
REMARK SMILES IDX 41 77 42 78 43 79 67 80 68 81 76 82 69 83 71 84 77 85 70 86
REMARK SMILES IDX 72 87 73 88 74 89 75 90 52 91 53 92 61 93 54 94 56 95 62 96
REMARK SMILES IDX 55 97 57 98 58 99 59 100 60 101
REMARK H PARENT 97 18 82 54 50 65
REMARK Flexibility Score: inf
ROOT
ATOM      1  C   UNL A   1      39.232  27.641  28.840  1.00  0.00     0.188 C 
ENDROOT
BRANCH   1   2
ATOM      2  O   UNL A   1      39.817  26.881  27.790  1.00  0.00    -0.377 OA
BRANCH   2   3
ATOM      3  C   UNL A   1      40.361  25.610  28.074  1.00  0.00     0.188 C 
BRANCH   3   4
ATOM      4  C   UNL A   1      39.585  24.366  27.588  1.00  0.00     0.188 C 
BRANCH   4   5
ATOM      5  O   UNL A   1      38.562  24.626  26.634  1.00  0.00    -0.376 OA
BRANCH   5   6
ATOM      6  C   UNL A   1      37.974  23.514  25.972  1.00  0.00     0.202 C 
BRANCH   6   7
ATOM      7  C   UNL A   1      36.688  23.794  25.182  1.00  0.00     0.261 C 
BRANCH   7   8
ATOM      8  O   UNL A   1      35.555  23.081  25.692  1.00  0.00    -0.463 OA
BRANCH   8   9
ATOM      9  C   UNL A   1      34.369  23.727  25.553  1.00  0.00     0.315 C 
ATOM     10  O   UNL A   1      33.653  24.012  26.499  1.00  0.00    -0.252 OA
BRANCH   9  11
ATOM     11  C   UNL A   1      34.176  24.134  24.093  1.00  0.00     0.169 C 
ATOM     12  C   UNL A   1      32.620  22.489  23.403  1.00  0.00     0.194 C 
ATOM     13  C   UNL A   1      34.070  22.932  23.176  1.00  0.00     0.103 C 
ATOM     14  N   UNL A   1      31.927  23.822  23.516  1.00  0.00    -0.316 N 
ATOM     15  C   UNL A   1      32.126  21.669  22.201  1.00  0.00     0.092 C 
ATOM     16  C   UNL A   1      32.875  24.905  23.838  1.00  0.00     0.233 C 
ATOM     17  C   UNL A   1      30.584  23.821  24.026  1.00  0.00     0.334 C 
ATOM     18  H   UNL A   1      31.615  24.103  22.587  1.00  0.00     0.349 HD
BRANCH  12  19
ATOM     19  C   UNL A   1      32.552  21.592  24.685  1.00  0.00     0.367 C 
ATOM     20  O   UNL A   1      31.766  21.707  25.614  1.00  0.00    -0.245 OA
BRANCH  19  21
ATOM     21  O   UNL A   1      33.547  20.652  24.643  1.00  0.00    -0.464 OA
ATOM     22  C   UNL A   1      33.254  19.408  25.287  1.00  0.00     0.282 C 
ENDBRANCH  19  21
ENDBRANCH  12  19
BRANCH  16  23
ATOM     23  C   UNL A   1      32.765  26.087  24.808  1.00  0.00     0.046 A 
ATOM     24  C   UNL A   1      31.750  25.972  25.803  1.00  0.00     0.013 A 
ATOM     25  C   UNL A   1      33.366  27.341  24.705  1.00  0.00     0.132 A 
ATOM     26  C   UNL A   1      31.242  27.082  26.488  1.00  0.00     0.001 A 
ATOM     27  C   UNL A   1      32.873  28.453  25.400  1.00  0.00     0.040 A 
ATOM     28  F   UNL A   1      34.419  27.568  23.918  1.00  0.00    -0.206 F 
ATOM     29  C   UNL A   1      31.782  28.337  26.255  1.00  0.00     0.003 A 
ENDBRANCH  16  23
ENDBRANCH   9  11
ENDBRANCH   8   9
ENDBRANCH   7   8
ENDBRANCH   6   7
ENDBRANCH   5   6
ENDBRANCH   4   5
ENDBRANCH   3   4
ENDBRANCH   2   3
ENDBRANCH   1   2
BRANCH   1  30
ATOM     30  C   UNL A   1      39.381  29.179  28.926  1.00  0.00     0.188 C 
BRANCH  30  31
ATOM     31  O   UNL A   1      38.183  29.919  28.737  1.00  0.00    -0.376 OA
BRANCH  31  32
ATOM     32  C   UNL A   1      37.072  29.575  29.547  1.00  0.00     0.202 C 
BRANCH  32  33
ATOM     33  C   UNL A   1      36.210  30.740  30.050  1.00  0.00     0.261 C 
BRANCH  33  34
ATOM     34  O   UNL A   1      36.056  30.842  31.472  1.00  0.00    -0.460 OA
BRANCH  34  35
ATOM     35  C   UNL A   1      35.414  31.928  31.957  1.00  0.00     0.338 C 
ATOM     36  O   UNL A   1      34.344  32.377  31.581  1.00  0.00    -0.246 OA
BRANCH  35  37
ATOM     37  C   UNL A   1      36.133  32.360  33.174  1.00  0.00     0.060 A 
ATOM     38  C   UNL A   1      35.725  33.530  33.833  1.00  0.00     0.016 A 
ATOM     39  C   UNL A   1      37.176  31.586  33.685  1.00  0.00     0.016 A 
ATOM     40  C   UNL A   1      36.385  33.944  34.989  1.00  0.00     0.010 A 
ATOM     41  C   UNL A   1      37.855  32.018  34.825  1.00  0.00     0.010 A 
ATOM     42  C   UNL A   1      37.486  33.218  35.458  1.00  0.00    -0.014 A 
BRANCH  42  43
ATOM     43  C   UNL A   1      38.398  33.829  36.453  1.00  0.00     0.031 A 
ATOM     44  C   UNL A   1      39.577  34.608  35.932  1.00  0.00     0.074 A 
ATOM     45  C   UNL A   1      38.194  33.702  37.775  1.00  0.00     0.049 A 
ATOM     46  N   UNL A   1      40.542  35.190  36.589  1.00  0.00    -0.248 NA
ATOM     47  C   UNL A   1      39.677  34.743  34.467  1.00  0.00     0.031 C 
ATOM     48  C   UNL A   1      37.080  32.990  38.399  1.00  0.00     0.029 A 
ATOM     49  N   UNL A   1      38.943  34.153  38.835  1.00  0.00    -0.354 N 
ATOM     50  C   UNL A   1      41.376  35.741  35.623  1.00  0.00     0.074 A 
ATOM     51  C   UNL A   1      40.812  35.409  34.334  1.00  0.00     0.031 C 
ATOM     52  C   UNL A   1      37.234  33.029  39.735  1.00  0.00     0.029 A 
ATOM     53  C   UNL A   1      38.469  33.742  40.058  1.00  0.00     0.049 A 
ATOM     54  H   UNL A   1      39.743  34.716  38.727  1.00  0.00     0.167 HD
ATOM     55  C   UNL A   1      42.500  36.474  35.791  1.00  0.00     0.034 A 
ATOM     56  C   UNL A   1      38.992  33.904  41.290  1.00  0.00     0.034 A 
ATOM     57  C   UNL A   1      43.056  36.806  37.072  1.00  0.00     0.049 A 
ATOM     58  C   UNL A   1      40.279  34.677  41.447  1.00  0.00     0.074 A 
ATOM     59  C   UNL A   1      44.183  37.557  37.353  1.00  0.00     0.029 A 
ATOM     60  N   UNL A   1      42.534  36.396  38.290  1.00  0.00    -0.354 N 
ATOM     61  N   UNL A   1      41.003  35.278  40.532  1.00  0.00    -0.248 NA
ATOM     62  C   UNL A   1      40.806  34.822  42.813  1.00  0.00     0.031 C 
ATOM     63  C   UNL A   1      44.358  37.579  38.740  1.00  0.00     0.029 A 
ATOM     64  C   UNL A   1      43.318  36.873  39.325  1.00  0.00     0.049 A 
ATOM     65  H   UNL A   1      41.725  35.847  38.401  1.00  0.00     0.167 HD
ATOM     66  C   UNL A   1      42.039  35.908  41.214  1.00  0.00     0.074 A 
ATOM     67  C   UNL A   1      41.839  35.631  42.622  1.00  0.00     0.031 C 
ATOM     68  C   UNL A   1      43.069  36.641  40.723  1.00  0.00     0.034 A 
BRANCH  55  69
ATOM     69  C   UNL A   1      43.191  36.983  34.555  1.00  0.00     0.023 A 
ATOM     70  C   UNL A   1      42.951  38.302  34.117  1.00  0.00     0.012 A 
ATOM     71  C   UNL A   1      44.112  36.180  33.858  1.00  0.00     0.148 A 
ATOM     72  C   UNL A   1      43.596  38.803  32.987  1.00  0.00     0.002 A 
ATOM     73  C   UNL A   1      44.786  36.701  32.760  1.00  0.00     0.091 A 
ATOM     74  F   UNL A   1      44.307  34.921  34.277  1.00  0.00    -0.205 F 
ATOM     75  C   UNL A   1      44.520  38.006  32.316  1.00  0.00     0.022 A 
BRANCH  73  76
ATOM     76  S   UNL A   1      46.051  35.785  31.874  1.00  0.00     0.127 S 
ATOM     77  O   UNL A   1      46.335  36.682  30.755  1.00  0.00    -0.237 OA
ATOM     78  O   UNL A   1      47.118  35.697  32.872  1.00  0.00    -0.237 OA
ATOM     79  O   UNL A   1      45.448  34.510  31.512  1.00  0.00    -0.744 OA
ENDBRANCH  73  76
ENDBRANCH  55  69
BRANCH  56  80
ATOM     80  C   UNL A   1      38.297  33.349  42.489  1.00  0.00     0.023 A 
ATOM     81  C   UNL A   1      37.307  34.114  43.136  1.00  0.00     0.012 A 
ATOM     82  C   UNL A   1      38.626  32.081  43.004  1.00  0.00     0.148 A 
ATOM     83  C   UNL A   1      36.690  33.648  44.298  1.00  0.00     0.002 A 
ATOM     84  C   UNL A   1      37.966  31.595  44.128  1.00  0.00     0.091 A 
ATOM     85  F   UNL A   1      39.583  31.373  42.388  1.00  0.00    -0.205 F 
ATOM     86  C   UNL A   1      37.014  32.386  44.789  1.00  0.00     0.022 A 
BRANCH  84  87
ATOM     87  S   UNL A   1      38.226  29.933  44.755  1.00  0.00     0.127 S 
ATOM     88  O   UNL A   1      37.196  29.838  45.788  1.00  0.00    -0.237 OA
ATOM     89  O   UNL A   1      37.981  29.121  43.563  1.00  0.00    -0.237 OA
ATOM     90  O   UNL A   1      39.602  29.901  45.228  1.00  0.00    -0.744 OA
ENDBRANCH  84  87
ENDBRANCH  56  80
BRANCH  68  91
ATOM     91  C   UNL A   1      44.032  37.250  41.709  1.00  0.00     0.023 A 
ATOM     92  C   UNL A   1      43.793  38.537  42.229  1.00  0.00     0.012 A 
ATOM     93  C   UNL A   1      45.136  36.509  42.179  1.00  0.00     0.148 A 
ATOM     94  C   UNL A   1      44.658  39.092  43.174  1.00  0.00     0.002 A 
ATOM     95  C   UNL A   1      45.962  37.046  43.159  1.00  0.00     0.091 A 
ATOM     96  F   UNL A   1      45.355  35.292  41.662  1.00  0.00    -0.205 F 
ATOM     97  C   UNL A   1      45.733  38.343  43.646  1.00  0.00     0.022 A 
BRANCH  95  98
ATOM     98  S   UNL A   1      47.309  36.118  43.900  1.00  0.00     0.127 S 
ATOM     99  O   UNL A   1      47.843  37.083  44.859  1.00  0.00    -0.237 OA
ATOM    100  O   UNL A   1      46.608  34.984  44.503  1.00  0.00    -0.237 OA
ATOM    101  O   UNL A   1      48.205  35.764  42.807  1.00  0.00    -0.744 OA
ENDBRANCH  95  98
ENDBRANCH  68  91
ENDBRANCH  42  43
ENDBRANCH  35  37
ENDBRANCH  34  35
ENDBRANCH  33  34
ENDBRANCH  32  33
ENDBRANCH  31  32
ENDBRANCH  30  31
ENDBRANCH   1  30
TORSDOF 26
ENDMDL
