MODEL 1
REMARK VINA RESULT:      -8.0      0.000      0.000
REMARK SMILES Cc1ccc(N)cc1S(=O)(=O)Nc1cccc(C(=O)OCCOCCOCCOCCOC(=O)c2ccc(-c3c4nc(c(-c5cccc(S(=O)(=O)[O-])c5F)c5ccc([nH]5)c(-c5cccc(S(=O)(=O)[O-])c5F)c5nc(c(-c6cccc(S(=O)(=O)[O-])c6F)c6ccc3[nH]6)C=C5)C=C4)cc2)c1
REMARK SMILES IDX 25 1 24 2 23 3 22 4 21 5 20 6 18 7 19 8 17 9 13 10 14 11
REMARK SMILES IDX 98 12 15 13 16 14 12 15 9 17 10 18 11 19 8 20 1 21 2 22 3 23
REMARK SMILES IDX 4 24 7 25 5 26 6 27 26 30 27 31 28 32 29 33 30 34 31 35
REMARK SMILES IDX 32 36 33 37 34 38 35 39 36 40 97 41 37 42 96 43 38 44 39 45
REMARK SMILES IDX 40 46 90 47 41 48 95 49 89 50 91 51 42 52 94 53 88 54 87 55
REMARK SMILES IDX 43 57 75 58 55 59 74 60 56 61 59 62 73 63 92 64 57 65 58 66
REMARK SMILES IDX 72 68 93 69 60 70 44 71 45 72 53 73 46 74 48 75 54 76 47 77
REMARK SMILES IDX 49 78 50 79 51 80 52 81 76 82 77 83 85 84 78 85 80 86 86 87
REMARK SMILES IDX 79 88 81 89 82 90 83 91 84 92 61 93 62 94 70 95 63 96 65 97
REMARK SMILES IDX 71 98 64 99 66 100 67 101 68 102 69 103
REMARK H PARENT 12 16 6 28 6 29 91 56 59 67
REMARK Flexibility Score: inf
ROOT
ATOM      1  C   UNL A   1      36.957  31.815  30.562  1.00  0.00     0.188 C 
ENDROOT
BRANCH   1   2
ATOM      2  C   UNL A   1      36.974  30.460  29.824  1.00  0.00     0.188 C 
BRANCH   2   3
ATOM      3  O   UNL A   1      37.952  30.135  28.842  1.00  0.00    -0.376 OA
BRANCH   3   4
ATOM      4  C   UNL A   1      38.617  28.879  28.787  1.00  0.00     0.202 C 
BRANCH   4   5
ATOM      5  C   UNL A   1      39.697  28.542  27.748  1.00  0.00     0.261 C 
BRANCH   5   6
ATOM      6  O   UNL A   1      40.496  27.405  28.057  1.00  0.00    -0.460 OA
BRANCH   6   7
ATOM      7  C   UNL A   1      41.341  27.018  27.083  1.00  0.00     0.338 C 
ATOM      8  O   UNL A   1      41.476  27.512  25.975  1.00  0.00    -0.246 OA
BRANCH   7   9
ATOM      9  C   UNL A   1      42.241  25.968  27.601  1.00  0.00     0.062 A 
ATOM     10  C   UNL A   1      42.591  23.712  28.259  1.00  0.00     0.050 A 
ATOM     11  C   UNL A   1      43.980  23.901  28.168  1.00  0.00     0.027 A 
ATOM     12  C   UNL A   1      41.733  24.794  28.163  1.00  0.00     0.042 A 
ATOM     13  C   UNL A   1      44.501  25.129  27.771  1.00  0.00     0.003 A 
ATOM     14  C   UNL A   1      43.623  26.146  27.423  1.00  0.00     0.016 A 
BRANCH  10  15
ATOM     15  N   UNL A   1      42.145  22.370  28.336  1.00  0.00    -0.280 N 
ATOM     16  H   UNL A   1      42.153  21.947  29.224  1.00  0.00     0.180 HD
BRANCH  15  17
ATOM     17  S   UNL A   1      41.599  21.434  27.046  1.00  0.00     0.262 S 
ATOM     18  O   UNL A   1      40.779  22.334  26.262  1.00  0.00    -0.201 OA
ATOM     19  O   UNL A   1      41.015  20.267  27.680  1.00  0.00    -0.201 OA
BRANCH  17  20
ATOM     20  C   UNL A   1      42.895  20.824  25.970  1.00  0.00     0.092 A 
ATOM     21  C   UNL A   1      42.548  18.272  26.209  1.00  0.00     0.046 C 
ATOM     22  C   UNL A   1      43.322  19.496  25.821  1.00  0.00    -0.030 A 
ATOM     23  C   UNL A   1      44.554  19.270  25.173  1.00  0.00     0.007 A 
ATOM     24  C   UNL A   1      45.230  20.299  24.515  1.00  0.00     0.026 A 
ATOM     25  C   UNL A   1      43.559  21.839  25.248  1.00  0.00     0.048 A 
ATOM     26  C   UNL A   1      44.698  21.581  24.486  1.00  0.00     0.033 A 
BRANCH  26  27
ATOM     27  N   UNL A   1      45.207  22.543  23.638  1.00  0.00    -0.399 N 
ATOM     28  H   UNL A   1      45.389  22.323  22.697  1.00  0.00     0.156 HD
ATOM     29  H   UNL A   1      45.390  23.450  23.975  1.00  0.00     0.156 HD
ENDBRANCH  26  27
ENDBRANCH  17  20
ENDBRANCH  15  17
ENDBRANCH  10  15
ENDBRANCH   7   9
ENDBRANCH   6   7
ENDBRANCH   5   6
ENDBRANCH   4   5
ENDBRANCH   3   4
ENDBRANCH   2   3
ENDBRANCH   1   2
BRANCH   1  30
ATOM     30  O   UNL A   1      36.990  32.933  29.705  1.00  0.00    -0.377 OA
BRANCH  30  31
ATOM     31  C   UNL A   1      35.898  33.837  29.806  1.00  0.00     0.188 C 
BRANCH  31  32
ATOM     32  C   UNL A   1      35.011  33.776  31.071  1.00  0.00     0.188 C 
BRANCH  32  33
ATOM     33  O   UNL A   1      35.696  34.005  32.296  1.00  0.00    -0.376 OA
BRANCH  33  34
ATOM     34  C   UNL A   1      35.173  33.465  33.499  1.00  0.00     0.202 C 
BRANCH  34  35
ATOM     35  C   UNL A   1      35.737  33.980  34.834  1.00  0.00     0.261 C 
BRANCH  35  36
ATOM     36  O   UNL A   1      37.158  33.904  34.994  1.00  0.00    -0.460 OA
BRANCH  36  37
ATOM     37  C   UNL A   1      37.641  32.934  35.797  1.00  0.00     0.338 C 
ATOM     38  O   UNL A   1      37.174  32.570  36.865  1.00  0.00    -0.246 OA
BRANCH  37  39
ATOM     39  C   UNL A   1      38.713  32.230  35.066  1.00  0.00     0.060 A 
ATOM     40  C   UNL A   1      40.046  32.502  35.403  1.00  0.00     0.016 A 
ATOM     41  C   UNL A   1      38.409  31.312  34.058  1.00  0.00     0.016 A 
ATOM     42  C   UNL A   1      41.082  31.901  34.693  1.00  0.00     0.010 A 
ATOM     43  C   UNL A   1      39.448  30.728  33.330  1.00  0.00     0.010 A 
ATOM     44  C   UNL A   1      40.785  31.060  33.613  1.00  0.00    -0.014 A 
BRANCH  44  45
ATOM     45  C   UNL A   1      41.852  30.741  32.636  1.00  0.00     0.031 A 
ATOM     46  C   UNL A   1      42.535  29.405  32.753  1.00  0.00     0.074 A 
ATOM     47  C   UNL A   1      42.191  31.596  31.657  1.00  0.00     0.049 A 
ATOM     48  N   UNL A   1      43.505  28.902  32.036  1.00  0.00    -0.248 NA
ATOM     49  C   UNL A   1      42.059  28.516  33.827  1.00  0.00     0.031 C 
ATOM     50  C   UNL A   1      41.586  32.907  31.429  1.00  0.00     0.029 A 
ATOM     51  N   UNL A   1      43.149  31.491  30.680  1.00  0.00    -0.354 N 
ATOM     52  C   UNL A   1      43.779  27.658  32.593  1.00  0.00     0.074 A 
ATOM     53  C   UNL A   1      42.882  27.486  33.713  1.00  0.00     0.031 C 
ATOM     54  C   UNL A   1      42.208  33.498  30.394  1.00  0.00     0.029 A 
ATOM     55  C   UNL A   1      43.270  32.620  29.906  1.00  0.00     0.049 A 
ATOM     56  H   UNL A   1      43.697  30.684  30.546  1.00  0.00     0.167 HD
ATOM     57  C   UNL A   1      44.686  26.734  32.200  1.00  0.00     0.034 A 
ATOM     58  C   UNL A   1      44.156  32.916  28.933  1.00  0.00     0.034 A 
ATOM     59  C   UNL A   1      45.569  26.907  31.080  1.00  0.00     0.049 A 
ATOM     60  C   UNL A   1      45.183  31.884  28.537  1.00  0.00     0.074 A 
ATOM     61  C   UNL A   1      46.500  26.018  30.575  1.00  0.00     0.029 A 
ATOM     62  N   UNL A   1      45.646  28.052  30.302  1.00  0.00    -0.354 N 
ATOM     63  N   UNL A   1      45.364  30.672  29.004  1.00  0.00    -0.248 NA
ATOM     64  C   UNL A   1      46.106  32.250  27.452  1.00  0.00     0.031 C 
ATOM     65  C   UNL A   1      47.170  26.641  29.518  1.00  0.00     0.029 A 
ATOM     66  C   UNL A   1      46.617  27.899  29.329  1.00  0.00     0.049 A 
ATOM     67  H   UNL A   1      45.090  28.855  30.424  1.00  0.00     0.167 HD
ATOM     68  C   UNL A   1      46.387  30.116  28.243  1.00  0.00     0.074 A 
ATOM     69  C   UNL A   1      46.777  31.120  27.274  1.00  0.00     0.031 C 
ATOM     70  C   UNL A   1      46.958  28.889  28.339  1.00  0.00     0.034 A 
BRANCH  57  71
ATOM     71  C   UNL A   1      44.767  25.456  32.992  1.00  0.00     0.023 A 
ATOM     72  C   UNL A   1      44.157  24.282  32.501  1.00  0.00     0.012 A 
ATOM     73  C   UNL A   1      45.477  25.409  34.206  1.00  0.00     0.148 A 
ATOM     74  C   UNL A   1      44.220  23.093  33.226  1.00  0.00     0.002 A 
ATOM     75  C   UNL A   1      45.578  24.208  34.898  1.00  0.00     0.091 A 
ATOM     76  F   UNL A   1      46.027  26.540  34.669  1.00  0.00    -0.205 F 
ATOM     77  C   UNL A   1      44.939  23.054  34.418  1.00  0.00     0.022 A 
BRANCH  75  78
ATOM     78  S   UNL A   1      46.550  24.035  36.398  1.00  0.00     0.127 S 
ATOM     79  O   UNL A   1      46.357  22.619  36.713  1.00  0.00    -0.237 OA
ATOM     80  O   UNL A   1      47.894  24.377  35.932  1.00  0.00    -0.237 OA
ATOM     81  O   UNL A   1      45.981  24.970  37.358  1.00  0.00    -0.744 OA
ENDBRANCH  75  78
ENDBRANCH  57  71
BRANCH  58  82
ATOM     82  C   UNL A   1      44.096  34.237  28.244  1.00  0.00     0.023 A 
ATOM     83  C   UNL A   1      43.421  34.350  27.012  1.00  0.00     0.012 A 
ATOM     84  C   UNL A   1      44.697  35.381  28.805  1.00  0.00     0.148 A 
ATOM     85  C   UNL A   1      43.380  35.568  26.333  1.00  0.00     0.002 A 
ATOM     86  C   UNL A   1      44.601  36.605  28.152  1.00  0.00     0.091 A 
ATOM     87  F   UNL A   1      45.345  35.249  29.971  1.00  0.00    -0.205 F 
ATOM     88  C   UNL A   1      43.961  36.697  26.906  1.00  0.00     0.022 A 
BRANCH  86  89
ATOM     89  S   UNL A   1      45.212  38.136  28.866  1.00  0.00     0.127 S 
ATOM     90  O   UNL A   1      46.645  37.869  28.964  1.00  0.00    -0.237 OA
ATOM     91  O   UNL A   1      44.835  39.114  27.845  1.00  0.00    -0.237 OA
ATOM     92  O   UNL A   1      44.513  38.289  30.134  1.00  0.00    -0.744 OA
ENDBRANCH  86  89
ENDBRANCH  58  82
BRANCH  70  93
ATOM     93  C   UNL A   1      48.022  28.526  27.334  1.00  0.00     0.023 A 
ATOM     94  C   UNL A   1      49.383  28.562  27.694  1.00  0.00     0.012 A 
ATOM     95  C   UNL A   1      47.661  28.078  26.046  1.00  0.00     0.148 A 
ATOM     96  C   UNL A   1      50.369  28.198  26.776  1.00  0.00     0.002 A 
ATOM     97  C   UNL A   1      48.643  27.662  25.157  1.00  0.00     0.091 A 
ATOM     98  F   UNL A   1      46.361  28.062  25.716  1.00  0.00    -0.205 F 
ATOM     99  C   UNL A   1      50.000  27.737  25.514  1.00  0.00     0.022 A 
BRANCH  97 100
ATOM    100  S   UNL A   1      48.255  26.958  23.551  1.00  0.00     0.127 S 
ATOM    101  O   UNL A   1      49.579  26.869  22.937  1.00  0.00    -0.237 OA
ATOM    102  O   UNL A   1      47.663  25.670  23.913  1.00  0.00    -0.237 OA
ATOM    103  O   UNL A   1      47.333  27.889  22.915  1.00  0.00    -0.744 OA
ENDBRANCH  97 100
ENDBRANCH  70  93
ENDBRANCH  44  45
ENDBRANCH  37  39
ENDBRANCH  36  37
ENDBRANCH  35  36
ENDBRANCH  34  35
ENDBRANCH  33  34
ENDBRANCH  32  33
ENDBRANCH  31  32
ENDBRANCH  30  31
ENDBRANCH   1  30
TORSDOF 27
ENDMDL
MODEL 2
REMARK VINA RESULT:      -8.0      6.033      9.569
REMARK SMILES Cc1ccc(N)cc1S(=O)(=O)Nc1cccc(C(=O)OCCOCCOCCOCCOC(=O)c2ccc(-c3c4nc(c(-c5cccc(S(=O)(=O)[O-])c5F)c5ccc([nH]5)c(-c5cccc(S(=O)(=O)[O-])c5F)c5nc(c(-c6cccc(S(=O)(=O)[O-])c6F)c6ccc3[nH]6)C=C5)C=C4)cc2)c1
REMARK SMILES IDX 25 1 24 2 23 3 22 4 21 5 20 6 18 7 19 8 17 9 13 10 14 11
REMARK SMILES IDX 98 12 15 13 16 14 12 15 9 17 10 18 11 19 8 20 1 21 2 22 3 23
REMARK SMILES IDX 4 24 7 25 5 26 6 27 26 30 27 31 28 32 29 33 30 34 31 35
REMARK SMILES IDX 32 36 33 37 34 38 35 39 36 40 97 41 37 42 96 43 38 44 39 45
REMARK SMILES IDX 40 46 90 47 41 48 95 49 89 50 91 51 42 52 94 53 88 54 87 55
REMARK SMILES IDX 43 57 75 58 55 59 74 60 56 61 59 62 73 63 92 64 57 65 58 66
REMARK SMILES IDX 72 68 93 69 60 70 44 71 45 72 53 73 46 74 48 75 54 76 47 77
REMARK SMILES IDX 49 78 50 79 51 80 52 81 76 82 77 83 85 84 78 85 80 86 86 87
REMARK SMILES IDX 79 88 81 89 82 90 83 91 84 92 61 93 62 94 70 95 63 96 65 97
REMARK SMILES IDX 71 98 64 99 66 100 67 101 68 102 69 103
REMARK H PARENT 12 16 6 28 6 29 91 56 59 67
REMARK Flexibility Score: inf
ROOT
ATOM      1  C   UNL A   1      31.257  23.085  27.122  1.00  0.00     0.188 C 
ENDROOT
BRANCH   1   2
ATOM      2  C   UNL A   1      32.686  23.475  26.689  1.00  0.00     0.188 C 
BRANCH   2   3
ATOM      3  O   UNL A   1      33.836  22.743  27.095  1.00  0.00    -0.376 OA
BRANCH   3   4
ATOM      4  C   UNL A   1      35.164  23.237  26.961  1.00  0.00     0.202 C 
BRANCH   4   5
ATOM      5  C   UNL A   1      36.172  22.682  25.944  1.00  0.00     0.261 C 
BRANCH   5   6
ATOM      6  O   UNL A   1      36.457  23.542  24.846  1.00  0.00    -0.460 OA
BRANCH   6   7
ATOM      7  C   UNL A   1      36.115  23.060  23.637  1.00  0.00     0.338 C 
ATOM      8  O   UNL A   1      36.862  22.694  22.743  1.00  0.00    -0.246 OA
BRANCH   7   9
ATOM      9  C   UNL A   1      34.652  22.868  23.580  1.00  0.00     0.062 A 
ATOM     10  C   UNL A   1      32.516  23.610  22.848  1.00  0.00     0.050 A 
ATOM     11  C   UNL A   1      31.987  22.334  23.099  1.00  0.00     0.027 A 
ATOM     12  C   UNL A   1      33.797  23.928  23.267  1.00  0.00     0.042 A 
ATOM     13  C   UNL A   1      32.802  21.312  23.577  1.00  0.00     0.003 A 
ATOM     14  C   UNL A   1      34.156  21.566  23.754  1.00  0.00     0.016 A 
BRANCH  10  15
ATOM     15  N   UNL A   1      31.719  24.475  22.060  1.00  0.00    -0.280 N 
ATOM     16  H   UNL A   1      30.784  24.208  21.909  1.00  0.00     0.180 HD
BRANCH  15  17
ATOM     17  S   UNL A   1      32.225  25.922  21.359  1.00  0.00     0.262 S 
ATOM     18  O   UNL A   1      31.610  25.927  20.048  1.00  0.00    -0.201 OA
ATOM     19  O   UNL A   1      33.668  25.895  21.498  1.00  0.00    -0.201 OA
BRANCH  17  20
ATOM     20  C   UNL A   1      31.667  27.395  22.213  1.00  0.00     0.092 A 
ATOM     21  C   UNL A   1      33.926  28.582  22.635  1.00  0.00     0.046 C 
ATOM     22  C   UNL A   1      32.460  28.358  22.856  1.00  0.00    -0.030 A 
ATOM     23  C   UNL A   1      31.821  29.259  23.732  1.00  0.00     0.007 A 
ATOM     24  C   UNL A   1      30.429  29.338  23.805  1.00  0.00     0.026 A 
ATOM     25  C   UNL A   1      30.263  27.532  22.253  1.00  0.00     0.048 A 
ATOM     26  C   UNL A   1      29.637  28.522  23.009  1.00  0.00     0.033 A 
BRANCH  26  27
ATOM     27  N   UNL A   1      28.284  28.757  22.876  1.00  0.00    -0.399 N 
ATOM     28  H   UNL A   1      27.648  28.337  23.498  1.00  0.00     0.156 HD
ATOM     29  H   UNL A   1      27.954  29.343  22.157  1.00  0.00     0.156 HD
ENDBRANCH  26  27
ENDBRANCH  17  20
ENDBRANCH  15  17
ENDBRANCH  10  15
ENDBRANCH   7   9
ENDBRANCH   6   7
ENDBRANCH   5   6
ENDBRANCH   4   5
ENDBRANCH   3   4
ENDBRANCH   2   3
ENDBRANCH   1   2
BRANCH   1  30
ATOM     30  O   UNL A   1      30.241  23.748  26.405  1.00  0.00    -0.377 OA
BRANCH  30  31
ATOM     31  C   UNL A   1      30.666  24.746  25.486  1.00  0.00     0.188 C 
BRANCH  31  32
ATOM     32  C   UNL A   1      30.316  26.220  25.795  1.00  0.00     0.188 C 
BRANCH  32  33
ATOM     33  O   UNL A   1      30.842  26.719  27.018  1.00  0.00    -0.376 OA
BRANCH  33  34
ATOM     34  C   UNL A   1      32.059  27.447  27.009  1.00  0.00     0.202 C 
BRANCH  34  35
ATOM     35  C   UNL A   1      31.994  28.976  27.164  1.00  0.00     0.261 C 
BRANCH  35  36
ATOM     36  O   UNL A   1      33.068  29.719  26.574  1.00  0.00    -0.460 OA
BRANCH  36  37
ATOM     37  C   UNL A   1      33.290  30.964  27.042  1.00  0.00     0.338 C 
ATOM     38  O   UNL A   1      32.564  31.936  26.909  1.00  0.00    -0.246 OA
BRANCH  37  39
ATOM     39  C   UNL A   1      34.464  30.910  27.936  1.00  0.00     0.060 A 
ATOM     40  C   UNL A   1      34.956  32.108  28.472  1.00  0.00     0.016 A 
ATOM     41  C   UNL A   1      35.074  29.691  28.244  1.00  0.00     0.016 A 
ATOM     42  C   UNL A   1      36.097  32.099  29.270  1.00  0.00     0.010 A 
ATOM     43  C   UNL A   1      36.233  29.686  29.025  1.00  0.00     0.010 A 
ATOM     44  C   UNL A   1      36.775  30.895  29.496  1.00  0.00    -0.014 A 
BRANCH  44  45
ATOM     45  C   UNL A   1      38.166  30.938  30.002  1.00  0.00     0.031 A 
ATOM     46  C   UNL A   1      39.202  30.117  29.282  1.00  0.00     0.074 A 
ATOM     47  C   UNL A   1      38.513  31.702  31.052  1.00  0.00     0.049 A 
ATOM     48  N   UNL A   1      40.474  29.972  29.540  1.00  0.00    -0.248 NA
ATOM     49  C   UNL A   1      38.736  29.352  28.111  1.00  0.00     0.031 C 
ATOM     50  C   UNL A   1      37.604  32.556  31.814  1.00  0.00     0.029 A 
ATOM     51  N   UNL A   1      39.727  31.861  31.670  1.00  0.00    -0.354 N 
ATOM     52  C   UNL A   1      40.952  29.076  28.590  1.00  0.00     0.074 A 
ATOM     53  C   UNL A   1      39.832  28.701  27.757  1.00  0.00     0.031 C 
ATOM     54  C   UNL A   1      38.289  33.131  32.818  1.00  0.00     0.029 A 
ATOM     55  C   UNL A   1      39.674  32.663  32.785  1.00  0.00     0.049 A 
ATOM     56  H   UNL A   1      40.557  31.443  31.346  1.00  0.00     0.167 HD
ATOM     57  C   UNL A   1      42.213  28.616  28.416  1.00  0.00     0.034 A 
ATOM     58  C   UNL A   1      40.631  32.961  33.687  1.00  0.00     0.034 A 
ATOM     59  C   UNL A   1      43.325  28.999  29.242  1.00  0.00     0.049 A 
ATOM     60  C   UNL A   1      42.021  32.407  33.493  1.00  0.00     0.074 A 
ATOM     61  C   UNL A   1      44.649  28.619  29.129  1.00  0.00     0.029 A 
ATOM     62  N   UNL A   1      43.240  29.834  30.345  1.00  0.00    -0.354 N 
ATOM     63  N   UNL A   1      42.482  31.643  32.533  1.00  0.00    -0.248 NA
ATOM     64  C   UNL A   1      43.031  32.787  34.492  1.00  0.00     0.031 C 
ATOM     65  C   UNL A   1      45.359  29.191  30.189  1.00  0.00     0.029 A 
ATOM     66  C   UNL A   1      44.485  29.971  30.932  1.00  0.00     0.049 A 
ATOM     67  H   UNL A   1      42.414  30.265  30.664  1.00  0.00     0.167 HD
ATOM     68  C   UNL A   1      43.842  31.488  32.785  1.00  0.00     0.074 A 
ATOM     69  C   UNL A   1      44.132  32.250  33.982  1.00  0.00     0.031 C 
ATOM     70  C   UNL A   1      44.767  30.776  32.094  1.00  0.00     0.034 A 
BRANCH  57  71
ATOM     71  C   UNL A   1      42.452  27.645  27.290  1.00  0.00     0.023 A 
ATOM     72  C   UNL A   1      42.750  28.123  25.997  1.00  0.00     0.012 A 
ATOM     73  C   UNL A   1      42.414  26.257  27.521  1.00  0.00     0.148 A 
ATOM     74  C   UNL A   1      42.968  27.235  24.944  1.00  0.00     0.002 A 
ATOM     75  C   UNL A   1      42.683  25.379  26.479  1.00  0.00     0.091 A 
ATOM     76  F   UNL A   1      42.104  25.821  28.750  1.00  0.00    -0.205 F 
ATOM     77  C   UNL A   1      42.946  25.865  25.188  1.00  0.00     0.022 A 
BRANCH  75  78
ATOM     78  S   UNL A   1      42.760  23.599  26.708  1.00  0.00     0.127 S 
ATOM     79  O   UNL A   1      41.399  23.197  26.354  1.00  0.00    -0.237 OA
ATOM     80  O   UNL A   1      43.783  23.210  25.737  1.00  0.00    -0.237 OA
ATOM     81  O   UNL A   1      43.129  23.387  28.100  1.00  0.00    -0.744 OA
ENDBRANCH  75  78
ENDBRANCH  57  71
BRANCH  58  82
ATOM     82  C   UNL A   1      40.319  33.852  34.841  1.00  0.00     0.023 A 
ATOM     83  C   UNL A   1      40.490  35.245  34.713  1.00  0.00     0.012 A 
ATOM     84  C   UNL A   1      39.848  33.328  36.061  1.00  0.00     0.148 A 
ATOM     85  C   UNL A   1      40.235  36.095  35.790  1.00  0.00     0.002 A 
ATOM     86  C   UNL A   1      39.539  34.185  37.111  1.00  0.00     0.091 A 
ATOM     87  F   UNL A   1      39.704  31.999  36.167  1.00  0.00    -0.205 F 
ATOM     88  C   UNL A   1      39.751  35.567  36.985  1.00  0.00     0.022 A 
BRANCH  86  89
ATOM     89  S   UNL A   1      38.799  33.614  38.645  1.00  0.00     0.127 S 
ATOM     90  O   UNL A   1      38.746  34.846  39.428  1.00  0.00    -0.237 OA
ATOM     91  O   UNL A   1      37.501  33.118  38.185  1.00  0.00    -0.237 OA
ATOM     92  O   UNL A   1      39.692  32.583  39.155  1.00  0.00    -0.744 OA
ENDBRANCH  86  89
ENDBRANCH  58  82
BRANCH  70  93
ATOM     93  C   UNL A   1      46.198  30.832  32.567  1.00  0.00     0.023 A 
ATOM     94  C   UNL A   1      47.065  31.837  32.097  1.00  0.00     0.012 A 
ATOM     95  C   UNL A   1      46.661  29.920  33.539  1.00  0.00     0.148 A 
ATOM     96  C   UNL A   1      48.381  31.910  32.556  1.00  0.00     0.002 A 
ATOM     97  C   UNL A   1      47.953  30.034  34.034  1.00  0.00     0.091 A 
ATOM     98  F   UNL A   1      45.826  28.961  33.965  1.00  0.00    -0.205 F 
ATOM     99  C   UNL A   1      48.821  31.018  33.531  1.00  0.00     0.022 A 
BRANCH  97 100
ATOM    100  S   UNL A   1      48.572  28.996  35.362  1.00  0.00     0.127 S 
ATOM    101  O   UNL A   1      47.486  29.085  36.339  1.00  0.00    -0.237 OA
ATOM    102  O   UNL A   1      48.696  27.695  34.706  1.00  0.00    -0.237 OA
ATOM    103  O   UNL A   1      49.836  29.586  35.780  1.00  0.00    -0.744 OA
ENDBRANCH  97 100
ENDBRANCH  70  93
ENDBRANCH  44  45
ENDBRANCH  37  39
ENDBRANCH  36  37
ENDBRANCH  35  36
ENDBRANCH  34  35
ENDBRANCH  33  34
ENDBRANCH  32  33
ENDBRANCH  31  32
ENDBRANCH  30  31
ENDBRANCH   1  30
TORSDOF 27
ENDMDL
MODEL 3
REMARK VINA RESULT:      -7.8      2.037      2.675
REMARK SMILES Cc1ccc(N)cc1S(=O)(=O)Nc1cccc(C(=O)OCCOCCOCCOCCOC(=O)c2ccc(-c3c4nc(c(-c5cccc(S(=O)(=O)[O-])c5F)c5ccc([nH]5)c(-c5cccc(S(=O)(=O)[O-])c5F)c5nc(c(-c6cccc(S(=O)(=O)[O-])c6F)c6ccc3[nH]6)C=C5)C=C4)cc2)c1
REMARK SMILES IDX 25 1 24 2 23 3 22 4 21 5 20 6 18 7 19 8 17 9 13 10 14 11
REMARK SMILES IDX 98 12 15 13 16 14 12 15 9 17 10 18 11 19 8 20 1 21 2 22 3 23
REMARK SMILES IDX 4 24 7 25 5 26 6 27 26 30 27 31 28 32 29 33 30 34 31 35
REMARK SMILES IDX 32 36 33 37 34 38 35 39 36 40 97 41 37 42 96 43 38 44 39 45
REMARK SMILES IDX 40 46 90 47 41 48 95 49 89 50 91 51 42 52 94 53 88 54 87 55
REMARK SMILES IDX 43 57 75 58 55 59 74 60 56 61 59 62 73 63 92 64 57 65 58 66
REMARK SMILES IDX 72 68 93 69 60 70 44 71 45 72 53 73 46 74 48 75 54 76 47 77
REMARK SMILES IDX 49 78 50 79 51 80 52 81 76 82 77 83 85 84 78 85 80 86 86 87
REMARK SMILES IDX 79 88 81 89 82 90 83 91 84 92 61 93 62 94 70 95 63 96 65 97
REMARK SMILES IDX 71 98 64 99 66 100 67 101 68 102 69 103
REMARK H PARENT 12 16 6 28 6 29 91 56 59 67
REMARK Flexibility Score: inf
ROOT
ATOM      1  C   UNL A   1      37.072  31.582  29.915  1.00  0.00     0.188 C 
ENDROOT
BRANCH   1   2
ATOM      2  C   UNL A   1      37.709  30.248  29.472  1.00  0.00     0.188 C 
BRANCH   2   3
ATOM      3  O   UNL A   1      38.366  30.091  28.219  1.00  0.00    -0.376 OA
BRANCH   3   4
ATOM      4  C   UNL A   1      39.377  29.119  27.983  1.00  0.00     0.202 C 
BRANCH   4   5
ATOM      5  C   UNL A   1      40.078  28.943  26.628  1.00  0.00     0.261 C 
BRANCH   5   6
ATOM      6  O   UNL A   1      41.158  28.015  26.623  1.00  0.00    -0.460 OA
BRANCH   6   7
ATOM      7  C   UNL A   1      41.952  28.067  25.538  1.00  0.00     0.338 C 
ATOM      8  O   UNL A   1      41.913  28.876  24.626  1.00  0.00    -0.246 OA
BRANCH   7   9
ATOM      9  C   UNL A   1      43.032  27.068  25.672  1.00  0.00     0.062 A 
ATOM     10  C   UNL A   1      43.905  24.916  25.169  1.00  0.00     0.050 A 
ATOM     11  C   UNL A   1      45.186  25.347  25.550  1.00  0.00     0.027 A 
ATOM     12  C   UNL A   1      42.801  25.715  25.410  1.00  0.00     0.042 A 
ATOM     13  C   UNL A   1      45.394  26.655  25.977  1.00  0.00     0.003 A 
ATOM     14  C   UNL A   1      44.321  27.537  25.973  1.00  0.00     0.016 A 
BRANCH  10  15
ATOM     15  N   UNL A   1      43.842  23.703  24.440  1.00  0.00    -0.280 N 
ATOM     16  H   UNL A   1      43.603  23.766  23.488  1.00  0.00     0.180 HD
BRANCH  15  17
ATOM     17  S   UNL A   1      44.141  22.163  25.055  1.00  0.00     0.262 S 
ATOM     18  O   UNL A   1      45.076  22.378  26.140  1.00  0.00    -0.201 OA
ATOM     19  O   UNL A   1      44.525  21.388  23.892  1.00  0.00    -0.201 OA
BRANCH  17  20
ATOM     20  C   UNL A   1      42.703  21.349  25.748  1.00  0.00     0.092 A 
ATOM     21  C   UNL A   1      43.505  18.890  25.747  1.00  0.00     0.046 C 
ATOM     22  C   UNL A   1      42.468  19.968  25.837  1.00  0.00    -0.030 A 
ATOM     23  C   UNL A   1      41.153  19.541  26.118  1.00  0.00     0.007 A 
ATOM     24  C   UNL A   1      40.162  20.446  26.504  1.00  0.00     0.026 A 
ATOM     25  C   UNL A   1      41.706  22.240  26.199  1.00  0.00     0.048 A 
ATOM     26  C   UNL A   1      40.452  21.798  26.618  1.00  0.00     0.033 A 
BRANCH  26  27
ATOM     27  N   UNL A   1      39.573  22.664  27.236  1.00  0.00    -0.399 N 
ATOM     28  H   UNL A   1      39.789  23.622  27.298  1.00  0.00     0.156 HD
ATOM     29  H   UNL A   1      38.731  22.324  27.615  1.00  0.00     0.156 HD
ENDBRANCH  26  27
ENDBRANCH  17  20
ENDBRANCH  15  17
ENDBRANCH  10  15
ENDBRANCH   7   9
ENDBRANCH   6   7
ENDBRANCH   5   6
ENDBRANCH   4   5
ENDBRANCH   3   4
ENDBRANCH   2   3
ENDBRANCH   1   2
BRANCH   1  30
ATOM     30  O   UNL A   1      37.084  32.579  28.919  1.00  0.00    -0.377 OA
BRANCH  30  31
ATOM     31  C   UNL A   1      35.816  33.024  28.456  1.00  0.00     0.188 C 
BRANCH  31  32
ATOM     32  C   UNL A   1      34.750  33.416  29.506  1.00  0.00     0.188 C 
BRANCH  32  33
ATOM     33  O   UNL A   1      35.251  34.118  30.637  1.00  0.00    -0.376 OA
BRANCH  33  34
ATOM     34  C   UNL A   1      34.363  34.481  31.682  1.00  0.00     0.202 C 
BRANCH  34  35
ATOM     35  C   UNL A   1      34.894  35.383  32.809  1.00  0.00     0.261 C 
BRANCH  35  36
ATOM     36  O   UNL A   1      36.197  35.065  33.315  1.00  0.00    -0.460 OA
BRANCH  36  37
ATOM     37  C   UNL A   1      36.276  34.116  34.269  1.00  0.00     0.338 C 
ATOM     38  O   UNL A   1      35.415  33.826  35.085  1.00  0.00    -0.246 OA
BRANCH  37  39
ATOM     39  C   UNL A   1      37.502  33.329  34.027  1.00  0.00     0.060 A 
ATOM     40  C   UNL A   1      38.730  33.850  34.457  1.00  0.00     0.016 A 
ATOM     41  C   UNL A   1      37.442  32.091  33.382  1.00  0.00     0.016 A 
ATOM     42  C   UNL A   1      39.911  33.162  34.191  1.00  0.00     0.010 A 
ATOM     43  C   UNL A   1      38.629  31.413  33.094  1.00  0.00     0.010 A 
ATOM     44  C   UNL A   1      39.868  31.972  33.453  1.00  0.00    -0.014 A 
BRANCH  44  45
ATOM     45  C   UNL A   1      41.118  31.459  32.846  1.00  0.00     0.031 A 
ATOM     46  C   UNL A   1      41.767  30.259  33.481  1.00  0.00     0.074 A 
ATOM     47  C   UNL A   1      41.652  32.020  31.748  1.00  0.00     0.049 A 
ATOM     48  N   UNL A   1      42.868  29.637  33.152  1.00  0.00    -0.248 NA
ATOM     49  C   UNL A   1      41.080  29.683  34.651  1.00  0.00     0.031 C 
ATOM     50  C   UNL A   1      41.102  33.169  31.032  1.00  0.00     0.029 A 
ATOM     51  N   UNL A   1      42.795  31.704  31.056  1.00  0.00    -0.354 N 
ATOM     52  C   UNL A   1      43.024  28.623  34.090  1.00  0.00     0.074 A 
ATOM     53  C   UNL A   1      41.913  28.719  35.009  1.00  0.00     0.031 C 
ATOM     54  C   UNL A   1      41.926  33.481  30.015  1.00  0.00     0.029 A 
ATOM     55  C   UNL A   1      43.071  32.572  30.027  1.00  0.00     0.049 A 
ATOM     56  H   UNL A   1      43.361  30.930  31.276  1.00  0.00     0.167 HD
ATOM     57  C   UNL A   1      43.998  27.687  34.174  1.00  0.00     0.034 A 
ATOM     58  C   UNL A   1      44.140  32.636  29.208  1.00  0.00     0.034 A 
ATOM     59  C   UNL A   1      45.096  27.591  33.251  1.00  0.00     0.049 A 
ATOM     60  C   UNL A   1      45.231  31.603  29.343  1.00  0.00     0.074 A 
ATOM     61  C   UNL A   1      46.116  26.658  33.225  1.00  0.00     0.029 A 
ATOM     62  N   UNL A   1      45.329  28.470  32.205  1.00  0.00    -0.354 N 
ATOM     63  N   UNL A   1      45.315  30.589  30.170  1.00  0.00    -0.248 NA
ATOM     64  C   UNL A   1      46.360  31.705  28.406  1.00  0.00     0.031 C 
ATOM     65  C   UNL A   1      46.990  26.997  32.188  1.00  0.00     0.029 A 
ATOM     66  C   UNL A   1      46.484  28.111  31.534  1.00  0.00     0.049 A 
ATOM     67  H   UNL A   1      44.757  29.237  31.974  1.00  0.00     0.167 HD
ATOM     68  C   UNL A   1      46.478  29.907  29.824  1.00  0.00     0.074 A 
ATOM     69  C   UNL A   1      47.058  30.617  28.703  1.00  0.00     0.031 C 
ATOM     70  C   UNL A   1      47.021  28.798  30.386  1.00  0.00     0.034 A 
BRANCH  57  71
ATOM     71  C   UNL A   1      43.916  26.695  35.303  1.00  0.00     0.023 A 
ATOM     72  C   UNL A   1      43.243  25.469  35.118  1.00  0.00     0.012 A 
ATOM     73  C   UNL A   1      44.535  26.963  36.538  1.00  0.00     0.148 A 
ATOM     74  C   UNL A   1      43.155  24.543  36.158  1.00  0.00     0.002 A 
ATOM     75  C   UNL A   1      44.488  26.014  37.552  1.00  0.00     0.091 A 
ATOM     76  F   UNL A   1      45.147  28.144  36.704  1.00  0.00    -0.205 F 
ATOM     77  C   UNL A   1      43.786  24.811  37.369  1.00  0.00     0.022 A 
BRANCH  75  78
ATOM     78  S   UNL A   1      45.338  26.229  39.119  1.00  0.00     0.127 S 
ATOM     79  O   UNL A   1      46.730  26.347  38.686  1.00  0.00    -0.237 OA
ATOM     80  O   UNL A   1      44.747  27.471  39.619  1.00  0.00    -0.237 OA
ATOM     81  O   UNL A   1      45.030  25.046  39.911  1.00  0.00    -0.744 OA
ENDBRANCH  75  78
ENDBRANCH  57  71
BRANCH  58  82
ATOM     82  C   UNL A   1      44.220  33.699  28.165  1.00  0.00     0.023 A 
ATOM     83  C   UNL A   1      43.784  33.424  26.854  1.00  0.00     0.012 A 
ATOM     84  C   UNL A   1      44.720  34.981  28.467  1.00  0.00     0.148 A 
ATOM     85  C   UNL A   1      43.879  34.393  25.855  1.00  0.00     0.002 A 
ATOM     86  C   UNL A   1      44.758  35.961  27.482  1.00  0.00     0.091 A 
ATOM     87  F   UNL A   1      45.143  35.218  29.717  1.00  0.00    -0.205 F 
ATOM     88  C   UNL A   1      44.357  35.663  26.169  1.00  0.00     0.022 A 
BRANCH  86  89
ATOM     89  S   UNL A   1      45.243  37.657  27.817  1.00  0.00     0.127 S 
ATOM     90  O   UNL A   1      44.117  38.139  28.611  1.00  0.00    -0.237 OA
ATOM     91  O   UNL A   1      46.490  37.470  28.562  1.00  0.00    -0.237 OA
ATOM     92  O   UNL A   1      45.409  38.287  26.514  1.00  0.00    -0.744 OA
ENDBRANCH  86  89
ENDBRANCH  58  82
BRANCH  70  93
ATOM     93  C   UNL A   1      48.274  28.234  29.765  1.00  0.00     0.023 A 
ATOM     94  C   UNL A   1      49.542  28.620  30.243  1.00  0.00     0.012 A 
ATOM     95  C   UNL A   1      48.187  27.261  28.748  1.00  0.00     0.148 A 
ATOM     96  C   UNL A   1      50.703  28.078  29.691  1.00  0.00     0.002 A 
ATOM     97  C   UNL A   1      49.345  26.683  28.242  1.00  0.00     0.091 A 
ATOM     98  F   UNL A   1      46.973  26.916  28.296  1.00  0.00    -0.205 F 
ATOM     99  C   UNL A   1      50.604  27.102  28.700  1.00  0.00     0.022 A 
BRANCH  97 100
ATOM    100  S   UNL A   1      49.310  25.348  27.042  1.00  0.00     0.127 S 
ATOM    101  O   UNL A   1      48.318  24.447  27.626  1.00  0.00    -0.237 OA
ATOM    102  O   UNL A   1      48.869  26.036  25.828  1.00  0.00    -0.237 OA
ATOM    103  O   UNL A   1      50.669  24.825  26.981  1.00  0.00    -0.744 OA
ENDBRANCH  97 100
ENDBRANCH  70  93
ENDBRANCH  44  45
ENDBRANCH  37  39
ENDBRANCH  36  37
ENDBRANCH  35  36
ENDBRANCH  34  35
ENDBRANCH  33  34
ENDBRANCH  32  33
ENDBRANCH  31  32
ENDBRANCH  30  31
ENDBRANCH   1  30
TORSDOF 27
ENDMDL
