MODEL 1
REMARK VINA RESULT:      -9.2      0.000      0.000
REMARK SMILES O=C(OCCOCCOCCOCCOC(=O)[C@H]1CC2(CC[NH+](C(=O)c3cccc(O)c3)CC2)CN1C(=O)C1CC1)c1ccc(-c2c3nc(c(-c4cccc(S(=O)(=O)[O-])c4F)c4ccc([nH]4)c(-c4cccc(S(=O)(=O)[O-])c4F)c4nc(c(-c5cccc(S(=O)(=O)[O-])c5F)c5ccc2[nH]5)C=C4)C=C3)cc1
REMARK SMILES IDX 9 1 8 2 7 3 6 4 5 5 4 6 3 7 2 8 1 9 42 10 43 11 104 12 44 13
REMARK SMILES IDX 103 14 45 15 46 16 47 17 97 18 48 19 102 20 96 21 98 22
REMARK SMILES IDX 49 23 101 24 95 25 94 26 50 28 82 29 62 30 81 31 63 32 66 33
REMARK SMILES IDX 80 34 99 35 64 36 65 37 79 39 100 40 67 41 51 42 52 43 60 44
REMARK SMILES IDX 53 45 55 46 61 47 54 48 56 49 57 50 58 51 59 52 83 53 84 54
REMARK SMILES IDX 92 55 85 56 87 57 93 58 86 59 88 60 89 61 90 62 91 63 68 64
REMARK SMILES IDX 69 65 77 66 70 67 72 68 78 69 71 70 73 71 74 72 75 73 76 74
REMARK SMILES IDX 10 75 11 76 12 77 13 78 14 79 15 80 16 81 17 82 18 83 19 84
REMARK SMILES IDX 36 85 20 86 35 87 21 88 34 89 22 90 33 91 23 92 37 94 38 95
REMARK SMILES IDX 39 96 40 97 41 98 24 99 25 100 26 101 27 102 32 103 28 104
REMARK SMILES IDX 30 105 29 106 31 107
REMARK H PARENT 98 27 66 38 23 93 31 108
REMARK Flexibility Score: inf
ROOT
ATOM      1  O   UNL A   1      33.431  29.537  25.040  1.00  0.00    -0.377 OA
ENDROOT
BRANCH   1   2
ATOM      2  C   UNL A   1      33.520  29.526  26.455  1.00  0.00     0.188 C 
BRANCH   2   3
ATOM      3  C   UNL A   1      34.940  29.328  26.965  1.00  0.00     0.188 C 
BRANCH   3   4
ATOM      4  O   UNL A   1      35.154  29.709  28.330  1.00  0.00    -0.376 OA
BRANCH   4   5
ATOM      5  C   UNL A   1      36.480  29.710  28.855  1.00  0.00     0.202 C 
BRANCH   5   6
ATOM      6  C   UNL A   1      36.689  29.434  30.350  1.00  0.00     0.261 C 
BRANCH   6   7
ATOM      7  O   UNL A   1      37.292  30.515  31.062  1.00  0.00    -0.460 OA
BRANCH   7   8
ATOM      8  C   UNL A   1      37.826  30.260  32.288  1.00  0.00     0.338 C 
ATOM      9  O   UNL A   1      37.412  30.812  33.301  1.00  0.00    -0.246 OA
BRANCH   8  10
ATOM     10  C   UNL A   1      39.140  29.557  32.264  1.00  0.00     0.060 A 
ATOM     11  C   UNL A   1      39.256  28.188  32.514  1.00  0.00     0.016 A 
ATOM     12  C   UNL A   1      40.294  30.294  31.956  1.00  0.00     0.016 A 
ATOM     13  C   UNL A   1      40.467  27.537  32.363  1.00  0.00     0.010 A 
ATOM     14  C   UNL A   1      41.542  29.659  31.899  1.00  0.00     0.010 A 
ATOM     15  C   UNL A   1      41.622  28.279  32.119  1.00  0.00    -0.014 A 
BRANCH  15  16
ATOM     16  C   UNL A   1      42.874  27.586  32.469  1.00  0.00     0.031 A 
ATOM     17  C   UNL A   1      43.786  27.264  31.318  1.00  0.00     0.074 A 
ATOM     18  C   UNL A   1      43.280  27.489  33.745  1.00  0.00     0.049 A 
ATOM     19  N   UNL A   1      45.045  26.925  31.328  1.00  0.00    -0.248 NA
ATOM     20  C   UNL A   1      43.214  27.427  29.966  1.00  0.00     0.031 C 
ATOM     21  C   UNL A   1      42.509  27.911  34.913  1.00  0.00     0.029 A 
ATOM     22  N   UNL A   1      44.466  27.044  34.264  1.00  0.00    -0.354 N 
ATOM     23  C   UNL A   1      45.414  26.844  29.992  1.00  0.00     0.074 A 
ATOM     24  C   UNL A   1      44.263  27.196  29.196  1.00  0.00     0.031 C 
ATOM     25  C   UNL A   1      43.246  27.702  36.019  1.00  0.00     0.029 A 
ATOM     26  C   UNL A   1      44.530  27.120  35.635  1.00  0.00     0.049 A 
ATOM     27  H   UNL A   1      45.203  26.701  33.708  1.00  0.00     0.167 HD
ATOM     28  C   UNL A   1      46.609  26.493  29.471  1.00  0.00     0.034 A 
ATOM     29  C   UNL A   1      45.524  26.755  36.469  1.00  0.00     0.034 A 
ATOM     30  C   UNL A   1      47.718  26.072  30.271  1.00  0.00     0.049 A 
ATOM     31  C   UNL A   1      46.802  26.233  35.860  1.00  0.00     0.074 A 
ATOM     32  C   UNL A   1      48.937  25.571  29.864  1.00  0.00     0.029 A 
ATOM     33  N   UNL A   1      47.718  26.071  31.659  1.00  0.00    -0.354 N 
ATOM     34  N   UNL A   1      47.159  26.189  34.597  1.00  0.00    -0.248 NA
ATOM     35  C   UNL A   1      47.822  25.723  36.788  1.00  0.00     0.031 C 
ATOM     36  C   UNL A   1      49.666  25.237  31.011  1.00  0.00     0.029 A 
ATOM     37  C   UNL A   1      48.909  25.558  32.130  1.00  0.00     0.049 A 
ATOM     38  H   UNL A   1      46.977  26.389  32.225  1.00  0.00     0.167 HD
ATOM     39  C   UNL A   1      48.449  25.673  34.578  1.00  0.00     0.074 A 
ATOM     40  C   UNL A   1      48.820  25.442  35.960  1.00  0.00     0.031 C 
ATOM     41  C   UNL A   1      49.252  25.394  33.520  1.00  0.00     0.034 A 
BRANCH  28  42
ATOM     42  C   UNL A   1      46.710  26.484  27.974  1.00  0.00     0.023 A 
ATOM     43  C   UNL A   1      47.004  27.676  27.282  1.00  0.00     0.012 A 
ATOM     44  C   UNL A   1      46.426  25.312  27.250  1.00  0.00     0.148 A 
ATOM     45  C   UNL A   1      46.986  27.706  25.888  1.00  0.00     0.002 A 
ATOM     46  C   UNL A   1      46.434  25.343  25.861  1.00  0.00     0.091 A 
ATOM     47  F   UNL A   1      46.101  24.204  27.932  1.00  0.00    -0.205 F 
ATOM     48  C   UNL A   1      46.705  26.541  25.178  1.00  0.00     0.022 A 
BRANCH  46  49
ATOM     49  S   UNL A   1      46.100  23.888  24.865  1.00  0.00     0.127 S 
ATOM     50  O   UNL A   1      47.115  24.008  23.819  1.00  0.00    -0.237 OA
ATOM     51  O   UNL A   1      46.332  22.804  25.819  1.00  0.00    -0.237 OA
ATOM     52  O   UNL A   1      44.721  24.017  24.418  1.00  0.00    -0.744 OA
ENDBRANCH  46  49
ENDBRANCH  28  42
BRANCH  29  53
ATOM     53  C   UNL A   1      45.362  26.879  37.948  1.00  0.00     0.023 A 
ATOM     54  C   UNL A   1      44.843  25.802  38.693  1.00  0.00     0.012 A 
ATOM     55  C   UNL A   1      45.716  28.065  38.623  1.00  0.00     0.148 A 
ATOM     56  C   UNL A   1      44.657  25.913  40.074  1.00  0.00     0.002 A 
ATOM     57  C   UNL A   1      45.578  28.150  40.006  1.00  0.00     0.091 A 
ATOM     58  F   UNL A   1      46.174  29.096  37.901  1.00  0.00    -0.205 F 
ATOM     59  C   UNL A   1      45.034  27.080  40.732  1.00  0.00     0.022 A 
BRANCH  57  60
ATOM     60  S   UNL A   1      46.152  29.576  40.936  1.00  0.00     0.127 S 
ATOM     61  O   UNL A   1      47.555  29.651  40.534  1.00  0.00    -0.237 OA
ATOM     62  O   UNL A   1      45.303  30.647  40.414  1.00  0.00    -0.237 OA
ATOM     63  O   UNL A   1      45.907  29.250  42.335  1.00  0.00    -0.744 OA
ENDBRANCH  57  60
ENDBRANCH  29  53
BRANCH  41  64
ATOM     64  C   UNL A   1      50.611  24.825  33.812  1.00  0.00     0.023 A 
ATOM     65  C   UNL A   1      51.666  25.688  34.167  1.00  0.00     0.012 A 
ATOM     66  C   UNL A   1      50.808  23.432  33.852  1.00  0.00     0.148 A 
ATOM     67  C   UNL A   1      52.905  25.171  34.540  1.00  0.00     0.002 A 
ATOM     68  C   UNL A   1      52.030  22.923  34.271  1.00  0.00     0.091 A 
ATOM     69  F   UNL A   1      49.796  22.630  33.488  1.00  0.00    -0.205 F 
ATOM     70  C   UNL A   1      53.082  23.790  34.606  1.00  0.00     0.022 A 
BRANCH  68  71
ATOM     71  S   UNL A   1      52.293  21.160  34.490  1.00  0.00     0.127 S 
ATOM     72  O   UNL A   1      51.601  20.608  33.328  1.00  0.00    -0.237 OA
ATOM     73  O   UNL A   1      53.752  21.050  34.441  1.00  0.00    -0.237 OA
ATOM     74  O   UNL A   1      51.713  20.835  35.787  1.00  0.00    -0.744 OA
ENDBRANCH  68  71
ENDBRANCH  41  64
ENDBRANCH  15  16
ENDBRANCH   8  10
ENDBRANCH   7   8
ENDBRANCH   6   7
ENDBRANCH   5   6
ENDBRANCH   4   5
ENDBRANCH   3   4
ENDBRANCH   2   3
ENDBRANCH   1   2
BRANCH   1  75
ATOM     75  C   UNL A   1      33.695  28.310  24.390  1.00  0.00     0.188 C 
BRANCH  75  76
ATOM     76  C   UNL A   1      33.270  28.203  22.916  1.00  0.00     0.188 C 
BRANCH  76  77
ATOM     77  O   UNL A   1      32.206  27.331  22.562  1.00  0.00    -0.376 OA
BRANCH  77  78
ATOM     78  C   UNL A   1      32.510  26.084  21.938  1.00  0.00     0.202 C 
BRANCH  78  79
ATOM     79  C   UNL A   1      32.773  24.908  22.882  1.00  0.00     0.261 C 
BRANCH  79  80
ATOM     80  O   UNL A   1      31.740  23.920  22.683  1.00  0.00    -0.462 OA
BRANCH  80  81
ATOM     81  C   UNL A   1      31.970  22.670  23.115  1.00  0.00     0.328 C 
ATOM     82  O   UNL A   1      31.914  21.677  22.395  1.00  0.00    -0.250 OA
BRANCH  81  83
ATOM     83  C   UNL A   1      32.516  22.611  24.559  1.00  0.00     0.195 C 
ATOM     84  C   UNL A   1      34.062  22.779  24.329  1.00  0.00     0.046 C 
ATOM     85  N   UNL A   1      32.299  23.510  25.720  1.00  0.00    -0.328 N 
ATOM     86  C   UNL A   1      34.699  23.035  25.704  1.00  0.00     0.001 C 
ATOM     87  C   UNL A   1      33.519  23.570  26.522  1.00  0.00     0.128 C 
ATOM     88  C   UNL A   1      35.825  24.105  25.725  1.00  0.00     0.071 C 
ATOM     89  C   UNL A   1      35.257  21.714  26.276  1.00  0.00     0.071 C 
ATOM     90  C   UNL A   1      37.158  23.647  25.138  1.00  0.00     0.271 C 
ATOM     91  C   UNL A   1      36.566  21.302  25.595  1.00  0.00     0.271 C 
ATOM     92  N   UNL A   1      37.562  22.361  25.703  1.00  0.00    -0.267 N 
ATOM     93  H   UNL A   1      37.693  22.339  24.727  1.00  0.00     0.357 HD
BRANCH  85  94
ATOM     94  C   UNL A   1      31.177  23.962  26.431  1.00  0.00     0.226 C 
ATOM     95  O   UNL A   1      30.752  23.260  27.356  1.00  0.00    -0.275 OA
BRANCH  94  96
ATOM     96  C   UNL A   1      30.385  25.202  26.232  1.00  0.00     0.079 C 
ATOM     97  C   UNL A   1      30.885  26.546  25.807  1.00  0.00     0.014 C 
ATOM     98  C   UNL A   1      29.917  25.789  24.941  1.00  0.00     0.014 C 
ENDBRANCH  94  96
ENDBRANCH  85  94
BRANCH  92  99
ATOM     99  C   UNL A   1      38.851  22.012  26.107  1.00  0.00     0.344 C 
ATOM    100  O   UNL A   1      39.272  20.856  26.080  1.00  0.00    -0.226 OA
BRANCH  99 101
ATOM    101  C   UNL A   1      39.778  23.039  26.633  1.00  0.00     0.083 A 
ATOM    102  C   UNL A   1      39.301  24.114  27.394  1.00  0.00     0.018 A 
ATOM    103  C   UNL A   1      41.154  22.828  26.502  1.00  0.00     0.064 A 
ATOM    104  C   UNL A   1      40.206  24.994  27.993  1.00  0.00     0.005 A 
ATOM    105  C   UNL A   1      42.043  23.711  27.104  1.00  0.00     0.116 A 
ATOM    106  C   UNL A   1      41.582  24.794  27.847  1.00  0.00     0.046 A 
BRANCH 105 107
ATOM    107  O   UNL A   1      43.376  23.467  26.959  1.00  0.00    -0.508 OA
ATOM    108  H   UNL A   1      43.978  23.740  27.625  1.00  0.00     0.293 HD
ENDBRANCH 105 107
ENDBRANCH  99 101
ENDBRANCH  92  99
ENDBRANCH  81  83
ENDBRANCH  80  81
ENDBRANCH  79  80
ENDBRANCH  78  79
ENDBRANCH  77  78
ENDBRANCH  76  77
ENDBRANCH  75  76
ENDBRANCH   1  75
TORSDOF 28
ENDMDL
MODEL 2
REMARK VINA RESULT:      -9.2      6.219      7.811
REMARK SMILES O=C(OCCOCCOCCOCCOC(=O)[C@H]1CC2(CC[NH+](C(=O)c3cccc(O)c3)CC2)CN1C(=O)C1CC1)c1ccc(-c2c3nc(c(-c4cccc(S(=O)(=O)[O-])c4F)c4ccc([nH]4)c(-c4cccc(S(=O)(=O)[O-])c4F)c4nc(c(-c5cccc(S(=O)(=O)[O-])c5F)c5ccc2[nH]5)C=C4)C=C3)cc1
REMARK SMILES IDX 9 1 8 2 7 3 6 4 5 5 4 6 3 7 2 8 1 9 42 10 43 11 104 12 44 13
REMARK SMILES IDX 103 14 45 15 46 16 47 17 97 18 48 19 102 20 96 21 98 22
REMARK SMILES IDX 49 23 101 24 95 25 94 26 50 28 82 29 62 30 81 31 63 32 66 33
REMARK SMILES IDX 80 34 99 35 64 36 65 37 79 39 100 40 67 41 51 42 52 43 60 44
REMARK SMILES IDX 53 45 55 46 61 47 54 48 56 49 57 50 58 51 59 52 83 53 84 54
REMARK SMILES IDX 92 55 85 56 87 57 93 58 86 59 88 60 89 61 90 62 91 63 68 64
REMARK SMILES IDX 69 65 77 66 70 67 72 68 78 69 71 70 73 71 74 72 75 73 76 74
REMARK SMILES IDX 10 75 11 76 12 77 13 78 14 79 15 80 16 81 17 82 18 83 19 84
REMARK SMILES IDX 36 85 20 86 35 87 21 88 34 89 22 90 33 91 23 92 37 94 38 95
REMARK SMILES IDX 39 96 40 97 41 98 24 99 25 100 26 101 27 102 32 103 28 104
REMARK SMILES IDX 30 105 29 106 31 107
REMARK H PARENT 98 27 66 38 23 93 31 108
REMARK Flexibility Score: inf
ROOT
ATOM      1  O   UNL A   1      34.035  28.555  23.992  1.00  0.00    -0.377 OA
ENDROOT
BRANCH   1   2
ATOM      2  C   UNL A   1      33.690  28.910  25.320  1.00  0.00     0.188 C 
BRANCH   2   3
ATOM      3  C   UNL A   1      32.338  29.600  25.426  1.00  0.00     0.188 C 
BRANCH   3   4
ATOM      4  O   UNL A   1      32.041  30.164  26.709  1.00  0.00    -0.376 OA
BRANCH   4   5
ATOM      5  C   UNL A   1      32.923  31.136  27.266  1.00  0.00     0.202 C 
BRANCH   5   6
ATOM      6  C   UNL A   1      32.438  32.585  27.411  1.00  0.00     0.261 C 
BRANCH   6   7
ATOM      7  O   UNL A   1      33.471  33.512  27.749  1.00  0.00    -0.460 OA
BRANCH   7   8
ATOM      8  C   UNL A   1      33.374  34.179  28.932  1.00  0.00     0.338 C 
ATOM      9  O   UNL A   1      32.545  35.064  29.108  1.00  0.00    -0.246 OA
BRANCH   8  10
ATOM     10  C   UNL A   1      34.541  34.010  29.842  1.00  0.00     0.060 A 
ATOM     11  C   UNL A   1      35.025  35.053  30.634  1.00  0.00     0.016 A 
ATOM     12  C   UNL A   1      35.159  32.752  29.921  1.00  0.00     0.016 A 
ATOM     13  C   UNL A   1      36.028  34.837  31.560  1.00  0.00     0.010 A 
ATOM     14  C   UNL A   1      36.243  32.551  30.786  1.00  0.00     0.010 A 
ATOM     15  C   UNL A   1      36.682  33.606  31.594  1.00  0.00    -0.014 A 
BRANCH  15  16
ATOM     16  C   UNL A   1      38.011  33.642  32.228  1.00  0.00     0.031 A 
ATOM     17  C   UNL A   1      39.166  33.928  31.309  1.00  0.00     0.074 A 
ATOM     18  C   UNL A   1      38.142  33.676  33.564  1.00  0.00     0.049 A 
ATOM     19  N   UNL A   1      40.384  34.294  31.597  1.00  0.00    -0.248 NA
ATOM     20  C   UNL A   1      38.879  33.870  29.862  1.00  0.00     0.031 C 
ATOM     21  C   UNL A   1      37.048  33.547  34.525  1.00  0.00     0.029 A 
ATOM     22  N   UNL A   1      39.253  33.876  34.339  1.00  0.00    -0.354 N 
ATOM     23  C   UNL A   1      41.000  34.517  30.373  1.00  0.00     0.074 A 
ATOM     24  C   UNL A   1      40.023  34.277  29.339  1.00  0.00     0.031 C 
ATOM     25  C   UNL A   1      37.546  33.671  35.769  1.00  0.00     0.029 A 
ATOM     26  C   UNL A   1      38.991  33.872  35.688  1.00  0.00     0.049 A 
ATOM     27  H   UNL A   1      40.155  34.009  33.965  1.00  0.00     0.167 HD
ATOM     28  C   UNL A   1      42.277  34.879  30.129  1.00  0.00     0.034 A 
ATOM     29  C   UNL A   1      39.838  34.017  36.727  1.00  0.00     0.034 A 
ATOM     30  C   UNL A   1      43.256  35.038  31.162  1.00  0.00     0.049 A 
ATOM     31  C   UNL A   1      41.292  34.283  36.423  1.00  0.00     0.074 A 
ATOM     32  C   UNL A   1      44.609  35.277  31.041  1.00  0.00     0.029 A 
ATOM     33  N   UNL A   1      42.977  34.935  32.518  1.00  0.00    -0.354 N 
ATOM     34  N   UNL A   1      41.863  34.526  35.265  1.00  0.00    -0.248 NA
ATOM     35  C   UNL A   1      42.217  34.312  37.564  1.00  0.00     0.031 C 
ATOM     36  C   UNL A   1      45.157  35.287  32.329  1.00  0.00     0.029 A 
ATOM     37  C   UNL A   1      44.137  35.083  33.249  1.00  0.00     0.049 A 
ATOM     38  H   UNL A   1      42.084  34.777  32.901  1.00  0.00     0.167 HD
ATOM     39  C   UNL A   1      43.206  34.759  35.540  1.00  0.00     0.074 A 
ATOM     40  C   UNL A   1      43.356  34.653  36.977  1.00  0.00     0.031 C 
ATOM     41  C   UNL A   1      44.229  35.019  34.686  1.00  0.00     0.034 A 
BRANCH  28  42
ATOM     42  C   UNL A   1      42.666  35.035  28.689  1.00  0.00     0.023 A 
ATOM     43  C   UNL A   1      42.269  36.183  27.974  1.00  0.00     0.012 A 
ATOM     44  C   UNL A   1      43.349  34.002  28.022  1.00  0.00     0.148 A 
ATOM     45  C   UNL A   1      42.523  36.287  26.606  1.00  0.00     0.002 A 
ATOM     46  C   UNL A   1      43.621  34.123  26.664  1.00  0.00     0.091 A 
ATOM     47  F   UNL A   1      43.671  32.900  28.713  1.00  0.00    -0.205 F 
ATOM     48  C   UNL A   1      43.201  35.260  25.954  1.00  0.00     0.022 A 
BRANCH  46  49
ATOM     49  S   UNL A   1      44.502  32.859  25.745  1.00  0.00     0.127 S 
ATOM     50  O   UNL A   1      44.099  33.160  24.371  1.00  0.00    -0.237 OA
ATOM     51  O   UNL A   1      45.897  33.171  26.054  1.00  0.00    -0.237 OA
ATOM     52  O   UNL A   1      44.036  31.584  26.270  1.00  0.00    -0.744 OA
ENDBRANCH  46  49
ENDBRANCH  28  42
BRANCH  29  53
ATOM     53  C   UNL A   1      39.343  33.928  38.133  1.00  0.00     0.023 A 
ATOM     54  C   UNL A   1      38.826  32.713  38.623  1.00  0.00     0.012 A 
ATOM     55  C   UNL A   1      39.375  35.048  38.989  1.00  0.00     0.148 A 
ATOM     56  C   UNL A   1      38.330  32.622  39.926  1.00  0.00     0.002 A 
ATOM     57  C   UNL A   1      38.929  34.936  40.303  1.00  0.00     0.091 A 
ATOM     58  F   UNL A   1      39.835  36.209  38.503  1.00  0.00    -0.205 F 
ATOM     59  C   UNL A   1      38.391  33.728  40.769  1.00  0.00     0.022 A 
BRANCH  57  60
ATOM     60  S   UNL A   1      39.087  36.283  41.482  1.00  0.00     0.127 S 
ATOM     61  O   UNL A   1      38.366  35.755  42.638  1.00  0.00    -0.237 OA
ATOM     62  O   UNL A   1      40.537  36.377  41.650  1.00  0.00    -0.237 OA
ATOM     63  O   UNL A   1      38.487  37.440  40.831  1.00  0.00    -0.744 OA
ENDBRANCH  57  60
ENDBRANCH  29  53
BRANCH  41  64
ATOM     64  C   UNL A   1      45.593  35.220  35.281  1.00  0.00     0.023 A 
ATOM     65  C   UNL A   1      45.998  36.511  35.672  1.00  0.00     0.012 A 
ATOM     66  C   UNL A   1      46.420  34.116  35.559  1.00  0.00     0.148 A 
ATOM     67  C   UNL A   1      47.218  36.701  36.318  1.00  0.00     0.002 A 
ATOM     68  C   UNL A   1      47.612  34.307  36.246  1.00  0.00     0.091 A 
ATOM     69  F   UNL A   1      46.024  32.899  35.156  1.00  0.00    -0.205 F 
ATOM     70  C   UNL A   1      48.017  35.599  36.618  1.00  0.00     0.022 A 
BRANCH  68  71
ATOM     71  S   UNL A   1      48.634  32.925  36.766  1.00  0.00     0.127 S 
ATOM     72  O   UNL A   1      47.702  32.158  37.591  1.00  0.00    -0.237 OA
ATOM     73  O   UNL A   1      48.983  32.294  35.492  1.00  0.00    -0.237 OA
ATOM     74  O   UNL A   1      49.765  33.516  37.470  1.00  0.00    -0.744 OA
ENDBRANCH  68  71
ENDBRANCH  41  64
ENDBRANCH  15  16
ENDBRANCH   8  10
ENDBRANCH   7   8
ENDBRANCH   6   7
ENDBRANCH   5   6
ENDBRANCH   4   5
ENDBRANCH   3   4
ENDBRANCH   2   3
ENDBRANCH   1   2
BRANCH   1  75
ATOM     75  C   UNL A   1      33.476  27.352  23.504  1.00  0.00     0.188 C 
BRANCH  75  76
ATOM     76  C   UNL A   1      32.885  27.390  22.085  1.00  0.00     0.188 C 
BRANCH  76  77
ATOM     77  O   UNL A   1      31.993  26.362  21.676  1.00  0.00    -0.376 OA
BRANCH  77  78
ATOM     78  C   UNL A   1      32.520  25.200  21.039  1.00  0.00     0.202 C 
BRANCH  78  79
ATOM     79  C   UNL A   1      32.984  24.075  21.969  1.00  0.00     0.261 C 
BRANCH  79  80
ATOM     80  O   UNL A   1      31.821  23.479  22.582  1.00  0.00    -0.462 OA
BRANCH  80  81
ATOM     81  C   UNL A   1      31.965  22.287  23.181  1.00  0.00     0.328 C 
ATOM     82  O   UNL A   1      31.835  21.211  22.604  1.00  0.00    -0.250 OA
BRANCH  81  83
ATOM     83  C   UNL A   1      32.515  22.387  24.622  1.00  0.00     0.195 C 
ATOM     84  C   UNL A   1      34.051  22.605  24.369  1.00  0.00     0.046 C 
ATOM     85  N   UNL A   1      32.256  23.378  25.695  1.00  0.00    -0.328 N 
ATOM     86  C   UNL A   1      34.676  23.016  25.711  1.00  0.00     0.001 C 
ATOM     87  C   UNL A   1      33.473  23.570  26.482  1.00  0.00     0.128 C 
ATOM     88  C   UNL A   1      35.751  24.136  25.628  1.00  0.00     0.071 C 
ATOM     89  C   UNL A   1      35.296  21.782  26.400  1.00  0.00     0.071 C 
ATOM     90  C   UNL A   1      37.103  23.687  25.079  1.00  0.00     0.271 C 
ATOM     91  C   UNL A   1      36.622  21.369  25.754  1.00  0.00     0.271 C 
ATOM     92  N   UNL A   1      37.567  22.479  25.758  1.00  0.00    -0.267 N 
ATOM     93  H   UNL A   1      37.698  22.373  24.788  1.00  0.00     0.357 HD
BRANCH  85  94
ATOM     94  C   UNL A   1      31.115  23.842  26.367  1.00  0.00     0.226 C 
ATOM     95  O   UNL A   1      30.649  23.143  27.274  1.00  0.00    -0.275 OA
BRANCH  94  96
ATOM     96  C   UNL A   1      30.346  25.092  26.144  1.00  0.00     0.079 C 
ATOM     97  C   UNL A   1      30.885  26.477  25.969  1.00  0.00     0.014 C 
ATOM     98  C   UNL A   1      30.127  25.811  24.854  1.00  0.00     0.014 C 
ENDBRANCH  94  96
ENDBRANCH  85  94
BRANCH  92  99
ATOM     99  C   UNL A   1      38.871  22.230  26.186  1.00  0.00     0.344 C 
ATOM    100  O   UNL A   1      39.431  21.144  26.036  1.00  0.00    -0.226 OA
BRANCH  99 101
ATOM    101  C   UNL A   1      39.645  23.276  26.891  1.00  0.00     0.083 A 
ATOM    102  C   UNL A   1      39.091  24.541  27.128  1.00  0.00     0.018 A 
ATOM    103  C   UNL A   1      40.873  22.929  27.464  1.00  0.00     0.064 A 
ATOM    104  C   UNL A   1      39.787  25.466  27.912  1.00  0.00     0.005 A 
ATOM    105  C   UNL A   1      41.553  23.859  28.242  1.00  0.00     0.116 A 
ATOM    106  C   UNL A   1      41.022  25.126  28.470  1.00  0.00     0.046 A 
BRANCH 105 107
ATOM    107  O   UNL A   1      42.743  23.480  28.789  1.00  0.00    -0.508 OA
ATOM    108  H   UNL A   1      43.461  23.248  28.233  1.00  0.00     0.293 HD
ENDBRANCH 105 107
ENDBRANCH  99 101
ENDBRANCH  92  99
ENDBRANCH  81  83
ENDBRANCH  80  81
ENDBRANCH  79  80
ENDBRANCH  78  79
ENDBRANCH  77  78
ENDBRANCH  76  77
ENDBRANCH  75  76
ENDBRANCH   1  75
TORSDOF 28
ENDMDL
MODEL 3
REMARK VINA RESULT:      -9.1      5.792      9.093
REMARK SMILES O=C(OCCOCCOCCOCCOC(=O)[C@H]1CC2(CC[NH+](C(=O)c3cccc(O)c3)CC2)CN1C(=O)C1CC1)c1ccc(-c2c3nc(c(-c4cccc(S(=O)(=O)[O-])c4F)c4ccc([nH]4)c(-c4cccc(S(=O)(=O)[O-])c4F)c4nc(c(-c5cccc(S(=O)(=O)[O-])c5F)c5ccc2[nH]5)C=C4)C=C3)cc1
REMARK SMILES IDX 9 1 8 2 7 3 6 4 5 5 4 6 3 7 2 8 1 9 42 10 43 11 104 12 44 13
REMARK SMILES IDX 103 14 45 15 46 16 47 17 97 18 48 19 102 20 96 21 98 22
REMARK SMILES IDX 49 23 101 24 95 25 94 26 50 28 82 29 62 30 81 31 63 32 66 33
REMARK SMILES IDX 80 34 99 35 64 36 65 37 79 39 100 40 67 41 51 42 52 43 60 44
REMARK SMILES IDX 53 45 55 46 61 47 54 48 56 49 57 50 58 51 59 52 83 53 84 54
REMARK SMILES IDX 92 55 85 56 87 57 93 58 86 59 88 60 89 61 90 62 91 63 68 64
REMARK SMILES IDX 69 65 77 66 70 67 72 68 78 69 71 70 73 71 74 72 75 73 76 74
REMARK SMILES IDX 10 75 11 76 12 77 13 78 14 79 15 80 16 81 17 82 18 83 19 84
REMARK SMILES IDX 36 85 20 86 35 87 21 88 34 89 22 90 33 91 23 92 37 94 38 95
REMARK SMILES IDX 39 96 40 97 41 98 24 99 25 100 26 101 27 102 32 103 28 104
REMARK SMILES IDX 30 105 29 106 31 107
REMARK H PARENT 98 27 66 38 23 93 31 108
REMARK Flexibility Score: inf
ROOT
ATOM      1  O   UNL A   1      38.479  31.490  29.982  1.00  0.00    -0.377 OA
ENDROOT
BRANCH   1   2
ATOM      2  C   UNL A   1      37.316  32.257  30.242  1.00  0.00     0.188 C 
BRANCH   2   3
ATOM      3  C   UNL A   1      37.264  33.557  29.452  1.00  0.00     0.188 C 
BRANCH   3   4
ATOM      4  O   UNL A   1      38.524  34.008  28.940  1.00  0.00    -0.376 OA
BRANCH   4   5
ATOM      5  C   UNL A   1      39.418  34.707  29.802  1.00  0.00     0.202 C 
BRANCH   5   6
ATOM      6  C   UNL A   1      40.890  34.274  29.858  1.00  0.00     0.261 C 
BRANCH   6   7
ATOM      7  O   UNL A   1      41.814  35.309  29.518  1.00  0.00    -0.460 OA
BRANCH   7   8
ATOM      8  C   UNL A   1      42.250  35.383  28.230  1.00  0.00     0.338 C 
ATOM      9  O   UNL A   1      41.563  35.874  27.343  1.00  0.00    -0.246 OA
BRANCH   8  10
ATOM     10  C   UNL A   1      43.433  34.530  27.921  1.00  0.00     0.060 A 
ATOM     11  C   UNL A   1      43.626  33.954  26.664  1.00  0.00     0.016 A 
ATOM     12  C   UNL A   1      44.393  34.318  28.923  1.00  0.00     0.016 A 
ATOM     13  C   UNL A   1      44.791  33.271  26.366  1.00  0.00     0.010 A 
ATOM     14  C   UNL A   1      45.530  33.543  28.658  1.00  0.00     0.010 A 
ATOM     15  C   UNL A   1      45.714  33.009  27.377  1.00  0.00    -0.014 A 
BRANCH  15  16
ATOM     16  C   UNL A   1      46.627  31.889  27.091  1.00  0.00     0.031 A 
ATOM     17  C   UNL A   1      48.022  32.271  26.681  1.00  0.00     0.074 A 
ATOM     18  C   UNL A   1      46.307  30.629  27.427  1.00  0.00     0.049 A 
ATOM     19  N   UNL A   1      49.102  31.543  26.638  1.00  0.00    -0.248 NA
ATOM     20  C   UNL A   1      48.239  33.695  26.351  1.00  0.00     0.031 C 
ATOM     21  C   UNL A   1      45.018  30.199  27.966  1.00  0.00     0.029 A 
ATOM     22  N   UNL A   1      47.063  29.488  27.404  1.00  0.00    -0.354 N 
ATOM     23  C   UNL A   1      50.122  32.419  26.288  1.00  0.00     0.074 A 
ATOM     24  C   UNL A   1      49.546  33.735  26.158  1.00  0.00     0.031 C 
ATOM     25  C   UNL A   1      45.073  28.879  28.223  1.00  0.00     0.029 A 
ATOM     26  C   UNL A   1      46.394  28.375  27.853  1.00  0.00     0.049 A 
ATOM     27  H   UNL A   1      47.997  29.467  27.094  1.00  0.00     0.167 HD
ATOM     28  C   UNL A   1      51.428  32.147  26.079  1.00  0.00     0.034 A 
ATOM     29  C   UNL A   1      46.817  27.099  27.946  1.00  0.00     0.034 A 
ATOM     30  C   UNL A   1      51.970  30.823  26.137  1.00  0.00     0.049 A 
ATOM     31  C   UNL A   1      48.248  26.799  27.572  1.00  0.00     0.074 A 
ATOM     32  C   UNL A   1      53.243  30.396  25.822  1.00  0.00     0.029 A 
ATOM     33  N   UNL A   1      51.240  29.701  26.504  1.00  0.00    -0.354 N 
ATOM     34  N   UNL A   1      49.217  27.635  27.273  1.00  0.00    -0.248 NA
ATOM     35  C   UNL A   1      48.652  25.386  27.561  1.00  0.00     0.031 C 
ATOM     36  C   UNL A   1      53.276  29.005  25.971  1.00  0.00     0.029 A 
ATOM     37  C   UNL A   1      52.029  28.573  26.406  1.00  0.00     0.049 A 
ATOM     38  H   UNL A   1      50.298  29.708  26.792  1.00  0.00     0.167 HD
ATOM     39  C   UNL A   1      50.347  26.854  27.063  1.00  0.00     0.074 A 
ATOM     40  C   UNL A   1      49.948  25.480  27.293  1.00  0.00     0.031 C 
ATOM     41  C   UNL A   1      51.599  27.229  26.695  1.00  0.00     0.034 A 
BRANCH  28  42
ATOM     42  C   UNL A   1      52.300  33.305  25.696  1.00  0.00     0.023 A 
ATOM     43  C   UNL A   1      52.348  33.736  24.355  1.00  0.00     0.012 A 
ATOM     44  C   UNL A   1      53.137  33.909  26.651  1.00  0.00     0.148 A 
ATOM     45  C   UNL A   1      53.240  34.735  23.966  1.00  0.00     0.002 A 
ATOM     46  C   UNL A   1      54.006  34.921  26.260  1.00  0.00     0.091 A 
ATOM     47  F   UNL A   1      53.108  33.447  27.909  1.00  0.00    -0.205 F 
ATOM     48  C   UNL A   1      54.066  35.329  24.917  1.00  0.00     0.022 A 
BRANCH  46  49
ATOM     49  S   UNL A   1      55.094  35.754  27.420  1.00  0.00     0.127 S 
ATOM     50  O   UNL A   1      54.140  36.254  28.410  1.00  0.00    -0.237 OA
ATOM     51  O   UNL A   1      55.941  34.657  27.888  1.00  0.00    -0.237 OA
ATOM     52  O   UNL A   1      55.792  36.774  26.651  1.00  0.00    -0.744 OA
ENDBRANCH  46  49
ENDBRANCH  28  42
BRANCH  29  53
ATOM     53  C   UNL A   1      45.897  26.022  28.420  1.00  0.00     0.023 A 
ATOM     54  C   UNL A   1      45.869  25.669  29.783  1.00  0.00     0.012 A 
ATOM     55  C   UNL A   1      45.051  25.339  27.523  1.00  0.00     0.148 A 
ATOM     56  C   UNL A   1      45.037  24.643  30.238  1.00  0.00     0.002 A 
ATOM     57  C   UNL A   1      44.185  24.355  27.991  1.00  0.00     0.091 A 
ATOM     58  F   UNL A   1      45.111  25.657  26.223  1.00  0.00    -0.205 F 
ATOM     59  C   UNL A   1      44.187  23.994  29.346  1.00  0.00     0.022 A 
BRANCH  57  60
ATOM     60  S   UNL A   1      42.978  23.559  26.923  1.00  0.00     0.127 S 
ATOM     61  O   UNL A   1      43.787  22.533  26.270  1.00  0.00    -0.237 OA
ATOM     62  O   UNL A   1      42.001  23.052  27.887  1.00  0.00    -0.237 OA
ATOM     63  O   UNL A   1      42.469  24.616  26.059  1.00  0.00    -0.744 OA
ENDBRANCH  57  60
ENDBRANCH  29  53
BRANCH  41  64
ATOM     64  C   UNL A   1      52.628  26.146  26.532  1.00  0.00     0.023 A 
ATOM     65  C   UNL A   1      52.555  25.277  25.426  1.00  0.00     0.012 A 
ATOM     66  C   UNL A   1      53.727  26.070  27.408  1.00  0.00     0.148 A 
ATOM     67  C   UNL A   1      53.557  24.335  25.205  1.00  0.00     0.002 A 
ATOM     68  C   UNL A   1      54.745  25.161  27.153  1.00  0.00     0.091 A 
ATOM     69  F   UNL A   1      53.762  26.893  28.467  1.00  0.00    -0.205 F 
ATOM     70  C   UNL A   1      54.658  24.286  26.058  1.00  0.00     0.022 A 
BRANCH  68  71
ATOM     71  S   UNL A   1      56.243  25.120  28.142  1.00  0.00     0.127 S 
ATOM     72  O   UNL A   1      55.715  24.841  29.475  1.00  0.00    -0.237 OA
ATOM     73  O   UNL A   1      56.991  24.016  27.538  1.00  0.00    -0.237 OA
ATOM     74  O   UNL A   1      56.864  26.428  27.967  1.00  0.00    -0.744 OA
ENDBRANCH  68  71
ENDBRANCH  41  64
ENDBRANCH  15  16
ENDBRANCH   8  10
ENDBRANCH   7   8
ENDBRANCH   6   7
ENDBRANCH   5   6
ENDBRANCH   4   5
ENDBRANCH   3   4
ENDBRANCH   2   3
ENDBRANCH   1   2
BRANCH   1  75
ATOM     75  C   UNL A   1      38.267  30.196  29.454  1.00  0.00     0.188 C 
BRANCH  75  76
ATOM     76  C   UNL A   1      36.806  29.731  29.331  1.00  0.00     0.188 C 
BRANCH  76  77
ATOM     77  O   UNL A   1      36.166  29.780  28.064  1.00  0.00    -0.376 OA
BRANCH  77  78
ATOM     78  C   UNL A   1      34.785  29.431  27.971  1.00  0.00     0.202 C 
BRANCH  78  79
ATOM     79  C   UNL A   1      33.896  30.407  27.196  1.00  0.00     0.261 C 
BRANCH  79  80
ATOM     80  O   UNL A   1      33.350  29.719  26.051  1.00  0.00    -0.462 OA
BRANCH  80  81
ATOM     81  C   UNL A   1      32.135  30.087  25.615  1.00  0.00     0.328 C 
ATOM     82  O   UNL A   1      31.440  30.938  26.162  1.00  0.00    -0.250 OA
BRANCH  81  83
ATOM     83  C   UNL A   1      31.772  29.488  24.237  1.00  0.00     0.195 C 
ATOM     84  C   UNL A   1      32.051  27.958  24.464  1.00  0.00     0.046 C 
ATOM     85  N   UNL A   1      30.481  29.439  23.506  1.00  0.00    -0.328 N 
ATOM     86  C   UNL A   1      31.451  27.205  23.266  1.00  0.00     0.001 C 
ATOM     87  C   UNL A   1      30.400  28.193  22.747  1.00  0.00     0.128 C 
ATOM     88  C   UNL A   1      30.731  25.873  23.612  1.00  0.00     0.071 C 
ATOM     89  C   UNL A   1      32.552  26.919  22.222  1.00  0.00     0.071 C 
ATOM     90  C   UNL A   1      31.660  24.707  23.941  1.00  0.00     0.271 C 
ATOM     91  C   UNL A   1      33.470  25.772  22.657  1.00  0.00     0.271 C 
ATOM     92  N   UNL A   1      32.698  24.564  22.922  1.00  0.00    -0.267 N 
ATOM     93  H   UNL A   1      33.111  24.495  23.814  1.00  0.00     0.357 HD
BRANCH  85  94
ATOM     94  C   UNL A   1      29.558  30.394  23.053  1.00  0.00     0.226 C 
ATOM     95  O   UNL A   1      29.000  31.109  23.893  1.00  0.00    -0.275 OA
BRANCH  94  96
ATOM     96  C   UNL A   1      29.127  30.686  21.663  1.00  0.00     0.079 C 
ATOM     97  C   UNL A   1      27.744  30.598  21.099  1.00  0.00     0.014 C 
ATOM     98  C   UNL A   1      28.458  31.921  21.155  1.00  0.00     0.014 C 
ENDBRANCH  94  96
ENDBRANCH  85  94
BRANCH  92  99
ATOM     99  C   UNL A   1      33.150  23.363  22.376  1.00  0.00     0.344 C 
ATOM    100  O   UNL A   1      33.583  23.269  21.227  1.00  0.00    -0.226 OA
BRANCH  99 101
ATOM    101  C   UNL A   1      33.091  22.109  23.161  1.00  0.00     0.083 A 
ATOM    102  C   UNL A   1      32.238  21.065  22.783  1.00  0.00     0.018 A 
ATOM    103  C   UNL A   1      34.022  21.919  24.187  1.00  0.00     0.064 A 
ATOM    104  C   UNL A   1      32.298  19.843  23.458  1.00  0.00     0.005 A 
ATOM    105  C   UNL A   1      34.071  20.698  24.849  1.00  0.00     0.116 A 
ATOM    106  C   UNL A   1      33.216  19.657  24.496  1.00  0.00     0.046 A 
BRANCH 105 107
ATOM    107  O   UNL A   1      34.997  20.549  25.839  1.00  0.00    -0.508 OA
ATOM    108  H   UNL A   1      34.854  19.926  26.525  1.00  0.00     0.293 HD
ENDBRANCH 105 107
ENDBRANCH  99 101
ENDBRANCH  92  99
ENDBRANCH  81  83
ENDBRANCH  80  81
ENDBRANCH  79  80
ENDBRANCH  78  79
ENDBRANCH  77  78
ENDBRANCH  76  77
ENDBRANCH  75  76
ENDBRANCH   1  75
TORSDOF 28
ENDMDL
