MODEL 1
REMARK VINA RESULT:      -9.6      0.000      0.000
REMARK SMILES CN(C)C(=O)CSc1ccc(C(=O)OCCOCCOCCOCCOC(=O)c2ccc(-c3c4nc(c(-c5cccc(S(=O)(=O)[O-])c5F)c5ccc([nH]5)c(-c5cccc(S(=O)(=O)[O-])c5F)c5nc(c(-c6cccc(S(=O)(=O)[O-])c6F)c6ccc3[nH]6)C=C5)C=C4)cc2)cc1
REMARK SMILES IDX 20 1 19 2 18 3 17 4 16 5 15 6 14 7 12 8 13 9 11 10 8 11 9 12
REMARK SMILES IDX 93 13 10 14 92 15 7 16 6 17 4 18 1 19 2 20 3 21 5 22 21 23
REMARK SMILES IDX 22 24 23 25 24 26 25 27 26 28 27 29 28 30 29 31 30 32 91 33
REMARK SMILES IDX 31 34 90 35 32 36 33 37 34 38 84 39 35 40 89 41 83 42 85 43
REMARK SMILES IDX 36 44 88 45 82 46 81 47 37 49 69 50 49 51 68 52 50 53 53 54
REMARK SMILES IDX 67 55 86 56 51 57 52 58 66 60 87 61 54 62 38 63 39 64 47 65
REMARK SMILES IDX 40 66 42 67 48 68 41 69 43 70 44 71 45 72 46 73 70 74 71 75
REMARK SMILES IDX 79 76 72 77 74 78 80 79 73 80 75 81 76 82 77 83 78 84 55 85
REMARK SMILES IDX 56 86 64 87 57 88 59 89 65 90 58 91 60 92 61 93 62 94 63 95
REMARK H PARENT 85 48 53 59
REMARK Flexibility Score: inf
ROOT
ATOM      1  O   UNL A   1      31.589  27.511  22.383  1.00  0.00    -0.377 OA
ENDROOT
BRANCH   1   2
ATOM      2  C   UNL A   1      32.995  27.585  22.548  1.00  0.00     0.188 C 
BRANCH   2   3
ATOM      3  C   UNL A   1      33.633  26.834  23.734  1.00  0.00     0.188 C 
BRANCH   3   4
ATOM      4  O   UNL A   1      33.638  27.566  24.946  1.00  0.00    -0.376 OA
BRANCH   4   5
ATOM      5  C   UNL A   1      33.281  26.928  26.158  1.00  0.00     0.202 C 
BRANCH   5   6
ATOM      6  C   UNL A   1      31.828  26.936  26.662  1.00  0.00     0.261 C 
BRANCH   6   7
ATOM      7  O   UNL A   1      30.823  26.542  25.724  1.00  0.00    -0.460 OA
BRANCH   7   8
ATOM      8  C   UNL A   1      30.076  25.467  26.046  1.00  0.00     0.338 C 
ATOM      9  O   UNL A   1      28.950  25.474  26.514  1.00  0.00    -0.246 OA
BRANCH   8  10
ATOM     10  C   UNL A   1      30.753  24.254  25.526  1.00  0.00     0.060 A 
ATOM     11  C   UNL A   1      32.081  21.919  24.677  1.00  0.00     0.008 A 
ATOM     12  C   UNL A   1      31.519  21.995  25.954  1.00  0.00     0.016 A 
ATOM     13  C   UNL A   1      31.923  23.012  23.810  1.00  0.00     0.016 A 
ATOM     14  C   UNL A   1      30.859  23.152  26.377  1.00  0.00     0.017 A 
ATOM     15  C   UNL A   1      31.252  24.172  24.224  1.00  0.00     0.017 A 
BRANCH  11  16
ATOM     16  S   UNL A   1      33.224  20.631  24.202  1.00  0.00    -0.116 SA
BRANCH  16  17
ATOM     17  C   UNL A   1      34.510  20.608  25.492  1.00  0.00     0.175 C 
BRANCH  17  18
ATOM     18  C   UNL A   1      35.795  21.357  25.184  1.00  0.00     0.232 C 
ATOM     19  C   UNL A   1      37.195  23.341  25.213  1.00  0.00     0.146 C 
ATOM     20  N   UNL A   1      35.911  22.712  25.480  1.00  0.00    -0.348 N 
ATOM     21  C   UNL A   1      34.894  23.516  26.138  1.00  0.00     0.146 C 
ATOM     22  O   UNL A   1      36.720  20.758  24.623  1.00  0.00    -0.274 OA
ENDBRANCH  17  18
ENDBRANCH  16  17
ENDBRANCH  11  16
ENDBRANCH   8  10
ENDBRANCH   7   8
ENDBRANCH   6   7
ENDBRANCH   5   6
ENDBRANCH   4   5
ENDBRANCH   3   4
ENDBRANCH   2   3
ENDBRANCH   1   2
BRANCH   1  23
ATOM     23  C   UNL A   1      30.804  28.701  22.348  1.00  0.00     0.188 C 
BRANCH  23  24
ATOM     24  C   UNL A   1      29.848  29.098  23.499  1.00  0.00     0.188 C 
BRANCH  24  25
ATOM     25  O   UNL A   1      30.242  30.241  24.241  1.00  0.00    -0.376 OA
BRANCH  25  26
ATOM     26  C   UNL A   1      31.319  30.100  25.147  1.00  0.00     0.202 C 
BRANCH  26  27
ATOM     27  C   UNL A   1      31.492  31.199  26.204  1.00  0.00     0.261 C 
BRANCH  27  28
ATOM     28  O   UNL A   1      32.604  31.050  27.097  1.00  0.00    -0.460 OA
BRANCH  28  29
ATOM     29  C   UNL A   1      33.286  32.163  27.437  1.00  0.00     0.338 C 
ATOM     30  O   UNL A   1      32.855  33.306  27.478  1.00  0.00    -0.246 OA
BRANCH  29  31
ATOM     31  C   UNL A   1      34.607  31.739  27.944  1.00  0.00     0.060 A 
ATOM     32  C   UNL A   1      34.813  30.393  28.279  1.00  0.00     0.016 A 
ATOM     33  C   UNL A   1      35.644  32.666  28.064  1.00  0.00     0.016 A 
ATOM     34  C   UNL A   1      36.052  29.979  28.768  1.00  0.00     0.010 A 
ATOM     35  C   UNL A   1      36.878  32.253  28.574  1.00  0.00     0.010 A 
ATOM     36  C   UNL A   1      37.076  30.915  28.959  1.00  0.00    -0.014 A 
BRANCH  36  37
ATOM     37  C   UNL A   1      38.281  30.543  29.739  1.00  0.00     0.031 A 
ATOM     38  C   UNL A   1      39.248  29.563  29.133  1.00  0.00     0.074 A 
ATOM     39  C   UNL A   1      38.513  31.055  30.961  1.00  0.00     0.049 A 
ATOM     40  N   UNL A   1      40.338  29.051  29.639  1.00  0.00    -0.248 NA
ATOM     41  C   UNL A   1      38.939  29.095  27.771  1.00  0.00     0.031 C 
ATOM     42  C   UNL A   1      37.660  32.020  31.651  1.00  0.00     0.029 A 
ATOM     43  N   UNL A   1      39.531  30.808  31.850  1.00  0.00    -0.354 N 
ATOM     44  C   UNL A   1      40.827  28.176  28.676  1.00  0.00     0.074 A 
ATOM     45  C   UNL A   1      39.909  28.219  27.559  1.00  0.00     0.031 C 
ATOM     46  C   UNL A   1      38.173  32.259  32.871  1.00  0.00     0.029 A 
ATOM     47  C   UNL A   1      39.372  31.444  33.058  1.00  0.00     0.049 A 
ATOM     48  H   UNL A   1      40.300  30.230  31.641  1.00  0.00     0.167 HD
ATOM     49  C   UNL A   1      41.944  27.414  28.711  1.00  0.00     0.034 A 
ATOM     50  C   UNL A   1      40.096  31.352  34.192  1.00  0.00     0.034 A 
ATOM     51  C   UNL A   1      42.860  27.379  29.818  1.00  0.00     0.049 A 
ATOM     52  C   UNL A   1      41.316  30.466  34.221  1.00  0.00     0.074 A 
ATOM     53  C   UNL A   1      44.044  26.674  29.931  1.00  0.00     0.029 A 
ATOM     54  N   UNL A   1      42.683  28.061  31.012  1.00  0.00    -0.354 N 
ATOM     55  N   UNL A   1      41.829  29.733  33.262  1.00  0.00    -0.248 NA
ATOM     56  C   UNL A   1      42.075  30.419  35.480  1.00  0.00     0.031 C 
ATOM     57  C   UNL A   1      44.563  26.896  31.212  1.00  0.00     0.029 A 
ATOM     58  C   UNL A   1      43.727  27.778  31.877  1.00  0.00     0.049 A 
ATOM     59  H   UNL A   1      41.928  28.658  31.216  1.00  0.00     0.167 HD
ATOM     60  C   UNL A   1      42.988  29.169  33.789  1.00  0.00     0.074 A 
ATOM     61  C   UNL A   1      43.111  29.663  35.144  1.00  0.00     0.031 C 
ATOM     62  C   UNL A   1      43.865  28.314  33.208  1.00  0.00     0.034 A 
BRANCH  49  63
ATOM     63  C   UNL A   1      42.242  26.554  27.510  1.00  0.00     0.023 A 
ATOM     64  C   UNL A   1      42.911  27.105  26.398  1.00  0.00     0.012 A 
ATOM     65  C   UNL A   1      41.900  25.189  27.504  1.00  0.00     0.148 A 
ATOM     66  C   UNL A   1      43.202  26.318  25.284  1.00  0.00     0.002 A 
ATOM     67  C   UNL A   1      42.238  24.399  26.413  1.00  0.00     0.091 A 
ATOM     68  F   UNL A   1      41.244  24.689  28.562  1.00  0.00    -0.205 F 
ATOM     69  C   UNL A   1      42.877  24.964  25.297  1.00  0.00     0.022 A 
BRANCH  67  70
ATOM     70  S   UNL A   1      41.935  22.630  26.365  1.00  0.00     0.127 S 
ATOM     71  O   UNL A   1      42.577  22.186  27.602  1.00  0.00    -0.237 OA
ATOM     72  O   UNL A   1      40.473  22.570  26.382  1.00  0.00    -0.237 OA
ATOM     73  O   UNL A   1      42.550  22.147  25.137  1.00  0.00    -0.744 OA
ENDBRANCH  67  70
ENDBRANCH  49  63
BRANCH  50  74
ATOM     74  C   UNL A   1      39.699  32.134  35.399  1.00  0.00     0.023 A 
ATOM     75  C   UNL A   1      40.187  33.444  35.574  1.00  0.00     0.012 A 
ATOM     76  C   UNL A   1      38.843  31.585  36.374  1.00  0.00     0.148 A 
ATOM     77  C   UNL A   1      39.858  34.178  36.715  1.00  0.00     0.002 A 
ATOM     78  C   UNL A   1      38.473  32.343  37.478  1.00  0.00     0.091 A 
ATOM     79  F   UNL A   1      38.402  30.331  36.196  1.00  0.00    -0.205 F 
ATOM     80  C   UNL A   1      38.995  33.632  37.661  1.00  0.00     0.022 A 
BRANCH  78  81
ATOM     81  S   UNL A   1      37.272  31.771  38.684  1.00  0.00     0.127 S 
ATOM     82  O   UNL A   1      37.989  31.974  39.940  1.00  0.00    -0.237 OA
ATOM     83  O   UNL A   1      36.157  32.690  38.454  1.00  0.00    -0.237 OA
ATOM     84  O   UNL A   1      36.991  30.385  38.337  1.00  0.00    -0.744 OA
ENDBRANCH  78  81
ENDBRANCH  50  74
BRANCH  62  85
ATOM     85  C   UNL A   1      45.070  27.887  34.009  1.00  0.00     0.023 A 
ATOM     86  C   UNL A   1      46.231  28.683  34.020  1.00  0.00     0.012 A 
ATOM     87  C   UNL A   1      45.018  26.730  34.813  1.00  0.00     0.148 A 
ATOM     88  C   UNL A   1      47.337  28.314  34.787  1.00  0.00     0.002 A 
ATOM     89  C   UNL A   1      46.102  26.398  35.616  1.00  0.00     0.091 A 
ATOM     90  F   UNL A   1      43.909  25.977  34.779  1.00  0.00    -0.205 F 
ATOM     91  C   UNL A   1      47.268  27.181  35.594  1.00  0.00     0.022 A 
BRANCH  89  92
ATOM     92  S   UNL A   1      46.068  25.015  36.761  1.00  0.00     0.127 S 
ATOM     93  O   UNL A   1      45.985  23.875  35.850  1.00  0.00    -0.237 OA
ATOM     94  O   UNL A   1      47.352  25.152  37.450  1.00  0.00    -0.237 OA
ATOM     95  O   UNL A   1      44.901  25.220  37.608  1.00  0.00    -0.744 OA
ENDBRANCH  89  92
ENDBRANCH  62  85
ENDBRANCH  36  37
ENDBRANCH  29  31
ENDBRANCH  28  29
ENDBRANCH  27  28
ENDBRANCH  26  27
ENDBRANCH  25  26
ENDBRANCH  24  25
ENDBRANCH  23  24
ENDBRANCH   1  23
TORSDOF 26
ENDMDL
MODEL 2
REMARK VINA RESULT:      -9.3      5.215      8.257
REMARK SMILES CN(C)C(=O)CSc1ccc(C(=O)OCCOCCOCCOCCOC(=O)c2ccc(-c3c4nc(c(-c5cccc(S(=O)(=O)[O-])c5F)c5ccc([nH]5)c(-c5cccc(S(=O)(=O)[O-])c5F)c5nc(c(-c6cccc(S(=O)(=O)[O-])c6F)c6ccc3[nH]6)C=C5)C=C4)cc2)cc1
REMARK SMILES IDX 20 1 19 2 18 3 17 4 16 5 15 6 14 7 12 8 13 9 11 10 8 11 9 12
REMARK SMILES IDX 93 13 10 14 92 15 7 16 6 17 4 18 1 19 2 20 3 21 5 22 21 23
REMARK SMILES IDX 22 24 23 25 24 26 25 27 26 28 27 29 28 30 29 31 30 32 91 33
REMARK SMILES IDX 31 34 90 35 32 36 33 37 34 38 84 39 35 40 89 41 83 42 85 43
REMARK SMILES IDX 36 44 88 45 82 46 81 47 37 49 69 50 49 51 68 52 50 53 53 54
REMARK SMILES IDX 67 55 86 56 51 57 52 58 66 60 87 61 54 62 38 63 39 64 47 65
REMARK SMILES IDX 40 66 42 67 48 68 41 69 43 70 44 71 45 72 46 73 70 74 71 75
REMARK SMILES IDX 79 76 72 77 74 78 80 79 73 80 75 81 76 82 77 83 78 84 55 85
REMARK SMILES IDX 56 86 64 87 57 88 59 89 65 90 58 91 60 92 61 93 62 94 63 95
REMARK H PARENT 85 48 53 59
REMARK Flexibility Score: inf
ROOT
ATOM      1  O   UNL A   1      33.470  22.831  27.351  1.00  0.00    -0.377 OA
ENDROOT
BRANCH   1   2
ATOM      2  C   UNL A   1      32.228  23.477  27.132  1.00  0.00     0.188 C 
BRANCH   2   3
ATOM      3  C   UNL A   1      31.254  22.863  26.105  1.00  0.00     0.188 C 
BRANCH   3   4
ATOM      4  O   UNL A   1      30.945  23.718  25.019  1.00  0.00    -0.376 OA
BRANCH   4   5
ATOM      5  C   UNL A   1      30.876  23.195  23.706  1.00  0.00     0.202 C 
BRANCH   5   6
ATOM      6  C   UNL A   1      32.152  22.917  22.893  1.00  0.00     0.261 C 
BRANCH   6   7
ATOM      7  O   UNL A   1      33.381  22.884  23.623  1.00  0.00    -0.460 OA
BRANCH   7   8
ATOM      8  C   UNL A   1      34.363  23.705  23.200  1.00  0.00     0.338 C 
ATOM      9  O   UNL A   1      35.305  23.409  22.485  1.00  0.00    -0.246 OA
BRANCH   8  10
ATOM     10  C   UNL A   1      33.997  25.097  23.560  1.00  0.00     0.060 A 
ATOM     11  C   UNL A   1      33.260  27.690  24.375  1.00  0.00     0.008 A 
ATOM     12  C   UNL A   1      33.725  26.757  25.304  1.00  0.00     0.016 A 
ATOM     13  C   UNL A   1      33.217  27.323  23.021  1.00  0.00     0.016 A 
ATOM     14  C   UNL A   1      34.093  25.470  24.902  1.00  0.00     0.017 A 
ATOM     15  C   UNL A   1      33.594  26.037  22.608  1.00  0.00     0.017 A 
BRANCH  11  16
ATOM     16  S   UNL A   1      32.453  29.210  24.857  1.00  0.00    -0.116 SA
BRANCH  16  17
ATOM     17  C   UNL A   1      30.778  29.131  24.146  1.00  0.00     0.175 C 
BRANCH  17  18
ATOM     18  C   UNL A   1      30.044  30.451  23.987  1.00  0.00     0.232 C 
ATOM     19  C   UNL A   1      28.610  31.989  22.772  1.00  0.00     0.146 C 
ATOM     20  N   UNL A   1      29.338  30.731  22.820  1.00  0.00    -0.348 N 
ATOM     21  C   UNL A   1      29.177  29.818  21.700  1.00  0.00     0.146 C 
ATOM     22  O   UNL A   1      30.122  31.295  24.887  1.00  0.00    -0.274 OA
ENDBRANCH  17  18
ENDBRANCH  16  17
ENDBRANCH  11  16
ENDBRANCH   8  10
ENDBRANCH   7   8
ENDBRANCH   6   7
ENDBRANCH   5   6
ENDBRANCH   4   5
ENDBRANCH   3   4
ENDBRANCH   2   3
ENDBRANCH   1   2
BRANCH   1  23
ATOM     23  C   UNL A   1      33.658  21.476  26.949  1.00  0.00     0.188 C 
BRANCH  23  24
ATOM     24  C   UNL A   1      34.870  21.023  26.099  1.00  0.00     0.188 C 
BRANCH  24  25
ATOM     25  O   UNL A   1      35.812  22.041  25.805  1.00  0.00    -0.376 OA
BRANCH  25  26
ATOM     26  C   UNL A   1      36.913  21.703  24.983  1.00  0.00     0.202 C 
BRANCH  26  27
ATOM     27  C   UNL A   1      37.949  20.733  25.568  1.00  0.00     0.261 C 
BRANCH  27  28
ATOM     28  O   UNL A   1      39.314  21.172  25.539  1.00  0.00    -0.460 OA
BRANCH  28  29
ATOM     29  C   UNL A   1      40.025  21.075  26.681  1.00  0.00     0.338 C 
ATOM     30  O   UNL A   1      40.487  20.057  27.177  1.00  0.00    -0.246 OA
BRANCH  29  31
ATOM     31  C   UNL A   1      40.320  22.448  27.140  1.00  0.00     0.060 A 
ATOM     32  C   UNL A   1      39.614  23.523  26.583  1.00  0.00     0.016 A 
ATOM     33  C   UNL A   1      41.276  22.666  28.134  1.00  0.00     0.016 A 
ATOM     34  C   UNL A   1      39.887  24.826  26.999  1.00  0.00     0.010 A 
ATOM     35  C   UNL A   1      41.563  23.974  28.534  1.00  0.00     0.010 A 
ATOM     36  C   UNL A   1      40.894  25.061  27.944  1.00  0.00    -0.014 A 
BRANCH  36  37
ATOM     37  C   UNL A   1      41.385  26.442  28.174  1.00  0.00     0.031 A 
ATOM     38  C   UNL A   1      42.785  26.781  27.742  1.00  0.00     0.074 A 
ATOM     39  C   UNL A   1      40.612  27.375  28.758  1.00  0.00     0.049 A 
ATOM     40  N   UNL A   1      43.449  27.897  27.879  1.00  0.00    -0.248 NA
ATOM     41  C   UNL A   1      43.540  25.711  27.065  1.00  0.00     0.031 C 
ATOM     42  C   UNL A   1      39.237  27.174  29.209  1.00  0.00     0.029 A 
ATOM     43  N   UNL A   1      40.891  28.677  29.094  1.00  0.00    -0.354 N 
ATOM     44  C   UNL A   1      44.707  27.657  27.341  1.00  0.00     0.074 A 
ATOM     45  C   UNL A   1      44.719  26.286  26.882  1.00  0.00     0.031 C 
ATOM     46  C   UNL A   1      38.802  28.304  29.795  1.00  0.00     0.029 A 
ATOM     47  C   UNL A   1      39.876  29.296  29.784  1.00  0.00     0.049 A 
ATOM     48  H   UNL A   1      41.738  29.123  28.864  1.00  0.00     0.167 HD
ATOM     49  C   UNL A   1      45.757  28.504  27.226  1.00  0.00     0.034 A 
ATOM     50  C   UNL A   1      39.834  30.512  30.366  1.00  0.00     0.034 A 
ATOM     51  C   UNL A   1      45.742  29.869  27.675  1.00  0.00     0.049 A 
ATOM     52  C   UNL A   1      41.030  31.424  30.260  1.00  0.00     0.074 A 
ATOM     53  C   UNL A   1      46.739  30.821  27.563  1.00  0.00     0.029 A 
ATOM     54  N   UNL A   1      44.685  30.472  28.341  1.00  0.00    -0.354 N 
ATOM     55  N   UNL A   1      42.172  31.224  29.647  1.00  0.00    -0.248 NA
ATOM     56  C   UNL A   1      40.920  32.744  30.900  1.00  0.00     0.031 C 
ATOM     57  C   UNL A   1      46.301  31.988  28.200  1.00  0.00     0.029 A 
ATOM     58  C   UNL A   1      45.013  31.777  28.664  1.00  0.00     0.049 A 
ATOM     59  H   UNL A   1      43.829  30.036  28.552  1.00  0.00     0.167 HD
ATOM     60  C   UNL A   1      42.898  32.402  29.794  1.00  0.00     0.074 A 
ATOM     61  C   UNL A   1      42.059  33.318  30.536  1.00  0.00     0.031 C 
ATOM     62  C   UNL A   1      44.150  32.696  29.362  1.00  0.00     0.034 A 
BRANCH  49  63
ATOM     63  C   UNL A   1      47.014  27.976  26.586  1.00  0.00     0.023 A 
ATOM     64  C   UNL A   1      47.996  27.346  27.377  1.00  0.00     0.012 A 
ATOM     65  C   UNL A   1      47.200  28.063  25.193  1.00  0.00     0.148 A 
ATOM     66  C   UNL A   1      49.160  26.843  26.796  1.00  0.00     0.002 A 
ATOM     67  C   UNL A   1      48.338  27.516  24.615  1.00  0.00     0.091 A 
ATOM     68  F   UNL A   1      46.265  28.686  24.461  1.00  0.00    -0.205 F 
ATOM     69  C   UNL A   1      49.325  26.917  25.415  1.00  0.00     0.022 A 
BRANCH  67  70
ATOM     70  S   UNL A   1      48.606  27.489  22.840  1.00  0.00     0.127 S 
ATOM     71  O   UNL A   1      47.582  28.422  22.372  1.00  0.00    -0.237 OA
ATOM     72  O   UNL A   1      49.979  27.984  22.731  1.00  0.00    -0.237 OA
ATOM     73  O   UNL A   1      48.424  26.105  22.424  1.00  0.00    -0.744 OA
ENDBRANCH  67  70
ENDBRANCH  49  63
BRANCH  50  74
ATOM     74  C   UNL A   1      38.608  30.952  31.093  1.00  0.00     0.023 A 
ATOM     75  C   UNL A   1      38.514  30.759  32.485  1.00  0.00     0.012 A 
ATOM     76  C   UNL A   1      37.534  31.558  30.411  1.00  0.00     0.148 A 
ATOM     77  C   UNL A   1      37.360  31.129  33.178  1.00  0.00     0.002 A 
ATOM     78  C   UNL A   1      36.412  31.976  31.115  1.00  0.00     0.091 A 
ATOM     79  F   UNL A   1      37.636  31.717  29.083  1.00  0.00    -0.205 F 
ATOM     80  C   UNL A   1      36.314  31.745  32.496  1.00  0.00     0.022 A 
BRANCH  78  81
ATOM     81  S   UNL A   1      35.071  32.888  30.344  1.00  0.00     0.127 S 
ATOM     82  O   UNL A   1      34.165  33.096  31.470  1.00  0.00    -0.237 OA
ATOM     83  O   UNL A   1      35.759  34.091  29.875  1.00  0.00    -0.237 OA
ATOM     84  O   UNL A   1      34.567  32.029  29.281  1.00  0.00    -0.744 OA
ENDBRANCH  78  81
ENDBRANCH  50  74
BRANCH  62  85
ATOM     85  C   UNL A   1      44.682  34.082  29.633  1.00  0.00     0.023 A 
ATOM     86  C   UNL A   1      45.360  34.357  30.836  1.00  0.00     0.012 A 
ATOM     87  C   UNL A   1      44.573  35.091  28.655  1.00  0.00     0.148 A 
ATOM     88  C   UNL A   1      45.888  35.626  31.079  1.00  0.00     0.002 A 
ATOM     89  C   UNL A   1      45.148  36.336  28.881  1.00  0.00     0.091 A 
ATOM     90  F   UNL A   1      43.912  34.815  27.522  1.00  0.00    -0.205 F 
ATOM     91  C   UNL A   1      45.793  36.610  30.098  1.00  0.00     0.022 A 
BRANCH  89  92
ATOM     92  S   UNL A   1      45.163  37.632  27.637  1.00  0.00     0.127 S 
ATOM     93  O   UNL A   1      45.832  36.967  26.521  1.00  0.00    -0.237 OA
ATOM     94  O   UNL A   1      43.736  37.881  27.432  1.00  0.00    -0.237 OA
ATOM     95  O   UNL A   1      45.894  38.747  28.225  1.00  0.00    -0.744 OA
ENDBRANCH  89  92
ENDBRANCH  62  85
ENDBRANCH  36  37
ENDBRANCH  29  31
ENDBRANCH  28  29
ENDBRANCH  27  28
ENDBRANCH  26  27
ENDBRANCH  25  26
ENDBRANCH  24  25
ENDBRANCH  23  24
ENDBRANCH   1  23
TORSDOF 26
ENDMDL
MODEL 3
REMARK VINA RESULT:      -9.2      5.312     10.291
REMARK SMILES CN(C)C(=O)CSc1ccc(C(=O)OCCOCCOCCOCCOC(=O)c2ccc(-c3c4nc(c(-c5cccc(S(=O)(=O)[O-])c5F)c5ccc([nH]5)c(-c5cccc(S(=O)(=O)[O-])c5F)c5nc(c(-c6cccc(S(=O)(=O)[O-])c6F)c6ccc3[nH]6)C=C5)C=C4)cc2)cc1
REMARK SMILES IDX 20 1 19 2 18 3 17 4 16 5 15 6 14 7 12 8 13 9 11 10 8 11 9 12
REMARK SMILES IDX 93 13 10 14 92 15 7 16 6 17 4 18 1 19 2 20 3 21 5 22 21 23
REMARK SMILES IDX 22 24 23 25 24 26 25 27 26 28 27 29 28 30 29 31 30 32 91 33
REMARK SMILES IDX 31 34 90 35 32 36 33 37 34 38 84 39 35 40 89 41 83 42 85 43
REMARK SMILES IDX 36 44 88 45 82 46 81 47 37 49 69 50 49 51 68 52 50 53 53 54
REMARK SMILES IDX 67 55 86 56 51 57 52 58 66 60 87 61 54 62 38 63 39 64 47 65
REMARK SMILES IDX 40 66 42 67 48 68 41 69 43 70 44 71 45 72 46 73 70 74 71 75
REMARK SMILES IDX 79 76 72 77 74 78 80 79 73 80 75 81 76 82 77 83 78 84 55 85
REMARK SMILES IDX 56 86 64 87 57 88 59 89 65 90 58 91 60 92 61 93 62 94 63 95
REMARK H PARENT 85 48 53 59
REMARK Flexibility Score: inf
ROOT
ATOM      1  O   UNL A   1      32.137  22.724  27.789  1.00  0.00    -0.377 OA
ENDROOT
BRANCH   1   2
ATOM      2  C   UNL A   1      31.396  23.497  26.860  1.00  0.00     0.188 C 
BRANCH   2   3
ATOM      3  C   UNL A   1      30.612  22.760  25.755  1.00  0.00     0.188 C 
BRANCH   3   4
ATOM      4  O   UNL A   1      30.740  23.341  24.470  1.00  0.00    -0.376 OA
BRANCH   4   5
ATOM      5  C   UNL A   1      31.102  22.537  23.364  1.00  0.00     0.202 C 
BRANCH   5   6
ATOM      6  C   UNL A   1      32.523  21.962  23.231  1.00  0.00     0.261 C 
BRANCH   6   7
ATOM      7  O   UNL A   1      33.564  22.664  23.914  1.00  0.00    -0.460 OA
BRANCH   7   8
ATOM      8  C   UNL A   1      34.233  23.599  23.211  1.00  0.00     0.338 C 
ATOM      9  O   UNL A   1      35.100  23.404  22.376  1.00  0.00    -0.246 OA
BRANCH   8  10
ATOM     10  C   UNL A   1      33.587  24.913  23.446  1.00  0.00     0.060 A 
ATOM     11  C   UNL A   1      32.389  27.444  23.753  1.00  0.00     0.008 A 
ATOM     12  C   UNL A   1      32.372  26.793  22.517  1.00  0.00     0.016 A 
ATOM     13  C   UNL A   1      32.969  26.786  24.849  1.00  0.00     0.016 A 
ATOM     14  C   UNL A   1      32.965  25.537  22.363  1.00  0.00     0.017 A 
ATOM     15  C   UNL A   1      33.557  25.521  24.703  1.00  0.00     0.017 A 
BRANCH  11  16
ATOM     16  S   UNL A   1      31.970  29.172  23.938  1.00  0.00    -0.116 SA
BRANCH  16  17
ATOM     17  C   UNL A   1      30.164  29.270  23.730  1.00  0.00     0.175 C 
BRANCH  17  18
ATOM     18  C   UNL A   1      29.662  29.915  22.449  1.00  0.00     0.232 C 
ATOM     19  C   UNL A   1      28.378  31.578  21.231  1.00  0.00     0.146 C 
ATOM     20  N   UNL A   1      28.761  30.975  22.498  1.00  0.00    -0.348 N 
ATOM     21  C   UNL A   1      28.264  31.596  23.714  1.00  0.00     0.146 C 
ATOM     22  O   UNL A   1      30.028  29.455  21.361  1.00  0.00    -0.274 OA
ENDBRANCH  17  18
ENDBRANCH  16  17
ENDBRANCH  11  16
ENDBRANCH   8  10
ENDBRANCH   7   8
ENDBRANCH   6   7
ENDBRANCH   5   6
ENDBRANCH   4   5
ENDBRANCH   3   4
ENDBRANCH   2   3
ENDBRANCH   1   2
BRANCH   1  23
ATOM     23  C   UNL A   1      32.921  21.620  27.344  1.00  0.00     0.188 C 
BRANCH  23  24
ATOM     24  C   UNL A   1      34.465  21.679  27.260  1.00  0.00     0.188 C 
BRANCH  24  25
ATOM     25  O   UNL A   1      34.994  22.900  26.769  1.00  0.00    -0.376 OA
BRANCH  25  26
ATOM     26  C   UNL A   1      36.209  22.848  26.045  1.00  0.00     0.202 C 
BRANCH  26  27
ATOM     27  C   UNL A   1      36.788  21.458  25.750  1.00  0.00     0.261 C 
BRANCH  27  28
ATOM     28  O   UNL A   1      38.123  21.427  25.227  1.00  0.00    -0.460 OA
BRANCH  28  29
ATOM     29  C   UNL A   1      39.121  21.128  26.084  1.00  0.00     0.338 C 
ATOM     30  O   UNL A   1      39.603  20.024  26.297  1.00  0.00    -0.246 OA
BRANCH  29  31
ATOM     31  C   UNL A   1      39.674  22.402  26.586  1.00  0.00     0.060 A 
ATOM     32  C   UNL A   1      39.215  23.610  26.041  1.00  0.00     0.016 A 
ATOM     33  C   UNL A   1      40.626  22.402  27.607  1.00  0.00     0.016 A 
ATOM     34  C   UNL A   1      39.733  24.822  26.498  1.00  0.00     0.010 A 
ATOM     35  C   UNL A   1      41.159  23.615  28.049  1.00  0.00     0.010 A 
ATOM     36  C   UNL A   1      40.739  24.828  27.473  1.00  0.00    -0.014 A 
BRANCH  36  37
ATOM     37  C   UNL A   1      41.491  26.076  27.751  1.00  0.00     0.031 A 
ATOM     38  C   UNL A   1      40.800  27.169  28.519  1.00  0.00     0.074 A 
ATOM     39  C   UNL A   1      42.757  26.243  27.327  1.00  0.00     0.049 A 
ATOM     40  N   UNL A   1      41.231  28.360  28.838  1.00  0.00    -0.248 NA
ATOM     41  C   UNL A   1      39.433  26.878  28.986  1.00  0.00     0.031 C 
ATOM     42  C   UNL A   1      43.539  25.256  26.586  1.00  0.00     0.029 A 
ATOM     43  N   UNL A   1      43.597  27.323  27.442  1.00  0.00    -0.354 N 
ATOM     44  C   UNL A   1      40.181  28.973  29.511  1.00  0.00     0.074 A 
ATOM     45  C   UNL A   1      39.088  28.027  29.546  1.00  0.00     0.031 C 
ATOM     46  C   UNL A   1      44.736  25.789  26.282  1.00  0.00     0.029 A 
ATOM     47  C   UNL A   1      44.793  27.162  26.782  1.00  0.00     0.049 A 
ATOM     48  H   UNL A   1      43.365  28.135  27.947  1.00  0.00     0.167 HD
ATOM     49  C   UNL A   1      40.133  30.208  30.062  1.00  0.00     0.034 A 
ATOM     50  C   UNL A   1      45.801  28.035  26.581  1.00  0.00     0.034 A 
ATOM     51  C   UNL A   1      41.222  31.145  30.034  1.00  0.00     0.049 A 
ATOM     52  C   UNL A   1      45.709  29.419  27.171  1.00  0.00     0.074 A 
ATOM     53  C   UNL A   1      41.288  32.403  30.603  1.00  0.00     0.029 A 
ATOM     54  N   UNL A   1      42.430  30.935  29.385  1.00  0.00    -0.354 N 
ATOM     55  N   UNL A   1      44.756  29.945  27.903  1.00  0.00    -0.248 NA
ATOM     56  C   UNL A   1      46.845  30.322  26.932  1.00  0.00     0.031 C 
ATOM     57  C   UNL A   1      42.520  32.973  30.261  1.00  0.00     0.029 A 
ATOM     58  C   UNL A   1      43.240  32.049  29.521  1.00  0.00     0.049 A 
ATOM     59  H   UNL A   1      42.674  30.115  28.898  1.00  0.00     0.167 HD
ATOM     60  C   UNL A   1      45.195  31.222  28.244  1.00  0.00     0.074 A 
ATOM     61  C   UNL A   1      46.507  31.382  27.654  1.00  0.00     0.031 C 
ATOM     62  C   UNL A   1      44.565  32.178  28.970  1.00  0.00     0.034 A 
BRANCH  49  63
ATOM     63  C   UNL A   1      38.855  30.618  30.748  1.00  0.00     0.023 A 
ATOM     64  C   UNL A   1      38.728  30.472  32.144  1.00  0.00     0.012 A 
ATOM     65  C   UNL A   1      37.801  31.192  30.013  1.00  0.00     0.148 A 
ATOM     66  C   UNL A   1      37.555  30.858  32.794  1.00  0.00     0.002 A 
ATOM     67  C   UNL A   1      36.656  31.620  30.673  1.00  0.00     0.091 A 
ATOM     68  F   UNL A   1      37.932  31.302  28.684  1.00  0.00    -0.205 F 
ATOM     69  C   UNL A   1      36.525  31.442  32.060  1.00  0.00     0.022 A 
BRANCH  67  70
ATOM     70  S   UNL A   1      35.308  32.457  29.832  1.00  0.00     0.127 S 
ATOM     71  O   UNL A   1      34.377  32.700  30.934  1.00  0.00    -0.237 OA
ATOM     72  O   UNL A   1      35.968  33.656  29.315  1.00  0.00    -0.237 OA
ATOM     73  O   UNL A   1      34.834  31.534  28.810  1.00  0.00    -0.744 OA
ENDBRANCH  67  70
ENDBRANCH  49  63
BRANCH  50  74
ATOM     74  C   UNL A   1      47.001  27.624  25.795  1.00  0.00     0.023 A 
ATOM     75  C   UNL A   1      47.033  27.843  24.404  1.00  0.00     0.012 A 
ATOM     76  C   UNL A   1      48.107  27.016  26.420  1.00  0.00     0.148 A 
ATOM     77  C   UNL A   1      48.130  27.432  23.645  1.00  0.00     0.002 A 
ATOM     78  C   UNL A   1      49.220  26.662  25.667  1.00  0.00     0.091 A 
ATOM     79  F   UNL A   1      48.050  26.801  27.742  1.00  0.00    -0.205 F 
ATOM     80  C   UNL A   1      49.226  26.851  24.276  1.00  0.00     0.022 A 
BRANCH  78  81
ATOM     81  S   UNL A   1      50.725  26.022  26.409  1.00  0.00     0.127 S 
ATOM     82  O   UNL A   1      51.147  27.144  27.244  1.00  0.00    -0.237 OA
ATOM     83  O   UNL A   1      50.226  24.859  27.143  1.00  0.00    -0.237 OA
ATOM     84  O   UNL A   1      51.609  25.698  25.297  1.00  0.00    -0.744 OA
ENDBRANCH  78  81
ENDBRANCH  50  74
BRANCH  62  85
ATOM     85  C   UNL A   1      45.299  33.473  29.218  1.00  0.00     0.023 A 
ATOM     86  C   UNL A   1      46.184  33.588  30.307  1.00  0.00     0.012 A 
ATOM     87  C   UNL A   1      45.164  34.552  28.321  1.00  0.00     0.148 A 
ATOM     88  C   UNL A   1      46.895  34.770  30.522  1.00  0.00     0.002 A 
ATOM     89  C   UNL A   1      45.915  35.706  28.510  1.00  0.00     0.091 A 
ATOM     90  F   UNL A   1      44.306  34.429  27.298  1.00  0.00    -0.205 F 
ATOM     91  C   UNL A   1      46.770  35.822  29.618  1.00  0.00     0.022 A 
BRANCH  89  92
ATOM     92  S   UNL A   1      45.896  37.072  27.345  1.00  0.00     0.127 S 
ATOM     93  O   UNL A   1      46.494  36.461  26.158  1.00  0.00    -0.237 OA
ATOM     94  O   UNL A   1      44.466  37.359  27.228  1.00  0.00    -0.237 OA
ATOM     95  O   UNL A   1      46.679  38.137  27.958  1.00  0.00    -0.744 OA
ENDBRANCH  89  92
ENDBRANCH  62  85
ENDBRANCH  36  37
ENDBRANCH  29  31
ENDBRANCH  28  29
ENDBRANCH  27  28
ENDBRANCH  26  27
ENDBRANCH  25  26
ENDBRANCH  24  25
ENDBRANCH  23  24
ENDBRANCH   1  23
TORSDOF 26
ENDMDL
