MODEL 1
REMARK VINA RESULT:      -9.3      0.000      0.000
REMARK SMILES CC[C@@](CC(F)(F)F)(C(=O)OCCOCCOCCOCCOC(=O)c1ccc(-c2c3nc(c(-c4cccc(S(=O)(=O)[O-])c4F)c4ccc([nH]4)c(-c4cccc(S(=O)(=O)[O-])c4F)c4nc(c(-c5cccc(S(=O)(=O)[O-])c5F)c5ccc2[nH]5)C=C4)C=C3)cc1)c1ccccc1
REMARK SMILES IDX 18 1 17 2 16 3 15 4 14 5 13 6 12 7 11 8 9 9 10 10 3 11 2 12
REMARK SMILES IDX 1 13 4 14 5 15 6 16 7 17 8 18 89 19 90 20 94 21 91 22 93 23
REMARK SMILES IDX 92 24 19 25 20 26 21 27 22 28 23 29 24 30 25 31 26 32 27 33
REMARK SMILES IDX 88 34 28 35 87 36 29 37 30 38 31 39 81 40 32 41 86 42 80 43
REMARK SMILES IDX 82 44 33 45 85 46 79 47 78 48 34 50 66 51 46 52 65 53 47 54
REMARK SMILES IDX 50 55 64 56 83 57 48 58 49 59 63 61 84 62 51 63 35 64 36 65
REMARK SMILES IDX 44 66 37 67 39 68 45 69 38 70 40 71 41 72 42 73 43 74 67 75
REMARK SMILES IDX 68 76 76 77 69 78 71 79 77 80 70 81 72 82 73 83 74 84 75 85
REMARK SMILES IDX 52 86 53 87 61 88 54 89 56 90 62 91 55 92 57 93 58 94 59 95
REMARK SMILES IDX 60 96
REMARK H PARENT 82 49 50 60
REMARK Flexibility Score: inf
ROOT
ATOM      1  C   UNL A   1      33.276  29.583  25.126  1.00  0.00     0.188 C 
ENDROOT
BRANCH   1   2
ATOM      2  O   UNL A   1      33.913  28.654  24.255  1.00  0.00    -0.377 OA
BRANCH   2   3
ATOM      3  C   UNL A   1      33.238  28.209  23.095  1.00  0.00     0.188 C 
BRANCH   3   4
ATOM      4  C   UNL A   1      32.039  27.280  23.284  1.00  0.00     0.188 C 
BRANCH   4   5
ATOM      5  O   UNL A   1      32.328  25.942  23.602  1.00  0.00    -0.376 OA
BRANCH   5   6
ATOM      6  C   UNL A   1      31.772  24.882  22.842  1.00  0.00     0.202 C 
BRANCH   6   7
ATOM      7  C   UNL A   1      30.887  23.729  23.371  1.00  0.00     0.261 C 
BRANCH   7   8
ATOM      8  O   UNL A   1      31.467  22.752  24.247  1.00  0.00    -0.463 OA
BRANCH   8   9
ATOM      9  C   UNL A   1      32.513  22.045  23.772  1.00  0.00     0.316 C 
ATOM     10  O   UNL A   1      32.715  21.869  22.571  1.00  0.00    -0.251 OA
BRANCH   9  11
ATOM     11  C   UNL A   1      33.469  21.456  24.872  1.00  0.00     0.101 C 
BRANCH  11  12
ATOM     12  C   UNL A   1      34.931  22.053  24.860  1.00  0.00     0.020 C 
ATOM     13  C   UNL A   1      35.248  23.257  23.961  1.00  0.00     0.005 C 
ENDBRANCH  11  12
BRANCH  11  14
ATOM     14  C   UNL A   1      32.733  21.849  26.187  1.00  0.00     0.139 C 
BRANCH  14  15
ATOM     15  C   UNL A   1      33.664  22.269  27.322  1.00  0.00     0.390 C 
ATOM     16  F   UNL A   1      34.243  23.464  27.100  1.00  0.00    -0.171 F 
ATOM     17  F   UNL A   1      32.960  22.365  28.472  1.00  0.00    -0.171 F 
ATOM     18  F   UNL A   1      34.646  21.371  27.530  1.00  0.00    -0.171 F 
ENDBRANCH  14  15
ENDBRANCH  11  14
BRANCH  11  19
ATOM     19  C   UNL A   1      33.538  19.897  24.716  1.00  0.00    -0.030 A 
ATOM     20  C   UNL A   1      34.756  19.208  24.521  1.00  0.00     0.005 A 
ATOM     21  C   UNL A   1      32.387  19.098  24.800  1.00  0.00     0.005 A 
ATOM     22  C   UNL A   1      34.831  17.812  24.475  1.00  0.00     0.000 A 
ATOM     23  C   UNL A   1      32.458  17.697  24.761  1.00  0.00     0.000 A 
ATOM     24  C   UNL A   1      33.680  17.054  24.608  1.00  0.00     0.000 A 
ENDBRANCH  11  19
ENDBRANCH   9  11
ENDBRANCH   8   9
ENDBRANCH   7   8
ENDBRANCH   6   7
ENDBRANCH   5   6
ENDBRANCH   4   5
ENDBRANCH   3   4
ENDBRANCH   2   3
ENDBRANCH   1   2
BRANCH   1  25
ATOM     25  C   UNL A   1      33.699  29.697  26.606  1.00  0.00     0.188 C 
BRANCH  25  26
ATOM     26  O   UNL A   1      32.907  30.566  27.398  1.00  0.00    -0.376 OA
BRANCH  26  27
ATOM     27  C   UNL A   1      31.878  31.314  26.770  1.00  0.00     0.202 C 
BRANCH  27  28
ATOM     28  C   UNL A   1      31.892  32.846  26.903  1.00  0.00     0.261 C 
BRANCH  28  29
ATOM     29  O   UNL A   1      33.164  33.461  27.158  1.00  0.00    -0.460 OA
BRANCH  29  30
ATOM     30  C   UNL A   1      33.279  34.271  28.235  1.00  0.00     0.338 C 
ATOM     31  O   UNL A   1      32.535  35.170  28.560  1.00  0.00    -0.246 OA
BRANCH  30  32
ATOM     32  C   UNL A   1      34.371  33.732  29.076  1.00  0.00     0.060 A 
ATOM     33  C   UNL A   1      35.668  34.232  28.905  1.00  0.00     0.016 A 
ATOM     34  C   UNL A   1      34.111  32.743  30.027  1.00  0.00     0.016 A 
ATOM     35  C   UNL A   1      36.721  33.712  29.657  1.00  0.00     0.010 A 
ATOM     36  C   UNL A   1      35.171  32.206  30.760  1.00  0.00     0.010 A 
ATOM     37  C   UNL A   1      36.484  32.661  30.549  1.00  0.00    -0.014 A 
BRANCH  37  38
ATOM     38  C   UNL A   1      37.630  31.895  31.094  1.00  0.00     0.031 A 
ATOM     39  C   UNL A   1      38.062  32.176  32.508  1.00  0.00     0.074 A 
ATOM     40  C   UNL A   1      38.270  30.968  30.360  1.00  0.00     0.049 A 
ATOM     41  N   UNL A   1      39.060  31.677  33.186  1.00  0.00    -0.248 NA
ATOM     42  C   UNL A   1      37.258  33.158  33.256  1.00  0.00     0.031 C 
ATOM     43  C   UNL A   1      37.933  30.593  28.988  1.00  0.00     0.029 A 
ATOM     44  N   UNL A   1      39.360  30.191  30.666  1.00  0.00    -0.354 N 
ATOM     45  C   UNL A   1      39.025  32.304  34.425  1.00  0.00     0.074 A 
ATOM     46  C   UNL A   1      37.914  33.229  34.404  1.00  0.00     0.031 C 
ATOM     47  C   UNL A   1      38.822  29.681  28.557  1.00  0.00     0.029 A 
ATOM     48  C   UNL A   1      39.805  29.431  29.610  1.00  0.00     0.049 A 
ATOM     49  H   UNL A   1      39.781  30.179  31.555  1.00  0.00     0.167 HD
ATOM     50  C   UNL A   1      39.839  32.121  35.491  1.00  0.00     0.034 A 
ATOM     51  C   UNL A   1      40.900  28.653  29.499  1.00  0.00     0.034 A 
ATOM     52  C   UNL A   1      40.937  31.194  35.512  1.00  0.00     0.049 A 
ATOM     53  C   UNL A   1      41.816  28.496  30.687  1.00  0.00     0.074 A 
ATOM     54  C   UNL A   1      41.798  30.906  36.557  1.00  0.00     0.029 A 
ATOM     55  N   UNL A   1      41.339  30.419  34.436  1.00  0.00    -0.354 N 
ATOM     56  N   UNL A   1      41.713  29.017  31.886  1.00  0.00    -0.248 NA
ATOM     57  C   UNL A   1      42.984  27.618  30.517  1.00  0.00     0.031 C 
ATOM     58  C   UNL A   1      42.747  29.987  36.098  1.00  0.00     0.029 A 
ATOM     59  C   UNL A   1      42.446  29.665  34.784  1.00  0.00     0.049 A 
ATOM     60  H   UNL A   1      40.902  30.407  33.554  1.00  0.00     0.167 HD
ATOM     61  C   UNL A   1      42.776  28.499  32.622  1.00  0.00     0.074 A 
ATOM     62  C   UNL A   1      43.499  27.609  31.738  1.00  0.00     0.031 C 
ATOM     63  C   UNL A   1      43.126  28.744  33.910  1.00  0.00     0.034 A 
BRANCH  50  64
ATOM     64  C   UNL A   1      39.569  32.938  36.726  1.00  0.00     0.023 A 
ATOM     65  C   UNL A   1      40.170  34.205  36.877  1.00  0.00     0.012 A 
ATOM     66  C   UNL A   1      38.682  32.473  37.715  1.00  0.00     0.148 A 
ATOM     67  C   UNL A   1      39.917  34.981  38.007  1.00  0.00     0.002 A 
ATOM     68  C   UNL A   1      38.395  33.272  38.815  1.00  0.00     0.091 A 
ATOM     69  F   UNL A   1      38.139  31.256  37.564  1.00  0.00    -0.205 F 
ATOM     70  C   UNL A   1      39.021  34.520  38.969  1.00  0.00     0.022 A 
BRANCH  68  71
ATOM     71  S   UNL A   1      37.196  32.805  40.066  1.00  0.00     0.127 S 
ATOM     72  O   UNL A   1      36.034  32.460  39.247  1.00  0.00    -0.237 OA
ATOM     73  O   UNL A   1      37.850  31.664  40.706  1.00  0.00    -0.237 OA
ATOM     74  O   UNL A   1      37.028  33.970  40.921  1.00  0.00    -0.744 OA
ENDBRANCH  68  71
ENDBRANCH  50  64
BRANCH  51  75
ATOM     75  C   UNL A   1      41.193  27.948  28.219  1.00  0.00     0.023 A 
ATOM     76  C   UNL A   1      41.770  28.655  27.145  1.00  0.00     0.012 A 
ATOM     77  C   UNL A   1      40.895  26.580  28.058  1.00  0.00     0.148 A 
ATOM     78  C   UNL A   1      42.011  28.022  25.925  1.00  0.00     0.002 A 
ATOM     79  C   UNL A   1      41.190  25.943  26.859  1.00  0.00     0.091 A 
ATOM     80  F   UNL A   1      40.331  25.929  29.085  1.00  0.00    -0.205 F 
ATOM     81  C   UNL A   1      41.729  26.666  25.784  1.00  0.00     0.022 A 
BRANCH  79  82
ATOM     82  S   UNL A   1      40.974  24.175  26.627  1.00  0.00     0.127 S 
ATOM     83  O   UNL A   1      39.553  24.089  26.298  1.00  0.00    -0.237 OA
ATOM     84  O   UNL A   1      41.883  23.908  25.513  1.00  0.00    -0.237 OA
ATOM     85  O   UNL A   1      41.367  23.561  27.887  1.00  0.00    -0.744 OA
ENDBRANCH  79  82
ENDBRANCH  51  75
BRANCH  63  86
ATOM     86  C   UNL A   1      44.312  28.001  34.470  1.00  0.00     0.023 A 
ATOM     87  C   UNL A   1      45.604  28.555  34.381  1.00  0.00     0.012 A 
ATOM     88  C   UNL A   1      44.129  26.783  35.157  1.00  0.00     0.148 A 
ATOM     89  C   UNL A   1      46.700  27.892  34.932  1.00  0.00     0.002 A 
ATOM     90  C   UNL A   1      45.217  26.156  35.751  1.00  0.00     0.091 A 
ATOM     91  F   UNL A   1      42.895  26.264  35.220  1.00  0.00    -0.205 F 
ATOM     92  C   UNL A   1      46.505  26.700  35.627  1.00  0.00     0.022 A 
BRANCH  90  93
ATOM     93  S   UNL A   1      45.048  24.673  36.751  1.00  0.00     0.127 S 
ATOM     94  O   UNL A   1      44.676  23.678  35.746  1.00  0.00    -0.237 OA
ATOM     95  O   UNL A   1      46.395  24.514  37.298  1.00  0.00    -0.237 OA
ATOM     96  O   UNL A   1      44.022  24.969  37.742  1.00  0.00    -0.744 OA
ENDBRANCH  90  93
ENDBRANCH  63  86
ENDBRANCH  37  38
ENDBRANCH  30  32
ENDBRANCH  29  30
ENDBRANCH  28  29
ENDBRANCH  27  28
ENDBRANCH  26  27
ENDBRANCH  25  26
ENDBRANCH   1  25
TORSDOF 27
ENDMDL
MODEL 2
REMARK VINA RESULT:      -9.2      5.336     10.866
REMARK SMILES CC[C@@](CC(F)(F)F)(C(=O)OCCOCCOCCOCCOC(=O)c1ccc(-c2c3nc(c(-c4cccc(S(=O)(=O)[O-])c4F)c4ccc([nH]4)c(-c4cccc(S(=O)(=O)[O-])c4F)c4nc(c(-c5cccc(S(=O)(=O)[O-])c5F)c5ccc2[nH]5)C=C4)C=C3)cc1)c1ccccc1
REMARK SMILES IDX 18 1 17 2 16 3 15 4 14 5 13 6 12 7 11 8 9 9 10 10 3 11 2 12
REMARK SMILES IDX 1 13 4 14 5 15 6 16 7 17 8 18 89 19 90 20 94 21 91 22 93 23
REMARK SMILES IDX 92 24 19 25 20 26 21 27 22 28 23 29 24 30 25 31 26 32 27 33
REMARK SMILES IDX 88 34 28 35 87 36 29 37 30 38 31 39 81 40 32 41 86 42 80 43
REMARK SMILES IDX 82 44 33 45 85 46 79 47 78 48 34 50 66 51 46 52 65 53 47 54
REMARK SMILES IDX 50 55 64 56 83 57 48 58 49 59 63 61 84 62 51 63 35 64 36 65
REMARK SMILES IDX 44 66 37 67 39 68 45 69 38 70 40 71 41 72 42 73 43 74 67 75
REMARK SMILES IDX 68 76 76 77 69 78 71 79 77 80 70 81 72 82 73 83 74 84 75 85
REMARK SMILES IDX 52 86 53 87 61 88 54 89 56 90 62 91 55 92 57 93 58 94 59 95
REMARK SMILES IDX 60 96
REMARK H PARENT 82 49 50 60
REMARK Flexibility Score: inf
ROOT
ATOM      1  C   UNL A   1      33.513  20.237  24.609  1.00  0.00     0.188 C 
ENDROOT
BRANCH   1   2
ATOM      2  O   UNL A   1      32.202  20.644  24.230  1.00  0.00    -0.377 OA
BRANCH   2   3
ATOM      3  C   UNL A   1      32.040  21.625  23.224  1.00  0.00     0.188 C 
BRANCH   3   4
ATOM      4  C   UNL A   1      33.303  22.201  22.584  1.00  0.00     0.188 C 
BRANCH   4   5
ATOM      5  O   UNL A   1      33.623  23.528  22.917  1.00  0.00    -0.376 OA
BRANCH   5   6
ATOM      6  C   UNL A   1      34.240  23.834  24.157  1.00  0.00     0.202 C 
BRANCH   6   7
ATOM      7  C   UNL A   1      33.527  24.087  25.507  1.00  0.00     0.261 C 
BRANCH   7   8
ATOM      8  O   UNL A   1      32.902  25.358  25.736  1.00  0.00    -0.463 OA
BRANCH   8   9
ATOM      9  C   UNL A   1      31.776  25.624  25.041  1.00  0.00     0.316 C 
ATOM     10  O   UNL A   1      30.815  24.856  24.999  1.00  0.00    -0.251 OA
BRANCH   9  11
ATOM     11  C   UNL A   1      31.777  26.999  24.280  1.00  0.00     0.101 C 
BRANCH  11  12
ATOM     12  C   UNL A   1      32.803  27.087  23.083  1.00  0.00     0.020 C 
ATOM     13  C   UNL A   1      32.469  26.404  21.749  1.00  0.00     0.005 C 
ENDBRANCH  11  12
BRANCH  11  14
ATOM     14  C   UNL A   1      30.315  27.078  23.750  1.00  0.00     0.139 C 
BRANCH  14  15
ATOM     15  C   UNL A   1      29.913  28.457  23.231  1.00  0.00     0.390 C 
ATOM     16  F   UNL A   1      29.917  29.393  24.198  1.00  0.00    -0.171 F 
ATOM     17  F   UNL A   1      30.786  28.852  22.278  1.00  0.00    -0.171 F 
ATOM     18  F   UNL A   1      28.688  28.451  22.672  1.00  0.00    -0.171 F 
ENDBRANCH  14  15
ENDBRANCH  11  14
BRANCH  11  19
ATOM     19  C   UNL A   1      32.063  28.154  25.302  1.00  0.00    -0.030 A 
ATOM     20  C   UNL A   1      32.863  29.273  24.978  1.00  0.00     0.005 A 
ATOM     21  C   UNL A   1      31.503  28.152  26.589  1.00  0.00     0.005 A 
ATOM     22  C   UNL A   1      33.043  30.348  25.853  1.00  0.00     0.000 A 
ATOM     23  C   UNL A   1      31.675  29.231  27.469  1.00  0.00     0.000 A 
ATOM     24  C   UNL A   1      32.437  30.333  27.099  1.00  0.00     0.000 A 
ENDBRANCH  11  19
ENDBRANCH   9  11
ENDBRANCH   8   9
ENDBRANCH   7   8
ENDBRANCH   6   7
ENDBRANCH   5   6
ENDBRANCH   4   5
ENDBRANCH   3   4
ENDBRANCH   2   3
ENDBRANCH   1   2
BRANCH   1  25
ATOM     25  C   UNL A   1      34.147  20.739  25.924  1.00  0.00     0.188 C 
BRANCH  25  26
ATOM     26  O   UNL A   1      35.546  20.965  25.876  1.00  0.00    -0.376 OA
BRANCH  26  27
ATOM     27  C   UNL A   1      36.315  20.279  24.900  1.00  0.00     0.202 C 
BRANCH  27  28
ATOM     28  C   UNL A   1      37.848  20.359  24.979  1.00  0.00     0.261 C 
BRANCH  28  29
ATOM     29  O   UNL A   1      38.412  20.732  26.245  1.00  0.00    -0.460 OA
BRANCH  29  30
ATOM     30  C   UNL A   1      39.760  20.778  26.358  1.00  0.00     0.338 C 
ATOM     31  O   UNL A   1      40.558  19.961  25.956  1.00  0.00    -0.246 OA
BRANCH  30  32
ATOM     32  C   UNL A   1      40.112  22.118  26.878  1.00  0.00     0.060 A 
ATOM     33  C   UNL A   1      39.410  23.235  26.405  1.00  0.00     0.016 A 
ATOM     34  C   UNL A   1      41.124  22.266  27.828  1.00  0.00     0.016 A 
ATOM     35  C   UNL A   1      39.749  24.512  26.851  1.00  0.00     0.010 A 
ATOM     36  C   UNL A   1      41.479  23.548  28.253  1.00  0.00     0.010 A 
ATOM     37  C   UNL A   1      40.819  24.677  27.736  1.00  0.00    -0.014 A 
BRANCH  37  38
ATOM     38  C   UNL A   1      41.387  26.029  27.948  1.00  0.00     0.031 A 
ATOM     39  C   UNL A   1      42.789  26.293  27.465  1.00  0.00     0.074 A 
ATOM     40  C   UNL A   1      40.680  27.004  28.545  1.00  0.00     0.049 A 
ATOM     41  N   UNL A   1      43.517  27.371  27.580  1.00  0.00    -0.248 NA
ATOM     42  C   UNL A   1      43.459  25.186  26.761  1.00  0.00     0.031 C 
ATOM     43  C   UNL A   1      39.309  26.877  29.036  1.00  0.00     0.029 A 
ATOM     44  N   UNL A   1      41.036  28.292  28.863  1.00  0.00    -0.354 N 
ATOM     45  C   UNL A   1      44.739  27.065  26.994  1.00  0.00     0.074 A 
ATOM     46  C   UNL A   1      44.659  25.696  26.533  1.00  0.00     0.031 C 
ATOM     47  C   UNL A   1      38.951  28.031  29.626  1.00  0.00     0.029 A 
ATOM     48  C   UNL A   1      40.075  28.965  29.580  1.00  0.00     0.049 A 
ATOM     49  H   UNL A   1      41.896  28.693  28.603  1.00  0.00     0.167 HD
ATOM     50  C   UNL A   1      45.828  27.853  26.843  1.00  0.00     0.034 A 
ATOM     51  C   UNL A   1      40.116  30.181  30.161  1.00  0.00     0.034 A 
ATOM     52  C   UNL A   1      45.901  29.216  27.294  1.00  0.00     0.049 A 
ATOM     53  C   UNL A   1      41.356  31.026  30.015  1.00  0.00     0.074 A 
ATOM     54  C   UNL A   1      46.946  30.112  27.154  1.00  0.00     0.029 A 
ATOM     55  N   UNL A   1      44.897  29.874  27.988  1.00  0.00    -0.354 N 
ATOM     56  N   UNL A   1      42.467  30.761  29.370  1.00  0.00    -0.248 NA
ATOM     57  C   UNL A   1      41.337  32.352  30.651  1.00  0.00     0.031 C 
ATOM     58  C   UNL A   1      46.590  31.300  27.801  1.00  0.00     0.029 A 
ATOM     59  C   UNL A   1      45.304  31.160  28.299  1.00  0.00     0.049 A 
ATOM     60  H   UNL A   1      44.025  29.484  28.225  1.00  0.00     0.167 HD
ATOM     61  C   UNL A   1      43.259  31.900  29.488  1.00  0.00     0.074 A 
ATOM     62  C   UNL A   1      42.493  32.863  30.250  1.00  0.00     0.031 C 
ATOM     63  C   UNL A   1      44.511  32.126  29.015  1.00  0.00     0.034 A 
BRANCH  50  64
ATOM     64  C   UNL A   1      47.031  27.262  26.157  1.00  0.00     0.023 A 
ATOM     65  C   UNL A   1      47.194  27.416  24.764  1.00  0.00     0.012 A 
ATOM     66  C   UNL A   1      48.025  26.597  26.900  1.00  0.00     0.148 A 
ATOM     67  C   UNL A   1      48.311  26.888  24.118  1.00  0.00     0.002 A 
ATOM     68  C   UNL A   1      49.160  26.118  26.258  1.00  0.00     0.091 A 
ATOM     69  F   UNL A   1      47.840  26.442  28.218  1.00  0.00    -0.205 F 
ATOM     70  C   UNL A   1      49.299  26.251  24.866  1.00  0.00     0.022 A 
BRANCH  68  71
ATOM     71  S   UNL A   1      50.524  25.355  27.141  1.00  0.00     0.127 S 
ATOM     72  O   UNL A   1      51.428  25.008  26.044  1.00  0.00    -0.237 OA
ATOM     73  O   UNL A   1      50.990  26.452  27.989  1.00  0.00    -0.237 OA
ATOM     74  O   UNL A   1      49.958  24.225  27.861  1.00  0.00    -0.744 OA
ENDBRANCH  68  71
ENDBRANCH  50  64
BRANCH  51  75
ATOM     75  C   UNL A   1      38.942  30.685  30.930  1.00  0.00     0.023 A 
ATOM     76  C   UNL A   1      38.820  30.385  32.301  1.00  0.00     0.012 A 
ATOM     77  C   UNL A   1      37.941  31.454  30.304  1.00  0.00     0.148 A 
ATOM     78  C   UNL A   1      37.706  30.811  33.025  1.00  0.00     0.002 A 
ATOM     79  C   UNL A   1      36.863  31.923  31.045  1.00  0.00     0.091 A 
ATOM     80  F   UNL A   1      38.067  31.715  28.995  1.00  0.00    -0.205 F 
ATOM     81  C   UNL A   1      36.733  31.586  32.401  1.00  0.00     0.022 A 
BRANCH  79  82
ATOM     82  S   UNL A   1      35.626  33.028  30.355  1.00  0.00     0.127 S 
ATOM     83  O   UNL A   1      34.829  32.113  29.542  1.00  0.00    -0.237 OA
ATOM     84  O   UNL A   1      34.961  33.520  31.562  1.00  0.00    -0.237 OA
ATOM     85  O   UNL A   1      36.368  34.041  29.620  1.00  0.00    -0.744 OA
ENDBRANCH  79  82
ENDBRANCH  51  75
BRANCH  63  86
ATOM     86  C   UNL A   1      45.120  33.484  29.254  1.00  0.00     0.023 A 
ATOM     87  C   UNL A   1      45.846  33.740  30.433  1.00  0.00     0.012 A 
ATOM     88  C   UNL A   1      45.034  34.486  28.265  1.00  0.00     0.148 A 
ATOM     89  C   UNL A   1      46.445  34.982  30.642  1.00  0.00     0.002 A 
ATOM     90  C   UNL A   1      45.680  35.701  28.456  1.00  0.00     0.091 A 
ATOM     91  F   UNL A   1      44.327  34.230  27.155  1.00  0.00    -0.205 F 
ATOM     92  C   UNL A   1      46.373  35.957  29.650  1.00  0.00     0.022 A 
BRANCH  90  93
ATOM     93  S   UNL A   1      45.726  36.978  27.193  1.00  0.00     0.127 S 
ATOM     94  O   UNL A   1      44.307  37.288  27.031  1.00  0.00    -0.237 OA
ATOM     95  O   UNL A   1      46.510  38.027  27.844  1.00  0.00    -0.237 OA
ATOM     96  O   UNL A   1      46.368  36.374  26.033  1.00  0.00    -0.744 OA
ENDBRANCH  90  93
ENDBRANCH  63  86
ENDBRANCH  37  38
ENDBRANCH  30  32
ENDBRANCH  29  30
ENDBRANCH  28  29
ENDBRANCH  27  28
ENDBRANCH  26  27
ENDBRANCH  25  26
ENDBRANCH   1  25
TORSDOF 27
ENDMDL
MODEL 3
REMARK VINA RESULT:      -9.1      5.255     10.914
REMARK SMILES CC[C@@](CC(F)(F)F)(C(=O)OCCOCCOCCOCCOC(=O)c1ccc(-c2c3nc(c(-c4cccc(S(=O)(=O)[O-])c4F)c4ccc([nH]4)c(-c4cccc(S(=O)(=O)[O-])c4F)c4nc(c(-c5cccc(S(=O)(=O)[O-])c5F)c5ccc2[nH]5)C=C4)C=C3)cc1)c1ccccc1
REMARK SMILES IDX 18 1 17 2 16 3 15 4 14 5 13 6 12 7 11 8 9 9 10 10 3 11 2 12
REMARK SMILES IDX 1 13 4 14 5 15 6 16 7 17 8 18 89 19 90 20 94 21 91 22 93 23
REMARK SMILES IDX 92 24 19 25 20 26 21 27 22 28 23 29 24 30 25 31 26 32 27 33
REMARK SMILES IDX 88 34 28 35 87 36 29 37 30 38 31 39 81 40 32 41 86 42 80 43
REMARK SMILES IDX 82 44 33 45 85 46 79 47 78 48 34 50 66 51 46 52 65 53 47 54
REMARK SMILES IDX 50 55 64 56 83 57 48 58 49 59 63 61 84 62 51 63 35 64 36 65
REMARK SMILES IDX 44 66 37 67 39 68 45 69 38 70 40 71 41 72 42 73 43 74 67 75
REMARK SMILES IDX 68 76 76 77 69 78 71 79 77 80 70 81 72 82 73 83 74 84 75 85
REMARK SMILES IDX 52 86 53 87 61 88 54 89 56 90 62 91 55 92 57 93 58 94 59 95
REMARK SMILES IDX 60 96
REMARK H PARENT 82 49 50 60
REMARK Flexibility Score: inf
ROOT
ATOM      1  C   UNL A   1      33.759  20.560  24.641  1.00  0.00     0.188 C 
ENDROOT
BRANCH   1   2
ATOM      2  O   UNL A   1      32.671  20.958  23.813  1.00  0.00    -0.377 OA
BRANCH   2   3
ATOM      3  C   UNL A   1      32.690  22.234  23.203  1.00  0.00     0.188 C 
BRANCH   3   4
ATOM      4  C   UNL A   1      34.038  22.944  23.084  1.00  0.00     0.188 C 
BRANCH   4   5
ATOM      5  O   UNL A   1      34.034  24.188  22.428  1.00  0.00    -0.376 OA
BRANCH   5   6
ATOM      6  C   UNL A   1      33.315  25.286  22.963  1.00  0.00     0.202 C 
BRANCH   6   7
ATOM      7  C   UNL A   1      31.921  25.786  22.514  1.00  0.00     0.261 C 
BRANCH   7   8
ATOM      8  O   UNL A   1      31.781  27.140  22.060  1.00  0.00    -0.463 OA
BRANCH   8   9
ATOM      9  C   UNL A   1      32.010  28.117  22.961  1.00  0.00     0.316 C 
ATOM     10  O   UNL A   1      33.088  28.705  23.056  1.00  0.00    -0.251 OA
BRANCH   9  11
ATOM     11  C   UNL A   1      30.791  28.459  23.893  1.00  0.00     0.101 C 
BRANCH  11  12
ATOM     12  C   UNL A   1      29.789  27.262  24.128  1.00  0.00     0.020 C 
ATOM     13  C   UNL A   1      28.367  27.343  23.556  1.00  0.00     0.005 C 
ENDBRANCH  11  12
BRANCH  11  14
ATOM     14  C   UNL A   1      31.498  28.847  25.225  1.00  0.00     0.139 C 
BRANCH  14  15
ATOM     15  C   UNL A   1      31.624  27.697  26.222  1.00  0.00     0.390 C 
ATOM     16  F   UNL A   1      30.548  26.887  26.213  1.00  0.00    -0.171 F 
ATOM     17  F   UNL A   1      32.703  26.946  25.910  1.00  0.00    -0.171 F 
ATOM     18  F   UNL A   1      31.795  28.137  27.483  1.00  0.00    -0.171 F 
ENDBRANCH  14  15
ENDBRANCH  11  14
BRANCH  11  19
ATOM     19  C   UNL A   1      30.014  29.684  23.296  1.00  0.00    -0.030 A 
ATOM     20  C   UNL A   1      29.649  29.759  21.933  1.00  0.00     0.005 A 
ATOM     21  C   UNL A   1      29.607  30.760  24.101  1.00  0.00     0.005 A 
ATOM     22  C   UNL A   1      28.875  30.805  21.418  1.00  0.00     0.000 A 
ATOM     23  C   UNL A   1      28.825  31.807  23.591  1.00  0.00     0.000 A 
ATOM     24  C   UNL A   1      28.452  31.826  22.252  1.00  0.00     0.000 A 
ENDBRANCH  11  19
ENDBRANCH   9  11
ENDBRANCH   8   9
ENDBRANCH   7   8
ENDBRANCH   6   7
ENDBRANCH   5   6
ENDBRANCH   4   5
ENDBRANCH   3   4
ENDBRANCH   2   3
ENDBRANCH   1   2
BRANCH   1  25
ATOM     25  C   UNL A   1      34.333  21.518  25.707  1.00  0.00     0.188 C 
BRANCH  25  26
ATOM     26  O   UNL A   1      35.740  21.468  25.873  1.00  0.00    -0.376 OA
BRANCH  26  27
ATOM     27  C   UNL A   1      36.502  20.650  25.000  1.00  0.00     0.202 C 
BRANCH  27  28
ATOM     28  C   UNL A   1      38.036  20.732  25.062  1.00  0.00     0.261 C 
BRANCH  28  29
ATOM     29  O   UNL A   1      38.636  20.650  26.363  1.00  0.00    -0.460 OA
BRANCH  29  30
ATOM     30  C   UNL A   1      39.979  20.780  26.459  1.00  0.00     0.338 C 
ATOM     31  O   UNL A   1      40.821  20.013  26.050  1.00  0.00    -0.246 OA
BRANCH  30  32
ATOM     32  C   UNL A   1      40.253  22.140  26.974  1.00  0.00     0.060 A 
ATOM     33  C   UNL A   1      39.536  23.222  26.446  1.00  0.00     0.016 A 
ATOM     34  C   UNL A   1      41.209  22.342  27.972  1.00  0.00     0.016 A 
ATOM     35  C   UNL A   1      39.803  24.518  26.886  1.00  0.00     0.010 A 
ATOM     36  C   UNL A   1      41.493  23.643  28.392  1.00  0.00     0.010 A 
ATOM     37  C   UNL A   1      40.820  24.737  27.821  1.00  0.00    -0.014 A 
BRANCH  37  38
ATOM     38  C   UNL A   1      41.325  26.113  28.039  1.00  0.00     0.031 A 
ATOM     39  C   UNL A   1      42.723  26.435  27.583  1.00  0.00     0.074 A 
ATOM     40  C   UNL A   1      40.565  27.060  28.618  1.00  0.00     0.049 A 
ATOM     41  N   UNL A   1      43.403  27.543  27.707  1.00  0.00    -0.248 NA
ATOM     42  C   UNL A   1      43.454  25.354  26.898  1.00  0.00     0.031 C 
ATOM     43  C   UNL A   1      39.191  26.876  29.081  1.00  0.00     0.029 A 
ATOM     44  N   UNL A   1      40.859  28.362  28.937  1.00  0.00    -0.354 N 
ATOM     45  C   UNL A   1      44.648  27.287  27.148  1.00  0.00     0.074 A 
ATOM     46  C   UNL A   1      44.636  25.915  26.692  1.00  0.00     0.031 C 
ATOM     47  C   UNL A   1      38.772  28.015  29.659  1.00  0.00     0.029 A 
ATOM     48  C   UNL A   1      39.857  28.996  29.631  1.00  0.00     0.049 A 
ATOM     49  H   UNL A   1      41.707  28.799  28.691  1.00  0.00     0.167 HD
ATOM     50  C   UNL A   1      45.705  28.121  27.014  1.00  0.00     0.034 A 
ATOM     51  C   UNL A   1      39.834  30.215  30.207  1.00  0.00     0.034 A 
ATOM     52  C   UNL A   1      45.711  29.487  27.461  1.00  0.00     0.049 A 
ATOM     53  C   UNL A   1      41.040  31.112  30.082  1.00  0.00     0.074 A 
ATOM     54  C   UNL A   1      46.720  30.426  27.338  1.00  0.00     0.029 A 
ATOM     55  N   UNL A   1      44.667  30.104  28.132  1.00  0.00    -0.354 N 
ATOM     56  N   UNL A   1      42.174  30.892  29.461  1.00  0.00    -0.248 NA
ATOM     57  C   UNL A   1      40.952  32.438  30.712  1.00  0.00     0.031 C 
ATOM     58  C   UNL A   1      46.300  31.600  27.972  1.00  0.00     0.029 A 
ATOM     59  C   UNL A   1      45.012  31.407  28.445  1.00  0.00     0.049 A 
ATOM     60  H   UNL A   1      43.807  29.679  28.353  1.00  0.00     0.167 HD
ATOM     61  C   UNL A   1      42.914  32.064  29.589  1.00  0.00     0.074 A 
ATOM     62  C   UNL A   1      42.092  32.997  30.331  1.00  0.00     0.031 C 
ATOM     63  C   UNL A   1      44.164  32.342  29.140  1.00  0.00     0.034 A 
BRANCH  50  64
ATOM     64  C   UNL A   1      46.946  27.579  26.356  1.00  0.00     0.023 A 
ATOM     65  C   UNL A   1      47.170  27.804  24.981  1.00  0.00     0.012 A 
ATOM     66  C   UNL A   1      47.915  26.889  27.109  1.00  0.00     0.148 A 
ATOM     67  C   UNL A   1      48.322  27.323  24.361  1.00  0.00     0.002 A 
ATOM     68  C   UNL A   1      49.084  26.456  26.496  1.00  0.00     0.091 A 
ATOM     69  F   UNL A   1      47.673  26.666  28.408  1.00  0.00    -0.205 F 
ATOM     70  C   UNL A   1      49.284  26.660  25.121  1.00  0.00     0.022 A 
BRANCH  68  71
ATOM     71  S   UNL A   1      50.418  25.666  27.401  1.00  0.00     0.127 S 
ATOM     72  O   UNL A   1      51.508  25.721  26.428  1.00  0.00    -0.237 OA
ATOM     73  O   UNL A   1      50.579  26.559  28.548  1.00  0.00    -0.237 OA
ATOM     74  O   UNL A   1      49.947  24.329  27.731  1.00  0.00    -0.744 OA
ENDBRANCH  68  71
ENDBRANCH  50  64
BRANCH  51  75
ATOM     75  C   UNL A   1      38.624  30.671  30.950  1.00  0.00     0.023 A 
ATOM     76  C   UNL A   1      38.482  30.362  32.317  1.00  0.00     0.012 A 
ATOM     77  C   UNL A   1      37.610  31.405  30.303  1.00  0.00     0.148 A 
ATOM     78  C   UNL A   1      37.336  30.743  33.016  1.00  0.00     0.002 A 
ATOM     79  C   UNL A   1      36.498  31.830  31.020  1.00  0.00     0.091 A 
ATOM     80  F   UNL A   1      37.755  31.675  28.999  1.00  0.00    -0.205 F 
ATOM     81  C   UNL A   1      36.349  31.483  32.372  1.00  0.00     0.022 A 
BRANCH  79  82
ATOM     82  S   UNL A   1      35.236  32.889  30.305  1.00  0.00     0.127 S 
ATOM     83  O   UNL A   1      36.043  33.933  29.678  1.00  0.00    -0.237 OA
ATOM     84  O   UNL A   1      34.575  31.976  29.372  1.00  0.00    -0.237 OA
ATOM     85  O   UNL A   1      34.404  33.320  31.420  1.00  0.00    -0.744 OA
ENDBRANCH  79  82
ENDBRANCH  51  75
BRANCH  63  86
ATOM     86  C   UNL A   1      44.710  33.726  29.385  1.00  0.00     0.023 A 
ATOM     87  C   UNL A   1      45.433  34.006  30.560  1.00  0.00     0.012 A 
ATOM     88  C   UNL A   1      44.568  34.730  28.405  1.00  0.00     0.148 A 
ATOM     89  C   UNL A   1      45.974  35.274  30.774  1.00  0.00     0.002 A 
ATOM     90  C   UNL A   1      45.156  35.973  28.600  1.00  0.00     0.091 A 
ATOM     91  F   UNL A   1      43.864  34.448  27.299  1.00  0.00    -0.205 F 
ATOM     92  C   UNL A   1      45.847  36.252  29.791  1.00  0.00     0.022 A 
BRANCH  90  93
ATOM     93  S   UNL A   1      45.132  37.260  27.347  1.00  0.00     0.127 S 
ATOM     94  O   UNL A   1      45.764  38.374  28.052  1.00  0.00    -0.237 OA
ATOM     95  O   UNL A   1      45.945  36.671  26.283  1.00  0.00    -0.237 OA
ATOM     96  O   UNL A   1      43.731  37.458  27.000  1.00  0.00    -0.744 OA
ENDBRANCH  90  93
ENDBRANCH  63  86
ENDBRANCH  37  38
ENDBRANCH  30  32
ENDBRANCH  29  30
ENDBRANCH  28  29
ENDBRANCH  27  28
ENDBRANCH  26  27
ENDBRANCH  25  26
ENDBRANCH   1  25
TORSDOF 27
ENDMDL
