MODEL 1
REMARK VINA RESULT:      -8.8      0.000      0.000
REMARK SMILES C[C@]1(C(=O)OCCOCCOCCOCCOC(=O)c2ccc(-c3c4nc(c(-c5cccc(S(=O)(=O)[O-])c5F)c5ccc([nH]5)c(-c5cccc(S(=O)(=O)[O-])c5F)c5nc(c(-c6cccc(S(=O)(=O)[O-])c6F)c6ccc3[nH]6)C=C5)C=C4)cc2)[NH2+]C2(C(=O)c3ccccc3C2=O)[C@@H]2C(=O)N(c3ccccc3)C(=O)[C@H]21
REMARK SMILES IDX 12 1 11 2 10 3 9 4 8 5 7 6 6 7 5 8 3 9 4 10 2 11 1 12 83 13
REMARK SMILES IDX 107 14 84 15 95 18 105 19 85 20 93 21 96 22 98 23 106 24
REMARK SMILES IDX 86 25 87 26 92 27 94 28 97 29 88 30 91 31 89 32 90 33 99 34
REMARK SMILES IDX 100 35 104 36 101 37 103 38 102 39 13 40 14 41 15 42 16 43
REMARK SMILES IDX 17 44 18 45 19 46 20 47 21 48 82 49 22 50 81 51 23 52 24 53
REMARK SMILES IDX 25 54 75 55 26 56 80 57 74 58 76 59 27 60 79 61 73 62 72 63
REMARK SMILES IDX 28 65 60 66 40 67 59 68 41 69 44 70 58 71 77 72 42 73 43 74
REMARK SMILES IDX 57 76 78 77 45 78 29 79 30 80 38 81 31 82 33 83 39 84 32 85
REMARK SMILES IDX 34 86 35 87 36 88 37 89 61 90 62 91 70 92 63 93 65 94 71 95
REMARK SMILES IDX 64 96 66 97 67 98 68 99 69 100 46 101 47 102 55 103 48 104
REMARK SMILES IDX 50 105 56 106 49 107 51 108 52 109 53 110 54 111
REMARK H PARENT 83 16 83 17 76 64 44 75
REMARK Flexibility Score: inf
ROOT
ATOM      1  C   UNL A   1      39.823  22.471  26.971  1.00  0.00     0.188 C 
ENDROOT
BRANCH   1   2
ATOM      2  O   UNL A   1      40.164  23.806  27.311  1.00  0.00    -0.377 OA
BRANCH   2   3
ATOM      3  C   UNL A   1      39.245  24.828  27.012  1.00  0.00     0.188 C 
BRANCH   3   4
ATOM      4  C   UNL A   1      39.605  26.198  27.601  1.00  0.00     0.188 C 
BRANCH   4   5
ATOM      5  O   UNL A   1      40.115  26.319  28.916  1.00  0.00    -0.376 OA
BRANCH   5   6
ATOM      6  C   UNL A   1      39.922  27.472  29.722  1.00  0.00     0.202 C 
BRANCH   6   7
ATOM      7  C   UNL A   1      38.770  27.692  30.718  1.00  0.00     0.261 C 
BRANCH   7   8
ATOM      8  O   UNL A   1      37.561  28.267  30.223  1.00  0.00    -0.459 OA
BRANCH   8   9
ATOM      9  C   UNL A   1      37.263  29.507  30.668  1.00  0.00     0.368 C 
ATOM     10  O   UNL A   1      37.327  29.840  31.847  1.00  0.00    -0.245 OA
BRANCH   9  11
ATOM     11  C   UNL A   1      36.787  30.465  29.539  1.00  0.00     0.205 C 
ATOM     12  C   UNL A   1      36.543  29.601  28.300  1.00  0.00     0.093 C 
ATOM     13  N   UNL A   1      35.527  31.277  29.831  1.00  0.00    -0.313 N 
ATOM     14  C   UNL A   1      37.793  31.561  29.356  1.00  0.00     0.172 C 
ATOM     15  C   UNL A   1      35.933  32.705  30.163  1.00  0.00     0.237 C 
ATOM     16  H   UNL A   1      35.032  30.869  30.623  1.00  0.00     0.348 HD
ATOM     17  H   UNL A   1      34.914  31.271  29.016  1.00  0.00     0.348 HD
ATOM     18  C   UNL A   1      37.374  32.517  30.464  1.00  0.00     0.177 C 
ATOM     19  C   UNL A   1      39.249  31.431  29.629  1.00  0.00     0.244 C 
ATOM     20  C   UNL A   1      35.559  33.632  29.003  1.00  0.00     0.232 C 
ATOM     21  C   UNL A   1      35.102  33.262  31.324  1.00  0.00     0.232 C 
ATOM     22  C   UNL A   1      38.516  33.454  30.450  1.00  0.00     0.245 C 
ATOM     23  N   UNL A   1      39.615  32.622  30.245  1.00  0.00    -0.250 N 
ATOM     24  O   UNL A   1      39.925  30.479  29.280  1.00  0.00    -0.273 OA
ATOM     25  O   UNL A   1      35.936  33.557  27.846  1.00  0.00    -0.286 OA
ATOM     26  C   UNL A   1      34.537  34.569  29.465  1.00  0.00     0.036 A 
ATOM     27  C   UNL A   1      34.256  34.343  30.806  1.00  0.00     0.036 A 
ATOM     28  O   UNL A   1      35.122  32.939  32.497  1.00  0.00    -0.286 OA
ATOM     29  O   UNL A   1      38.443  34.652  30.670  1.00  0.00    -0.273 OA
ATOM     30  C   UNL A   1      33.872  35.536  28.730  1.00  0.00     0.013 A 
ATOM     31  C   UNL A   1      33.297  35.086  31.474  1.00  0.00     0.013 A 
ATOM     32  C   UNL A   1      32.903  36.297  29.389  1.00  0.00     0.001 A 
ATOM     33  C   UNL A   1      32.618  36.074  30.751  1.00  0.00     0.001 A 
BRANCH  23  34
ATOM     34  C   UNL A   1      40.910  32.845  30.754  1.00  0.00     0.052 A 
ATOM     35  C   UNL A   1      41.186  32.645  32.114  1.00  0.00     0.027 A 
ATOM     36  C   UNL A   1      41.888  33.427  29.939  1.00  0.00     0.027 A 
ATOM     37  C   UNL A   1      42.413  33.029  32.653  1.00  0.00     0.002 A 
ATOM     38  C   UNL A   1      43.099  33.848  30.490  1.00  0.00     0.002 A 
ATOM     39  C   UNL A   1      43.362  33.647  31.845  1.00  0.00     0.000 A 
ENDBRANCH  23  34
ENDBRANCH   9  11
ENDBRANCH   8   9
ENDBRANCH   7   8
ENDBRANCH   6   7
ENDBRANCH   5   6
ENDBRANCH   4   5
ENDBRANCH   3   4
ENDBRANCH   2   3
ENDBRANCH   1   2
BRANCH   1  40
ATOM     40  C   UNL A   1      40.762  21.320  27.391  1.00  0.00     0.188 C 
BRANCH  40  41
ATOM     41  O   UNL A   1      40.947  20.309  26.409  1.00  0.00    -0.376 OA
BRANCH  41  42
ATOM     42  C   UNL A   1      42.239  19.759  26.213  1.00  0.00     0.202 C 
BRANCH  42  43
ATOM     43  C   UNL A   1      43.374  20.692  25.755  1.00  0.00     0.261 C 
BRANCH  43  44
ATOM     44  O   UNL A   1      43.017  21.759  24.868  1.00  0.00    -0.460 OA
BRANCH  44  45
ATOM     45  C   UNL A   1      44.008  22.454  24.267  1.00  0.00     0.338 C 
ATOM     46  O   UNL A   1      44.417  22.309  23.131  1.00  0.00    -0.246 OA
BRANCH  45  47
ATOM     47  C   UNL A   1      44.364  23.566  25.179  1.00  0.00     0.060 A 
ATOM     48  C   UNL A   1      43.404  24.517  25.534  1.00  0.00     0.016 A 
ATOM     49  C   UNL A   1      45.684  23.688  25.635  1.00  0.00     0.016 A 
ATOM     50  C   UNL A   1      43.759  25.571  26.376  1.00  0.00     0.010 A 
ATOM     51  C   UNL A   1      46.040  24.752  26.468  1.00  0.00     0.010 A 
ATOM     52  C   UNL A   1      45.073  25.686  26.869  1.00  0.00    -0.014 A 
BRANCH  52  53
ATOM     53  C   UNL A   1      45.360  26.639  27.967  1.00  0.00     0.031 A 
ATOM     54  C   UNL A   1      45.832  28.040  27.725  1.00  0.00     0.074 A 
ATOM     55  C   UNL A   1      45.202  26.191  29.229  1.00  0.00     0.049 A 
ATOM     56  N   UNL A   1      46.029  28.992  28.603  1.00  0.00    -0.248 NA
ATOM     57  C   UNL A   1      46.130  28.427  26.340  1.00  0.00     0.031 C 
ATOM     58  C   UNL A   1      44.815  24.824  29.586  1.00  0.00     0.029 A 
ATOM     59  N   UNL A   1      45.347  26.824  30.436  1.00  0.00    -0.354 N 
ATOM     60  C   UNL A   1      46.484  30.090  27.884  1.00  0.00     0.074 A 
ATOM     61  C   UNL A   1      46.545  29.681  26.495  1.00  0.00     0.031 C 
ATOM     62  C   UNL A   1      44.737  24.725  30.921  1.00  0.00     0.029 A 
ATOM     63  C   UNL A   1      45.084  26.012  31.514  1.00  0.00     0.049 A 
ATOM     64  H   UNL A   1      45.612  27.768  30.523  1.00  0.00     0.167 HD
ATOM     65  C   UNL A   1      46.799  31.324  28.344  1.00  0.00     0.034 A 
ATOM     66  C   UNL A   1      45.113  26.268  32.835  1.00  0.00     0.034 A 
ATOM     67  C   UNL A   1      46.718  31.727  29.725  1.00  0.00     0.049 A 
ATOM     68  C   UNL A   1      45.440  27.649  33.314  1.00  0.00     0.074 A 
ATOM     69  C   UNL A   1      46.935  32.985  30.263  1.00  0.00     0.029 A 
ATOM     70  N   UNL A   1      46.419  30.887  30.786  1.00  0.00    -0.354 N 
ATOM     71  N   UNL A   1      45.716  28.716  32.605  1.00  0.00    -0.248 NA
ATOM     72  C   UNL A   1      45.435  27.876  34.766  1.00  0.00     0.031 C 
ATOM     73  C   UNL A   1      46.797  32.899  31.651  1.00  0.00     0.029 A 
ATOM     74  C   UNL A   1      46.464  31.595  31.976  1.00  0.00     0.049 A 
ATOM     75  H   UNL A   1      46.206  29.929  30.706  1.00  0.00     0.167 HD
ATOM     76  C   UNL A   1      45.900  29.744  33.520  1.00  0.00     0.074 A 
ATOM     77  C   UNL A   1      45.690  29.177  34.835  1.00  0.00     0.031 C 
ATOM     78  C   UNL A   1      46.223  31.037  33.282  1.00  0.00     0.034 A 
BRANCH  65  79
ATOM     79  C   UNL A   1      47.211  32.375  27.349  1.00  0.00     0.023 A 
ATOM     80  C   UNL A   1      46.236  33.249  26.830  1.00  0.00     0.012 A 
ATOM     81  C   UNL A   1      48.570  32.594  27.047  1.00  0.00     0.148 A 
ATOM     82  C   UNL A   1      46.604  34.324  26.022  1.00  0.00     0.002 A 
ATOM     83  C   UNL A   1      48.933  33.683  26.262  1.00  0.00     0.091 A 
ATOM     84  F   UNL A   1      49.480  31.750  27.554  1.00  0.00    -0.205 F 
ATOM     85  C   UNL A   1      47.951  34.547  25.748  1.00  0.00     0.022 A 
BRANCH  83  86
ATOM     86  S   UNL A   1      50.641  34.091  25.887  1.00  0.00     0.127 S 
ATOM     87  O   UNL A   1      51.320  33.658  27.109  1.00  0.00    -0.237 OA
ATOM     88  O   UNL A   1      50.906  33.256  24.715  1.00  0.00    -0.237 OA
ATOM     89  O   UNL A   1      50.671  35.525  25.640  1.00  0.00    -0.744 OA
ENDBRANCH  83  86
ENDBRANCH  65  79
BRANCH  66  90
ATOM     90  C   UNL A   1      44.750  25.181  33.782  1.00  0.00     0.023 A 
ATOM     91  C   UNL A   1      43.409  25.035  34.183  1.00  0.00     0.012 A 
ATOM     92  C   UNL A   1      45.708  24.238  34.199  1.00  0.00     0.148 A 
ATOM     93  C   UNL A   1      43.027  23.962  34.989  1.00  0.00     0.002 A 
ATOM     94  C   UNL A   1      45.314  23.153  34.970  1.00  0.00     0.091 A 
ATOM     95  F   UNL A   1      46.974  24.402  33.792  1.00  0.00    -0.205 F 
ATOM     96  C   UNL A   1      43.977  23.016  35.372  1.00  0.00     0.022 A 
BRANCH  94  97
ATOM     97  S   UNL A   1      46.441  21.833  35.431  1.00  0.00     0.127 S 
ATOM     98  O   UNL A   1      47.530  22.024  34.475  1.00  0.00    -0.237 OA
ATOM     99  O   UNL A   1      46.763  22.188  36.813  1.00  0.00    -0.237 OA
ATOM    100  O   UNL A   1      45.689  20.596  35.279  1.00  0.00    -0.744 OA
ENDBRANCH  94  97
ENDBRANCH  66  90
BRANCH  78 101
ATOM    101  C   UNL A   1      46.368  31.961  34.460  1.00  0.00     0.023 A 
ATOM    102  C   UNL A   1      45.230  32.608  34.978  1.00  0.00     0.012 A 
ATOM    103  C   UNL A   1      47.602  32.081  35.129  1.00  0.00     0.148 A 
ATOM    104  C   UNL A   1      45.319  33.366  36.146  1.00  0.00     0.002 A 
ATOM    105  C   UNL A   1      47.676  32.810  36.310  1.00  0.00     0.091 A 
ATOM    106  F   UNL A   1      48.671  31.460  34.611  1.00  0.00    -0.205 F 
ATOM    107  C   UNL A   1      46.536  33.455  36.818  1.00  0.00     0.022 A 
BRANCH 105 108
ATOM    108  S   UNL A   1      49.182  32.932  37.283  1.00  0.00     0.127 S 
ATOM    109  O   UNL A   1      49.806  34.127  36.716  1.00  0.00    -0.237 OA
ATOM    110  O   UNL A   1      48.659  33.100  38.639  1.00  0.00    -0.237 OA
ATOM    111  O   UNL A   1      49.911  31.691  37.060  1.00  0.00    -0.744 OA
ENDBRANCH 105 108
ENDBRANCH  78 101
ENDBRANCH  52  53
ENDBRANCH  45  47
ENDBRANCH  44  45
ENDBRANCH  43  44
ENDBRANCH  42  43
ENDBRANCH  41  42
ENDBRANCH  40  41
ENDBRANCH   1  40
TORSDOF 24
ENDMDL
MODEL 2
REMARK VINA RESULT:      -8.2      5.189     10.246
REMARK SMILES C[C@]1(C(=O)OCCOCCOCCOCCOC(=O)c2ccc(-c3c4nc(c(-c5cccc(S(=O)(=O)[O-])c5F)c5ccc([nH]5)c(-c5cccc(S(=O)(=O)[O-])c5F)c5nc(c(-c6cccc(S(=O)(=O)[O-])c6F)c6ccc3[nH]6)C=C5)C=C4)cc2)[NH2+]C2(C(=O)c3ccccc3C2=O)[C@@H]2C(=O)N(c3ccccc3)C(=O)[C@H]21
REMARK SMILES IDX 12 1 11 2 10 3 9 4 8 5 7 6 6 7 5 8 3 9 4 10 2 11 1 12 83 13
REMARK SMILES IDX 107 14 84 15 95 18 105 19 85 20 93 21 96 22 98 23 106 24
REMARK SMILES IDX 86 25 87 26 92 27 94 28 97 29 88 30 91 31 89 32 90 33 99 34
REMARK SMILES IDX 100 35 104 36 101 37 103 38 102 39 13 40 14 41 15 42 16 43
REMARK SMILES IDX 17 44 18 45 19 46 20 47 21 48 82 49 22 50 81 51 23 52 24 53
REMARK SMILES IDX 25 54 75 55 26 56 80 57 74 58 76 59 27 60 79 61 73 62 72 63
REMARK SMILES IDX 28 65 60 66 40 67 59 68 41 69 44 70 58 71 77 72 42 73 43 74
REMARK SMILES IDX 57 76 78 77 45 78 29 79 30 80 38 81 31 82 33 83 39 84 32 85
REMARK SMILES IDX 34 86 35 87 36 88 37 89 61 90 62 91 70 92 63 93 65 94 71 95
REMARK SMILES IDX 64 96 66 97 67 98 68 99 69 100 46 101 47 102 55 103 48 104
REMARK SMILES IDX 50 105 56 106 49 107 51 108 52 109 53 110 54 111
REMARK H PARENT 83 16 83 17 76 64 44 75
REMARK Flexibility Score: inf
ROOT
ATOM      1  C   UNL A   1      42.540  21.102  26.945  1.00  0.00     0.188 C 
ENDROOT
BRANCH   1   2
ATOM      2  O   UNL A   1      41.225  21.635  26.911  1.00  0.00    -0.377 OA
BRANCH   2   3
ATOM      3  C   UNL A   1      40.238  20.935  26.195  1.00  0.00     0.188 C 
BRANCH   3   4
ATOM      4  C   UNL A   1      38.926  21.706  26.003  1.00  0.00     0.188 C 
BRANCH   4   5
ATOM      5  O   UNL A   1      38.790  23.042  26.450  1.00  0.00    -0.376 OA
BRANCH   5   6
ATOM      6  C   UNL A   1      38.056  24.030  25.739  1.00  0.00     0.202 C 
BRANCH   6   7
ATOM      7  C   UNL A   1      36.548  24.304  25.876  1.00  0.00     0.261 C 
BRANCH   7   8
ATOM      8  O   UNL A   1      35.649  23.219  25.652  1.00  0.00    -0.459 OA
BRANCH   8   9
ATOM      9  C   UNL A   1      35.013  22.734  26.741  1.00  0.00     0.368 C 
ATOM     10  O   UNL A   1      35.530  21.962  27.542  1.00  0.00    -0.245 OA
BRANCH   9  11
ATOM     11  C   UNL A   1      33.540  23.219  26.857  1.00  0.00     0.205 C 
ATOM     12  C   UNL A   1      33.223  23.317  28.350  1.00  0.00     0.093 C 
ATOM     13  N   UNL A   1      33.217  24.557  26.194  1.00  0.00    -0.313 N 
ATOM     14  C   UNL A   1      32.649  22.298  26.080  1.00  0.00     0.172 C 
ATOM     15  C   UNL A   1      32.485  24.291  24.888  1.00  0.00     0.237 C 
ATOM     16  H   UNL A   1      34.081  25.064  26.006  1.00  0.00     0.348 HD
ATOM     17  H   UNL A   1      32.631  25.118  26.813  1.00  0.00     0.348 HD
ATOM     18  C   UNL A   1      32.816  22.859  24.676  1.00  0.00     0.177 C 
ATOM     19  C   UNL A   1      32.920  20.855  25.843  1.00  0.00     0.244 C 
ATOM     20  C   UNL A   1      31.009  24.669  25.037  1.00  0.00     0.232 C 
ATOM     21  C   UNL A   1      32.966  25.233  23.780  1.00  0.00     0.232 C 
ATOM     22  C   UNL A   1      32.155  21.800  23.887  1.00  0.00     0.245 C 
ATOM     23  N   UNL A   1      32.557  20.626  24.520  1.00  0.00    -0.250 N 
ATOM     24  O   UNL A   1      33.303  20.083  26.704  1.00  0.00    -0.273 OA
ATOM     25  O   UNL A   1      30.207  24.219  25.837  1.00  0.00    -0.286 OA
ATOM     26  C   UNL A   1      30.722  25.791  24.145  1.00  0.00     0.036 A 
ATOM     27  C   UNL A   1      31.862  26.133  23.429  1.00  0.00     0.036 A 
ATOM     28  O   UNL A   1      34.046  25.257  23.218  1.00  0.00    -0.286 OA
ATOM     29  O   UNL A   1      31.502  21.984  22.873  1.00  0.00    -0.273 OA
ATOM     30  C   UNL A   1      29.534  26.488  24.005  1.00  0.00     0.013 A 
ATOM     31  C   UNL A   1      31.858  27.187  22.531  1.00  0.00     0.013 A 
ATOM     32  C   UNL A   1      29.511  27.554  23.102  1.00  0.00     0.001 A 
ATOM     33  C   UNL A   1      30.664  27.901  22.371  1.00  0.00     0.001 A 
BRANCH  23  34
ATOM     34  C   UNL A   1      32.763  19.387  23.882  1.00  0.00     0.052 A 
ATOM     35  C   UNL A   1      33.708  18.478  24.377  1.00  0.00     0.027 A 
ATOM     36  C   UNL A   1      32.146  19.125  22.653  1.00  0.00     0.027 A 
ATOM     37  C   UNL A   1      34.039  17.332  23.655  1.00  0.00     0.002 A 
ATOM     38  C   UNL A   1      32.510  17.999  21.912  1.00  0.00     0.002 A 
ATOM     39  C   UNL A   1      33.453  17.104  22.414  1.00  0.00     0.000 A 
ENDBRANCH  23  34
ENDBRANCH   9  11
ENDBRANCH   8   9
ENDBRANCH   7   8
ENDBRANCH   6   7
ENDBRANCH   5   6
ENDBRANCH   4   5
ENDBRANCH   3   4
ENDBRANCH   2   3
ENDBRANCH   1   2
BRANCH   1  40
ATOM     40  C   UNL A   1      43.530  21.455  25.815  1.00  0.00     0.188 C 
BRANCH  40  41
ATOM     41  O   UNL A   1      43.907  22.825  25.755  1.00  0.00    -0.376 OA
BRANCH  41  42
ATOM     42  C   UNL A   1      43.148  23.720  24.961  1.00  0.00     0.202 C 
BRANCH  42  43
ATOM     43  C   UNL A   1      43.483  25.220  25.019  1.00  0.00     0.261 C 
BRANCH  43  44
ATOM     44  O   UNL A   1      42.384  26.124  25.185  1.00  0.00    -0.460 OA
BRANCH  44  45
ATOM     45  C   UNL A   1      42.640  27.370  25.641  1.00  0.00     0.338 C 
ATOM     46  O   UNL A   1      42.476  28.415  25.041  1.00  0.00    -0.246 OA
BRANCH  45  47
ATOM     47  C   UNL A   1      42.960  27.242  27.082  1.00  0.00     0.060 A 
ATOM     48  C   UNL A   1      44.257  27.492  27.537  1.00  0.00     0.016 A 
ATOM     49  C   UNL A   1      41.968  26.812  27.973  1.00  0.00     0.016 A 
ATOM     50  C   UNL A   1      44.550  27.346  28.894  1.00  0.00     0.010 A 
ATOM     51  C   UNL A   1      42.267  26.654  29.329  1.00  0.00     0.010 A 
ATOM     52  C   UNL A   1      43.552  26.948  29.805  1.00  0.00    -0.014 A 
BRANCH  52  53
ATOM     53  C   UNL A   1      43.806  27.065  31.261  1.00  0.00     0.031 A 
ATOM     54  C   UNL A   1      44.329  25.931  32.089  1.00  0.00     0.074 A 
ATOM     55  C   UNL A   1      43.522  28.247  31.843  1.00  0.00     0.049 A 
ATOM     56  N   UNL A   1      44.674  25.942  33.351  1.00  0.00    -0.248 NA
ATOM     57  C   UNL A   1      44.478  24.625  31.434  1.00  0.00     0.031 C 
ATOM     58  C   UNL A   1      42.941  29.399  31.149  1.00  0.00     0.029 A 
ATOM     59  N   UNL A   1      43.676  28.678  33.135  1.00  0.00    -0.354 N 
ATOM     60  C   UNL A   1      45.073  24.646  33.652  1.00  0.00     0.074 A 
ATOM     61  C   UNL A   1      44.915  23.870  32.439  1.00  0.00     0.031 C 
ATOM     62  C   UNL A   1      42.804  30.411  32.019  1.00  0.00     0.029 A 
ATOM     63  C   UNL A   1      43.268  29.975  33.332  1.00  0.00     0.049 A 
ATOM     64  H   UNL A   1      44.045  28.112  33.852  1.00  0.00     0.167 HD
ATOM     65  C   UNL A   1      45.543  24.162  34.826  1.00  0.00     0.034 A 
ATOM     66  C   UNL A   1      43.268  30.738  34.440  1.00  0.00     0.034 A 
ATOM     67  C   UNL A   1      45.714  24.945  36.023  1.00  0.00     0.049 A 
ATOM     68  C   UNL A   1      43.818  30.185  35.720  1.00  0.00     0.074 A 
ATOM     69  C   UNL A   1      46.267  24.552  37.231  1.00  0.00     0.029 A 
ATOM     70  N   UNL A   1      45.318  26.264  36.179  1.00  0.00    -0.354 N 
ATOM     71  N   UNL A   1      44.336  29.002  35.942  1.00  0.00    -0.248 NA
ATOM     72  C   UNL A   1      43.813  31.071  36.892  1.00  0.00     0.031 C 
ATOM     73  C   UNL A   1      46.179  25.623  38.125  1.00  0.00     0.029 A 
ATOM     74  C   UNL A   1      45.599  26.693  37.466  1.00  0.00     0.049 A 
ATOM     75  H   UNL A   1      44.900  26.814  35.478  1.00  0.00     0.167 HD
ATOM     76  C   UNL A   1      44.735  29.005  37.272  1.00  0.00     0.074 A 
ATOM     77  C   UNL A   1      44.412  30.313  37.804  1.00  0.00     0.031 C 
ATOM     78  C   UNL A   1      45.308  28.006  37.983  1.00  0.00     0.034 A 
BRANCH  65  79
ATOM     79  C   UNL A   1      45.975  22.721  34.886  1.00  0.00     0.023 A 
ATOM     80  C   UNL A   1      45.028  21.735  35.227  1.00  0.00     0.012 A 
ATOM     81  C   UNL A   1      47.261  22.331  34.461  1.00  0.00     0.148 A 
ATOM     82  C   UNL A   1      45.355  20.382  35.150  1.00  0.00     0.002 A 
ATOM     83  C   UNL A   1      47.571  20.980  34.362  1.00  0.00     0.091 A 
ATOM     84  F   UNL A   1      48.143  23.288  34.140  1.00  0.00    -0.205 F 
ATOM     85  C   UNL A   1      46.620  20.004  34.707  1.00  0.00     0.022 A 
BRANCH  83  86
ATOM     86  S   UNL A   1      49.153  20.383  33.757  1.00  0.00     0.127 S 
ATOM     87  O   UNL A   1      49.638  19.622  34.909  1.00  0.00    -0.237 OA
ATOM     88  O   UNL A   1      48.756  19.566  32.611  1.00  0.00    -0.237 OA
ATOM     89  O   UNL A   1      49.935  21.566  33.428  1.00  0.00    -0.744 OA
ENDBRANCH  83  86
ENDBRANCH  65  79
BRANCH  66  90
ATOM     90  C   UNL A   1      42.782  32.139  34.344  1.00  0.00     0.023 A 
ATOM     91  C   UNL A   1      43.702  33.174  34.093  1.00  0.00     0.012 A 
ATOM     92  C   UNL A   1      41.405  32.430  34.397  1.00  0.00     0.148 A 
ATOM     93  C   UNL A   1      43.257  34.482  33.897  1.00  0.00     0.002 A 
ATOM     94  C   UNL A   1      40.967  33.726  34.165  1.00  0.00     0.091 A 
ATOM     95  F   UNL A   1      40.555  31.421  34.630  1.00  0.00    -0.205 F 
ATOM     96  C   UNL A   1      41.890  34.755  33.922  1.00  0.00     0.022 A 
BRANCH  94  97
ATOM     97  S   UNL A   1      39.226  34.160  34.079  1.00  0.00     0.127 S 
ATOM     98  O   UNL A   1      39.170  35.338  34.942  1.00  0.00    -0.237 OA
ATOM     99  O   UNL A   1      39.059  34.432  32.651  1.00  0.00    -0.237 OA
ATOM    100  O   UNL A   1      38.501  32.996  34.566  1.00  0.00    -0.744 OA
ENDBRANCH  94  97
ENDBRANCH  66  90
BRANCH  78 101
ATOM    101  C   UNL A   1      45.644  28.264  39.427  1.00  0.00     0.023 A 
ATOM    102  C   UNL A   1      44.800  27.761  40.435  1.00  0.00     0.012 A 
ATOM    103  C   UNL A   1      46.858  28.883  39.780  1.00  0.00     0.148 A 
ATOM    104  C   UNL A   1      45.160  27.876  41.779  1.00  0.00     0.002 A 
ATOM    105  C   UNL A   1      47.226  28.965  41.118  1.00  0.00     0.091 A 
ATOM    106  F   UNL A   1      47.640  29.359  38.800  1.00  0.00    -0.205 F 
ATOM    107  C   UNL A   1      46.376  28.464  42.118  1.00  0.00     0.022 A 
BRANCH 105 108
ATOM    108  S   UNL A   1      48.800  29.646  41.653  1.00  0.00     0.127 S 
ATOM    109  O   UNL A   1      49.747  28.862  40.860  1.00  0.00    -0.237 OA
ATOM    110  O   UNL A   1      48.681  31.047  41.252  1.00  0.00    -0.237 OA
ATOM    111  O   UNL A   1      48.870  29.425  43.091  1.00  0.00    -0.744 OA
ENDBRANCH 105 108
ENDBRANCH  78 101
ENDBRANCH  52  53
ENDBRANCH  45  47
ENDBRANCH  44  45
ENDBRANCH  43  44
ENDBRANCH  42  43
ENDBRANCH  41  42
ENDBRANCH  40  41
ENDBRANCH   1  40
TORSDOF 24
ENDMDL
MODEL 3
REMARK VINA RESULT:      -8.0      3.803     11.614
REMARK SMILES C[C@]1(C(=O)OCCOCCOCCOCCOC(=O)c2ccc(-c3c4nc(c(-c5cccc(S(=O)(=O)[O-])c5F)c5ccc([nH]5)c(-c5cccc(S(=O)(=O)[O-])c5F)c5nc(c(-c6cccc(S(=O)(=O)[O-])c6F)c6ccc3[nH]6)C=C5)C=C4)cc2)[NH2+]C2(C(=O)c3ccccc3C2=O)[C@@H]2C(=O)N(c3ccccc3)C(=O)[C@H]21
REMARK SMILES IDX 12 1 11 2 10 3 9 4 8 5 7 6 6 7 5 8 3 9 4 10 2 11 1 12 83 13
REMARK SMILES IDX 107 14 84 15 95 18 105 19 85 20 93 21 96 22 98 23 106 24
REMARK SMILES IDX 86 25 87 26 92 27 94 28 97 29 88 30 91 31 89 32 90 33 99 34
REMARK SMILES IDX 100 35 104 36 101 37 103 38 102 39 13 40 14 41 15 42 16 43
REMARK SMILES IDX 17 44 18 45 19 46 20 47 21 48 82 49 22 50 81 51 23 52 24 53
REMARK SMILES IDX 25 54 75 55 26 56 80 57 74 58 76 59 27 60 79 61 73 62 72 63
REMARK SMILES IDX 28 65 60 66 40 67 59 68 41 69 44 70 58 71 77 72 42 73 43 74
REMARK SMILES IDX 57 76 78 77 45 78 29 79 30 80 38 81 31 82 33 83 39 84 32 85
REMARK SMILES IDX 34 86 35 87 36 88 37 89 61 90 62 91 70 92 63 93 65 94 71 95
REMARK SMILES IDX 64 96 66 97 67 98 68 99 69 100 46 101 47 102 55 103 48 104
REMARK SMILES IDX 50 105 56 106 49 107 51 108 52 109 53 110 54 111
REMARK H PARENT 83 16 83 17 76 64 44 75
REMARK Flexibility Score: inf
ROOT
ATOM      1  C   UNL A   1      44.638  35.798  35.875  1.00  0.00     0.188 C 
ENDROOT
BRANCH   1   2
ATOM      2  O   UNL A   1      44.278  34.526  36.391  1.00  0.00    -0.377 OA
BRANCH   2   3
ATOM      3  C   UNL A   1      43.140  33.888  35.866  1.00  0.00     0.188 C 
BRANCH   3   4
ATOM      4  C   UNL A   1      43.441  32.642  35.024  1.00  0.00     0.188 C 
BRANCH   4   5
ATOM      5  O   UNL A   1      42.432  32.018  34.251  1.00  0.00    -0.376 OA
BRANCH   5   6
ATOM      6  C   UNL A   1      42.118  30.636  34.351  1.00  0.00     0.202 C 
BRANCH   6   7
ATOM      7  C   UNL A   1      42.769  29.633  35.319  1.00  0.00     0.261 C 
BRANCH   7   8
ATOM      8  O   UNL A   1      43.578  28.597  34.763  1.00  0.00    -0.459 OA
BRANCH   8   9
ATOM      9  C   UNL A   1      42.958  27.741  33.921  1.00  0.00     0.368 C 
ATOM     10  O   UNL A   1      41.933  27.130  34.206  1.00  0.00    -0.245 OA
BRANCH   9  11
ATOM     11  C   UNL A   1      43.699  27.572  32.565  1.00  0.00     0.205 C 
ATOM     12  C   UNL A   1      42.624  27.404  31.490  1.00  0.00     0.093 C 
ATOM     13  N   UNL A   1      44.630  28.714  32.158  1.00  0.00    -0.313 N 
ATOM     14  C   UNL A   1      44.674  26.438  32.667  1.00  0.00     0.172 C 
ATOM     15  C   UNL A   1      46.067  28.285  32.409  1.00  0.00     0.237 C 
ATOM     16  H   UNL A   1      44.418  29.543  32.713  1.00  0.00     0.348 HD
ATOM     17  H   UNL A   1      44.499  28.932  31.170  1.00  0.00     0.348 HD
ATOM     18  C   UNL A   1      45.854  27.137  33.325  1.00  0.00     0.177 C 
ATOM     19  C   UNL A   1      44.511  25.256  33.555  1.00  0.00     0.244 C 
ATOM     20  C   UNL A   1      46.766  28.015  31.074  1.00  0.00     0.232 C 
ATOM     21  C   UNL A   1      46.894  29.433  32.999  1.00  0.00     0.232 C 
ATOM     22  C   UNL A   1      46.698  25.972  33.660  1.00  0.00     0.245 C 
ATOM     23  N   UNL A   1      45.777  25.014  34.078  1.00  0.00    -0.250 N 
ATOM     24  O   UNL A   1      43.470  24.637  33.681  1.00  0.00    -0.273 OA
ATOM     25  O   UNL A   1      46.440  27.211  30.218  1.00  0.00    -0.286 OA
ATOM     26  C   UNL A   1      47.838  28.995  30.902  1.00  0.00     0.036 A 
ATOM     27  C   UNL A   1      47.900  29.831  32.009  1.00  0.00     0.036 A 
ATOM     28  O   UNL A   1      46.809  29.942  34.101  1.00  0.00    -0.286 OA
ATOM     29  O   UNL A   1      47.918  25.960  33.640  1.00  0.00    -0.273 OA
ATOM     30  C   UNL A   1      48.679  29.157  29.814  1.00  0.00     0.013 A 
ATOM     31  C   UNL A   1      48.819  30.865  32.077  1.00  0.00     0.013 A 
ATOM     32  C   UNL A   1      49.613  30.194  29.867  1.00  0.00     0.001 A 
ATOM     33  C   UNL A   1      49.683  31.042  30.990  1.00  0.00     0.001 A 
BRANCH  23  34
ATOM     34  C   UNL A   1      46.016  24.026  35.053  1.00  0.00     0.052 A 
ATOM     35  C   UNL A   1      45.784  22.672  34.770  1.00  0.00     0.027 A 
ATOM     36  C   UNL A   1      46.328  24.403  36.365  1.00  0.00     0.027 A 
ATOM     37  C   UNL A   1      45.851  21.714  35.780  1.00  0.00     0.002 A 
ATOM     38  C   UNL A   1      46.354  23.446  37.382  1.00  0.00     0.002 A 
ATOM     39  C   UNL A   1      46.118  22.104  37.088  1.00  0.00     0.000 A 
ENDBRANCH  23  34
ENDBRANCH   9  11
ENDBRANCH   8   9
ENDBRANCH   7   8
ENDBRANCH   6   7
ENDBRANCH   5   6
ENDBRANCH   4   5
ENDBRANCH   3   4
ENDBRANCH   2   3
ENDBRANCH   1   2
BRANCH   1  40
ATOM     40  C   UNL A   1      45.291  35.891  34.479  1.00  0.00     0.188 C 
BRANCH  40  41
ATOM     41  O   UNL A   1      46.668  35.540  34.437  1.00  0.00    -0.376 OA
BRANCH  41  42
ATOM     42  C   UNL A   1      47.553  36.296  33.627  1.00  0.00     0.202 C 
BRANCH  42  43
ATOM     43  C   UNL A   1      46.959  37.336  32.662  1.00  0.00     0.261 C 
BRANCH  43  44
ATOM     44  O   UNL A   1      46.594  36.873  31.356  1.00  0.00    -0.460 OA
BRANCH  44  45
ATOM     45  C   UNL A   1      47.394  35.970  30.747  1.00  0.00     0.338 C 
ATOM     46  O   UNL A   1      48.607  36.009  30.663  1.00  0.00    -0.246 OA
BRANCH  45  47
ATOM     47  C   UNL A   1      46.539  34.817  30.382  1.00  0.00     0.060 A 
ATOM     48  C   UNL A   1      45.668  34.905  29.293  1.00  0.00     0.016 A 
ATOM     49  C   UNL A   1      46.568  33.660  31.172  1.00  0.00     0.016 A 
ATOM     50  C   UNL A   1      44.853  33.819  28.974  1.00  0.00     0.010 A 
ATOM     51  C   UNL A   1      45.741  32.578  30.858  1.00  0.00     0.010 A 
ATOM     52  C   UNL A   1      44.898  32.638  29.739  1.00  0.00    -0.014 A 
BRANCH  52  53
ATOM     53  C   UNL A   1      44.239  31.412  29.229  1.00  0.00     0.031 A 
ATOM     54  C   UNL A   1      44.918  30.449  28.303  1.00  0.00     0.074 A 
ATOM     55  C   UNL A   1      42.966  31.191  29.613  1.00  0.00     0.049 A 
ATOM     56  N   UNL A   1      44.474  29.299  27.862  1.00  0.00    -0.248 NA
ATOM     57  C   UNL A   1      46.248  30.815  27.798  1.00  0.00     0.031 C 
ATOM     58  C   UNL A   1      42.181  32.097  30.455  1.00  0.00     0.029 A 
ATOM     59  N   UNL A   1      42.111  30.153  29.350  1.00  0.00    -0.354 N 
ATOM     60  C   UNL A   1      45.460  28.803  27.020  1.00  0.00     0.074 A 
ATOM     61  C   UNL A   1      46.525  29.786  27.002  1.00  0.00     0.031 C 
ATOM     62  C   UNL A   1      40.965  31.567  30.653  1.00  0.00     0.029 A 
ATOM     63  C   UNL A   1      40.878  30.297  29.941  1.00  0.00     0.049 A 
ATOM     64  H   UNL A   1      42.356  29.379  28.793  1.00  0.00     0.167 HD
ATOM     65  C   UNL A   1      45.478  27.629  26.345  1.00  0.00     0.034 A 
ATOM     66  C   UNL A   1      39.794  29.499  29.920  1.00  0.00     0.034 A 
ATOM     67  C   UNL A   1      44.422  26.649  26.384  1.00  0.00     0.049 A 
ATOM     68  C   UNL A   1      39.851  28.194  29.186  1.00  0.00     0.074 A 
ATOM     69  C   UNL A   1      44.399  25.393  25.798  1.00  0.00     0.029 A 
ATOM     70  N   UNL A   1      43.200  26.814  27.016  1.00  0.00    -0.354 N 
ATOM     71  N   UNL A   1      40.854  27.672  28.523  1.00  0.00    -0.248 NA
ATOM     72  C   UNL A   1      38.646  27.353  29.216  1.00  0.00     0.031 C 
ATOM     73  C   UNL A   1      43.154  24.812  26.052  1.00  0.00     0.029 A 
ATOM     74  C   UNL A   1      42.412  25.692  26.821  1.00  0.00     0.049 A 
ATOM     75  H   UNL A   1      42.934  27.611  27.529  1.00  0.00     0.167 HD
ATOM     76  C   UNL A   1      40.410  26.436  28.073  1.00  0.00     0.074 A 
ATOM     77  C   UNL A   1      39.051  26.279  28.549  1.00  0.00     0.031 C 
ATOM     78  C   UNL A   1      41.072  25.523  27.323  1.00  0.00     0.034 A 
BRANCH  65  79
ATOM     79  C   UNL A   1      46.702  27.284  25.540  1.00  0.00     0.023 A 
ATOM     80  C   UNL A   1      46.730  27.597  24.167  1.00  0.00     0.012 A 
ATOM     81  C   UNL A   1      47.866  26.795  26.164  1.00  0.00     0.148 A 
ATOM     82  C   UNL A   1      47.897  27.426  23.424  1.00  0.00     0.002 A 
ATOM     83  C   UNL A   1      49.034  26.651  25.424  1.00  0.00     0.091 A 
ATOM     84  F   UNL A   1      47.815  26.504  27.472  1.00  0.00    -0.205 F 
ATOM     85  C   UNL A   1      49.051  26.965  24.054  1.00  0.00     0.022 A 
BRANCH  83  86
ATOM     86  S   UNL A   1      50.588  26.110  26.145  1.00  0.00     0.127 S 
ATOM     87  O   UNL A   1      51.521  26.353  25.044  1.00  0.00    -0.237 OA
ATOM     88  O   UNL A   1      50.733  27.021  27.279  1.00  0.00    -0.237 OA
ATOM     89  O   UNL A   1      50.405  24.710  26.499  1.00  0.00    -0.744 OA
ENDBRANCH  83  86
ENDBRANCH  65  79
BRANCH  66  90
ATOM     90  C   UNL A   1      38.590  29.909  30.688  1.00  0.00     0.023 A 
ATOM     91  C   UNL A   1      38.447  29.491  32.024  1.00  0.00     0.012 A 
ATOM     92  C   UNL A   1      37.645  30.791  30.130  1.00  0.00     0.148 A 
ATOM     93  C   UNL A   1      37.377  29.946  32.795  1.00  0.00     0.002 A 
ATOM     94  C   UNL A   1      36.604  31.270  30.914  1.00  0.00     0.091 A 
ATOM     95  F   UNL A   1      37.814  31.176  28.858  1.00  0.00    -0.205 F 
ATOM     96  C   UNL A   1      36.464  30.843  32.244  1.00  0.00     0.022 A 
BRANCH  94  97
ATOM     97  S   UNL A   1      35.436  32.500  30.327  1.00  0.00     0.127 S 
ATOM     98  O   UNL A   1      34.398  32.438  31.355  1.00  0.00    -0.237 OA
ATOM     99  O   UNL A   1      36.251  33.715  30.345  1.00  0.00    -0.237 OA
ATOM    100  O   UNL A   1      35.026  32.061  29.001  1.00  0.00    -0.744 OA
ENDBRANCH  94  97
ENDBRANCH  66  90
BRANCH  78 101
ATOM    101  C   UNL A   1      40.359  24.249  26.961  1.00  0.00     0.023 A 
ATOM    102  C   UNL A   1      39.131  24.314  26.275  1.00  0.00     0.012 A 
ATOM    103  C   UNL A   1      40.968  22.999  27.180  1.00  0.00     0.148 A 
ATOM    104  C   UNL A   1      38.517  23.148  25.815  1.00  0.00     0.002 A 
ATOM    105  C   UNL A   1      40.368  21.845  26.690  1.00  0.00     0.091 A 
ATOM    106  F   UNL A   1      42.135  22.966  27.842  1.00  0.00    -0.205 F 
ATOM    107  C   UNL A   1      39.141  21.918  26.010  1.00  0.00     0.022 A 
BRANCH 105 108
ATOM    108  S   UNL A   1      41.123  20.221  26.835  1.00  0.00     0.127 S 
ATOM    109  O   UNL A   1      40.264  19.416  25.967  1.00  0.00    -0.237 OA
ATOM    110  O   UNL A   1      42.468  20.460  26.310  1.00  0.00    -0.237 OA
ATOM    111  O   UNL A   1      41.071  19.873  28.248  1.00  0.00    -0.744 OA
ENDBRANCH 105 108
ENDBRANCH  78 101
ENDBRANCH  52  53
ENDBRANCH  45  47
ENDBRANCH  44  45
ENDBRANCH  43  44
ENDBRANCH  42  43
ENDBRANCH  41  42
ENDBRANCH  40  41
ENDBRANCH   1  40
TORSDOF 24
ENDMDL
