MODEL 1
REMARK VINA RESULT:      -9.6      0.000      0.000
REMARK SMILES O=C(OCCOCCOCCOCCOC(=O)c1ccc(-c2c3nc(c(-c4cccc(S(=O)(=O)[O-])c4F)c4ccc([nH]4)c(-c4cccc(S(=O)(=O)[O-])c4F)c4nc(c(-c5cccc(S(=O)(=O)[O-])c5F)c5ccc2[nH]5)C=C4)C=C3)cc1)C1=Cc2cc(Cl)c(Cl)cc2O[C@@H]1C(F)(F)F
REMARK SMILES IDX 10 1 9 2 8 3 7 4 6 5 5 6 4 7 3 8 2 9 1 10 81 11 82 12 92 13
REMARK SMILES IDX 83 14 91 15 84 16 90 17 85 18 89 19 86 20 87 21 88 22 93 23
REMARK SMILES IDX 94 24 95 25 96 26 11 27 12 28 13 29 14 30 15 31 16 32 17 33
REMARK SMILES IDX 18 34 19 35 80 36 20 37 79 38 21 39 22 40 23 41 73 42 24 43
REMARK SMILES IDX 78 44 72 45 74 46 25 47 77 48 71 49 70 50 26 52 58 53 38 54
REMARK SMILES IDX 57 55 39 56 42 57 56 58 75 59 40 60 41 61 55 63 76 64 43 65
REMARK SMILES IDX 27 66 28 67 36 68 29 69 31 70 37 71 30 72 32 73 33 74 34 75
REMARK SMILES IDX 35 76 59 77 60 78 68 79 61 80 63 81 69 82 62 83 64 84 65 85
REMARK SMILES IDX 66 86 67 87 44 88 45 89 53 90 46 91 48 92 54 93 47 94 49 95
REMARK SMILES IDX 50 96 51 97 52 98
REMARK H PARENT 74 51 42 62
REMARK Flexibility Score: inf
ROOT
ATOM      1  C   UNL A   1      32.977  36.114  30.203  1.00  0.00     0.188 C 
ENDROOT
BRANCH   1   2
ATOM      2  O   UNL A   1      32.790  34.757  29.816  1.00  0.00    -0.377 OA
BRANCH   2   3
ATOM      3  C   UNL A   1      33.014  34.480  28.440  1.00  0.00     0.188 C 
BRANCH   3   4
ATOM      4  C   UNL A   1      34.215  33.572  28.221  1.00  0.00     0.188 C 
BRANCH   4   5
ATOM      5  O   UNL A   1      33.916  32.190  28.334  1.00  0.00    -0.376 OA
BRANCH   5   6
ATOM      6  C   UNL A   1      33.080  31.587  27.355  1.00  0.00     0.202 C 
BRANCH   6   7
ATOM      7  C   UNL A   1      33.155  30.064  27.261  1.00  0.00     0.261 C 
BRANCH   7   8
ATOM      8  O   UNL A   1      32.274  29.531  26.253  1.00  0.00    -0.460 OA
BRANCH   8   9
ATOM      9  C   UNL A   1      32.296  28.191  26.064  1.00  0.00     0.338 C 
ATOM     10  O   UNL A   1      32.685  27.406  26.914  1.00  0.00    -0.246 OA
BRANCH   9  11
ATOM     11  C   UNL A   1      31.964  27.782  24.669  1.00  0.00     0.087 C 
ATOM     12  C   UNL A   1      33.029  27.285  24.016  1.00  0.00     0.027 C 
ATOM     13  C   UNL A   1      30.586  27.222  24.430  1.00  0.00     0.316 C 
ATOM     14  C   UNL A   1      32.960  25.842  23.770  1.00  0.00     0.019 A 
ATOM     15  O   UNL A   1      30.564  25.795  24.174  1.00  0.00    -0.475 OA
ATOM     16  C   UNL A   1      34.128  25.130  23.482  1.00  0.00     0.034 A 
ATOM     17  C   UNL A   1      31.763  25.160  23.996  1.00  0.00     0.129 A 
ATOM     18  C   UNL A   1      34.126  23.734  23.549  1.00  0.00     0.060 A 
ATOM     19  C   UNL A   1      31.769  23.769  24.103  1.00  0.00     0.069 A 
ATOM     20  Cl  UNL A   1      35.601  22.912  23.184  1.00  0.00    -0.083 Cl
ATOM     21  C   UNL A   1      32.960  23.058  23.924  1.00  0.00     0.063 A 
ATOM     22  Cl  UNL A   1      32.937  21.359  24.229  1.00  0.00    -0.083 Cl
BRANCH  13  23
ATOM     23  C   UNL A   1      29.823  28.029  23.378  1.00  0.00     0.430 C 
ATOM     24  F   UNL A   1      28.494  27.773  23.424  1.00  0.00    -0.167 F 
ATOM     25  F   UNL A   1      29.961  29.364  23.598  1.00  0.00    -0.167 F 
ATOM     26  F   UNL A   1      30.249  27.786  22.120  1.00  0.00    -0.167 F 
ENDBRANCH  13  23
ENDBRANCH   9  11
ENDBRANCH   8   9
ENDBRANCH   7   8
ENDBRANCH   6   7
ENDBRANCH   5   6
ENDBRANCH   4   5
ENDBRANCH   3   4
ENDBRANCH   2   3
ENDBRANCH   1   2
BRANCH   1  27
ATOM     27  C   UNL A   1      32.913  36.419  31.720  1.00  0.00     0.188 C 
BRANCH  27  28
ATOM     28  O   UNL A   1      34.066  36.613  32.536  1.00  0.00    -0.376 OA
BRANCH  28  29
ATOM     29  C   UNL A   1      34.590  35.531  33.277  1.00  0.00     0.202 C 
BRANCH  29  30
ATOM     30  C   UNL A   1      35.864  34.889  32.703  1.00  0.00     0.261 C 
BRANCH  30  31
ATOM     31  O   UNL A   1      35.683  34.216  31.445  1.00  0.00    -0.460 OA
BRANCH  31  32
ATOM     32  C   UNL A   1      35.403  32.885  31.530  1.00  0.00     0.338 C 
ATOM     33  O   UNL A   1      34.314  32.386  31.684  1.00  0.00    -0.246 OA
BRANCH  32  34
ATOM     34  C   UNL A   1      36.628  32.091  31.213  1.00  0.00     0.060 A 
ATOM     35  C   UNL A   1      36.796  30.882  31.903  1.00  0.00     0.016 A 
ATOM     36  C   UNL A   1      37.569  32.475  30.251  1.00  0.00     0.016 A 
ATOM     37  C   UNL A   1      37.925  30.092  31.686  1.00  0.00     0.010 A 
ATOM     38  C   UNL A   1      38.711  31.684  30.039  1.00  0.00     0.010 A 
ATOM     39  C   UNL A   1      38.921  30.518  30.798  1.00  0.00    -0.014 A 
BRANCH  39  40
ATOM     40  C   UNL A   1      40.266  29.893  30.905  1.00  0.00     0.031 A 
ATOM     41  C   UNL A   1      41.190  30.402  31.985  1.00  0.00     0.074 A 
ATOM     42  C   UNL A   1      40.639  28.845  30.146  1.00  0.00     0.049 A 
ATOM     43  N   UNL A   1      42.375  29.976  32.337  1.00  0.00    -0.248 NA
ATOM     44  C   UNL A   1      40.703  31.543  32.781  1.00  0.00     0.031 C 
ATOM     45  C   UNL A   1      39.843  28.243  29.079  1.00  0.00     0.029 A 
ATOM     46  N   UNL A   1      41.796  28.103  30.162  1.00  0.00    -0.354 N 
ATOM     47  C   UNL A   1      42.776  30.799  33.384  1.00  0.00     0.074 A 
ATOM     48  C   UNL A   1      41.725  31.769  33.589  1.00  0.00     0.031 C 
ATOM     49  C   UNL A   1      40.548  27.239  28.524  1.00  0.00     0.029 A 
ATOM     50  C   UNL A   1      41.847  27.134  29.188  1.00  0.00     0.049 A 
ATOM     51  H   UNL A   1      42.522  28.253  30.810  1.00  0.00     0.167 HD
ATOM     52  C   UNL A   1      43.902  30.740  34.132  1.00  0.00     0.034 A 
ATOM     53  C   UNL A   1      42.834  26.273  28.862  1.00  0.00     0.034 A 
ATOM     54  C   UNL A   1      44.948  29.774  33.941  1.00  0.00     0.049 A 
ATOM     55  C   UNL A   1      44.097  26.248  29.688  1.00  0.00     0.074 A 
ATOM     56  C   UNL A   1      46.122  29.625  34.656  1.00  0.00     0.029 A 
ATOM     57  N   UNL A   1      44.952  28.797  32.958  1.00  0.00    -0.354 N 
ATOM     58  N   UNL A   1      44.416  26.968  30.737  1.00  0.00    -0.248 NA
ATOM     59  C   UNL A   1      45.120  25.261  29.310  1.00  0.00     0.031 C 
ATOM     60  C   UNL A   1      46.851  28.576  34.086  1.00  0.00     0.029 A 
ATOM     61  C   UNL A   1      46.112  28.047  33.042  1.00  0.00     0.049 A 
ATOM     62  H   UNL A   1      44.235  28.658  32.297  1.00  0.00     0.167 HD
ATOM     63  C   UNL A   1      45.657  26.501  31.161  1.00  0.00     0.074 A 
ATOM     64  C   UNL A   1      46.016  25.413  30.276  1.00  0.00     0.031 C 
ATOM     65  C   UNL A   1      46.439  26.941  32.179  1.00  0.00     0.034 A 
BRANCH  52  66
ATOM     66  C   UNL A   1      44.046  31.741  35.248  1.00  0.00     0.023 A 
ATOM     67  C   UNL A   1      44.603  33.009  34.982  1.00  0.00     0.012 A 
ATOM     68  C   UNL A   1      43.592  31.444  36.548  1.00  0.00     0.148 A 
ATOM     69  C   UNL A   1      44.733  33.955  35.998  1.00  0.00     0.002 A 
ATOM     70  C   UNL A   1      43.681  32.409  37.544  1.00  0.00     0.091 A 
ATOM     71  F   UNL A   1      43.090  30.224  36.786  1.00  0.00    -0.205 F 
ATOM     72  C   UNL A   1      44.263  33.660  37.274  1.00  0.00     0.022 A 
BRANCH  70  73
ATOM     73  S   UNL A   1      43.035  32.157  39.200  1.00  0.00     0.127 S 
ATOM     74  O   UNL A   1      43.291  33.458  39.818  1.00  0.00    -0.237 OA
ATOM     75  O   UNL A   1      41.625  31.873  38.937  1.00  0.00    -0.237 OA
ATOM     76  O   UNL A   1      43.788  31.045  39.762  1.00  0.00    -0.744 OA
ENDBRANCH  70  73
ENDBRANCH  52  66
BRANCH  53  77
ATOM     77  C   UNL A   1      42.674  25.351  27.698  1.00  0.00     0.023 A 
ATOM     78  C   UNL A   1      43.024  25.774  26.401  1.00  0.00     0.012 A 
ATOM     79  C   UNL A   1      42.158  24.053  27.877  1.00  0.00     0.148 A 
ATOM     80  C   UNL A   1      42.823  24.938  25.301  1.00  0.00     0.002 A 
ATOM     81  C   UNL A   1      42.020  23.202  26.786  1.00  0.00     0.091 A 
ATOM     82  F   UNL A   1      41.807  23.674  29.114  1.00  0.00    -0.205 F 
ATOM     83  C   UNL A   1      42.332  23.650  25.494  1.00  0.00     0.022 A 
BRANCH  81  84
ATOM     84  S   UNL A   1      41.529  21.484  26.967  1.00  0.00     0.127 S 
ATOM     85  O   UNL A   1      42.490  20.999  27.954  1.00  0.00    -0.237 OA
ATOM     86  O   UNL A   1      40.156  21.614  27.454  1.00  0.00    -0.237 OA
ATOM     87  O   UNL A   1      41.638  20.902  25.637  1.00  0.00    -0.744 OA
ENDBRANCH  81  84
ENDBRANCH  53  77
BRANCH  65  88
ATOM     88  C   UNL A   1      47.748  26.226  32.413  1.00  0.00     0.023 A 
ATOM     89  C   UNL A   1      48.892  26.591  31.675  1.00  0.00     0.012 A 
ATOM     90  C   UNL A   1      47.852  25.219  33.394  1.00  0.00     0.148 A 
ATOM     91  C   UNL A   1      50.104  25.929  31.871  1.00  0.00     0.002 A 
ATOM     92  C   UNL A   1      49.077  24.601  33.621  1.00  0.00     0.091 A 
ATOM     93  F   UNL A   1      46.753  24.875  34.079  1.00  0.00    -0.205 F 
ATOM     94  C   UNL A   1      50.199  24.942  32.848  1.00  0.00     0.022 A 
BRANCH  92  95
ATOM     95  S   UNL A   1      49.315  23.390  34.924  1.00  0.00     0.127 S 
ATOM     96  O   UNL A   1      48.398  22.328  34.517  1.00  0.00    -0.237 OA
ATOM     97  O   UNL A   1      50.734  23.057  34.784  1.00  0.00    -0.237 OA
ATOM     98  O   UNL A   1      48.977  24.068  36.169  1.00  0.00    -0.744 OA
ENDBRANCH  92  95
ENDBRANCH  65  88
ENDBRANCH  39  40
ENDBRANCH  32  34
ENDBRANCH  31  32
ENDBRANCH  30  31
ENDBRANCH  29  30
ENDBRANCH  28  29
ENDBRANCH  27  28
ENDBRANCH   1  27
TORSDOF 24
ENDMDL
MODEL 2
REMARK VINA RESULT:      -8.8      4.032      4.946
REMARK SMILES O=C(OCCOCCOCCOCCOC(=O)c1ccc(-c2c3nc(c(-c4cccc(S(=O)(=O)[O-])c4F)c4ccc([nH]4)c(-c4cccc(S(=O)(=O)[O-])c4F)c4nc(c(-c5cccc(S(=O)(=O)[O-])c5F)c5ccc2[nH]5)C=C4)C=C3)cc1)C1=Cc2cc(Cl)c(Cl)cc2O[C@@H]1C(F)(F)F
REMARK SMILES IDX 10 1 9 2 8 3 7 4 6 5 5 6 4 7 3 8 2 9 1 10 81 11 82 12 92 13
REMARK SMILES IDX 83 14 91 15 84 16 90 17 85 18 89 19 86 20 87 21 88 22 93 23
REMARK SMILES IDX 94 24 95 25 96 26 11 27 12 28 13 29 14 30 15 31 16 32 17 33
REMARK SMILES IDX 18 34 19 35 80 36 20 37 79 38 21 39 22 40 23 41 73 42 24 43
REMARK SMILES IDX 78 44 72 45 74 46 25 47 77 48 71 49 70 50 26 52 58 53 38 54
REMARK SMILES IDX 57 55 39 56 42 57 56 58 75 59 40 60 41 61 55 63 76 64 43 65
REMARK SMILES IDX 27 66 28 67 36 68 29 69 31 70 37 71 30 72 32 73 33 74 34 75
REMARK SMILES IDX 35 76 59 77 60 78 68 79 61 80 63 81 69 82 62 83 64 84 65 85
REMARK SMILES IDX 66 86 67 87 44 88 45 89 53 90 46 91 48 92 54 93 47 94 49 95
REMARK SMILES IDX 50 96 51 97 52 98
REMARK H PARENT 74 51 42 62
REMARK Flexibility Score: inf
ROOT
ATOM      1  C   UNL A   1      35.087  33.739  29.664  1.00  0.00     0.188 C 
ENDROOT
BRANCH   1   2
ATOM      2  O   UNL A   1      34.495  32.447  29.747  1.00  0.00    -0.377 OA
BRANCH   2   3
ATOM      3  C   UNL A   1      34.721  31.600  28.628  1.00  0.00     0.188 C 
BRANCH   3   4
ATOM      4  C   UNL A   1      33.699  31.817  27.522  1.00  0.00     0.188 C 
BRANCH   4   5
ATOM      5  O   UNL A   1      32.860  30.697  27.290  1.00  0.00    -0.376 OA
BRANCH   5   6
ATOM      6  C   UNL A   1      33.454  29.415  27.139  1.00  0.00     0.202 C 
BRANCH   6   7
ATOM      7  C   UNL A   1      32.496  28.226  27.190  1.00  0.00     0.261 C 
BRANCH   7   8
ATOM      8  O   UNL A   1      33.005  27.079  26.483  1.00  0.00    -0.460 OA
BRANCH   8   9
ATOM      9  C   UNL A   1      32.146  26.054  26.274  1.00  0.00     0.338 C 
ATOM     10  O   UNL A   1      31.712  25.355  27.176  1.00  0.00    -0.246 OA
BRANCH   9  11
ATOM     11  C   UNL A   1      31.915  25.757  24.831  1.00  0.00     0.087 C 
ATOM     12  C   UNL A   1      30.610  25.781  24.509  1.00  0.00     0.027 C 
ATOM     13  C   UNL A   1      32.956  26.244  23.857  1.00  0.00     0.316 C 
ATOM     14  C   UNL A   1      30.219  26.919  23.673  1.00  0.00     0.019 A 
ATOM     15  O   UNL A   1      32.524  27.360  23.039  1.00  0.00    -0.475 OA
ATOM     16  C   UNL A   1      28.876  27.298  23.599  1.00  0.00     0.034 A 
ATOM     17  C   UNL A   1      31.205  27.724  23.099  1.00  0.00     0.129 A 
ATOM     18  C   UNL A   1      28.532  28.544  23.066  1.00  0.00     0.060 A 
ATOM     19  C   UNL A   1      30.869  28.983  22.603  1.00  0.00     0.069 A 
ATOM     20  Cl  UNL A   1      26.856  28.955  23.004  1.00  0.00    -0.083 Cl
ATOM     21  C   UNL A   1      29.538  29.413  22.627  1.00  0.00     0.063 A 
ATOM     22  Cl  UNL A   1      29.208  31.040  22.153  1.00  0.00    -0.083 Cl
BRANCH  13  23
ATOM     23  C   UNL A   1      33.541  25.093  23.036  1.00  0.00     0.430 C 
ATOM     24  F   UNL A   1      34.143  25.545  21.909  1.00  0.00    -0.167 F 
ATOM     25  F   UNL A   1      34.499  24.434  23.740  1.00  0.00    -0.167 F 
ATOM     26  F   UNL A   1      32.614  24.181  22.674  1.00  0.00    -0.167 F 
ENDBRANCH  13  23
ENDBRANCH   9  11
ENDBRANCH   8   9
ENDBRANCH   7   8
ENDBRANCH   6   7
ENDBRANCH   5   6
ENDBRANCH   4   5
ENDBRANCH   3   4
ENDBRANCH   2   3
ENDBRANCH   1   2
BRANCH   1  27
ATOM     27  C   UNL A   1      36.546  33.869  30.165  1.00  0.00     0.188 C 
BRANCH  27  28
ATOM     28  O   UNL A   1      36.892  34.233  31.500  1.00  0.00    -0.376 OA
BRANCH  28  29
ATOM     29  C   UNL A   1      35.900  34.748  32.364  1.00  0.00     0.202 C 
BRANCH  29  30
ATOM     30  C   UNL A   1      35.996  34.291  33.830  1.00  0.00     0.261 C 
BRANCH  30  31
ATOM     31  O   UNL A   1      35.852  32.874  34.027  1.00  0.00    -0.460 OA
BRANCH  31  32
ATOM     32  C   UNL A   1      36.904  32.260  34.638  1.00  0.00     0.338 C 
ATOM     33  O   UNL A   1      37.125  32.222  35.825  1.00  0.00    -0.246 OA
BRANCH  32  34
ATOM     34  C   UNL A   1      37.672  31.458  33.639  1.00  0.00     0.060 A 
ATOM     35  C   UNL A   1      38.847  30.841  34.089  1.00  0.00     0.016 A 
ATOM     36  C   UNL A   1      37.255  31.272  32.315  1.00  0.00     0.016 A 
ATOM     37  C   UNL A   1      39.637  30.095  33.214  1.00  0.00     0.010 A 
ATOM     38  C   UNL A   1      38.056  30.529  31.431  1.00  0.00     0.010 A 
ATOM     39  C   UNL A   1      39.280  29.986  31.864  1.00  0.00    -0.014 A 
BRANCH  39  40
ATOM     40  C   UNL A   1      40.327  29.564  30.896  1.00  0.00     0.031 A 
ATOM     41  C   UNL A   1      41.572  30.411  30.799  1.00  0.00     0.074 A 
ATOM     42  C   UNL A   1      40.241  28.420  30.190  1.00  0.00     0.049 A 
ATOM     43  N   UNL A   1      42.659  30.219  30.097  1.00  0.00    -0.248 NA
ATOM     44  C   UNL A   1      41.595  31.640  31.613  1.00  0.00     0.031 C 
ATOM     45  C   UNL A   1      39.106  27.500  30.199  1.00  0.00     0.029 A 
ATOM     46  N   UNL A   1      41.136  27.843  29.321  1.00  0.00    -0.354 N 
ATOM     47  C   UNL A   1      43.485  31.302  30.378  1.00  0.00     0.074 A 
ATOM     48  C   UNL A   1      42.764  32.164  31.286  1.00  0.00     0.031 C 
ATOM     49  C   UNL A   1      39.362  26.485  29.352  1.00  0.00     0.029 A 
ATOM     50  C   UNL A   1      40.673  26.688  28.734  1.00  0.00     0.049 A 
ATOM     51  H   UNL A   1      42.025  28.221  29.135  1.00  0.00     0.167 HD
ATOM     52  C   UNL A   1      44.745  31.549  29.947  1.00  0.00     0.034 A 
ATOM     53  C   UNL A   1      41.237  25.897  27.798  1.00  0.00     0.034 A 
ATOM     54  C   UNL A   1      45.473  30.693  29.051  1.00  0.00     0.049 A 
ATOM     55  C   UNL A   1      42.628  26.210  27.304  1.00  0.00     0.074 A 
ATOM     56  C   UNL A   1      46.758  30.851  28.566  1.00  0.00     0.029 A 
ATOM     57  N   UNL A   1      44.976  29.524  28.496  1.00  0.00    -0.354 N 
ATOM     58  N   UNL A   1      43.433  27.184  27.656  1.00  0.00    -0.248 NA
ATOM     59  C   UNL A   1      43.206  25.289  26.313  1.00  0.00     0.031 C 
ATOM     60  C   UNL A   1      47.028  29.792  27.693  1.00  0.00     0.029 A 
ATOM     61  C   UNL A   1      45.926  28.954  27.667  1.00  0.00     0.049 A 
ATOM     62  H   UNL A   1      44.080  29.154  28.667  1.00  0.00     0.167 HD
ATOM     63  C   UNL A   1      44.618  26.976  26.956  1.00  0.00     0.074 A 
ATOM     64  C   UNL A   1      44.437  25.762  26.186  1.00  0.00     0.031 C 
ATOM     65  C   UNL A   1      45.748  27.726  26.936  1.00  0.00     0.034 A 
BRANCH  52  66
ATOM     66  C   UNL A   1      45.424  32.789  30.464  1.00  0.00     0.023 A 
ATOM     67  C   UNL A   1      45.227  34.020  29.805  1.00  0.00     0.012 A 
ATOM     68  C   UNL A   1      46.220  32.746  31.625  1.00  0.00     0.148 A 
ATOM     69  C   UNL A   1      45.836  35.183  30.275  1.00  0.00     0.002 A 
ATOM     70  C   UNL A   1      46.784  33.918  32.115  1.00  0.00     0.091 A 
ATOM     71  F   UNL A   1      46.415  31.561  32.222  1.00  0.00    -0.205 F 
ATOM     72  C   UNL A   1      46.605  35.134  31.434  1.00  0.00     0.022 A 
BRANCH  70  73
ATOM     73  S   UNL A   1      47.726  33.976  33.642  1.00  0.00     0.127 S 
ATOM     74  O   UNL A   1      48.302  35.319  33.583  1.00  0.00    -0.237 OA
ATOM     75  O   UNL A   1      46.682  33.804  34.651  1.00  0.00    -0.237 OA
ATOM     76  O   UNL A   1      48.688  32.886  33.566  1.00  0.00    -0.744 OA
ENDBRANCH  70  73
ENDBRANCH  52  66
BRANCH  53  77
ATOM     77  C   UNL A   1      40.492  24.719  27.260  1.00  0.00     0.023 A 
ATOM     78  C   UNL A   1      39.268  24.899  26.584  1.00  0.00     0.012 A 
ATOM     79  C   UNL A   1      40.991  23.414  27.433  1.00  0.00     0.148 A 
ATOM     80  C   UNL A   1      38.538  23.799  26.130  1.00  0.00     0.002 A 
ATOM     81  C   UNL A   1      40.291  22.327  26.922  1.00  0.00     0.091 A 
ATOM     82  F   UNL A   1      42.143  23.258  28.100  1.00  0.00    -0.205 F 
ATOM     83  C   UNL A   1      39.053  22.515  26.288  1.00  0.00     0.022 A 
BRANCH  81  84
ATOM     84  S   UNL A   1      40.951  20.658  26.960  1.00  0.00     0.127 S 
ATOM     85  O   UNL A   1      39.999  19.939  26.119  1.00  0.00    -0.237 OA
ATOM     86  O   UNL A   1      42.277  20.846  26.370  1.00  0.00    -0.237 OA
ATOM     87  O   UNL A   1      40.972  20.275  28.365  1.00  0.00    -0.744 OA
ENDBRANCH  81  84
ENDBRANCH  53  77
BRANCH  65  88
ATOM     88  C   UNL A   1      46.893  27.242  26.080  1.00  0.00     0.023 A 
ATOM     89  C   UNL A   1      46.815  27.344  24.676  1.00  0.00     0.012 A 
ATOM     90  C   UNL A   1      48.063  26.722  26.669  1.00  0.00     0.148 A 
ATOM     91  C   UNL A   1      47.859  26.887  23.872  1.00  0.00     0.002 A 
ATOM     92  C   UNL A   1      49.122  26.319  25.862  1.00  0.00     0.091 A 
ATOM     93  F   UNL A   1      48.118  26.620  28.005  1.00  0.00    -0.205 F 
ATOM     94  C   UNL A   1      49.014  26.384  24.464  1.00  0.00     0.022 A 
BRANCH  92  95
ATOM     95  S   UNL A   1      50.684  25.749  26.540  1.00  0.00     0.127 S 
ATOM     96  O   UNL A   1      51.564  25.837  25.376  1.00  0.00    -0.237 OA
ATOM     97  O   UNL A   1      50.951  26.741  27.582  1.00  0.00    -0.237 OA
ATOM     98  O   UNL A   1      50.437  24.403  27.039  1.00  0.00    -0.744 OA
ENDBRANCH  92  95
ENDBRANCH  65  88
ENDBRANCH  39  40
ENDBRANCH  32  34
ENDBRANCH  31  32
ENDBRANCH  30  31
ENDBRANCH  29  30
ENDBRANCH  28  29
ENDBRANCH  27  28
ENDBRANCH   1  27
TORSDOF 24
ENDMDL
MODEL 3
REMARK VINA RESULT:      -8.8      7.726     10.302
REMARK SMILES O=C(OCCOCCOCCOCCOC(=O)c1ccc(-c2c3nc(c(-c4cccc(S(=O)(=O)[O-])c4F)c4ccc([nH]4)c(-c4cccc(S(=O)(=O)[O-])c4F)c4nc(c(-c5cccc(S(=O)(=O)[O-])c5F)c5ccc2[nH]5)C=C4)C=C3)cc1)C1=Cc2cc(Cl)c(Cl)cc2O[C@@H]1C(F)(F)F
REMARK SMILES IDX 10 1 9 2 8 3 7 4 6 5 5 6 4 7 3 8 2 9 1 10 81 11 82 12 92 13
REMARK SMILES IDX 83 14 91 15 84 16 90 17 85 18 89 19 86 20 87 21 88 22 93 23
REMARK SMILES IDX 94 24 95 25 96 26 11 27 12 28 13 29 14 30 15 31 16 32 17 33
REMARK SMILES IDX 18 34 19 35 80 36 20 37 79 38 21 39 22 40 23 41 73 42 24 43
REMARK SMILES IDX 78 44 72 45 74 46 25 47 77 48 71 49 70 50 26 52 58 53 38 54
REMARK SMILES IDX 57 55 39 56 42 57 56 58 75 59 40 60 41 61 55 63 76 64 43 65
REMARK SMILES IDX 27 66 28 67 36 68 29 69 31 70 37 71 30 72 32 73 33 74 34 75
REMARK SMILES IDX 35 76 59 77 60 78 68 79 61 80 63 81 69 82 62 83 64 84 65 85
REMARK SMILES IDX 66 86 67 87 44 88 45 89 53 90 46 91 48 92 54 93 47 94 49 95
REMARK SMILES IDX 50 96 51 97 52 98
REMARK H PARENT 74 51 42 62
REMARK Flexibility Score: inf
ROOT
ATOM      1  C   UNL A   1      33.464  35.493  29.960  1.00  0.00     0.188 C 
ENDROOT
BRANCH   1   2
ATOM      2  O   UNL A   1      32.731  34.464  29.306  1.00  0.00    -0.377 OA
BRANCH   2   3
ATOM      3  C   UNL A   1      33.209  34.101  28.018  1.00  0.00     0.188 C 
BRANCH   3   4
ATOM      4  C   UNL A   1      34.402  33.159  28.088  1.00  0.00     0.188 C 
BRANCH   4   5
ATOM      5  O   UNL A   1      34.054  31.815  28.380  1.00  0.00    -0.376 OA
BRANCH   5   6
ATOM      6  C   UNL A   1      33.780  30.929  27.303  1.00  0.00     0.202 C 
BRANCH   6   7
ATOM      7  C   UNL A   1      32.610  29.968  27.511  1.00  0.00     0.261 C 
BRANCH   7   8
ATOM      8  O   UNL A   1      32.579  28.918  26.527  1.00  0.00    -0.460 OA
BRANCH   8   9
ATOM      9  C   UNL A   1      31.591  27.999  26.639  1.00  0.00     0.338 C 
ATOM     10  O   UNL A   1      30.912  27.872  27.646  1.00  0.00    -0.246 OA
BRANCH   9  11
ATOM     11  C   UNL A   1      31.525  27.053  25.488  1.00  0.00     0.087 C 
ATOM     12  C   UNL A   1      32.745  26.700  25.048  1.00  0.00     0.027 C 
ATOM     13  C   UNL A   1      30.389  26.064  25.480  1.00  0.00     0.316 C 
ATOM     14  C   UNL A   1      33.107  25.310  25.338  1.00  0.00     0.019 A 
ATOM     15  O   UNL A   1      30.792  24.699  25.755  1.00  0.00    -0.475 OA
ATOM     16  C   UNL A   1      34.450  24.923  25.315  1.00  0.00     0.034 A 
ATOM     17  C   UNL A   1      32.133  24.427  25.807  1.00  0.00     0.129 A 
ATOM     18  C   UNL A   1      34.832  23.702  25.880  1.00  0.00     0.060 A 
ATOM     19  C   UNL A   1      32.516  23.228  26.407  1.00  0.00     0.069 A 
ATOM     20  Cl  UNL A   1      36.506  23.281  25.822  1.00  0.00    -0.083 Cl
ATOM     21  C   UNL A   1      33.870  22.885  26.484  1.00  0.00     0.063 A 
ATOM     22  Cl  UNL A   1      34.293  21.472  27.381  1.00  0.00    -0.083 Cl
BRANCH  13  23
ATOM     23  C   UNL A   1      29.538  26.192  24.215  1.00  0.00     0.430 C 
ATOM     24  F   UNL A   1      28.225  26.337  24.514  1.00  0.00    -0.167 F 
ATOM     25  F   UNL A   1      29.891  27.296  23.504  1.00  0.00    -0.167 F 
ATOM     26  F   UNL A   1      29.662  25.131  23.391  1.00  0.00    -0.167 F 
ENDBRANCH  13  23
ENDBRANCH   9  11
ENDBRANCH   8   9
ENDBRANCH   7   8
ENDBRANCH   6   7
ENDBRANCH   5   6
ENDBRANCH   4   5
ENDBRANCH   3   4
ENDBRANCH   2   3
ENDBRANCH   1   2
BRANCH   1  27
ATOM     27  C   UNL A   1      33.381  35.531  31.507  1.00  0.00     0.188 C 
BRANCH  27  28
ATOM     28  O   UNL A   1      33.396  34.365  32.326  1.00  0.00    -0.376 OA
BRANCH  28  29
ATOM     29  C   UNL A   1      34.596  33.968  32.957  1.00  0.00     0.202 C 
BRANCH  29  30
ATOM     30  C   UNL A   1      35.505  33.043  32.130  1.00  0.00     0.261 C 
BRANCH  30  31
ATOM     31  O   UNL A   1      36.486  33.725  31.330  1.00  0.00    -0.460 OA
BRANCH  31  32
ATOM     32  C   UNL A   1      37.277  32.921  30.566  1.00  0.00     0.338 C 
ATOM     33  O   UNL A   1      36.950  31.890  30.028  1.00  0.00    -0.246 OA
BRANCH  32  34
ATOM     34  C   UNL A   1      38.588  33.592  30.317  1.00  0.00     0.060 A 
ATOM     35  C   UNL A   1      38.820  34.069  29.020  1.00  0.00     0.016 A 
ATOM     36  C   UNL A   1      39.554  33.793  31.311  1.00  0.00     0.016 A 
ATOM     37  C   UNL A   1      40.029  34.685  28.695  1.00  0.00     0.010 A 
ATOM     38  C   UNL A   1      40.776  34.404  30.983  1.00  0.00     0.010 A 
ATOM     39  C   UNL A   1      41.040  34.800  29.659  1.00  0.00    -0.014 A 
BRANCH  39  40
ATOM     40  C   UNL A   1      42.427  35.060  29.188  1.00  0.00     0.031 A 
ATOM     41  C   UNL A   1      43.372  33.886  29.117  1.00  0.00     0.074 A 
ATOM     42  C   UNL A   1      42.825  36.267  28.744  1.00  0.00     0.049 A 
ATOM     43  N   UNL A   1      44.600  33.831  28.670  1.00  0.00    -0.248 NA
ATOM     44  C   UNL A   1      42.857  32.597  29.610  1.00  0.00     0.031 C 
ATOM     45  C   UNL A   1      42.013  37.482  28.741  1.00  0.00     0.029 A 
ATOM     46  N   UNL A   1      44.027  36.665  28.209  1.00  0.00    -0.354 N 
ATOM     47  C   UNL A   1      45.003  32.511  28.836  1.00  0.00     0.074 A 
ATOM     48  C   UNL A   1      43.904  31.805  29.455  1.00  0.00     0.031 C 
ATOM     49  C   UNL A   1      42.750  38.497  28.253  1.00  0.00     0.029 A 
ATOM     50  C   UNL A   1      44.088  38.008  27.918  1.00  0.00     0.049 A 
ATOM     51  H   UNL A   1      44.776  36.045  28.049  1.00  0.00     0.167 HD
ATOM     52  C   UNL A   1      46.169  31.923  28.481  1.00  0.00     0.034 A 
ATOM     53  C   UNL A   1      45.110  38.755  27.451  1.00  0.00     0.034 A 
ATOM     54  C   UNL A   1      47.264  32.614  27.858  1.00  0.00     0.049 A 
ATOM     55  C   UNL A   1      46.415  38.086  27.095  1.00  0.00     0.074 A 
ATOM     56  C   UNL A   1      48.482  32.104  27.449  1.00  0.00     0.029 A 
ATOM     57  N   UNL A   1      47.278  33.968  27.562  1.00  0.00    -0.354 N 
ATOM     58  N   UNL A   1      46.742  36.818  27.166  1.00  0.00    -0.248 NA
ATOM     59  C   UNL A   1      47.478  38.946  26.552  1.00  0.00     0.031 C 
ATOM     60  C   UNL A   1      49.246  33.156  26.934  1.00  0.00     0.029 A 
ATOM     61  C   UNL A   1      48.487  34.313  26.984  1.00  0.00     0.049 A 
ATOM     62  H   UNL A   1      46.537  34.592  27.738  1.00  0.00     0.167 HD
ATOM     63  C   UNL A   1      48.032  36.724  26.651  1.00  0.00     0.074 A 
ATOM     64  C   UNL A   1      48.412  38.060  26.239  1.00  0.00     0.031 C 
ATOM     65  C   UNL A   1      48.838  35.638  26.543  1.00  0.00     0.034 A 
BRANCH  52  66
ATOM     66  C   UNL A   1      46.308  30.446  28.738  1.00  0.00     0.023 A 
ATOM     67  C   UNL A   1      46.858  29.998  29.958  1.00  0.00     0.012 A 
ATOM     68  C   UNL A   1      45.856  29.502  27.796  1.00  0.00     0.148 A 
ATOM     69  C   UNL A   1      46.983  28.634  30.222  1.00  0.00     0.002 A 
ATOM     70  C   UNL A   1      45.940  28.146  28.086  1.00  0.00     0.091 A 
ATOM     71  F   UNL A   1      45.361  29.949  26.633  1.00  0.00    -0.205 F 
ATOM     72  C   UNL A   1      46.515  27.710  29.292  1.00  0.00     0.022 A 
BRANCH  70  73
ATOM     73  S   UNL A   1      45.296  26.877  26.992  1.00  0.00     0.127 S 
ATOM     74  O   UNL A   1      45.916  27.243  25.719  1.00  0.00    -0.237 OA
ATOM     75  O   UNL A   1      45.824  25.655  27.598  1.00  0.00    -0.237 OA
ATOM     76  O   UNL A   1      43.846  27.004  27.035  1.00  0.00    -0.744 OA
ENDBRANCH  70  73
ENDBRANCH  52  66
BRANCH  53  77
ATOM     77  C   UNL A   1      44.947  40.231  27.284  1.00  0.00     0.023 A 
ATOM     78  C   UNL A   1      44.500  40.764  26.058  1.00  0.00     0.012 A 
ATOM     79  C   UNL A   1      45.254  41.111  28.340  1.00  0.00     0.148 A 
ATOM     80  C   UNL A   1      44.402  42.145  25.876  1.00  0.00     0.002 A 
ATOM     81  C   UNL A   1      45.092  42.481  28.174  1.00  0.00     0.091 A 
ATOM     82  F   UNL A   1      45.702  40.590  29.491  1.00  0.00    -0.205 F 
ATOM     83  C   UNL A   1      44.686  43.002  26.936  1.00  0.00     0.022 A 
BRANCH  81  84
ATOM     84  S   UNL A   1      45.302  43.642  29.527  1.00  0.00     0.127 S 
ATOM     85  O   UNL A   1      46.708  43.452  29.871  1.00  0.00    -0.237 OA
ATOM     86  O   UNL A   1      44.991  44.917  28.880  1.00  0.00    -0.237 OA
ATOM     87  O   UNL A   1      44.340  43.239  30.543  1.00  0.00    -0.744 OA
ENDBRANCH  81  84
ENDBRANCH  53  77
BRANCH  65  88
ATOM     88  C   UNL A   1      50.201  35.839  25.926  1.00  0.00     0.023 A 
ATOM     89  C   UNL A   1      50.341  35.874  24.524  1.00  0.00     0.012 A 
ATOM     90  C   UNL A   1      51.338  36.033  26.737  1.00  0.00     0.148 A 
ATOM     91  C   UNL A   1      51.597  36.043  23.940  1.00  0.00     0.002 A 
ATOM     92  C   UNL A   1      52.577  36.255  26.148  1.00  0.00     0.091 A 
ATOM     93  F   UNL A   1      51.190  35.984  28.069  1.00  0.00    -0.205 F 
ATOM     94  C   UNL A   1      52.711  36.243  24.750  1.00  0.00     0.022 A 
BRANCH  92  95
ATOM     95  S   UNL A   1      54.048  36.618  27.110  1.00  0.00     0.127 S 
ATOM     96  O   UNL A   1      54.364  35.309  27.678  1.00  0.00    -0.237 OA
ATOM     97  O   UNL A   1      54.985  37.079  26.084  1.00  0.00    -0.237 OA
ATOM     98  O   UNL A   1      53.657  37.641  28.071  1.00  0.00    -0.744 OA
ENDBRANCH  92  95
ENDBRANCH  65  88
ENDBRANCH  39  40
ENDBRANCH  32  34
ENDBRANCH  31  32
ENDBRANCH  30  31
ENDBRANCH  29  30
ENDBRANCH  28  29
ENDBRANCH  27  28
ENDBRANCH   1  27
TORSDOF 24
ENDMDL
