MODEL 1
REMARK VINA RESULT:      -7.8      0.000      0.000
REMARK SMILES Cc1cccc(C(=O)Nc2ccc(-c3nnc(S[C@H](C(=O)OCCOCCOCCOCCOC(=O)c4ccc(-c5c6nc(c(-c7cccc(S(=O)(=O)[O-])c7F)c7ccc([nH]7)c(-c7cccc(S(=O)(=O)[O-])c7F)c7nc(c(-c8cccc(S(=O)(=O)[O-])c8F)c8ccc5[nH]8)C=C7)C=C6)cc4)C(C)C)n3C)cc2)c1
REMARK SMILES IDX 27 1 26 2 25 3 24 4 23 5 22 6 20 7 21 8 19 9 18 10 17 11
REMARK SMILES IDX 14 12 15 13 103 14 16 15 104 16 13 17 10 18 11 19 106 20
REMARK SMILES IDX 12 21 105 22 9 23 7 24 8 25 6 27 1 28 2 29 3 30 107 31 4 32
REMARK SMILES IDX 5 33 100 34 101 35 102 36 28 37 29 38 30 39 31 40 32 41
REMARK SMILES IDX 33 42 34 43 35 44 36 45 37 46 38 47 99 48 39 49 98 50 40 51
REMARK SMILES IDX 41 52 42 53 92 54 43 55 97 56 91 57 93 58 44 59 96 60 90 61
REMARK SMILES IDX 89 62 45 64 77 65 57 66 76 67 58 68 61 69 75 70 94 71 59 72
REMARK SMILES IDX 60 73 74 75 95 76 62 77 46 78 47 79 55 80 48 81 50 82 56 83
REMARK SMILES IDX 49 84 51 85 52 86 53 87 54 88 78 89 79 90 87 91 80 92 82 93
REMARK SMILES IDX 88 94 81 95 83 96 84 97 85 98 86 99 63 100 64 101 72 102
REMARK SMILES IDX 65 103 67 104 73 105 66 106 68 107 69 108 70 109 71 110
REMARK H PARENT 9 26 93 63 61 74
REMARK Flexibility Score: inf
ROOT
ATOM      1  C   UNL A   1      43.431  29.355  44.744  1.00  0.00     0.188 C 
ENDROOT
BRANCH   1   2
ATOM      2  C   UNL A   1      42.802  30.426  43.862  1.00  0.00     0.188 C 
BRANCH   2   3
ATOM      3  O   UNL A   1      41.708  31.162  44.383  1.00  0.00    -0.376 OA
BRANCH   3   4
ATOM      4  C   UNL A   1      40.653  31.385  43.425  1.00  0.00     0.202 C 
BRANCH   4   5
ATOM      5  C   UNL A   1      40.877  31.575  41.917  1.00  0.00     0.261 C 
BRANCH   5   6
ATOM      6  O   UNL A   1      39.673  31.816  41.207  1.00  0.00    -0.462 OA
BRANCH   6   7
ATOM      7  C   UNL A   1      39.416  33.109  40.927  1.00  0.00     0.319 C 
ATOM      8  O   UNL A   1      40.236  33.951  40.559  1.00  0.00    -0.251 OA
BRANCH   7   9
ATOM      9  C   UNL A   1      37.928  33.375  41.042  1.00  0.00     0.167 C 
BRANCH   9  10
ATOM     10  S   UNL A   1      37.045  32.902  39.424  1.00  0.00    -0.071 SA
BRANCH  10  11
ATOM     11  C   UNL A   1      38.199  32.743  38.104  1.00  0.00     0.192 A 
ATOM     12  C   UNL A   1      39.692  33.275  36.532  1.00  0.00     0.164 A 
ATOM     13  N   UNL A   1      39.627  31.959  36.638  1.00  0.00    -0.129 NA
ATOM     14  N   UNL A   1      38.822  33.804  37.474  1.00  0.00    -0.305 N 
ATOM     15  N   UNL A   1      38.726  31.635  37.639  1.00  0.00    -0.123 NA
ATOM     16  C   UNL A   1      38.729  35.205  37.776  1.00  0.00     0.154 C 
BRANCH  12  17
ATOM     17  C   UNL A   1      40.668  34.021  35.716  1.00  0.00     0.019 A 
ATOM     18  C   UNL A   1      42.609  35.079  33.950  1.00  0.00     0.041 A 
ATOM     19  C   UNL A   1      41.267  35.425  33.789  1.00  0.00     0.027 A 
ATOM     20  C   UNL A   1      42.997  34.334  35.068  1.00  0.00     0.027 A 
ATOM     21  C   UNL A   1      40.302  34.843  34.639  1.00  0.00     0.014 A 
ATOM     22  C   UNL A   1      42.032  33.817  35.942  1.00  0.00     0.014 A 
BRANCH  18  23
ATOM     23  N   UNL A   1      43.506  35.309  32.888  1.00  0.00    -0.322 N 
ATOM     24  C   UNL A   1      43.537  34.659  31.656  1.00  0.00     0.255 C 
ATOM     25  O   UNL A   1      44.528  34.777  30.934  1.00  0.00    -0.269 OA
ATOM     26  H   UNL A   1      44.186  36.006  33.033  1.00  0.00     0.170 HD
BRANCH  24  27
ATOM     27  C   UNL A   1      42.351  33.883  31.155  1.00  0.00     0.040 A 
ATOM     28  C   UNL A   1      39.057  34.547  29.371  1.00  0.00     0.044 C 
ATOM     29  C   UNL A   1      40.183  33.802  30.034  1.00  0.00    -0.050 A 
ATOM     30  C   UNL A   1      40.051  32.463  30.395  1.00  0.00     0.003 A 
ATOM     31  C   UNL A   1      41.378  34.461  30.330  1.00  0.00     0.017 A 
ATOM     32  C   UNL A   1      41.079  31.820  31.088  1.00  0.00     0.001 A 
ATOM     33  C   UNL A   1      42.216  32.532  31.492  1.00  0.00     0.014 A 
ENDBRANCH  24  27
ENDBRANCH  18  23
ENDBRANCH  12  17
ENDBRANCH  10  11
ENDBRANCH   9  10
BRANCH   9  34
ATOM     34  C   UNL A   1      37.289  32.859  42.397  1.00  0.00     0.007 C 
ATOM     35  C   UNL A   1      36.135  33.742  42.909  1.00  0.00     0.009 C 
ATOM     36  C   UNL A   1      36.826  31.403  42.356  1.00  0.00     0.009 C 
ENDBRANCH   9  34
ENDBRANCH   7   9
ENDBRANCH   6   7
ENDBRANCH   5   6
ENDBRANCH   4   5
ENDBRANCH   3   4
ENDBRANCH   2   3
ENDBRANCH   1   2
BRANCH   1  37
ATOM     37  O   UNL A   1      44.107  28.336  44.007  1.00  0.00    -0.377 OA
BRANCH  37  38
ATOM     38  C   UNL A   1      44.117  28.598  42.605  1.00  0.00     0.188 C 
BRANCH  38  39
ATOM     39  C   UNL A   1      44.727  27.450  41.853  1.00  0.00     0.188 C 
BRANCH  39  40
ATOM     40  O   UNL A   1      45.597  27.967  40.845  1.00  0.00    -0.376 OA
BRANCH  40  41
ATOM     41  C   UNL A   1      45.308  29.308  40.495  1.00  0.00     0.202 C 
BRANCH  41  42
ATOM     42  C   UNL A   1      45.553  29.585  39.009  1.00  0.00     0.261 C 
BRANCH  42  43
ATOM     43  O   UNL A   1      44.501  30.447  38.523  1.00  0.00    -0.460 OA
BRANCH  43  44
ATOM     44  C   UNL A   1      44.665  30.916  37.248  1.00  0.00     0.338 C 
ATOM     45  O   UNL A   1      45.445  31.809  36.950  1.00  0.00    -0.246 OA
BRANCH  44  46
ATOM     46  C   UNL A   1      43.601  30.352  36.352  1.00  0.00     0.060 A 
ATOM     47  C   UNL A   1      43.083  29.064  36.541  1.00  0.00     0.016 A 
ATOM     48  C   UNL A   1      43.318  30.998  35.161  1.00  0.00     0.016 A 
ATOM     49  C   UNL A   1      42.476  28.361  35.473  1.00  0.00     0.010 A 
ATOM     50  C   UNL A   1      42.773  30.282  34.106  1.00  0.00     0.010 A 
ATOM     51  C   UNL A   1      42.418  28.926  34.208  1.00  0.00    -0.014 A 
BRANCH  51  52
ATOM     52  C   UNL A   1      42.028  28.248  32.938  1.00  0.00     0.031 A 
ATOM     53  C   UNL A   1      40.604  28.411  32.483  1.00  0.00     0.074 A 
ATOM     54  C   UNL A   1      42.987  27.966  32.008  1.00  0.00     0.049 A 
ATOM     55  N   UNL A   1      40.152  28.158  31.302  1.00  0.00    -0.248 NA
ATOM     56  C   UNL A   1      39.574  28.977  33.345  1.00  0.00     0.031 C 
ATOM     57  C   UNL A   1      42.831  28.039  30.548  1.00  0.00     0.029 A 
ATOM     58  N   UNL A   1      44.334  27.640  32.131  1.00  0.00    -0.354 N 
ATOM     59  C   UNL A   1      38.915  28.762  31.143  1.00  0.00     0.074 A 
ATOM     60  C   UNL A   1      38.585  29.212  32.473  1.00  0.00     0.031 C 
ATOM     61  C   UNL A   1      43.977  27.754  29.916  1.00  0.00     0.029 A 
ATOM     62  C   UNL A   1      44.816  27.145  30.910  1.00  0.00     0.049 A 
ATOM     63  H   UNL A   1      44.868  27.740  32.953  1.00  0.00     0.167 HD
ATOM     64  C   UNL A   1      38.389  28.895  29.882  1.00  0.00     0.034 A 
ATOM     65  C   UNL A   1      45.328  25.896  30.732  1.00  0.00     0.034 A 
ATOM     66  C   UNL A   1      39.268  28.219  28.868  1.00  0.00     0.049 A 
ATOM     67  C   UNL A   1      44.325  25.085  29.894  1.00  0.00     0.074 A 
ATOM     68  C   UNL A   1      39.936  28.628  27.720  1.00  0.00     0.029 A 
ATOM     69  N   UNL A   1      39.724  26.911  29.103  1.00  0.00    -0.354 N 
ATOM     70  N   UNL A   1      43.053  25.419  29.795  1.00  0.00    -0.248 NA
ATOM     71  C   UNL A   1      44.666  24.040  28.931  1.00  0.00     0.031 C 
ATOM     72  C   UNL A   1      40.894  27.626  27.373  1.00  0.00     0.029 A 
ATOM     73  C   UNL A   1      40.760  26.554  28.249  1.00  0.00     0.049 A 
ATOM     74  H   UNL A   1      39.353  26.316  29.793  1.00  0.00     0.167 HD
ATOM     75  C   UNL A   1      42.479  24.839  28.701  1.00  0.00     0.074 A 
ATOM     76  C   UNL A   1      43.514  23.922  28.235  1.00  0.00     0.031 C 
ATOM     77  C   UNL A   1      41.251  25.174  28.176  1.00  0.00     0.034 A 
BRANCH  64  78
ATOM     78  C   UNL A   1      37.179  29.790  29.474  1.00  0.00     0.023 A 
ATOM     79  C   UNL A   1      36.526  29.484  28.252  1.00  0.00     0.012 A 
ATOM     80  C   UNL A   1      36.620  30.908  30.160  1.00  0.00     0.148 A 
ATOM     81  C   UNL A   1      35.469  30.239  27.716  1.00  0.00     0.002 A 
ATOM     82  C   UNL A   1      35.545  31.657  29.636  1.00  0.00     0.091 A 
ATOM     83  F   UNL A   1      37.085  31.258  31.357  1.00  0.00    -0.205 F 
ATOM     84  C   UNL A   1      34.979  31.331  28.405  1.00  0.00     0.022 A 
BRANCH  82  85
ATOM     85  S   UNL A   1      34.794  33.070  30.486  1.00  0.00     0.127 S 
ATOM     86  O   UNL A   1      35.906  34.022  30.554  1.00  0.00    -0.237 OA
ATOM     87  O   UNL A   1      33.726  33.459  29.565  1.00  0.00    -0.237 OA
ATOM     88  O   UNL A   1      34.345  32.580  31.783  1.00  0.00    -0.744 OA
ENDBRANCH  82  85
ENDBRANCH  64  78
BRANCH  65  89
ATOM     89  C   UNL A   1      46.350  25.583  31.783  1.00  0.00     0.023 A 
ATOM     90  C   UNL A   1      47.405  26.543  31.840  1.00  0.00     0.012 A 
ATOM     91  C   UNL A   1      45.947  24.983  32.986  1.00  0.00     0.148 A 
ATOM     92  C   UNL A   1      47.832  27.081  33.059  1.00  0.00     0.002 A 
ATOM     93  C   UNL A   1      46.358  25.546  34.203  1.00  0.00     0.091 A 
ATOM     94  F   UNL A   1      45.039  24.000  32.932  1.00  0.00    -0.205 F 
ATOM     95  C   UNL A   1      47.259  26.624  34.238  1.00  0.00     0.022 A 
BRANCH  93  96
ATOM     96  S   UNL A   1      45.501  25.147  35.737  1.00  0.00     0.127 S 
ATOM     97  O   UNL A   1      44.170  25.690  35.496  1.00  0.00    -0.237 OA
ATOM     98  O   UNL A   1      45.577  23.687  35.764  1.00  0.00    -0.237 OA
ATOM     99  O   UNL A   1      46.290  25.802  36.770  1.00  0.00    -0.744 OA
ENDBRANCH  93  96
ENDBRANCH  65  89
BRANCH  77 100
ATOM    100  C   UNL A   1      40.333  24.153  27.522  1.00  0.00     0.023 A 
ATOM    101  C   UNL A   1      39.335  24.554  26.616  1.00  0.00     0.012 A 
ATOM    102  C   UNL A   1      40.618  22.759  27.584  1.00  0.00     0.148 A 
ATOM    103  C   UNL A   1      38.648  23.633  25.824  1.00  0.00     0.002 A 
ATOM    104  C   UNL A   1      40.022  21.867  26.705  1.00  0.00     0.091 A 
ATOM    105  F   UNL A   1      41.465  22.276  28.501  1.00  0.00    -0.205 F 
ATOM    106  C   UNL A   1      39.017  22.297  25.840  1.00  0.00     0.022 A 
BRANCH 104 107
ATOM    107  S   UNL A   1      40.624  20.182  26.508  1.00  0.00     0.127 S 
ATOM    108  O   UNL A   1      39.479  19.533  25.876  1.00  0.00    -0.237 OA
ATOM    109  O   UNL A   1      41.780  20.376  25.631  1.00  0.00    -0.237 OA
ATOM    110  O   UNL A   1      40.959  19.719  27.847  1.00  0.00    -0.744 OA
ENDBRANCH 104 107
ENDBRANCH  77 100
ENDBRANCH  51  52
ENDBRANCH  44  46
ENDBRANCH  43  44
ENDBRANCH  42  43
ENDBRANCH  41  42
ENDBRANCH  40  41
ENDBRANCH  39  40
ENDBRANCH  38  39
ENDBRANCH  37  38
ENDBRANCH   1  37
TORSDOF 29
ENDMDL
MODEL 2
REMARK VINA RESULT:      -7.1      4.536     14.416
REMARK SMILES Cc1cccc(C(=O)Nc2ccc(-c3nnc(S[C@H](C(=O)OCCOCCOCCOCCOC(=O)c4ccc(-c5c6nc(c(-c7cccc(S(=O)(=O)[O-])c7F)c7ccc([nH]7)c(-c7cccc(S(=O)(=O)[O-])c7F)c7nc(c(-c8cccc(S(=O)(=O)[O-])c8F)c8ccc5[nH]8)C=C7)C=C6)cc4)C(C)C)n3C)cc2)c1
REMARK SMILES IDX 27 1 26 2 25 3 24 4 23 5 22 6 20 7 21 8 19 9 18 10 17 11
REMARK SMILES IDX 14 12 15 13 103 14 16 15 104 16 13 17 10 18 11 19 106 20
REMARK SMILES IDX 12 21 105 22 9 23 7 24 8 25 6 27 1 28 2 29 3 30 107 31 4 32
REMARK SMILES IDX 5 33 100 34 101 35 102 36 28 37 29 38 30 39 31 40 32 41
REMARK SMILES IDX 33 42 34 43 35 44 36 45 37 46 38 47 99 48 39 49 98 50 40 51
REMARK SMILES IDX 41 52 42 53 92 54 43 55 97 56 91 57 93 58 44 59 96 60 90 61
REMARK SMILES IDX 89 62 45 64 77 65 57 66 76 67 58 68 61 69 75 70 94 71 59 72
REMARK SMILES IDX 60 73 74 75 95 76 62 77 46 78 47 79 55 80 48 81 50 82 56 83
REMARK SMILES IDX 49 84 51 85 52 86 53 87 54 88 78 89 79 90 87 91 80 92 82 93
REMARK SMILES IDX 88 94 81 95 83 96 84 97 85 98 86 99 63 100 64 101 72 102
REMARK SMILES IDX 65 103 67 104 73 105 66 106 68 107 69 108 70 109 71 110
REMARK H PARENT 9 26 93 63 61 74
REMARK Flexibility Score: inf
ROOT
ATOM      1  C   UNL A   1      37.722  29.096  28.464  1.00  0.00     0.188 C 
ENDROOT
BRANCH   1   2
ATOM      2  C   UNL A   1      38.835  29.429  29.449  1.00  0.00     0.188 C 
BRANCH   2   3
ATOM      3  O   UNL A   1      40.165  29.089  29.095  1.00  0.00    -0.376 OA
BRANCH   3   4
ATOM      4  C   UNL A   1      40.264  27.872  28.326  1.00  0.00     0.202 C 
BRANCH   4   5
ATOM      5  C   UNL A   1      40.852  26.556  28.857  1.00  0.00     0.261 C 
BRANCH   5   6
ATOM      6  O   UNL A   1      42.173  26.703  29.353  1.00  0.00    -0.462 OA
BRANCH   6   7
ATOM      7  C   UNL A   1      43.153  26.323  28.510  1.00  0.00     0.319 C 
ATOM      8  O   UNL A   1      43.467  26.885  27.460  1.00  0.00    -0.251 OA
BRANCH   7   9
ATOM      9  C   UNL A   1      43.896  25.133  29.086  1.00  0.00     0.167 C 
BRANCH   9  10
ATOM     10  S   UNL A   1      43.868  23.680  27.857  1.00  0.00    -0.071 SA
BRANCH  10  11
ATOM     11  C   UNL A   1      42.258  22.975  27.759  1.00  0.00     0.192 A 
ATOM     12  C   UNL A   1      40.178  22.555  27.068  1.00  0.00     0.164 A 
ATOM     13  N   UNL A   1      40.515  21.666  27.985  1.00  0.00    -0.129 NA
ATOM     14  N   UNL A   1      41.276  23.381  26.875  1.00  0.00    -0.305 N 
ATOM     15  N   UNL A   1      41.819  21.909  28.385  1.00  0.00    -0.123 NA
ATOM     16  C   UNL A   1      41.357  24.374  25.841  1.00  0.00     0.154 C 
BRANCH  12  17
ATOM     17  C   UNL A   1      38.946  22.525  26.258  1.00  0.00     0.019 A 
ATOM     18  C   UNL A   1      36.807  22.693  24.413  1.00  0.00     0.041 A 
ATOM     19  C   UNL A   1      37.452  21.473  24.613  1.00  0.00     0.027 A 
ATOM     20  C   UNL A   1      37.125  23.781  25.232  1.00  0.00     0.027 A 
ATOM     21  C   UNL A   1      38.556  21.416  25.490  1.00  0.00     0.014 A 
ATOM     22  C   UNL A   1      38.182  23.691  26.147  1.00  0.00     0.014 A 
BRANCH  18  23
ATOM     23  N   UNL A   1      36.002  22.862  23.269  1.00  0.00    -0.322 N 
ATOM     24  C   UNL A   1      34.689  23.327  23.224  1.00  0.00     0.255 C 
ATOM     25  O   UNL A   1      34.028  23.174  22.195  1.00  0.00    -0.269 OA
ATOM     26  H   UNL A   1      36.413  22.626  22.406  1.00  0.00     0.170 HD
BRANCH  24  27
ATOM     27  C   UNL A   1      34.090  24.082  24.377  1.00  0.00     0.040 A 
ATOM     28  C   UNL A   1      31.596  23.482  27.186  1.00  0.00     0.044 C 
ATOM     29  C   UNL A   1      32.607  24.175  26.316  1.00  0.00    -0.050 A 
ATOM     30  C   UNL A   1      32.825  25.548  26.411  1.00  0.00     0.003 A 
ATOM     31  C   UNL A   1      33.325  23.448  25.365  1.00  0.00     0.017 A 
ATOM     32  C   UNL A   1      33.706  26.180  25.530  1.00  0.00     0.001 A 
ATOM     33  C   UNL A   1      34.317  25.457  24.498  1.00  0.00     0.014 A 
ENDBRANCH  24  27
ENDBRANCH  18  23
ENDBRANCH  12  17
ENDBRANCH  10  11
ENDBRANCH   9  10
BRANCH   9  34
ATOM     34  C   UNL A   1      45.290  25.506  29.741  1.00  0.00     0.007 C 
ATOM     35  C   UNL A   1      46.483  24.758  29.116  1.00  0.00     0.009 C 
ATOM     36  C   UNL A   1      45.592  27.004  29.759  1.00  0.00     0.009 C 
ENDBRANCH   9  34
ENDBRANCH   7   9
ENDBRANCH   6   7
ENDBRANCH   5   6
ENDBRANCH   4   5
ENDBRANCH   3   4
ENDBRANCH   2   3
ENDBRANCH   1   2
BRANCH   1  37
ATOM     37  O   UNL A   1      37.113  30.249  27.883  1.00  0.00    -0.377 OA
BRANCH  37  38
ATOM     38  C   UNL A   1      35.857  29.950  27.276  1.00  0.00     0.188 C 
BRANCH  38  39
ATOM     39  C   UNL A   1      34.870  31.055  27.523  1.00  0.00     0.188 C 
BRANCH  39  40
ATOM     40  O   UNL A   1      35.564  32.304  27.529  1.00  0.00    -0.376 OA
BRANCH  40  41
ATOM     41  C   UNL A   1      35.092  33.198  28.520  1.00  0.00     0.202 C 
BRANCH  41  42
ATOM     42  C   UNL A   1      34.238  32.493  29.577  1.00  0.00     0.261 C 
BRANCH  42  43
ATOM     43  O   UNL A   1      34.793  32.775  30.880  1.00  0.00    -0.460 OA
BRANCH  43  44
ATOM     44  C   UNL A   1      35.847  31.987  31.255  1.00  0.00     0.338 C 
ATOM     45  O   UNL A   1      35.964  30.814  30.933  1.00  0.00    -0.246 OA
BRANCH  44  46
ATOM     46  C   UNL A   1      36.676  32.695  32.286  1.00  0.00     0.060 A 
ATOM     47  C   UNL A   1      36.657  34.090  32.417  1.00  0.00     0.016 A 
ATOM     48  C   UNL A   1      37.677  31.995  32.937  1.00  0.00     0.016 A 
ATOM     49  C   UNL A   1      37.743  34.778  33.011  1.00  0.00     0.010 A 
ATOM     50  C   UNL A   1      38.760  32.679  33.465  1.00  0.00     0.010 A 
ATOM     51  C   UNL A   1      38.861  34.081  33.441  1.00  0.00    -0.014 A 
BRANCH  51  52
ATOM     52  C   UNL A   1      40.168  34.656  33.871  1.00  0.00     0.031 A 
ATOM     53  C   UNL A   1      40.306  35.037  35.320  1.00  0.00     0.074 A 
ATOM     54  C   UNL A   1      41.296  34.363  33.159  1.00  0.00     0.049 A 
ATOM     55  N   UNL A   1      41.412  35.271  35.940  1.00  0.00    -0.248 NA
ATOM     56  C   UNL A   1      39.160  35.094  36.219  1.00  0.00     0.031 C 
ATOM     57  C   UNL A   1      42.640  34.140  33.710  1.00  0.00     0.029 A 
ATOM     58  N   UNL A   1      41.501  34.110  31.807  1.00  0.00    -0.354 N 
ATOM     59  C   UNL A   1      41.191  35.225  37.307  1.00  0.00     0.074 A 
ATOM     60  C   UNL A   1      39.755  35.164  37.417  1.00  0.00     0.031 C 
ATOM     61  C   UNL A   1      43.518  33.818  32.752  1.00  0.00     0.029 A 
ATOM     62  C   UNL A   1      42.872  34.164  31.516  1.00  0.00     0.049 A 
ATOM     63  H   UNL A   1      40.789  33.923  31.151  1.00  0.00     0.167 HD
ATOM     64  C   UNL A   1      42.265  35.133  38.158  1.00  0.00     0.034 A 
ATOM     65  C   UNL A   1      43.442  35.040  30.643  1.00  0.00     0.034 A 
ATOM     66  C   UNL A   1      43.555  35.214  37.393  1.00  0.00     0.049 A 
ATOM     67  C   UNL A   1      44.261  36.058  31.456  1.00  0.00     0.074 A 
ATOM     68  C   UNL A   1      44.667  34.392  37.254  1.00  0.00     0.029 A 
ATOM     69  N   UNL A   1      43.737  36.230  36.439  1.00  0.00    -0.354 N 
ATOM     70  N   UNL A   1      44.045  36.276  32.739  1.00  0.00    -0.248 NA
ATOM     71  C   UNL A   1      45.498  36.702  31.020  1.00  0.00     0.031 C 
ATOM     72  C   UNL A   1      45.417  34.835  36.120  1.00  0.00     0.029 A 
ATOM     73  C   UNL A   1      44.824  35.984  35.610  1.00  0.00     0.049 A 
ATOM     74  H   UNL A   1      43.161  37.024  36.366  1.00  0.00     0.167 HD
ATOM     75  C   UNL A   1      45.127  36.868  33.324  1.00  0.00     0.074 A 
ATOM     76  C   UNL A   1      45.982  37.183  32.185  1.00  0.00     0.031 C 
ATOM     77  C   UNL A   1      45.323  37.002  34.679  1.00  0.00     0.034 A 
BRANCH  64  78
ATOM     78  C   UNL A   1      42.215  34.777  39.676  1.00  0.00     0.023 A 
ATOM     79  C   UNL A   1      41.751  35.780  40.564  1.00  0.00     0.012 A 
ATOM     80  C   UNL A   1      42.588  33.562  40.323  1.00  0.00     0.148 A 
ATOM     81  C   UNL A   1      41.715  35.635  41.962  1.00  0.00     0.002 A 
ATOM     82  C   UNL A   1      42.534  33.405  41.724  1.00  0.00     0.091 A 
ATOM     83  F   UNL A   1      42.968  32.510  39.602  1.00  0.00    -0.205 F 
ATOM     84  C   UNL A   1      42.112  34.449  42.546  1.00  0.00     0.022 A 
BRANCH  82  85
ATOM     85  S   UNL A   1      42.978  31.872  42.582  1.00  0.00     0.127 S 
ATOM     86  O   UNL A   1      42.875  32.261  43.991  1.00  0.00    -0.237 OA
ATOM     87  O   UNL A   1      41.934  30.949  42.137  1.00  0.00    -0.237 OA
ATOM     88  O   UNL A   1      44.329  31.534  42.152  1.00  0.00    -0.744 OA
ENDBRANCH  82  85
ENDBRANCH  64  78
BRANCH  65  89
ATOM     89  C   UNL A   1      42.702  35.053  29.340  1.00  0.00     0.023 A 
ATOM     90  C   UNL A   1      42.101  36.314  29.051  1.00  0.00     0.012 A 
ATOM     91  C   UNL A   1      43.184  34.296  28.261  1.00  0.00     0.148 A 
ATOM     92  C   UNL A   1      42.235  36.911  27.792  1.00  0.00     0.002 A 
ATOM     93  C   UNL A   1      43.340  34.909  27.010  1.00  0.00     0.091 A 
ATOM     94  F   UNL A   1      43.646  33.063  28.507  1.00  0.00    -0.205 F 
ATOM     95  C   UNL A   1      42.912  36.230  26.789  1.00  0.00     0.022 A 
BRANCH  93  96
ATOM     96  S   UNL A   1      44.389  34.169  25.747  1.00  0.00     0.127 S 
ATOM     97  O   UNL A   1      45.496  35.114  25.672  1.00  0.00    -0.237 OA
ATOM     98  O   UNL A   1      44.722  32.874  26.339  1.00  0.00    -0.237 OA
ATOM     99  O   UNL A   1      43.532  34.082  24.574  1.00  0.00    -0.744 OA
ENDBRANCH  93  96
ENDBRANCH  65  89
BRANCH  77 100
ATOM    100  C   UNL A   1      46.034  38.200  35.291  1.00  0.00     0.023 A 
ATOM    101  C   UNL A   1      47.433  38.224  35.417  1.00  0.00     0.012 A 
ATOM    102  C   UNL A   1      45.351  39.433  35.502  1.00  0.00     0.148 A 
ATOM    103  C   UNL A   1      48.122  39.393  35.744  1.00  0.00     0.002 A 
ATOM    104  C   UNL A   1      46.051  40.613  35.700  1.00  0.00     0.091 A 
ATOM    105  F   UNL A   1      44.013  39.477  35.521  1.00  0.00    -0.205 F 
ATOM    106  C   UNL A   1      47.437  40.593  35.847  1.00  0.00     0.022 A 
BRANCH 104 107
ATOM    107  S   UNL A   1      45.248  42.221  35.601  1.00  0.00     0.127 S 
ATOM    108  O   UNL A   1      46.297  43.105  36.105  1.00  0.00    -0.237 OA
ATOM    109  O   UNL A   1      44.986  42.339  34.165  1.00  0.00    -0.237 OA
ATOM    110  O   UNL A   1      44.051  42.121  36.422  1.00  0.00    -0.744 OA
ENDBRANCH 104 107
ENDBRANCH  77 100
ENDBRANCH  51  52
ENDBRANCH  44  46
ENDBRANCH  43  44
ENDBRANCH  42  43
ENDBRANCH  41  42
ENDBRANCH  40  41
ENDBRANCH  39  40
ENDBRANCH  38  39
ENDBRANCH  37  38
ENDBRANCH   1  37
TORSDOF 29
ENDMDL
MODEL 3
REMARK VINA RESULT:      -7.1      4.109     11.250
REMARK SMILES Cc1cccc(C(=O)Nc2ccc(-c3nnc(S[C@H](C(=O)OCCOCCOCCOCCOC(=O)c4ccc(-c5c6nc(c(-c7cccc(S(=O)(=O)[O-])c7F)c7ccc([nH]7)c(-c7cccc(S(=O)(=O)[O-])c7F)c7nc(c(-c8cccc(S(=O)(=O)[O-])c8F)c8ccc5[nH]8)C=C7)C=C6)cc4)C(C)C)n3C)cc2)c1
REMARK SMILES IDX 27 1 26 2 25 3 24 4 23 5 22 6 20 7 21 8 19 9 18 10 17 11
REMARK SMILES IDX 14 12 15 13 103 14 16 15 104 16 13 17 10 18 11 19 106 20
REMARK SMILES IDX 12 21 105 22 9 23 7 24 8 25 6 27 1 28 2 29 3 30 107 31 4 32
REMARK SMILES IDX 5 33 100 34 101 35 102 36 28 37 29 38 30 39 31 40 32 41
REMARK SMILES IDX 33 42 34 43 35 44 36 45 37 46 38 47 99 48 39 49 98 50 40 51
REMARK SMILES IDX 41 52 42 53 92 54 43 55 97 56 91 57 93 58 44 59 96 60 90 61
REMARK SMILES IDX 89 62 45 64 77 65 57 66 76 67 58 68 61 69 75 70 94 71 59 72
REMARK SMILES IDX 60 73 74 75 95 76 62 77 46 78 47 79 55 80 48 81 50 82 56 83
REMARK SMILES IDX 49 84 51 85 52 86 53 87 54 88 78 89 79 90 87 91 80 92 82 93
REMARK SMILES IDX 88 94 81 95 83 96 84 97 85 98 86 99 63 100 64 101 72 102
REMARK SMILES IDX 65 103 67 104 73 105 66 106 68 107 69 108 70 109 71 110
REMARK H PARENT 9 26 93 63 61 74
REMARK Flexibility Score: inf
ROOT
ATOM      1  C   UNL A   1      44.462  24.299  30.152  1.00  0.00     0.188 C 
ENDROOT
BRANCH   1   2
ATOM      2  C   UNL A   1      43.661  25.136  31.140  1.00  0.00     0.188 C 
BRANCH   2   3
ATOM      3  O   UNL A   1      44.121  25.211  32.480  1.00  0.00    -0.376 OA
BRANCH   3   4
ATOM      4  C   UNL A   1      45.242  24.345  32.754  1.00  0.00     0.202 C 
BRANCH   4   5
ATOM      5  C   UNL A   1      45.119  22.908  33.284  1.00  0.00     0.261 C 
BRANCH   5   6
ATOM      6  O   UNL A   1      44.022  22.740  34.169  1.00  0.00    -0.462 OA
BRANCH   6   7
ATOM      7  C   UNL A   1      44.166  23.308  35.383  1.00  0.00     0.319 C 
ATOM      8  O   UNL A   1      43.297  23.917  36.007  1.00  0.00    -0.251 OA
BRANCH   7   9
ATOM      9  C   UNL A   1      45.549  23.014  35.929  1.00  0.00     0.167 C 
BRANCH   9  10
ATOM     10  S   UNL A   1      46.211  24.514  36.895  1.00  0.00    -0.071 SA
BRANCH  10  11
ATOM     11  C   UNL A   1      45.693  26.020  36.143  1.00  0.00     0.192 A 
ATOM     12  C   UNL A   1      44.610  27.940  35.794  1.00  0.00     0.164 A 
ATOM     13  N   UNL A   1      45.570  27.817  34.894  1.00  0.00    -0.129 NA
ATOM     14  N   UNL A   1      44.684  26.831  36.625  1.00  0.00    -0.305 N 
ATOM     15  N   UNL A   1      46.261  26.640  35.137  1.00  0.00    -0.123 NA
ATOM     16  C   UNL A   1      43.908  26.679  37.823  1.00  0.00     0.154 C 
BRANCH  12  17
ATOM     17  C   UNL A   1      43.775  29.138  35.996  1.00  0.00     0.019 A 
ATOM     18  C   UNL A   1      41.979  31.211  36.696  1.00  0.00     0.041 A 
ATOM     19  C   UNL A   1      43.332  31.333  37.011  1.00  0.00     0.027 A 
ATOM     20  C   UNL A   1      41.552  30.136  35.909  1.00  0.00     0.027 A 
ATOM     21  C   UNL A   1      44.207  30.267  36.711  1.00  0.00     0.014 A 
ATOM     22  C   UNL A   1      42.446  29.115  35.561  1.00  0.00     0.014 A 
BRANCH  18  23
ATOM     23  N   UNL A   1      41.048  32.049  37.339  1.00  0.00    -0.322 N 
ATOM     24  C   UNL A   1      40.817  33.400  37.087  1.00  0.00     0.255 C 
ATOM     25  O   UNL A   1      40.167  34.064  37.897  1.00  0.00    -0.269 OA
ATOM     26  H   UNL A   1      40.500  31.635  38.045  1.00  0.00     0.170 HD
BRANCH  24  27
ATOM     27  C   UNL A   1      41.276  34.044  35.809  1.00  0.00     0.040 A 
ATOM     28  C   UNL A   1      40.397  33.976  32.109  1.00  0.00     0.044 C 
ATOM     29  C   UNL A   1      41.080  34.352  33.394  1.00  0.00    -0.050 A 
ATOM     30  C   UNL A   1      42.259  35.095  33.397  1.00  0.00     0.003 A 
ATOM     31  C   UNL A   1      40.552  33.928  34.615  1.00  0.00     0.017 A 
ATOM     32  C   UNL A   1      42.919  35.355  34.601  1.00  0.00     0.001 A 
ATOM     33  C   UNL A   1      42.447  34.809  35.801  1.00  0.00     0.014 A 
ENDBRANCH  24  27
ENDBRANCH  18  23
ENDBRANCH  12  17
ENDBRANCH  10  11
ENDBRANCH   9  10
BRANCH   9  34
ATOM     34  C   UNL A   1      45.675  21.592  36.618  1.00  0.00     0.007 C 
ATOM     35  C   UNL A   1      46.461  20.569  35.777  1.00  0.00     0.009 C 
ATOM     36  C   UNL A   1      46.256  21.632  38.031  1.00  0.00     0.009 C 
ENDBRANCH   9  34
ENDBRANCH   7   9
ENDBRANCH   6   7
ENDBRANCH   5   6
ENDBRANCH   4   5
ENDBRANCH   3   4
ENDBRANCH   2   3
ENDBRANCH   1   2
BRANCH   1  37
ATOM     37  O   UNL A   1      43.954  22.976  29.984  1.00  0.00    -0.377 OA
BRANCH  37  38
ATOM     38  C   UNL A   1      42.673  22.964  29.357  1.00  0.00     0.188 C 
BRANCH  38  39
ATOM     39  C   UNL A   1      42.809  22.843  27.866  1.00  0.00     0.188 C 
BRANCH  39  40
ATOM     40  O   UNL A   1      42.718  21.464  27.503  1.00  0.00    -0.376 OA
BRANCH  40  41
ATOM     41  C   UNL A   1      41.383  21.000  27.413  1.00  0.00     0.202 C 
BRANCH  41  42
ATOM     42  C   UNL A   1      40.581  21.746  26.343  1.00  0.00     0.261 C 
BRANCH  42  43
ATOM     43  O   UNL A   1      39.263  22.022  26.865  1.00  0.00    -0.460 OA
BRANCH  43  44
ATOM     44  C   UNL A   1      38.588  23.042  26.253  1.00  0.00     0.338 C 
ATOM     45  O   UNL A   1      37.767  22.873  25.364  1.00  0.00    -0.246 OA
BRANCH  44  46
ATOM     46  C   UNL A   1      39.172  24.363  26.662  1.00  0.00     0.060 A 
ATOM     47  C   UNL A   1      39.816  25.201  25.742  1.00  0.00     0.016 A 
ATOM     48  C   UNL A   1      39.320  24.641  28.010  1.00  0.00     0.016 A 
ATOM     49  C   UNL A   1      40.759  26.164  26.175  1.00  0.00     0.010 A 
ATOM     50  C   UNL A   1      40.286  25.546  28.420  1.00  0.00     0.010 A 
ATOM     51  C   UNL A   1      41.087  26.267  27.518  1.00  0.00    -0.014 A 
BRANCH  51  52
ATOM     52  C   UNL A   1      42.207  27.054  28.111  1.00  0.00     0.031 A 
ATOM     53  C   UNL A   1      43.603  26.679  27.696  1.00  0.00     0.074 A 
ATOM     54  C   UNL A   1      41.972  28.323  28.555  1.00  0.00     0.049 A 
ATOM     55  N   UNL A   1      44.661  27.398  27.860  1.00  0.00    -0.248 NA
ATOM     56  C   UNL A   1      43.892  25.455  26.960  1.00  0.00     0.031 C 
ATOM     57  C   UNL A   1      42.890  29.466  28.451  1.00  0.00     0.029 A 
ATOM     58  N   UNL A   1      40.846  28.918  29.115  1.00  0.00    -0.354 N 
ATOM     59  C   UNL A   1      45.675  26.918  27.046  1.00  0.00     0.074 A 
ATOM     60  C   UNL A   1      45.148  25.671  26.550  1.00  0.00     0.031 C 
ATOM     61  C   UNL A   1      42.338  30.587  28.932  1.00  0.00     0.029 A 
ATOM     62  C   UNL A   1      41.194  30.153  29.683  1.00  0.00     0.049 A 
ATOM     63  H   UNL A   1      39.941  28.529  29.115  1.00  0.00     0.167 HD
ATOM     64  C   UNL A   1      46.780  27.700  26.817  1.00  0.00     0.034 A 
ATOM     65  C   UNL A   1      41.059  30.460  31.003  1.00  0.00     0.034 A 
ATOM     66  C   UNL A   1      46.715  28.959  27.634  1.00  0.00     0.049 A 
ATOM     67  C   UNL A   1      42.465  30.542  31.620  1.00  0.00     0.074 A 
ATOM     68  C   UNL A   1      46.735  30.319  27.346  1.00  0.00     0.029 A 
ATOM     69  N   UNL A   1      46.409  28.887  29.004  1.00  0.00    -0.354 N 
ATOM     70  N   UNL A   1      43.515  29.968  31.065  1.00  0.00    -0.248 NA
ATOM     71  C   UNL A   1      42.871  31.432  32.705  1.00  0.00     0.031 C 
ATOM     72  C   UNL A   1      46.289  31.033  28.501  1.00  0.00     0.029 A 
ATOM     73  C   UNL A   1      46.079  30.127  29.536  1.00  0.00     0.049 A 
ATOM     74  H   UNL A   1      46.424  28.053  29.526  1.00  0.00     0.167 HD
ATOM     75  C   UNL A   1      44.676  30.517  31.530  1.00  0.00     0.074 A 
ATOM     76  C   UNL A   1      44.218  31.380  32.614  1.00  0.00     0.031 C 
ATOM     77  C   UNL A   1      45.922  30.323  30.981  1.00  0.00     0.034 A 
BRANCH  64  78
ATOM     78  C   UNL A   1      47.864  27.471  25.720  1.00  0.00     0.023 A 
ATOM     79  C   UNL A   1      49.129  26.990  26.147  1.00  0.00     0.012 A 
ATOM     80  C   UNL A   1      47.776  27.690  24.314  1.00  0.00     0.148 A 
ATOM     81  C   UNL A   1      50.227  26.801  25.289  1.00  0.00     0.002 A 
ATOM     82  C   UNL A   1      48.869  27.483  23.446  1.00  0.00     0.091 A 
ATOM     83  F   UNL A   1      46.623  28.068  23.768  1.00  0.00    -0.205 F 
ATOM     84  C   UNL A   1      50.101  27.052  23.937  1.00  0.00     0.022 A 
BRANCH  82  85
ATOM     85  S   UNL A   1      48.791  27.728  21.653  1.00  0.00     0.127 S 
ATOM     86  O   UNL A   1      49.241  26.432  21.140  1.00  0.00    -0.237 OA
ATOM     87  O   UNL A   1      47.371  28.000  21.435  1.00  0.00    -0.237 OA
ATOM     88  O   UNL A   1      49.688  28.836  21.349  1.00  0.00    -0.744 OA
ENDBRANCH  82  85
ENDBRANCH  64  78
BRANCH  65  89
ATOM     89  C   UNL A   1      39.689  30.105  31.496  1.00  0.00     0.023 A 
ATOM     90  C   UNL A   1      39.672  29.716  32.869  1.00  0.00     0.012 A 
ATOM     91  C   UNL A   1      38.571  30.794  30.998  1.00  0.00     0.148 A 
ATOM     92  C   UNL A   1      38.726  30.237  33.760  1.00  0.00     0.002 A 
ATOM     93  C   UNL A   1      37.644  31.336  31.899  1.00  0.00     0.091 A 
ATOM     94  F   UNL A   1      38.525  31.063  29.687  1.00  0.00    -0.205 F 
ATOM     95  C   UNL A   1      37.749  31.100  33.281  1.00  0.00     0.022 A 
BRANCH  93  96
ATOM     96  S   UNL A   1      36.495  32.620  31.375  1.00  0.00     0.127 S 
ATOM     97  O   UNL A   1      35.802  32.939  32.616  1.00  0.00    -0.237 OA
ATOM     98  O   UNL A   1      37.396  33.662  30.885  1.00  0.00    -0.237 OA
ATOM     99  O   UNL A   1      35.699  31.986  30.333  1.00  0.00    -0.744 OA
ENDBRANCH  93  96
ENDBRANCH  65  89
BRANCH  77 100
ATOM    100  C   UNL A   1      47.190  30.277  31.820  1.00  0.00     0.023 A 
ATOM    101  C   UNL A   1      47.720  29.053  32.264  1.00  0.00     0.012 A 
ATOM    102  C   UNL A   1      48.026  31.423  31.954  1.00  0.00     0.148 A 
ATOM    103  C   UNL A   1      48.997  28.963  32.819  1.00  0.00     0.002 A 
ATOM    104  C   UNL A   1      49.338  31.304  32.387  1.00  0.00     0.091 A 
ATOM    105  F   UNL A   1      47.560  32.645  31.670  1.00  0.00    -0.205 F 
ATOM    106  C   UNL A   1      49.820  30.078  32.846  1.00  0.00     0.022 A 
BRANCH 104 107
ATOM    107  S   UNL A   1      50.520  32.651  32.219  1.00  0.00     0.127 S 
ATOM    108  O   UNL A   1      51.643  32.158  33.012  1.00  0.00    -0.237 OA
ATOM    109  O   UNL A   1      50.752  32.668  30.773  1.00  0.00    -0.237 OA
ATOM    110  O   UNL A   1      49.850  33.837  32.732  1.00  0.00    -0.744 OA
ENDBRANCH 104 107
ENDBRANCH  77 100
ENDBRANCH  51  52
ENDBRANCH  44  46
ENDBRANCH  43  44
ENDBRANCH  42  43
ENDBRANCH  41  42
ENDBRANCH  40  41
ENDBRANCH  39  40
ENDBRANCH  38  39
ENDBRANCH  37  38
ENDBRANCH   1  37
TORSDOF 29
ENDMDL
