MODEL 1
REMARK VINA RESULT:      -8.4      0.000      0.000
REMARK SMILES CN(C)Nc1ncnc(Nc2ccc(C(=O)OCCOCCOCCOCCOC(=O)c3ccc(-c4c5nc(c(-c6cccc(S(=O)(=O)[O-])c6F)c6ccc([nH]6)c(-c6cccc(S(=O)(=O)[O-])c6F)c6nc(c(-c7cccc(S(=O)(=O)[O-])c7F)c7ccc4[nH]7)C=C6)C=C5)cc3)cc2)c1[N+](=O)[O-]
REMARK SMILES IDX 22 1 21 2 20 3 19 4 18 5 17 6 15 7 16 8 14 9 11 10 12 11
REMARK SMILES IDX 96 12 13 13 95 14 10 15 9 17 5 18 6 19 97 20 7 21 8 22 4 23
REMARK SMILES IDX 2 25 1 26 3 27 98 28 99 29 100 30 23 31 24 32 25 33 26 34
REMARK SMILES IDX 27 35 28 36 29 37 30 38 31 39 32 40 33 41 94 42 34 43 93 44
REMARK SMILES IDX 35 45 36 46 37 47 87 48 38 49 92 50 86 51 88 52 39 53 91 54
REMARK SMILES IDX 85 55 84 56 40 58 72 59 52 60 71 61 53 62 56 63 70 64 89 65
REMARK SMILES IDX 54 66 55 67 69 69 90 70 57 71 41 72 42 73 50 74 43 75 45 76
REMARK SMILES IDX 51 77 44 78 46 79 47 80 48 81 49 82 73 83 74 84 82 85 75 86
REMARK SMILES IDX 77 87 83 88 76 89 78 90 79 91 80 92 81 93 58 94 59 95 67 96
REMARK SMILES IDX 60 97 62 98 68 99 61 100 63 101 64 102 65 103 66 104
REMARK H PARENT 10 16 4 24 88 57 56 68
REMARK Flexibility Score: inf
ROOT
ATOM      1  C   UNL A   1      32.565  36.343  30.951  1.00  0.00     0.188 C 
ENDROOT
BRANCH   1   2
ATOM      2  C   UNL A   1      32.954  35.917  29.517  1.00  0.00     0.188 C 
BRANCH   2   3
ATOM      3  O   UNL A   1      32.604  34.588  29.175  1.00  0.00    -0.376 OA
BRANCH   3   4
ATOM      4  C   UNL A   1      33.196  33.976  28.045  1.00  0.00     0.202 C 
BRANCH   4   5
ATOM      5  C   UNL A   1      33.952  32.653  28.227  1.00  0.00     0.261 C 
BRANCH   5   6
ATOM      6  O   UNL A   1      33.434  31.543  27.492  1.00  0.00    -0.460 OA
BRANCH   6   7
ATOM      7  C   UNL A   1      34.232  30.461  27.387  1.00  0.00     0.338 C 
ATOM      8  O   UNL A   1      35.204  30.196  28.073  1.00  0.00    -0.246 OA
BRANCH   7   9
ATOM      9  C   UNL A   1      33.594  29.517  26.444  1.00  0.00     0.060 A 
ATOM     10  C   UNL A   1      32.274  27.707  24.778  1.00  0.00     0.040 A 
ATOM     11  C   UNL A   1      31.597  28.828  25.262  1.00  0.00     0.027 A 
ATOM     12  C   UNL A   1      33.647  27.566  25.042  1.00  0.00     0.027 A 
ATOM     13  C   UNL A   1      32.248  29.720  26.112  1.00  0.00     0.018 A 
ATOM     14  C   UNL A   1      34.314  28.471  25.865  1.00  0.00     0.018 A 
BRANCH  10  15
ATOM     15  N   UNL A   1      31.525  26.624  24.277  1.00  0.00    -0.334 N 
ATOM     16  H   UNL A   1      30.884  26.793  23.549  1.00  0.00     0.168 HD
BRANCH  15  17
ATOM     17  C   UNL A   1      31.649  25.309  24.769  1.00  0.00     0.215 A 
ATOM     18  C   UNL A   1      32.719  23.209  24.950  1.00  0.00     0.225 A 
ATOM     19  N   UNL A   1      31.983  22.899  26.039  1.00  0.00    -0.212 NA
ATOM     20  C   UNL A   1      32.503  24.368  24.231  1.00  0.00     0.354 A 
ATOM     21  C   UNL A   1      31.118  23.819  26.457  1.00  0.00     0.227 A 
ATOM     22  N   UNL A   1      30.946  25.009  25.887  1.00  0.00    -0.212 NA
BRANCH  18  23
ATOM     23  N   UNL A   1      33.776  22.312  24.761  1.00  0.00    -0.298 N 
ATOM     24  H   UNL A   1      33.941  21.994  23.844  1.00  0.00     0.184 HD
BRANCH  23  25
ATOM     25  N   UNL A   1      34.633  21.817  25.791  1.00  0.00    -0.228 NA
ATOM     26  C   UNL A   1      35.676  20.897  25.296  1.00  0.00     0.130 C 
ATOM     27  C   UNL A   1      35.326  22.992  26.356  1.00  0.00     0.130 C 
ENDBRANCH  23  25
ENDBRANCH  18  23
BRANCH  20  28
ATOM     28  N   UNL A   1      33.011  24.511  22.896  1.00  0.00     0.070 N 
ATOM     29  O   UNL A   1      34.190  24.186  22.687  1.00  0.00    -0.258 OA
ATOM     30  O   UNL A   1      32.286  25.072  22.061  1.00  0.00    -0.258 OA
ENDBRANCH  20  28
ENDBRANCH  15  17
ENDBRANCH  10  15
ENDBRANCH   7   9
ENDBRANCH   6   7
ENDBRANCH   5   6
ENDBRANCH   4   5
ENDBRANCH   3   4
ENDBRANCH   2   3
ENDBRANCH   1   2
BRANCH   1  31
ATOM     31  O   UNL A   1      32.560  35.391  32.005  1.00  0.00    -0.377 OA
BRANCH  31  32
ATOM     32  C   UNL A   1      33.765  34.741  32.392  1.00  0.00     0.188 C 
BRANCH  32  33
ATOM     33  C   UNL A   1      33.728  33.416  33.185  1.00  0.00     0.188 C 
BRANCH  33  34
ATOM     34  O   UNL A   1      34.768  33.268  34.138  1.00  0.00    -0.376 OA
BRANCH  34  35
ATOM     35  C   UNL A   1      35.739  34.296  34.206  1.00  0.00     0.202 C 
BRANCH  35  36
ATOM     36  C   UNL A   1      37.216  33.878  34.239  1.00  0.00     0.261 C 
BRANCH  36  37
ATOM     37  O   UNL A   1      37.923  34.123  35.465  1.00  0.00    -0.460 OA
BRANCH  37  38
ATOM     38  C   UNL A   1      38.055  33.093  36.332  1.00  0.00     0.338 C 
ATOM     39  O   UNL A   1      37.320  32.811  37.253  1.00  0.00    -0.246 OA
BRANCH  38  40
ATOM     40  C   UNL A   1      39.159  32.245  35.829  1.00  0.00     0.060 A 
ATOM     41  C   UNL A   1      39.053  30.851  35.927  1.00  0.00     0.016 A 
ATOM     42  C   UNL A   1      40.274  32.829  35.223  1.00  0.00     0.016 A 
ATOM     43  C   UNL A   1      40.072  30.036  35.430  1.00  0.00     0.010 A 
ATOM     44  C   UNL A   1      41.301  32.013  34.747  1.00  0.00     0.010 A 
ATOM     45  C   UNL A   1      41.217  30.615  34.869  1.00  0.00    -0.014 A 
BRANCH  45  46
ATOM     46  C   UNL A   1      42.394  29.774  34.547  1.00  0.00     0.031 A 
ATOM     47  C   UNL A   1      43.554  29.761  35.502  1.00  0.00     0.074 A 
ATOM     48  C   UNL A   1      42.449  29.058  33.411  1.00  0.00     0.049 A 
ATOM     49  N   UNL A   1      44.707  29.158  35.398  1.00  0.00    -0.248 NA
ATOM     50  C   UNL A   1      43.388  30.544  36.737  1.00  0.00     0.031 C 
ATOM     51  C   UNL A   1      41.394  28.995  32.403  1.00  0.00     0.029 A 
ATOM     52  N   UNL A   1      43.458  28.281  32.897  1.00  0.00    -0.354 N 
ATOM     53  C   UNL A   1      45.421  29.515  36.535  1.00  0.00     0.074 A 
ATOM     54  C   UNL A   1      44.573  30.395  37.309  1.00  0.00     0.031 C 
ATOM     55  C   UNL A   1      41.829  28.258  31.367  1.00  0.00     0.029 A 
ATOM     56  C   UNL A   1      43.202  27.825  31.626  1.00  0.00     0.049 A 
ATOM     57  H   UNL A   1      44.284  28.071  33.391  1.00  0.00     0.167 HD
ATOM     58  C   UNL A   1      46.668  29.140  36.906  1.00  0.00     0.034 A 
ATOM     59  C   UNL A   1      43.998  27.172  30.755  1.00  0.00     0.034 A 
ATOM     60  C   UNL A   1      47.511  28.268  36.132  1.00  0.00     0.049 A 
ATOM     61  C   UNL A   1      45.394  26.788  31.170  1.00  0.00     0.074 A 
ATOM     62  C   UNL A   1      48.764  27.776  36.451  1.00  0.00     0.029 A 
ATOM     63  N   UNL A   1      47.202  27.786  34.869  1.00  0.00    -0.354 N 
ATOM     64  N   UNL A   1      46.009  27.016  32.305  1.00  0.00    -0.248 NA
ATOM     65  C   UNL A   1      46.195  26.032  30.196  1.00  0.00     0.031 C 
ATOM     66  C   UNL A   1      49.233  27.038  35.359  1.00  0.00     0.029 A 
ATOM     67  C   UNL A   1      48.253  27.028  34.379  1.00  0.00     0.049 A 
ATOM     68  H   UNL A   1      46.360  27.957  34.390  1.00  0.00     0.167 HD
ATOM     69  C   UNL A   1      47.259  26.414  32.192  1.00  0.00     0.074 A 
ATOM     70  C   UNL A   1      47.302  25.791  30.886  1.00  0.00     0.031 C 
ATOM     71  C   UNL A   1      48.280  26.388  33.086  1.00  0.00     0.034 A 
BRANCH  58  72
ATOM     72  C   UNL A   1      47.194  29.687  38.208  1.00  0.00     0.023 A 
ATOM     73  C   UNL A   1      47.934  30.888  38.224  1.00  0.00     0.012 A 
ATOM     74  C   UNL A   1      46.948  29.014  39.421  1.00  0.00     0.148 A 
ATOM     75  C   UNL A   1      48.465  31.380  39.416  1.00  0.00     0.002 A 
ATOM     76  C   UNL A   1      47.436  29.537  40.611  1.00  0.00     0.091 A 
ATOM     77  F   UNL A   1      46.264  27.860  39.386  1.00  0.00    -0.205 F 
ATOM     78  C   UNL A   1      48.208  30.710  40.609  1.00  0.00     0.022 A 
BRANCH  76  79
ATOM     79  S   UNL A   1      47.089  28.791  42.207  1.00  0.00     0.127 S 
ATOM     80  O   UNL A   1      47.408  27.388  41.952  1.00  0.00    -0.237 OA
ATOM     81  O   UNL A   1      48.037  29.481  43.082  1.00  0.00    -0.237 OA
ATOM     82  O   UNL A   1      45.689  29.077  42.487  1.00  0.00    -0.744 OA
ENDBRANCH  76  79
ENDBRANCH  58  72
BRANCH  59  83
ATOM     83  C   UNL A   1      43.480  26.849  29.397  1.00  0.00     0.023 A 
ATOM     84  C   UNL A   1      42.630  25.742  29.212  1.00  0.00     0.012 A 
ATOM     85  C   UNL A   1      43.782  27.677  28.297  1.00  0.00     0.148 A 
ATOM     86  C   UNL A   1      42.103  25.457  27.952  1.00  0.00     0.002 A 
ATOM     87  C   UNL A   1      43.208  27.421  27.058  1.00  0.00     0.091 A 
ATOM     88  F   UNL A   1      44.605  28.716  28.494  1.00  0.00    -0.205 F 
ATOM     89  C   UNL A   1      42.380  26.302  26.880  1.00  0.00     0.022 A 
BRANCH  87  90
ATOM     90  S   UNL A   1      43.396  28.528  25.657  1.00  0.00     0.127 S 
ATOM     91  O   UNL A   1      42.523  27.908  24.664  1.00  0.00    -0.237 OA
ATOM     92  O   UNL A   1      42.904  29.791  26.208  1.00  0.00    -0.237 OA
ATOM     93  O   UNL A   1      44.816  28.524  25.334  1.00  0.00    -0.744 OA
ENDBRANCH  87  90
ENDBRANCH  59  83
BRANCH  71  94
ATOM     94  C   UNL A   1      49.536  25.647  32.699  1.00  0.00     0.023 A 
ATOM     95  C   UNL A   1      50.582  26.328  32.045  1.00  0.00     0.012 A 
ATOM     96  C   UNL A   1      49.711  24.294  33.055  1.00  0.00     0.148 A 
ATOM     97  C   UNL A   1      51.767  25.665  31.721  1.00  0.00     0.002 A 
ATOM     98  C   UNL A   1      50.913  23.656  32.777  1.00  0.00     0.091 A 
ATOM     99  F   UNL A   1      48.700  23.659  33.665  1.00  0.00    -0.205 F 
ATOM    100  C   UNL A   1      51.938  24.335  32.098  1.00  0.00     0.022 A 
BRANCH  98 101
ATOM    101  S   UNL A   1      51.262  21.975  33.306  1.00  0.00     0.127 S 
ATOM    102  O   UNL A   1      52.075  22.201  34.500  1.00  0.00    -0.237 OA
ATOM    103  O   UNL A   1      49.922  21.450  33.570  1.00  0.00    -0.237 OA
ATOM    104  O   UNL A   1      51.955  21.337  32.194  1.00  0.00    -0.744 OA
ENDBRANCH  98 101
ENDBRANCH  71  94
ENDBRANCH  45  46
ENDBRANCH  38  40
ENDBRANCH  37  38
ENDBRANCH  36  37
ENDBRANCH  35  36
ENDBRANCH  34  35
ENDBRANCH  33  34
ENDBRANCH  32  33
ENDBRANCH  31  32
ENDBRANCH   1  31
TORSDOF 28
ENDMDL
MODEL 2
REMARK VINA RESULT:      -8.4      8.292     11.964
REMARK SMILES CN(C)Nc1ncnc(Nc2ccc(C(=O)OCCOCCOCCOCCOC(=O)c3ccc(-c4c5nc(c(-c6cccc(S(=O)(=O)[O-])c6F)c6ccc([nH]6)c(-c6cccc(S(=O)(=O)[O-])c6F)c6nc(c(-c7cccc(S(=O)(=O)[O-])c7F)c7ccc4[nH]7)C=C6)C=C5)cc3)cc2)c1[N+](=O)[O-]
REMARK SMILES IDX 22 1 21 2 20 3 19 4 18 5 17 6 15 7 16 8 14 9 11 10 12 11
REMARK SMILES IDX 96 12 13 13 95 14 10 15 9 17 5 18 6 19 97 20 7 21 8 22 4 23
REMARK SMILES IDX 2 25 1 26 3 27 98 28 99 29 100 30 23 31 24 32 25 33 26 34
REMARK SMILES IDX 27 35 28 36 29 37 30 38 31 39 32 40 33 41 94 42 34 43 93 44
REMARK SMILES IDX 35 45 36 46 37 47 87 48 38 49 92 50 86 51 88 52 39 53 91 54
REMARK SMILES IDX 85 55 84 56 40 58 72 59 52 60 71 61 53 62 56 63 70 64 89 65
REMARK SMILES IDX 54 66 55 67 69 69 90 70 57 71 41 72 42 73 50 74 43 75 45 76
REMARK SMILES IDX 51 77 44 78 46 79 47 80 48 81 49 82 73 83 74 84 82 85 75 86
REMARK SMILES IDX 77 87 83 88 76 89 78 90 79 91 80 92 81 93 58 94 59 95 67 96
REMARK SMILES IDX 60 97 62 98 68 99 61 100 63 101 64 102 65 103 66 104
REMARK H PARENT 10 16 4 24 88 57 56 68
REMARK Flexibility Score: inf
ROOT
ATOM      1  C   UNL A   1      33.649  35.217  31.651  1.00  0.00     0.188 C 
ENDROOT
BRANCH   1   2
ATOM      2  C   UNL A   1      33.503  34.996  30.128  1.00  0.00     0.188 C 
BRANCH   2   3
ATOM      3  O   UNL A   1      33.770  33.676  29.691  1.00  0.00    -0.376 OA
BRANCH   3   4
ATOM      4  C   UNL A   1      34.136  33.445  28.344  1.00  0.00     0.202 C 
BRANCH   4   5
ATOM      5  C   UNL A   1      34.872  32.146  27.985  1.00  0.00     0.261 C 
BRANCH   5   6
ATOM      6  O   UNL A   1      34.058  31.109  27.437  1.00  0.00    -0.460 OA
BRANCH   6   7
ATOM      7  C   UNL A   1      34.531  29.850  27.540  1.00  0.00     0.338 C 
ATOM      8  O   UNL A   1      35.498  29.479  28.183  1.00  0.00    -0.246 OA
BRANCH   7   9
ATOM      9  C   UNL A   1      33.539  28.942  26.926  1.00  0.00     0.060 A 
ATOM     10  C   UNL A   1      31.668  27.137  25.905  1.00  0.00     0.040 A 
ATOM     11  C   UNL A   1      31.399  27.821  27.093  1.00  0.00     0.027 A 
ATOM     12  C   UNL A   1      32.828  27.453  25.178  1.00  0.00     0.027 A 
ATOM     13  C   UNL A   1      32.342  28.705  27.615  1.00  0.00     0.018 A 
ATOM     14  C   UNL A   1      33.761  28.361  25.676  1.00  0.00     0.018 A 
BRANCH  10  15
ATOM     15  N   UNL A   1      30.928  25.976  25.606  1.00  0.00    -0.334 N 
ATOM     16  H   UNL A   1      30.027  26.079  25.224  1.00  0.00     0.168 HD
BRANCH  15  17
ATOM     17  C   UNL A   1      31.418  24.673  25.830  1.00  0.00     0.215 A 
ATOM     18  C   UNL A   1      32.690  22.764  25.262  1.00  0.00     0.225 A 
ATOM     19  N   UNL A   1      32.575  22.282  26.518  1.00  0.00    -0.212 NA
ATOM     20  C   UNL A   1      32.034  23.911  24.859  1.00  0.00     0.354 A 
ATOM     21  C   UNL A   1      31.896  23.029  27.385  1.00  0.00     0.227 A 
ATOM     22  N   UNL A   1      31.343  24.205  27.098  1.00  0.00    -0.212 NA
BRANCH  18  23
ATOM     23  N   UNL A   1      33.641  22.058  24.517  1.00  0.00    -0.298 N 
ATOM     24  H   UNL A   1      33.366  21.726  23.632  1.00  0.00     0.184 HD
BRANCH  23  25
ATOM     25  N   UNL A   1      34.977  21.778  24.936  1.00  0.00    -0.228 NA
ATOM     26  C   UNL A   1      35.298  20.337  24.949  1.00  0.00     0.130 C 
ATOM     27  C   UNL A   1      35.867  22.411  23.944  1.00  0.00     0.130 C 
ENDBRANCH  23  25
ENDBRANCH  18  23
BRANCH  20  28
ATOM     28  N   UNL A   1      31.855  24.205  23.466  1.00  0.00     0.070 N 
ATOM     29  O   UNL A   1      30.748  23.967  22.960  1.00  0.00    -0.258 OA
ATOM     30  O   UNL A   1      32.854  24.557  22.819  1.00  0.00    -0.258 OA
ENDBRANCH  20  28
ENDBRANCH  15  17
ENDBRANCH  10  15
ENDBRANCH   7   9
ENDBRANCH   6   7
ENDBRANCH   5   6
ENDBRANCH   4   5
ENDBRANCH   3   4
ENDBRANCH   2   3
ENDBRANCH   1   2
BRANCH   1  31
ATOM     31  O   UNL A   1      34.926  35.462  32.221  1.00  0.00    -0.377 OA
BRANCH  31  32
ATOM     32  C   UNL A   1      35.736  34.378  32.661  1.00  0.00     0.188 C 
BRANCH  32  33
ATOM     33  C   UNL A   1      37.254  34.565  32.884  1.00  0.00     0.188 C 
BRANCH  33  34
ATOM     34  O   UNL A   1      37.890  33.491  33.558  1.00  0.00    -0.376 OA
BRANCH  34  35
ATOM     35  C   UNL A   1      37.096  32.713  34.435  1.00  0.00     0.202 C 
BRANCH  35  36
ATOM     36  C   UNL A   1      37.737  32.249  35.751  1.00  0.00     0.261 C 
BRANCH  36  37
ATOM     37  O   UNL A   1      38.710  33.130  36.334  1.00  0.00    -0.460 OA
BRANCH  37  38
ATOM     38  C   UNL A   1      39.980  32.677  36.450  1.00  0.00     0.338 C 
ATOM     39  O   UNL A   1      40.335  31.569  36.788  1.00  0.00    -0.246 OA
BRANCH  38  40
ATOM     40  C   UNL A   1      40.864  33.725  35.891  1.00  0.00     0.060 A 
ATOM     41  C   UNL A   1      40.322  34.978  35.572  1.00  0.00     0.016 A 
ATOM     42  C   UNL A   1      42.228  33.480  35.727  1.00  0.00     0.016 A 
ATOM     43  C   UNL A   1      41.147  35.987  35.072  1.00  0.00     0.010 A 
ATOM     44  C   UNL A   1      43.047  34.484  35.206  1.00  0.00     0.010 A 
ATOM     45  C   UNL A   1      42.507  35.733  34.854  1.00  0.00    -0.014 A 
BRANCH  45  46
ATOM     46  C   UNL A   1      43.339  36.716  34.118  1.00  0.00     0.031 A 
ATOM     47  C   UNL A   1      43.477  36.572  32.630  1.00  0.00     0.074 A 
ATOM     48  C   UNL A   1      43.989  37.699  34.764  1.00  0.00     0.049 A 
ATOM     49  N   UNL A   1      44.198  37.267  31.792  1.00  0.00    -0.248 NA
ATOM     50  C   UNL A   1      42.698  35.489  32.006  1.00  0.00     0.031 C 
ATOM     51  C   UNL A   1      43.942  37.938  36.204  1.00  0.00     0.029 A 
ATOM     52  N   UNL A   1      44.852  38.656  34.288  1.00  0.00    -0.354 N 
ATOM     53  C   UNL A   1      43.992  36.686  30.547  1.00  0.00     0.074 A 
ATOM     54  C   UNL A   1      43.085  35.576  30.742  1.00  0.00     0.031 C 
ATOM     55  C   UNL A   1      44.778  38.946  36.502  1.00  0.00     0.029 A 
ATOM     56  C   UNL A   1      45.441  39.400  35.281  1.00  0.00     0.049 A 
ATOM     57  H   UNL A   1      45.030  38.795  33.329  1.00  0.00     0.167 HD
ATOM     58  C   UNL A   1      44.506  37.047  29.347  1.00  0.00     0.034 A 
ATOM     59  C   UNL A   1      46.433  40.312  35.217  1.00  0.00     0.034 A 
ATOM     60  C   UNL A   1      45.410  38.149  29.157  1.00  0.00     0.049 A 
ATOM     61  C   UNL A   1      47.016  40.682  33.879  1.00  0.00     0.074 A 
ATOM     62  C   UNL A   1      45.936  38.637  27.974  1.00  0.00     0.029 A 
ATOM     63  N   UNL A   1      45.953  38.913  30.180  1.00  0.00    -0.354 N 
ATOM     64  N   UNL A   1      46.713  40.220  32.690  1.00  0.00    -0.248 NA
ATOM     65  C   UNL A   1      48.057  41.720  33.870  1.00  0.00     0.031 C 
ATOM     66  C   UNL A   1      46.835  39.663  28.286  1.00  0.00     0.029 A 
ATOM     67  C   UNL A   1      46.833  39.848  29.660  1.00  0.00     0.049 A 
ATOM     68  H   UNL A   1      45.743  38.807  31.136  1.00  0.00     0.167 HD
ATOM     69  C   UNL A   1      47.507  40.923  31.790  1.00  0.00     0.074 A 
ATOM     70  C   UNL A   1      48.288  41.861  32.570  1.00  0.00     0.031 C 
ATOM     71  C   UNL A   1      47.588  40.797  30.441  1.00  0.00     0.034 A 
BRANCH  58  72
ATOM     72  C   UNL A   1      44.101  36.228  28.149  1.00  0.00     0.023 A 
ATOM     73  C   UNL A   1      43.036  36.654  27.327  1.00  0.00     0.012 A 
ATOM     74  C   UNL A   1      44.782  35.037  27.830  1.00  0.00     0.148 A 
ATOM     75  C   UNL A   1      42.621  35.882  26.243  1.00  0.00     0.002 A 
ATOM     76  C   UNL A   1      44.397  34.300  26.718  1.00  0.00     0.091 A 
ATOM     77  F   UNL A   1      45.777  34.633  28.634  1.00  0.00    -0.205 F 
ATOM     78  C   UNL A   1      43.307  34.711  25.933  1.00  0.00     0.022 A 
BRANCH  76  79
ATOM     79  S   UNL A   1      45.271  32.821  26.191  1.00  0.00     0.127 S 
ATOM     80  O   UNL A   1      44.913  31.876  27.246  1.00  0.00    -0.237 OA
ATOM     81  O   UNL A   1      44.654  32.547  24.892  1.00  0.00    -0.237 OA
ATOM     82  O   UNL A   1      46.678  33.190  26.127  1.00  0.00    -0.744 OA
ENDBRANCH  76  79
ENDBRANCH  58  72
BRANCH  59  83
ATOM     83  C   UNL A   1      46.934  40.931  36.476  1.00  0.00     0.023 A 
ATOM     84  C   UNL A   1      47.972  40.314  37.199  1.00  0.00     0.012 A 
ATOM     85  C   UNL A   1      46.420  42.165  36.925  1.00  0.00     0.148 A 
ATOM     86  C   UNL A   1      48.479  40.908  38.355  1.00  0.00     0.002 A 
ATOM     87  C   UNL A   1      46.970  42.779  38.042  1.00  0.00     0.091 A 
ATOM     88  F   UNL A   1      45.423  42.726  36.228  1.00  0.00    -0.205 F 
ATOM     89  C   UNL A   1      47.989  42.145  38.769  1.00  0.00     0.022 A 
BRANCH  87  90
ATOM     90  S   UNL A   1      46.498  44.430  38.569  1.00  0.00     0.127 S 
ATOM     91  O   UNL A   1      46.494  45.160  37.304  1.00  0.00    -0.237 OA
ATOM     92  O   UNL A   1      45.176  44.190  39.146  1.00  0.00    -0.237 OA
ATOM     93  O   UNL A   1      47.510  44.847  39.529  1.00  0.00    -0.744 OA
ENDBRANCH  87  90
ENDBRANCH  59  83
BRANCH  71  94
ATOM     94  C   UNL A   1      48.543  41.705  29.705  1.00  0.00     0.023 A 
ATOM     95  C   UNL A   1      48.083  42.926  29.171  1.00  0.00     0.012 A 
ATOM     96  C   UNL A   1      49.913  41.384  29.612  1.00  0.00     0.148 A 
ATOM     97  C   UNL A   1      48.964  43.795  28.528  1.00  0.00     0.002 A 
ATOM     98  C   UNL A   1      50.793  42.280  29.016  1.00  0.00     0.091 A 
ATOM     99  F   UNL A   1      50.329  40.213  30.113  1.00  0.00    -0.205 F 
ATOM    100  C   UNL A   1      50.319  43.479  28.461  1.00  0.00     0.022 A 
BRANCH  98 101
ATOM    101  S   UNL A   1      52.568  42.004  28.967  1.00  0.00     0.127 S 
ATOM    102  O   UNL A   1      53.026  43.152  28.187  1.00  0.00    -0.237 OA
ATOM    103  O   UNL A   1      52.926  42.048  30.385  1.00  0.00    -0.237 OA
ATOM    104  O   UNL A   1      52.758  40.706  28.332  1.00  0.00    -0.744 OA
ENDBRANCH  98 101
ENDBRANCH  71  94
ENDBRANCH  45  46
ENDBRANCH  38  40
ENDBRANCH  37  38
ENDBRANCH  36  37
ENDBRANCH  35  36
ENDBRANCH  34  35
ENDBRANCH  33  34
ENDBRANCH  32  33
ENDBRANCH  31  32
ENDBRANCH   1  31
TORSDOF 28
ENDMDL
MODEL 3
REMARK VINA RESULT:      -7.9      5.709      8.702
REMARK SMILES CN(C)Nc1ncnc(Nc2ccc(C(=O)OCCOCCOCCOCCOC(=O)c3ccc(-c4c5nc(c(-c6cccc(S(=O)(=O)[O-])c6F)c6ccc([nH]6)c(-c6cccc(S(=O)(=O)[O-])c6F)c6nc(c(-c7cccc(S(=O)(=O)[O-])c7F)c7ccc4[nH]7)C=C6)C=C5)cc3)cc2)c1[N+](=O)[O-]
REMARK SMILES IDX 22 1 21 2 20 3 19 4 18 5 17 6 15 7 16 8 14 9 11 10 12 11
REMARK SMILES IDX 96 12 13 13 95 14 10 15 9 17 5 18 6 19 97 20 7 21 8 22 4 23
REMARK SMILES IDX 2 25 1 26 3 27 98 28 99 29 100 30 23 31 24 32 25 33 26 34
REMARK SMILES IDX 27 35 28 36 29 37 30 38 31 39 32 40 33 41 94 42 34 43 93 44
REMARK SMILES IDX 35 45 36 46 37 47 87 48 38 49 92 50 86 51 88 52 39 53 91 54
REMARK SMILES IDX 85 55 84 56 40 58 72 59 52 60 71 61 53 62 56 63 70 64 89 65
REMARK SMILES IDX 54 66 55 67 69 69 90 70 57 71 41 72 42 73 50 74 43 75 45 76
REMARK SMILES IDX 51 77 44 78 46 79 47 80 48 81 49 82 73 83 74 84 82 85 75 86
REMARK SMILES IDX 77 87 83 88 76 89 78 90 79 91 80 92 81 93 58 94 59 95 67 96
REMARK SMILES IDX 60 97 62 98 68 99 61 100 63 101 64 102 65 103 66 104
REMARK H PARENT 10 16 4 24 88 57 56 68
REMARK Flexibility Score: inf
ROOT
ATOM      1  C   UNL A   1      38.805  27.872  32.077  1.00  0.00     0.188 C 
ENDROOT
BRANCH   1   2
ATOM      2  C   UNL A   1      38.544  27.784  30.556  1.00  0.00     0.188 C 
BRANCH   2   3
ATOM      3  O   UNL A   1      37.602  28.717  30.059  1.00  0.00    -0.376 OA
BRANCH   3   4
ATOM      4  C   UNL A   1      38.052  29.881  29.394  1.00  0.00     0.202 C 
BRANCH   4   5
ATOM      5  C   UNL A   1      37.032  30.965  29.019  1.00  0.00     0.261 C 
BRANCH   5   6
ATOM      6  O   UNL A   1      35.687  30.513  28.855  1.00  0.00    -0.460 OA
BRANCH   6   7
ATOM      7  C   UNL A   1      34.946  31.145  27.923  1.00  0.00     0.338 C 
ATOM      8  O   UNL A   1      35.058  32.302  27.556  1.00  0.00    -0.246 OA
BRANCH   7   9
ATOM      9  C   UNL A   1      34.116  30.130  27.239  1.00  0.00     0.060 A 
ATOM     10  C   UNL A   1      32.436  28.234  26.065  1.00  0.00     0.040 A 
ATOM     11  C   UNL A   1      31.978  29.537  26.269  1.00  0.00     0.027 A 
ATOM     12  C   UNL A   1      33.777  27.924  26.348  1.00  0.00     0.027 A 
ATOM     13  C   UNL A   1      32.808  30.478  26.876  1.00  0.00     0.018 A 
ATOM     14  C   UNL A   1      34.624  28.868  26.924  1.00  0.00     0.018 A 
BRANCH  10  15
ATOM     15  N   UNL A   1      31.493  27.209  25.845  1.00  0.00    -0.334 N 
ATOM     16  H   UNL A   1      30.684  27.188  26.404  1.00  0.00     0.168 HD
BRANCH  15  17
ATOM     17  C   UNL A   1      31.657  26.213  24.861  1.00  0.00     0.215 A 
ATOM     18  C   UNL A   1      31.746  23.973  24.111  1.00  0.00     0.225 A 
ATOM     19  N   UNL A   1      31.655  24.374  22.824  1.00  0.00    -0.212 NA
ATOM     20  C   UNL A   1      31.852  24.878  25.149  1.00  0.00     0.354 A 
ATOM     21  C   UNL A   1      31.552  25.682  22.612  1.00  0.00     0.227 A 
ATOM     22  N   UNL A   1      31.522  26.604  23.571  1.00  0.00    -0.212 NA
BRANCH  18  23
ATOM     23  N   UNL A   1      31.569  22.591  24.242  1.00  0.00    -0.298 N 
ATOM     24  H   UNL A   1      30.667  22.233  24.078  1.00  0.00     0.184 HD
BRANCH  23  25
ATOM     25  N   UNL A   1      32.591  21.659  24.597  1.00  0.00    -0.228 NA
ATOM     26  C   UNL A   1      32.339  20.294  24.096  1.00  0.00     0.130 C 
ATOM     27  C   UNL A   1      33.832  22.135  23.953  1.00  0.00     0.130 C 
ENDBRANCH  23  25
ENDBRANCH  18  23
BRANCH  20  28
ATOM     28  N   UNL A   1      32.318  24.463  26.442  1.00  0.00     0.070 N 
ATOM     29  O   UNL A   1      33.539  24.303  26.595  1.00  0.00    -0.258 OA
ATOM     30  O   UNL A   1      31.465  24.163  27.291  1.00  0.00    -0.258 OA
ENDBRANCH  20  28
ENDBRANCH  15  17
ENDBRANCH  10  15
ENDBRANCH   7   9
ENDBRANCH   6   7
ENDBRANCH   5   6
ENDBRANCH   4   5
ENDBRANCH   3   4
ENDBRANCH   2   3
ENDBRANCH   1   2
BRANCH   1  31
ATOM     31  O   UNL A   1      37.777  28.302  32.957  1.00  0.00    -0.377 OA
BRANCH  31  32
ATOM     32  C   UNL A   1      37.494  29.688  33.109  1.00  0.00     0.188 C 
BRANCH  32  33
ATOM     33  C   UNL A   1      38.637  30.710  33.305  1.00  0.00     0.188 C 
BRANCH  33  34
ATOM     34  O   UNL A   1      39.022  30.915  34.655  1.00  0.00    -0.376 OA
BRANCH  34  35
ATOM     35  C   UNL A   1      38.881  32.223  35.180  1.00  0.00     0.202 C 
BRANCH  35  36
ATOM     36  C   UNL A   1      39.807  33.314  34.627  1.00  0.00     0.261 C 
BRANCH  36  37
ATOM     37  O   UNL A   1      40.702  32.922  33.575  1.00  0.00    -0.460 OA
BRANCH  37  38
ATOM     38  C   UNL A   1      40.693  33.653  32.435  1.00  0.00     0.338 C 
ATOM     39  O   UNL A   1      39.995  34.610  32.184  1.00  0.00    -0.246 OA
BRANCH  38  40
ATOM     40  C   UNL A   1      41.840  33.191  31.620  1.00  0.00     0.060 A 
ATOM     41  C   UNL A   1      41.882  33.509  30.255  1.00  0.00     0.016 A 
ATOM     42  C   UNL A   1      42.887  32.486  32.215  1.00  0.00     0.016 A 
ATOM     43  C   UNL A   1      42.970  33.108  29.479  1.00  0.00     0.010 A 
ATOM     44  C   UNL A   1      43.963  32.066  31.432  1.00  0.00     0.010 A 
ATOM     45  C   UNL A   1      43.999  32.354  30.056  1.00  0.00    -0.014 A 
BRANCH  45  46
ATOM     46  C   UNL A   1      45.038  31.735  29.200  1.00  0.00     0.031 A 
ATOM     47  C   UNL A   1      44.727  30.434  28.516  1.00  0.00     0.074 A 
ATOM     48  C   UNL A   1      46.250  32.298  29.057  1.00  0.00     0.049 A 
ATOM     49  N   UNL A   1      45.497  29.679  27.778  1.00  0.00    -0.248 NA
ATOM     50  C   UNL A   1      43.363  29.912  28.700  1.00  0.00     0.031 C 
ATOM     51  C   UNL A   1      46.675  33.552  29.674  1.00  0.00     0.029 A 
ATOM     52  N   UNL A   1      47.360  31.860  28.377  1.00  0.00    -0.354 N 
ATOM     53  C   UNL A   1      44.725  28.576  27.437  1.00  0.00     0.074 A 
ATOM     54  C   UNL A   1      43.431  28.755  28.058  1.00  0.00     0.031 C 
ATOM     55  C   UNL A   1      47.970  33.760  29.383  1.00  0.00     0.029 A 
ATOM     56  C   UNL A   1      48.471  32.640  28.588  1.00  0.00     0.049 A 
ATOM     57  H   UNL A   1      47.359  31.065  27.795  1.00  0.00     0.167 HD
ATOM     58  C   UNL A   1      45.060  27.510  26.671  1.00  0.00     0.034 A 
ATOM     59  C   UNL A   1      49.754  32.451  28.219  1.00  0.00     0.034 A 
ATOM     60  C   UNL A   1      46.349  27.333  26.058  1.00  0.00     0.049 A 
ATOM     61  C   UNL A   1      50.119  31.245  27.393  1.00  0.00     0.074 A 
ATOM     62  C   UNL A   1      46.768  26.322  25.212  1.00  0.00     0.029 A 
ATOM     63  N   UNL A   1      47.441  28.167  26.255  1.00  0.00    -0.354 N 
ATOM     64  N   UNL A   1      49.347  30.277  26.961  1.00  0.00    -0.248 NA
ATOM     65  C   UNL A   1      51.523  31.121  26.978  1.00  0.00     0.031 C 
ATOM     66  C   UNL A   1      48.126  26.518  24.937  1.00  0.00     0.029 A 
ATOM     67  C   UNL A   1      48.542  27.677  25.573  1.00  0.00     0.049 A 
ATOM     68  H   UNL A   1      47.434  28.986  26.800  1.00  0.00     0.167 HD
ATOM     69  C   UNL A   1      50.165  29.441  26.207  1.00  0.00     0.074 A 
ATOM     70  C   UNL A   1      51.487  30.032  26.221  1.00  0.00     0.031 C 
ATOM     71  C   UNL A   1      49.850  28.285  25.569  1.00  0.00     0.034 A 
BRANCH  58  72
ATOM     72  C   UNL A   1      44.009  26.451  26.466  1.00  0.00     0.023 A 
ATOM     73  C   UNL A   1      43.041  26.602  25.450  1.00  0.00     0.012 A 
ATOM     74  C   UNL A   1      43.984  25.298  27.274  1.00  0.00     0.148 A 
ATOM     75  C   UNL A   1      42.035  25.652  25.280  1.00  0.00     0.002 A 
ATOM     76  C   UNL A   1      43.009  24.330  27.064  1.00  0.00     0.091 A 
ATOM     77  F   UNL A   1      44.896  25.180  28.250  1.00  0.00    -0.205 F 
ATOM     78  C   UNL A   1      42.025  24.513  26.080  1.00  0.00     0.022 A 
BRANCH  76  79
ATOM     79  S   UNL A   1      42.964  22.791  27.989  1.00  0.00     0.127 S 
ATOM     80  O   UNL A   1      44.388  22.518  28.175  1.00  0.00    -0.237 OA
ATOM     81  O   UNL A   1      42.255  23.186  29.207  1.00  0.00    -0.237 OA
ATOM     82  O   UNL A   1      42.245  21.842  27.151  1.00  0.00    -0.744 OA
ENDBRANCH  76  79
ENDBRANCH  58  72
BRANCH  59  83
ATOM     83  C   UNL A   1      50.787  33.437  28.642  1.00  0.00     0.023 A 
ATOM     84  C   UNL A   1      51.467  33.264  29.862  1.00  0.00     0.012 A 
ATOM     85  C   UNL A   1      51.136  34.516  27.805  1.00  0.00     0.148 A 
ATOM     86  C   UNL A   1      52.467  34.158  30.248  1.00  0.00     0.002 A 
ATOM     87  C   UNL A   1      52.173  35.367  28.167  1.00  0.00     0.091 A 
ATOM     88  F   UNL A   1      50.465  34.668  26.655  1.00  0.00    -0.205 F 
ATOM     89  C   UNL A   1      52.829  35.200  29.396  1.00  0.00     0.022 A 
BRANCH  87  90
ATOM     90  S   UNL A   1      52.798  36.649  27.076  1.00  0.00     0.127 S 
ATOM     91  O   UNL A   1      52.780  37.821  27.947  1.00  0.00    -0.237 OA
ATOM     92  O   UNL A   1      54.131  36.140  26.755  1.00  0.00    -0.237 OA
ATOM     93  O   UNL A   1      51.880  36.694  25.946  1.00  0.00    -0.744 OA
ENDBRANCH  87  90
ENDBRANCH  59  83
BRANCH  71  94
ATOM     94  C   UNL A   1      50.947  27.579  24.811  1.00  0.00     0.023 A 
ATOM     95  C   UNL A   1      51.217  27.930  23.473  1.00  0.00     0.012 A 
ATOM     96  C   UNL A   1      51.762  26.622  25.450  1.00  0.00     0.148 A 
ATOM     97  C   UNL A   1      52.258  27.316  22.774  1.00  0.00     0.002 A 
ATOM     98  C   UNL A   1      52.828  26.053  24.764  1.00  0.00     0.091 A 
ATOM     99  F   UNL A   1      51.482  26.290  26.718  1.00  0.00    -0.205 F 
ATOM    100  C   UNL A   1      53.070  26.389  23.422  1.00  0.00     0.022 A 
BRANCH  98 101
ATOM    101  S   UNL A   1      53.987  24.921  25.542  1.00  0.00     0.127 S 
ATOM    102  O   UNL A   1      53.373  23.626  25.258  1.00  0.00    -0.237 OA
ATOM    103  O   UNL A   1      55.221  25.187  24.803  1.00  0.00    -0.237 OA
ATOM    104  O   UNL A   1      54.031  25.293  26.950  1.00  0.00    -0.744 OA
ENDBRANCH  98 101
ENDBRANCH  71  94
ENDBRANCH  45  46
ENDBRANCH  38  40
ENDBRANCH  37  38
ENDBRANCH  36  37
ENDBRANCH  35  36
ENDBRANCH  34  35
ENDBRANCH  33  34
ENDBRANCH  32  33
ENDBRANCH  31  32
ENDBRANCH   1  31
TORSDOF 28
ENDMDL
