MODEL 1
REMARK VINA RESULT:     -10.0      0.000      0.000
REMARK SMILES CCn1ncc(NC(=O)[C@@H]2CCCC[C@@H]2C(=O)OCCOCCOCCOCCOC(=O)c2ccc(-c3c4nc(c(-c5cccc(S(=O)(=O)[O-])c5F)c5ccc([nH]5)c(-c5cccc(S(=O)(=O)[O-])c5F)c5nc(c(-c6cccc(S(=O)(=O)[O-])c6F)c6ccc3[nH]6)C=C5)C=C4)cc2)c1C(=O)Nc1cnn(C)c1C
REMARK SMILES IDX 23 1 22 2 21 3 20 4 19 5 18 6 16 7 17 8 15 9 10 10 11 11
REMARK SMILES IDX 12 12 14 13 13 14 8 15 7 16 9 18 6 19 3 20 4 21 96 22 5 23
REMARK SMILES IDX 2 24 1 25 97 26 98 27 99 28 100 30 101 31 105 32 102 33
REMARK SMILES IDX 103 34 106 35 104 36 24 37 25 38 26 39 27 40 28 41 29 42
REMARK SMILES IDX 30 43 31 44 32 45 33 46 34 47 95 48 35 49 94 50 36 51 37 52
REMARK SMILES IDX 38 53 88 54 39 55 93 56 87 57 89 58 40 59 92 60 86 61 85 62
REMARK SMILES IDX 41 64 73 65 53 66 72 67 54 68 57 69 71 70 90 71 55 72 56 73
REMARK SMILES IDX 70 75 91 76 58 77 42 78 43 79 51 80 44 81 46 82 52 83 45 84
REMARK SMILES IDX 47 85 48 86 49 87 50 88 74 89 75 90 83 91 76 92 78 93 84 94
REMARK SMILES IDX 77 95 79 96 80 97 81 98 82 99 59 100 60 101 68 102 61 103
REMARK SMILES IDX 63 104 69 105 62 106 64 107 65 108 66 109 67 110
REMARK H PARENT 7 17 99 29 89 63 57 74
REMARK Flexibility Score: inf
ROOT
ATOM      1  C   UNL A   1      33.259  30.653  26.830  1.00  0.00     0.188 C 
ENDROOT
BRANCH   1   2
ATOM      2  C   UNL A   1      32.710  29.399  27.526  1.00  0.00     0.188 C 
BRANCH   2   3
ATOM      3  O   UNL A   1      33.347  28.138  27.332  1.00  0.00    -0.376 OA
BRANCH   3   4
ATOM      4  C   UNL A   1      33.858  27.829  26.051  1.00  0.00     0.202 C 
BRANCH   4   5
ATOM      5  C   UNL A   1      33.983  26.317  25.841  1.00  0.00     0.261 C 
BRANCH   5   6
ATOM      6  O   UNL A   1      33.134  25.521  26.689  1.00  0.00    -0.463 OA
BRANCH   6   7
ATOM      7  C   UNL A   1      32.942  24.215  26.335  1.00  0.00     0.309 C 
ATOM      8  O   UNL A   1      31.888  23.612  26.466  1.00  0.00    -0.252 OA
BRANCH   7   9
ATOM      9  C   UNL A   1      34.269  23.593  25.883  1.00  0.00     0.111 C 
ATOM     10  C   UNL A   1      34.338  22.867  24.526  1.00  0.00     0.093 C 
ATOM     11  C   UNL A   1      33.281  21.742  24.488  1.00  0.00     0.014 C 
ATOM     12  C   UNL A   1      33.524  20.724  25.601  1.00  0.00     0.001 C 
ATOM     13  C   UNL A   1      34.660  22.575  26.975  1.00  0.00     0.016 C 
ATOM     14  C   UNL A   1      33.754  21.337  26.982  1.00  0.00     0.001 C 
BRANCH  10  15
ATOM     15  C   UNL A   1      34.377  23.617  23.191  1.00  0.00     0.228 C 
ATOM     16  N   UNL A   1      33.577  24.631  22.772  1.00  0.00    -0.322 N 
ATOM     17  H   UNL A   1      34.020  25.179  22.084  1.00  0.00     0.170 HD
ATOM     18  O   UNL A   1      35.260  23.326  22.366  1.00  0.00    -0.274 OA
BRANCH  16  19
ATOM     19  C   UNL A   1      32.306  25.100  23.053  1.00  0.00     0.092 A 
ATOM     20  N   UNL A   1      30.587  26.032  23.962  1.00  0.00    -0.258 N 
ATOM     21  N   UNL A   1      30.098  24.839  23.544  1.00  0.00    -0.178 NA
ATOM     22  C   UNL A   1      31.729  26.357  23.250  1.00  0.00     0.150 A 
ATOM     23  C   UNL A   1      31.184  24.233  23.074  1.00  0.00     0.162 A 
BRANCH  20  24
ATOM     24  C   UNL A   1      30.171  26.389  25.312  1.00  0.00     0.142 C 
ATOM     25  C   UNL A   1      29.345  25.396  26.105  1.00  0.00     0.029 C 
ENDBRANCH  20  24
BRANCH  22  26
ATOM     26  C   UNL A   1      32.154  27.561  22.579  1.00  0.00     0.276 C 
ATOM     27  O   UNL A   1      33.318  27.637  22.158  1.00  0.00    -0.267 OA
ATOM     28  N   UNL A   1      31.491  28.721  22.318  1.00  0.00    -0.318 N 
ATOM     29  H   UNL A   1      32.134  29.388  21.985  1.00  0.00     0.170 HD
BRANCH  28  30
ATOM     30  C   UNL A   1      30.245  29.287  22.356  1.00  0.00     0.082 A 
ATOM     31  C   UNL A   1      29.147  29.356  21.491  1.00  0.00     0.161 A 
ATOM     32  C   UNL A   1      29.875  30.089  23.430  1.00  0.00     0.059 A 
ATOM     33  N   UNL A   1      28.124  30.049  21.999  1.00  0.00    -0.179 NA
ATOM     34  N   UNL A   1      28.621  30.558  23.137  1.00  0.00    -0.271 N 
ATOM     35  C   UNL A   1      30.629  30.489  24.650  1.00  0.00     0.068 C 
ATOM     36  C   UNL A   1      27.847  31.555  23.840  1.00  0.00     0.174 C 
ENDBRANCH  28  30
ENDBRANCH  22  26
ENDBRANCH  16  19
ENDBRANCH  10  15
ENDBRANCH   7   9
ENDBRANCH   6   7
ENDBRANCH   5   6
ENDBRANCH   4   5
ENDBRANCH   3   4
ENDBRANCH   2   3
ENDBRANCH   1   2
BRANCH   1  37
ATOM     37  O   UNL A   1      34.633  30.907  27.066  1.00  0.00    -0.377 OA
BRANCH  37  38
ATOM     38  C   UNL A   1      34.864  31.718  28.212  1.00  0.00     0.188 C 
BRANCH  38  39
ATOM     39  C   UNL A   1      33.929  32.933  28.291  1.00  0.00     0.188 C 
BRANCH  39  40
ATOM     40  O   UNL A   1      33.804  33.724  29.478  1.00  0.00    -0.376 OA
BRANCH  40  41
ATOM     41  C   UNL A   1      34.892  34.154  30.283  1.00  0.00     0.202 C 
BRANCH  41  42
ATOM     42  C   UNL A   1      35.106  33.491  31.632  1.00  0.00     0.261 C 
BRANCH  42  43
ATOM     43  O   UNL A   1      35.383  32.115  31.453  1.00  0.00    -0.460 OA
BRANCH  43  44
ATOM     44  C   UNL A   1      36.572  31.733  31.964  1.00  0.00     0.338 C 
ATOM     45  O   UNL A   1      36.922  31.777  33.128  1.00  0.00    -0.246 OA
BRANCH  44  46
ATOM     46  C   UNL A   1      37.446  31.322  30.860  1.00  0.00     0.060 A 
ATOM     47  C   UNL A   1      37.283  30.002  30.451  1.00  0.00     0.016 A 
ATOM     48  C   UNL A   1      38.591  32.075  30.559  1.00  0.00     0.016 A 
ATOM     49  C   UNL A   1      38.410  29.328  30.062  1.00  0.00     0.010 A 
ATOM     50  C   UNL A   1      39.717  31.400  30.162  1.00  0.00     0.010 A 
ATOM     51  C   UNL A   1      39.627  30.017  30.058  1.00  0.00    -0.014 A 
BRANCH  51  52
ATOM     52  C   UNL A   1      40.816  29.206  30.040  1.00  0.00     0.031 A 
ATOM     53  C   UNL A   1      41.358  28.901  31.368  1.00  0.00     0.074 A 
ATOM     54  C   UNL A   1      41.365  28.760  28.897  1.00  0.00     0.049 A 
ATOM     55  N   UNL A   1      42.461  29.327  31.882  1.00  0.00    -0.248 NA
ATOM     56  C   UNL A   1      40.497  28.136  32.276  1.00  0.00     0.031 C 
ATOM     57  C   UNL A   1      40.766  28.729  27.560  1.00  0.00     0.029 A 
ATOM     58  N   UNL A   1      42.542  28.099  28.734  1.00  0.00    -0.354 N 
ATOM     59  C   UNL A   1      42.543  28.687  33.109  1.00  0.00     0.074 A 
ATOM     60  C   UNL A   1      41.246  28.119  33.377  1.00  0.00     0.031 C 
ATOM     61  C   UNL A   1      41.463  27.859  26.794  1.00  0.00     0.029 A 
ATOM     62  C   UNL A   1      42.613  27.389  27.547  1.00  0.00     0.049 A 
ATOM     63  H   UNL A   1      43.272  28.124  29.395  1.00  0.00     0.167 HD
ATOM     64  C   UNL A   1      43.739  28.443  33.702  1.00  0.00     0.034 A 
ATOM     65  C   UNL A   1      43.502  26.408  27.265  1.00  0.00     0.034 A 
ATOM     66  C   UNL A   1      44.804  29.243  33.165  1.00  0.00     0.049 A 
ATOM     67  C   UNL A   1      44.644  26.548  28.200  1.00  0.00     0.074 A 
ATOM     68  C   UNL A   1      45.037  30.597  33.023  1.00  0.00     0.029 A 
ATOM     69  N   UNL A   1      45.719  28.616  32.355  1.00  0.00    -0.354 N 
ATOM     70  N   UNL A   1      45.511  27.521  28.162  1.00  0.00    -0.248 NA
ATOM     71  C   UNL A   1      44.636  25.768  29.428  1.00  0.00     0.031 C 
ATOM     72  C   UNL A   1      45.790  30.728  31.820  1.00  0.00     0.029 A 
ATOM     73  C   UNL A   1      45.972  29.447  31.295  1.00  0.00     0.049 A 
ATOM     74  H   UNL A   1      46.119  27.730  32.508  1.00  0.00     0.167 HD
ATOM     75  C   UNL A   1      45.852  27.742  29.491  1.00  0.00     0.074 A 
ATOM     76  C   UNL A   1      45.400  26.548  30.197  1.00  0.00     0.031 C 
ATOM     77  C   UNL A   1      46.200  28.987  29.938  1.00  0.00     0.034 A 
BRANCH  64  78
ATOM     78  C   UNL A   1      43.987  27.229  34.547  1.00  0.00     0.023 A 
ATOM     79  C   UNL A   1      44.309  27.421  35.904  1.00  0.00     0.012 A 
ATOM     80  C   UNL A   1      44.142  25.925  34.021  1.00  0.00     0.148 A 
ATOM     81  C   UNL A   1      44.764  26.364  36.697  1.00  0.00     0.002 A 
ATOM     82  C   UNL A   1      44.493  24.861  34.837  1.00  0.00     0.091 A 
ATOM     83  F   UNL A   1      44.080  25.720  32.699  1.00  0.00    -0.205 F 
ATOM     84  C   UNL A   1      44.834  25.077  36.172  1.00  0.00     0.022 A 
BRANCH  82  85
ATOM     85  S   UNL A   1      44.473  23.188  34.189  1.00  0.00     0.127 S 
ATOM     86  O   UNL A   1      44.935  23.392  32.821  1.00  0.00    -0.237 OA
ATOM     87  O   UNL A   1      45.418  22.499  35.068  1.00  0.00    -0.237 OA
ATOM     88  O   UNL A   1      43.088  22.757  34.357  1.00  0.00    -0.744 OA
ENDBRANCH  82  85
ENDBRANCH  64  78
BRANCH  65  89
ATOM     89  C   UNL A   1      43.338  25.223  26.394  1.00  0.00     0.023 A 
ATOM     90  C   UNL A   1      44.174  25.076  25.272  1.00  0.00     0.012 A 
ATOM     91  C   UNL A   1      42.544  24.120  26.783  1.00  0.00     0.148 A 
ATOM     92  C   UNL A   1      44.239  23.864  24.575  1.00  0.00     0.002 A 
ATOM     93  C   UNL A   1      42.594  22.925  26.073  1.00  0.00     0.091 A 
ATOM     94  F   UNL A   1      41.815  24.203  27.904  1.00  0.00    -0.205 F 
ATOM     95  C   UNL A   1      43.451  22.789  24.975  1.00  0.00     0.022 A 
BRANCH  93  96
ATOM     96  S   UNL A   1      41.579  21.515  26.538  1.00  0.00     0.127 S 
ATOM     97  O   UNL A   1      41.909  21.346  27.954  1.00  0.00    -0.237 OA
ATOM     98  O   UNL A   1      40.231  22.010  26.280  1.00  0.00    -0.237 OA
ATOM     99  O   UNL A   1      42.036  20.419  25.691  1.00  0.00    -0.744 OA
ENDBRANCH  93  96
ENDBRANCH  65  89
BRANCH  77 100
ATOM    100  C   UNL A   1      46.515  30.053  28.914  1.00  0.00     0.023 A 
ATOM    101  C   UNL A   1      47.816  30.212  28.392  1.00  0.00     0.012 A 
ATOM    102  C   UNL A   1      45.465  30.794  28.342  1.00  0.00     0.148 A 
ATOM    103  C   UNL A   1      48.072  31.113  27.356  1.00  0.00     0.002 A 
ATOM    104  C   UNL A   1      45.715  31.657  27.277  1.00  0.00     0.091 A 
ATOM    105  F   UNL A   1      44.226  30.632  28.832  1.00  0.00    -0.205 F 
ATOM    106  C   UNL A   1      47.020  31.827  26.790  1.00  0.00     0.022 A 
BRANCH 104 107
ATOM    107  S   UNL A   1      44.376  32.494  26.420  1.00  0.00     0.127 S 
ATOM    108  O   UNL A   1      43.496  31.385  26.063  1.00  0.00    -0.237 OA
ATOM    109  O   UNL A   1      43.843  33.390  27.448  1.00  0.00    -0.237 OA
ATOM    110  O   UNL A   1      45.008  33.191  25.304  1.00  0.00    -0.744 OA
ENDBRANCH 104 107
ENDBRANCH  77 100
ENDBRANCH  51  52
ENDBRANCH  44  46
ENDBRANCH  43  44
ENDBRANCH  42  43
ENDBRANCH  41  42
ENDBRANCH  40  41
ENDBRANCH  39  40
ENDBRANCH  38  39
ENDBRANCH  37  38
ENDBRANCH   1  37
TORSDOF 28
ENDMDL
MODEL 2
REMARK VINA RESULT:      -9.2      4.110      9.350
REMARK SMILES CCn1ncc(NC(=O)[C@@H]2CCCC[C@@H]2C(=O)OCCOCCOCCOCCOC(=O)c2ccc(-c3c4nc(c(-c5cccc(S(=O)(=O)[O-])c5F)c5ccc([nH]5)c(-c5cccc(S(=O)(=O)[O-])c5F)c5nc(c(-c6cccc(S(=O)(=O)[O-])c6F)c6ccc3[nH]6)C=C5)C=C4)cc2)c1C(=O)Nc1cnn(C)c1C
REMARK SMILES IDX 23 1 22 2 21 3 20 4 19 5 18 6 16 7 17 8 15 9 10 10 11 11
REMARK SMILES IDX 12 12 14 13 13 14 8 15 7 16 9 18 6 19 3 20 4 21 96 22 5 23
REMARK SMILES IDX 2 24 1 25 97 26 98 27 99 28 100 30 101 31 105 32 102 33
REMARK SMILES IDX 103 34 106 35 104 36 24 37 25 38 26 39 27 40 28 41 29 42
REMARK SMILES IDX 30 43 31 44 32 45 33 46 34 47 95 48 35 49 94 50 36 51 37 52
REMARK SMILES IDX 38 53 88 54 39 55 93 56 87 57 89 58 40 59 92 60 86 61 85 62
REMARK SMILES IDX 41 64 73 65 53 66 72 67 54 68 57 69 71 70 90 71 55 72 56 73
REMARK SMILES IDX 70 75 91 76 58 77 42 78 43 79 51 80 44 81 46 82 52 83 45 84
REMARK SMILES IDX 47 85 48 86 49 87 50 88 74 89 75 90 83 91 76 92 78 93 84 94
REMARK SMILES IDX 77 95 79 96 80 97 81 98 82 99 59 100 60 101 68 102 61 103
REMARK SMILES IDX 63 104 69 105 62 106 64 107 65 108 66 109 67 110
REMARK H PARENT 7 17 99 29 89 63 57 74
REMARK Flexibility Score: inf
ROOT
ATOM      1  C   UNL A   1      33.125  26.894  24.555  1.00  0.00     0.188 C 
ENDROOT
BRANCH   1   2
ATOM      2  C   UNL A   1      32.974  28.353  25.011  1.00  0.00     0.188 C 
BRANCH   2   3
ATOM      3  O   UNL A   1      31.904  28.721  25.880  1.00  0.00    -0.376 OA
BRANCH   3   4
ATOM      4  C   UNL A   1      31.968  29.969  26.541  1.00  0.00     0.202 C 
BRANCH   4   5
ATOM      5  C   UNL A   1      33.390  30.537  26.542  1.00  0.00     0.261 C 
BRANCH   5   6
ATOM      6  O   UNL A   1      34.059  30.475  27.816  1.00  0.00    -0.463 OA
BRANCH   6   7
ATOM      7  C   UNL A   1      34.691  31.608  28.246  1.00  0.00     0.309 C 
ATOM      8  O   UNL A   1      34.783  32.637  27.594  1.00  0.00    -0.252 OA
BRANCH   7   9
ATOM      9  C   UNL A   1      35.377  31.348  29.593  1.00  0.00     0.111 C 
ATOM     10  C   UNL A   1      36.450  32.332  30.095  1.00  0.00     0.093 C 
ATOM     11  C   UNL A   1      37.571  32.455  29.040  1.00  0.00     0.014 C 
ATOM     12  C   UNL A   1      38.231  31.103  28.779  1.00  0.00     0.001 C 
ATOM     13  C   UNL A   1      36.037  29.959  29.478  1.00  0.00     0.016 C 
ATOM     14  C   UNL A   1      37.250  29.955  28.537  1.00  0.00     0.001 C 
BRANCH  10  15
ATOM     15  C   UNL A   1      36.103  33.706  30.677  1.00  0.00     0.228 C 
ATOM     16  N   UNL A   1      36.862  34.494  31.481  1.00  0.00    -0.322 N 
ATOM     17  H   UNL A   1      36.603  35.441  31.405  1.00  0.00     0.170 HD
ATOM     18  O   UNL A   1      35.018  34.229  30.373  1.00  0.00    -0.274 OA
BRANCH  16  19
ATOM     19  C   UNL A   1      37.901  34.322  32.379  1.00  0.00     0.092 A 
ATOM     20  N   UNL A   1      39.208  34.421  34.091  1.00  0.00    -0.258 N 
ATOM     21  N   UNL A   1      40.069  34.506  33.049  1.00  0.00    -0.178 NA
ATOM     22  C   UNL A   1      38.019  33.838  33.684  1.00  0.00     0.150 A 
ATOM     23  C   UNL A   1      39.250  34.543  32.003  1.00  0.00     0.162 A 
BRANCH  20  24
ATOM     24  C   UNL A   1      39.484  35.379  35.154  1.00  0.00     0.142 C 
ATOM     25  C   UNL A   1      39.932  34.857  36.505  1.00  0.00     0.029 C 
ENDBRANCH  20  24
BRANCH  22  26
ATOM     26  C   UNL A   1      37.209  32.780  34.236  1.00  0.00     0.276 C 
ATOM     27  O   UNL A   1      35.977  32.916  34.263  1.00  0.00    -0.267 OA
ATOM     28  N   UNL A   1      37.555  31.586  34.793  1.00  0.00    -0.318 N 
ATOM     29  H   UNL A   1      36.757  31.185  35.207  1.00  0.00     0.170 HD
BRANCH  28  30
ATOM     30  C   UNL A   1      38.621  30.748  34.979  1.00  0.00     0.082 A 
ATOM     31  C   UNL A   1      39.530  30.493  36.012  1.00  0.00     0.161 A 
ATOM     32  C   UNL A   1      39.073  29.952  33.933  1.00  0.00     0.059 A 
ATOM     33  N   UNL A   1      40.422  29.548  35.703  1.00  0.00    -0.179 NA
ATOM     34  N   UNL A   1      40.180  29.297  34.407  1.00  0.00    -0.271 N 
ATOM     35  C   UNL A   1      38.588  29.819  32.532  1.00  0.00     0.068 C 
ATOM     36  C   UNL A   1      41.120  28.475  33.679  1.00  0.00     0.174 C 
ENDBRANCH  28  30
ENDBRANCH  22  26
ENDBRANCH  16  19
ENDBRANCH  10  15
ENDBRANCH   7   9
ENDBRANCH   6   7
ENDBRANCH   5   6
ENDBRANCH   4   5
ENDBRANCH   3   4
ENDBRANCH   2   3
ENDBRANCH   1   2
BRANCH   1  37
ATOM     37  O   UNL A   1      32.288  25.973  25.230  1.00  0.00    -0.377 OA
BRANCH  37  38
ATOM     38  C   UNL A   1      32.993  24.844  25.737  1.00  0.00     0.188 C 
BRANCH  38  39
ATOM     39  C   UNL A   1      34.111  24.361  24.803  1.00  0.00     0.188 C 
BRANCH  39  40
ATOM     40  O   UNL A   1      35.448  24.140  25.264  1.00  0.00    -0.376 OA
BRANCH  40  41
ATOM     41  C   UNL A   1      36.193  22.949  25.050  1.00  0.00     0.202 C 
BRANCH  41  42
ATOM     42  C   UNL A   1      37.567  22.827  25.683  1.00  0.00     0.261 C 
BRANCH  42  43
ATOM     43  O   UNL A   1      38.006  24.097  26.128  1.00  0.00    -0.460 OA
BRANCH  43  44
ATOM     44  C   UNL A   1      39.235  24.077  26.685  1.00  0.00     0.338 C 
ATOM     45  O   UNL A   1      39.908  23.100  26.953  1.00  0.00    -0.246 OA
BRANCH  44  46
ATOM     46  C   UNL A   1      39.622  25.453  27.013  1.00  0.00     0.060 A 
ATOM     47  C   UNL A   1      40.684  25.952  26.265  1.00  0.00     0.016 A 
ATOM     48  C   UNL A   1      39.219  26.020  28.232  1.00  0.00     0.016 A 
ATOM     49  C   UNL A   1      41.564  26.781  26.910  1.00  0.00     0.010 A 
ATOM     50  C   UNL A   1      40.097  26.855  28.874  1.00  0.00     0.010 A 
ATOM     51  C   UNL A   1      41.313  27.102  28.248  1.00  0.00    -0.014 A 
BRANCH  51  52
ATOM     52  C   UNL A   1      42.429  27.622  28.995  1.00  0.00     0.031 A 
ATOM     53  C   UNL A   1      42.339  29.055  29.293  1.00  0.00     0.074 A 
ATOM     54  C   UNL A   1      43.452  26.847  29.392  1.00  0.00     0.049 A 
ATOM     55  N   UNL A   1      43.072  30.003  28.819  1.00  0.00    -0.248 NA
ATOM     56  C   UNL A   1      41.207  29.491  30.118  1.00  0.00     0.031 C 
ATOM     57  C   UNL A   1      43.513  25.383  29.432  1.00  0.00     0.029 A 
ATOM     58  N   UNL A   1      44.613  27.231  29.987  1.00  0.00    -0.354 N 
ATOM     59  C   UNL A   1      42.635  31.144  29.475  1.00  0.00     0.074 A 
ATOM     60  C   UNL A   1      41.387  30.810  30.114  1.00  0.00     0.031 C 
ATOM     61  C   UNL A   1      44.525  25.015  30.250  1.00  0.00     0.029 A 
ATOM     62  C   UNL A   1      45.244  26.206  30.672  1.00  0.00     0.049 A 
ATOM     63  H   UNL A   1      44.970  28.147  29.935  1.00  0.00     0.167 HD
ATOM     64  C   UNL A   1      43.453  32.209  29.665  1.00  0.00     0.034 A 
ATOM     65  C   UNL A   1      46.217  26.356  31.600  1.00  0.00     0.034 A 
ATOM     66  C   UNL A   1      44.600  32.196  28.801  1.00  0.00     0.049 A 
ATOM     67  C   UNL A   1      46.814  27.701  31.416  1.00  0.00     0.074 A 
ATOM     68  C   UNL A   1      44.797  32.161  27.434  1.00  0.00     0.029 A 
ATOM     69  N   UNL A   1      45.812  31.883  29.365  1.00  0.00    -0.354 N 
ATOM     70  N   UNL A   1      47.553  28.046  30.398  1.00  0.00    -0.248 NA
ATOM     71  C   UNL A   1      46.303  28.804  32.216  1.00  0.00     0.031 C 
ATOM     72  C   UNL A   1      45.998  31.418  27.244  1.00  0.00     0.029 A 
ATOM     73  C   UNL A   1      46.465  31.040  28.504  1.00  0.00     0.049 A 
ATOM     74  H   UNL A   1      46.151  32.206  30.232  1.00  0.00     0.167 HD
ATOM     75  C   UNL A   1      47.254  29.386  30.182  1.00  0.00     0.074 A 
ATOM     76  C   UNL A   1      46.602  29.826  31.410  1.00  0.00     0.031 C 
ATOM     77  C   UNL A   1      47.298  29.931  28.929  1.00  0.00     0.034 A 
BRANCH  64  78
ATOM     78  C   UNL A   1      43.365  33.086  30.879  1.00  0.00     0.023 A 
ATOM     79  C   UNL A   1      43.240  34.474  30.684  1.00  0.00     0.012 A 
ATOM     80  C   UNL A   1      43.628  32.635  32.193  1.00  0.00     0.148 A 
ATOM     81  C   UNL A   1      43.371  35.370  31.750  1.00  0.00     0.002 A 
ATOM     82  C   UNL A   1      43.653  33.519  33.261  1.00  0.00     0.091 A 
ATOM     83  F   UNL A   1      43.986  31.363  32.411  1.00  0.00    -0.205 F 
ATOM     84  C   UNL A   1      43.553  34.892  33.044  1.00  0.00     0.022 A 
BRANCH  82  85
ATOM     85  S   UNL A   1      43.773  32.895  34.939  1.00  0.00     0.127 S 
ATOM     86  O   UNL A   1      43.429  34.075  35.723  1.00  0.00    -0.237 OA
ATOM     87  O   UNL A   1      42.772  31.827  34.950  1.00  0.00    -0.237 OA
ATOM     88  O   UNL A   1      45.148  32.415  35.044  1.00  0.00    -0.744 OA
ENDBRANCH  82  85
ENDBRANCH  64  78
BRANCH  65  89
ATOM     89  C   UNL A   1      46.524  25.514  32.777  1.00  0.00     0.023 A 
ATOM     90  C   UNL A   1      47.866  25.234  33.089  1.00  0.00     0.012 A 
ATOM     91  C   UNL A   1      45.535  25.186  33.732  1.00  0.00     0.148 A 
ATOM     92  C   UNL A   1      48.218  24.670  34.321  1.00  0.00     0.002 A 
ATOM     93  C   UNL A   1      45.887  24.604  34.946  1.00  0.00     0.091 A 
ATOM     94  F   UNL A   1      44.261  25.532  33.500  1.00  0.00    -0.205 F 
ATOM     95  C   UNL A   1      47.230  24.356  35.249  1.00  0.00     0.022 A 
BRANCH  93  96
ATOM     96  S   UNL A   1      44.644  24.161  36.168  1.00  0.00     0.127 S 
ATOM     97  O   UNL A   1      43.806  23.212  35.434  1.00  0.00    -0.237 OA
ATOM     98  O   UNL A   1      45.455  23.567  37.226  1.00  0.00    -0.237 OA
ATOM     99  O   UNL A   1      43.970  25.411  36.499  1.00  0.00    -0.744 OA
ENDBRANCH  93  96
ENDBRANCH  65  89
BRANCH  77 100
ATOM    100  C   UNL A   1      47.977  29.145  27.830  1.00  0.00     0.023 A 
ATOM    101  C   UNL A   1      49.371  29.215  27.627  1.00  0.00     0.012 A 
ATOM    102  C   UNL A   1      47.238  28.197  27.100  1.00  0.00     0.148 A 
ATOM    103  C   UNL A   1      50.007  28.392  26.695  1.00  0.00     0.002 A 
ATOM    104  C   UNL A   1      47.881  27.345  26.205  1.00  0.00     0.091 A 
ATOM    105  F   UNL A   1      45.913  28.123  27.303  1.00  0.00    -0.205 F 
ATOM    106  C   UNL A   1      49.264  27.448  25.992  1.00  0.00     0.022 A 
BRANCH 104 107
ATOM    107  S   UNL A   1      46.996  26.018  25.378  1.00  0.00     0.127 S 
ATOM    108  O   UNL A   1      46.059  26.752  24.531  1.00  0.00    -0.237 OA
ATOM    109  O   UNL A   1      48.059  25.322  24.651  1.00  0.00    -0.237 OA
ATOM    110  O   UNL A   1      46.400  25.226  26.448  1.00  0.00    -0.744 OA
ENDBRANCH 104 107
ENDBRANCH  77 100
ENDBRANCH  51  52
ENDBRANCH  44  46
ENDBRANCH  43  44
ENDBRANCH  42  43
ENDBRANCH  41  42
ENDBRANCH  40  41
ENDBRANCH  39  40
ENDBRANCH  38  39
ENDBRANCH  37  38
ENDBRANCH   1  37
TORSDOF 28
ENDMDL
MODEL 3
REMARK VINA RESULT:      -8.6      4.100      9.455
REMARK SMILES CCn1ncc(NC(=O)[C@@H]2CCCC[C@@H]2C(=O)OCCOCCOCCOCCOC(=O)c2ccc(-c3c4nc(c(-c5cccc(S(=O)(=O)[O-])c5F)c5ccc([nH]5)c(-c5cccc(S(=O)(=O)[O-])c5F)c5nc(c(-c6cccc(S(=O)(=O)[O-])c6F)c6ccc3[nH]6)C=C5)C=C4)cc2)c1C(=O)Nc1cnn(C)c1C
REMARK SMILES IDX 23 1 22 2 21 3 20 4 19 5 18 6 16 7 17 8 15 9 10 10 11 11
REMARK SMILES IDX 12 12 14 13 13 14 8 15 7 16 9 18 6 19 3 20 4 21 96 22 5 23
REMARK SMILES IDX 2 24 1 25 97 26 98 27 99 28 100 30 101 31 105 32 102 33
REMARK SMILES IDX 103 34 106 35 104 36 24 37 25 38 26 39 27 40 28 41 29 42
REMARK SMILES IDX 30 43 31 44 32 45 33 46 34 47 95 48 35 49 94 50 36 51 37 52
REMARK SMILES IDX 38 53 88 54 39 55 93 56 87 57 89 58 40 59 92 60 86 61 85 62
REMARK SMILES IDX 41 64 73 65 53 66 72 67 54 68 57 69 71 70 90 71 55 72 56 73
REMARK SMILES IDX 70 75 91 76 58 77 42 78 43 79 51 80 44 81 46 82 52 83 45 84
REMARK SMILES IDX 47 85 48 86 49 87 50 88 74 89 75 90 83 91 76 92 78 93 84 94
REMARK SMILES IDX 77 95 79 96 80 97 81 98 82 99 59 100 60 101 68 102 61 103
REMARK SMILES IDX 63 104 69 105 62 106 64 107 65 108 66 109 67 110
REMARK H PARENT 7 17 99 29 89 63 57 74
REMARK Flexibility Score: inf
ROOT
ATOM      1  C   UNL A   1      34.003  26.927  25.354  1.00  0.00     0.188 C 
ENDROOT
BRANCH   1   2
ATOM      2  C   UNL A   1      33.940  28.062  26.386  1.00  0.00     0.188 C 
BRANCH   2   3
ATOM      3  O   UNL A   1      33.308  29.296  26.052  1.00  0.00    -0.376 OA
BRANCH   3   4
ATOM      4  C   UNL A   1      32.361  29.837  26.950  1.00  0.00     0.202 C 
BRANCH   4   5
ATOM      5  C   UNL A   1      32.319  31.366  26.877  1.00  0.00     0.261 C 
BRANCH   5   6
ATOM      6  O   UNL A   1      33.342  32.031  27.641  1.00  0.00    -0.463 OA
BRANCH   6   7
ATOM      7  C   UNL A   1      33.146  33.352  27.934  1.00  0.00     0.309 C 
ATOM      8  O   UNL A   1      32.149  33.987  27.623  1.00  0.00    -0.252 OA
BRANCH   7   9
ATOM      9  C   UNL A   1      34.407  33.940  28.579  1.00  0.00     0.111 C 
ATOM     10  C   UNL A   1      34.575  33.866  30.108  1.00  0.00     0.093 C 
ATOM     11  C   UNL A   1      33.367  34.540  30.794  1.00  0.00     0.014 C 
ATOM     12  C   UNL A   1      33.251  36.007  30.384  1.00  0.00     0.001 C 
ATOM     13  C   UNL A   1      34.439  35.430  28.179  1.00  0.00     0.016 C 
ATOM     14  C   UNL A   1      33.351  36.255  28.879  1.00  0.00     0.001 C 
BRANCH  10  15
ATOM     15  C   UNL A   1      34.957  32.573  30.835  1.00  0.00     0.228 C 
ATOM     16  N   UNL A   1      35.315  32.413  32.134  1.00  0.00    -0.322 N 
ATOM     17  H   UNL A   1      35.140  31.495  32.446  1.00  0.00     0.170 HD
ATOM     18  O   UNL A   1      34.910  31.499  30.211  1.00  0.00    -0.274 OA
BRANCH  16  19
ATOM     19  C   UNL A   1      35.860  33.195  33.138  1.00  0.00     0.092 A 
ATOM     20  N   UNL A   1      36.910  33.906  34.882  1.00  0.00    -0.258 N 
ATOM     21  N   UNL A   1      35.733  34.575  34.945  1.00  0.00    -0.178 NA
ATOM     22  C   UNL A   1      37.152  33.483  33.586  1.00  0.00     0.150 A 
ATOM     23  C   UNL A   1      35.056  34.059  33.924  1.00  0.00     0.162 A 
BRANCH  20  24
ATOM     24  C   UNL A   1      37.331  33.348  36.161  1.00  0.00     0.142 C 
ATOM     25  C   UNL A   1      38.638  33.822  36.765  1.00  0.00     0.029 C 
ENDBRANCH  20  24
BRANCH  22  26
ATOM     26  C   UNL A   1      38.310  33.564  32.730  1.00  0.00     0.276 C 
ATOM     27  O   UNL A   1      39.109  34.500  32.883  1.00  0.00    -0.267 OA
ATOM     28  N   UNL A   1      38.716  32.774  31.698  1.00  0.00    -0.318 N 
ATOM     29  H   UNL A   1      39.466  33.213  31.236  1.00  0.00     0.170 HD
BRANCH  28  30
ATOM     30  C   UNL A   1      38.449  31.583  31.077  1.00  0.00     0.082 A 
ATOM     31  C   UNL A   1      38.516  30.230  31.428  1.00  0.00     0.161 A 
ATOM     32  C   UNL A   1      38.090  31.562  29.734  1.00  0.00     0.059 A 
ATOM     33  N   UNL A   1      38.137  29.414  30.441  1.00  0.00    -0.179 NA
ATOM     34  N   UNL A   1      37.967  30.239  29.396  1.00  0.00    -0.271 N 
ATOM     35  C   UNL A   1      37.925  32.670  28.754  1.00  0.00     0.068 C 
ATOM     36  C   UNL A   1      37.771  29.659  28.087  1.00  0.00     0.174 C 
ENDBRANCH  28  30
ENDBRANCH  22  26
ENDBRANCH  16  19
ENDBRANCH  10  15
ENDBRANCH   7   9
ENDBRANCH   6   7
ENDBRANCH   5   6
ENDBRANCH   4   5
ENDBRANCH   3   4
ENDBRANCH   2   3
ENDBRANCH   1   2
BRANCH   1  37
ATOM     37  O   UNL A   1      33.159  25.824  25.635  1.00  0.00    -0.377 OA
BRANCH  37  38
ATOM     38  C   UNL A   1      33.876  24.623  25.896  1.00  0.00     0.188 C 
BRANCH  38  39
ATOM     39  C   UNL A   1      35.188  24.517  25.105  1.00  0.00     0.188 C 
BRANCH  39  40
ATOM     40  O   UNL A   1      36.273  23.689  25.535  1.00  0.00    -0.376 OA
BRANCH  40  41
ATOM     41  C   UNL A   1      36.598  22.425  24.974  1.00  0.00     0.202 C 
BRANCH  41  42
ATOM     42  C   UNL A   1      37.517  21.499  25.751  1.00  0.00     0.261 C 
BRANCH  42  43
ATOM     43  O   UNL A   1      38.862  21.729  25.374  1.00  0.00    -0.460 OA
BRANCH  43  44
ATOM     44  C   UNL A   1      39.701  21.862  26.423  1.00  0.00     0.338 C 
ATOM     45  O   UNL A   1      40.011  21.008  27.231  1.00  0.00    -0.246 OA
BRANCH  44  46
ATOM     46  C   UNL A   1      40.134  23.260  26.501  1.00  0.00     0.060 A 
ATOM     47  C   UNL A   1      41.414  23.500  26.010  1.00  0.00     0.016 A 
ATOM     48  C   UNL A   1      39.472  24.150  27.361  1.00  0.00     0.016 A 
ATOM     49  C   UNL A   1      42.165  24.440  26.665  1.00  0.00     0.010 A 
ATOM     50  C   UNL A   1      40.223  25.095  28.011  1.00  0.00     0.010 A 
ATOM     51  C   UNL A   1      41.586  25.120  27.741  1.00  0.00    -0.014 A 
BRANCH  51  52
ATOM     52  C   UNL A   1      42.497  25.783  28.638  1.00  0.00     0.031 A 
ATOM     53  C   UNL A   1      42.429  27.247  28.593  1.00  0.00     0.074 A 
ATOM     54  C   UNL A   1      43.325  25.105  29.452  1.00  0.00     0.049 A 
ATOM     55  N   UNL A   1      43.325  28.061  28.149  1.00  0.00    -0.248 NA
ATOM     56  C   UNL A   1      41.152  27.863  28.968  1.00  0.00     0.031 C 
ATOM     57  C   UNL A   1      43.273  23.686  29.813  1.00  0.00     0.029 A 
ATOM     58  N   UNL A   1      44.310  25.601  30.247  1.00  0.00    -0.354 N 
ATOM     59  C   UNL A   1      42.808  29.321  28.406  1.00  0.00     0.074 A 
ATOM     60  C   UNL A   1      41.416  29.148  28.736  1.00  0.00     0.031 C 
ATOM     61  C   UNL A   1      44.005  23.498  30.935  1.00  0.00     0.029 A 
ATOM     62  C   UNL A   1      44.666  24.747  31.277  1.00  0.00     0.049 A 
ATOM     63  H   UNL A   1      44.730  26.481  30.104  1.00  0.00     0.167 HD
ATOM     64  C   UNL A   1      43.617  30.396  28.584  1.00  0.00     0.034 A 
ATOM     65  C   UNL A   1      45.368  25.090  32.382  1.00  0.00     0.034 A 
ATOM     66  C   UNL A   1      44.948  30.183  28.088  1.00  0.00     0.049 A 
ATOM     67  C   UNL A   1      46.083  26.356  32.090  1.00  0.00     0.074 A 
ATOM     68  C   UNL A   1      45.496  29.846  26.866  1.00  0.00     0.029 A 
ATOM     69  N   UNL A   1      45.944  29.992  29.014  1.00  0.00    -0.354 N 
ATOM     70  N   UNL A   1      47.085  26.462  31.263  1.00  0.00    -0.248 NA
ATOM     71  C   UNL A   1      45.455  27.613  32.470  1.00  0.00     0.031 C 
ATOM     72  C   UNL A   1      46.652  29.070  27.170  1.00  0.00     0.029 A 
ATOM     73  C   UNL A   1      46.742  28.974  28.560  1.00  0.00     0.049 A 
ATOM     74  H   UNL A   1      46.063  30.495  29.852  1.00  0.00     0.167 HD
ATOM     75  C   UNL A   1      46.946  27.724  30.698  1.00  0.00     0.074 A 
ATOM     76  C   UNL A   1      46.024  28.430  31.581  1.00  0.00     0.031 C 
ATOM     77  C   UNL A   1      47.356  27.979  29.419  1.00  0.00     0.034 A 
BRANCH  64  78
ATOM     78  C   UNL A   1      43.272  31.519  29.516  1.00  0.00     0.023 A 
ATOM     79  C   UNL A   1      43.400  32.837  29.040  1.00  0.00     0.012 A 
ATOM     80  C   UNL A   1      43.047  31.348  30.902  1.00  0.00     0.148 A 
ATOM     81  C   UNL A   1      43.309  33.932  29.904  1.00  0.00     0.002 A 
ATOM     82  C   UNL A   1      42.854  32.439  31.736  1.00  0.00     0.091 A 
ATOM     83  F   UNL A   1      43.146  30.133  31.457  1.00  0.00    -0.205 F 
ATOM     84  C   UNL A   1      43.012  33.736  31.250  1.00  0.00     0.022 A 
BRANCH  82  85
ATOM     85  S   UNL A   1      42.359  32.188  33.442  1.00  0.00     0.127 S 
ATOM     86  O   UNL A   1      41.148  31.389  33.288  1.00  0.00    -0.237 OA
ATOM     87  O   UNL A   1      43.508  31.474  34.000  1.00  0.00    -0.237 OA
ATOM     88  O   UNL A   1      42.191  33.539  33.968  1.00  0.00    -0.744 OA
ENDBRANCH  82  85
ENDBRANCH  64  78
BRANCH  65  89
ATOM     89  C   UNL A   1      45.295  24.525  33.747  1.00  0.00     0.023 A 
ATOM     90  C   UNL A   1      44.035  24.321  34.339  1.00  0.00     0.012 A 
ATOM     91  C   UNL A   1      46.427  23.959  34.378  1.00  0.00     0.148 A 
ATOM     92  C   UNL A   1      43.900  23.558  35.504  1.00  0.00     0.002 A 
ATOM     93  C   UNL A   1      46.291  23.222  35.550  1.00  0.00     0.091 A 
ATOM     94  F   UNL A   1      47.624  24.057  33.783  1.00  0.00    -0.205 F 
ATOM     95  C   UNL A   1      45.026  23.008  36.109  1.00  0.00     0.022 A 
BRANCH  93  96
ATOM     96  S   UNL A   1      47.718  22.508  36.379  1.00  0.00     0.127 S 
ATOM     97  O   UNL A   1      48.154  21.485  35.428  1.00  0.00    -0.237 OA
ATOM     98  O   UNL A   1      48.611  23.657  36.492  1.00  0.00    -0.237 OA
ATOM     99  O   UNL A   1      47.202  21.968  37.632  1.00  0.00    -0.744 OA
ENDBRANCH  93  96
ENDBRANCH  65  89
BRANCH  77 100
ATOM    100  C   UNL A   1      48.246  26.965  28.737  1.00  0.00     0.023 A 
ATOM    101  C   UNL A   1      47.734  25.744  28.250  1.00  0.00     0.012 A 
ATOM    102  C   UNL A   1      49.575  27.308  28.428  1.00  0.00     0.148 A 
ATOM    103  C   UNL A   1      48.534  24.870  27.511  1.00  0.00     0.002 A 
ATOM    104  C   UNL A   1      50.356  26.456  27.650  1.00  0.00     0.091 A 
ATOM    105  F   UNL A   1      50.057  28.476  28.881  1.00  0.00    -0.205 F 
ATOM    106  C   UNL A   1      49.842  25.230  27.200  1.00  0.00     0.022 A 
BRANCH 104 107
ATOM    107  S   UNL A   1      51.999  26.935  27.104  1.00  0.00     0.127 S 
ATOM    108  O   UNL A   1      51.867  26.892  25.650  1.00  0.00    -0.237 OA
ATOM    109  O   UNL A   1      52.148  28.279  27.664  1.00  0.00    -0.237 OA
ATOM    110  O   UNL A   1      52.903  25.951  27.690  1.00  0.00    -0.744 OA
ENDBRANCH 104 107
ENDBRANCH  77 100
ENDBRANCH  51  52
ENDBRANCH  44  46
ENDBRANCH  43  44
ENDBRANCH  42  43
ENDBRANCH  41  42
ENDBRANCH  40  41
ENDBRANCH  39  40
ENDBRANCH  38  39
ENDBRANCH  37  38
ENDBRANCH   1  37
TORSDOF 28
ENDMDL
