MODEL 1
REMARK VINA RESULT:     -10.3      0.000      0.000
REMARK SMILES O=C(OCCOCCOCCOCCOC(=O)[C@@]1([C@@H]2CCC[C@@H]2O)CCCc2ccccc21)c1ccc(-c2c3nc(c(-c4cccc(S(=O)(=O)[O-])c4F)c4ccc([nH]4)c(-c4cccc(S(=O)(=O)[O-])c4F)c4nc(c(-c5cccc(S(=O)(=O)[O-])c5F)c5ccc2[nH]5)C=C4)C=C3)cc1
REMARK SMILES IDX 8 1 7 2 6 3 5 4 4 5 3 6 2 7 1 8 34 9 35 10 96 11 36 12 95 13
REMARK SMILES IDX 37 14 38 15 39 16 89 17 40 18 94 19 88 20 90 21 41 22 93 23
REMARK SMILES IDX 87 24 86 25 42 27 74 28 54 29 73 30 55 31 58 32 72 33 91 34
REMARK SMILES IDX 56 35 57 36 71 38 92 39 59 40 43 41 44 42 52 43 45 44 47 45
REMARK SMILES IDX 53 46 46 47 48 48 49 49 50 50 51 51 75 52 76 53 84 54 77 55
REMARK SMILES IDX 79 56 85 57 78 58 80 59 81 60 82 61 83 62 60 63 61 64 69 65
REMARK SMILES IDX 62 66 64 67 70 68 63 69 65 70 66 71 67 72 68 73 9 74 10 75
REMARK SMILES IDX 11 76 12 77 13 78 14 79 15 80 16 81 17 82 18 83 25 84 33 85
REMARK SMILES IDX 26 86 28 87 32 88 27 89 29 90 31 91 30 92 19 93 20 94 23 95
REMARK SMILES IDX 21 96 22 97 24 98
REMARK H PARENT 90 26 58 37 24 99
REMARK Flexibility Score: inf
ROOT
ATOM      1  C   UNL A   1      35.337  32.221  28.054  1.00  0.00     0.188 C 
ENDROOT
BRANCH   1   2
ATOM      2  C   UNL A   1      34.313  32.965  28.913  1.00  0.00     0.188 C 
BRANCH   2   3
ATOM      3  O   UNL A   1      34.077  34.271  28.392  1.00  0.00    -0.376 OA
BRANCH   3   4
ATOM      4  C   UNL A   1      32.910  34.957  28.843  1.00  0.00     0.202 C 
BRANCH   4   5
ATOM      5  C   UNL A   1      33.160  36.435  29.116  1.00  0.00     0.261 C 
BRANCH   5   6
ATOM      6  O   UNL A   1      32.675  36.826  30.404  1.00  0.00    -0.460 OA
BRANCH   6   7
ATOM      7  C   UNL A   1      32.537  36.020  31.491  1.00  0.00     0.338 C 
ATOM      8  O   UNL A   1      31.470  36.058  32.102  1.00  0.00    -0.246 OA
BRANCH   7   9
ATOM      9  C   UNL A   1      33.586  35.065  31.970  1.00  0.00     0.060 A 
ATOM     10  C   UNL A   1      33.364  33.848  32.626  1.00  0.00     0.016 A 
ATOM     11  C   UNL A   1      34.908  35.394  31.642  1.00  0.00     0.016 A 
ATOM     12  C   UNL A   1      34.393  32.987  32.958  1.00  0.00     0.010 A 
ATOM     13  C   UNL A   1      35.958  34.537  31.973  1.00  0.00     0.010 A 
ATOM     14  C   UNL A   1      35.693  33.337  32.642  1.00  0.00    -0.014 A 
BRANCH  14  15
ATOM     15  C   UNL A   1      36.770  32.509  33.189  1.00  0.00     0.031 A 
ATOM     16  C   UNL A   1      37.298  32.888  34.531  1.00  0.00     0.074 A 
ATOM     17  C   UNL A   1      37.186  31.421  32.521  1.00  0.00     0.049 A 
ATOM     18  N   UNL A   1      38.358  32.460  35.149  1.00  0.00    -0.248 NA
ATOM     19  C   UNL A   1      36.520  33.893  35.283  1.00  0.00     0.031 C 
ATOM     20  C   UNL A   1      36.602  30.915  31.274  1.00  0.00     0.029 A 
ATOM     21  N   UNL A   1      38.211  30.555  32.786  1.00  0.00    -0.354 N 
ATOM     22  C   UNL A   1      38.433  33.213  36.312  1.00  0.00     0.074 A 
ATOM     23  C   UNL A   1      37.282  34.083  36.349  1.00  0.00     0.031 C 
ATOM     24  C   UNL A   1      37.309  29.852  30.860  1.00  0.00     0.029 A 
ATOM     25  C   UNL A   1      38.438  29.665  31.762  1.00  0.00     0.049 A 
ATOM     26  H   UNL A   1      38.732  30.569  33.621  1.00  0.00     0.167 HD
ATOM     27  C   UNL A   1      39.413  33.189  37.239  1.00  0.00     0.034 A 
ATOM     28  C   UNL A   1      39.494  28.858  31.552  1.00  0.00     0.034 A 
ATOM     29  C   UNL A   1      40.526  32.291  37.157  1.00  0.00     0.049 A 
ATOM     30  C   UNL A   1      40.598  28.892  32.576  1.00  0.00     0.074 A 
ATOM     31  C   UNL A   1      41.590  32.153  38.024  1.00  0.00     0.029 A 
ATOM     32  N   UNL A   1      40.721  31.386  36.121  1.00  0.00    -0.354 N 
ATOM     33  N   UNL A   1      40.666  29.581  33.692  1.00  0.00    -0.248 NA
ATOM     34  C   UNL A   1      41.769  28.045  32.320  1.00  0.00     0.031 C 
ATOM     35  C   UNL A   1      42.453  31.194  37.486  1.00  0.00     0.029 A 
ATOM     36  C   UNL A   1      41.903  30.702  36.309  1.00  0.00     0.049 A 
ATOM     37  H   UNL A   1      40.106  31.253  35.365  1.00  0.00     0.167 HD
ATOM     38  C   UNL A   1      41.873  29.238  34.283  1.00  0.00     0.074 A 
ATOM     39  C   UNL A   1      42.492  28.255  33.411  1.00  0.00     0.031 C 
ATOM     40  C   UNL A   1      42.440  29.697  35.426  1.00  0.00     0.034 A 
BRANCH  27  41
ATOM     41  C   UNL A   1      39.354  34.207  38.341  1.00  0.00     0.023 A 
ATOM     42  C   UNL A   1      39.842  35.513  38.146  1.00  0.00     0.012 A 
ATOM     43  C   UNL A   1      38.805  33.850  39.588  1.00  0.00     0.148 A 
ATOM     44  C   UNL A   1      39.808  36.442  39.186  1.00  0.00     0.002 A 
ATOM     45  C   UNL A   1      38.731  34.793  40.604  1.00  0.00     0.091 A 
ATOM     46  F   UNL A   1      38.383  32.590  39.761  1.00  0.00    -0.205 F 
ATOM     47  C   UNL A   1      39.244  36.086  40.410  1.00  0.00     0.022 A 
BRANCH  45  48
ATOM     48  S   UNL A   1      37.964  34.446  42.190  1.00  0.00     0.127 S 
ATOM     49  O   UNL A   1      36.661  33.919  41.776  1.00  0.00    -0.237 OA
ATOM     50  O   UNL A   1      38.875  33.443  42.747  1.00  0.00    -0.237 OA
ATOM     51  O   UNL A   1      37.922  35.705  42.908  1.00  0.00    -0.744 OA
ENDBRANCH  45  48
ENDBRANCH  27  41
BRANCH  28  52
ATOM     52  C   UNL A   1      39.588  28.026  30.318  1.00  0.00     0.023 A 
ATOM     53  C   UNL A   1      38.904  26.797  30.248  1.00  0.00     0.012 A 
ATOM     54  C   UNL A   1      40.353  28.444  29.209  1.00  0.00     0.148 A 
ATOM     55  C   UNL A   1      39.011  25.985  29.117  1.00  0.00     0.002 A 
ATOM     56  C   UNL A   1      40.409  27.658  28.063  1.00  0.00     0.091 A 
ATOM     57  F   UNL A   1      41.017  29.606  29.293  1.00  0.00    -0.205 F 
ATOM     58  C   UNL A   1      39.756  26.418  28.022  1.00  0.00     0.022 A 
BRANCH  56  59
ATOM     59  S   UNL A   1      41.242  28.198  26.565  1.00  0.00     0.127 S 
ATOM     60  O   UNL A   1      41.154  27.002  25.727  1.00  0.00    -0.237 OA
ATOM     61  O   UNL A   1      40.397  29.313  26.132  1.00  0.00    -0.237 OA
ATOM     62  O   UNL A   1      42.581  28.586  26.977  1.00  0.00    -0.744 OA
ENDBRANCH  56  59
ENDBRANCH  28  52
BRANCH  40  63
ATOM     63  C   UNL A   1      43.769  29.117  35.813  1.00  0.00     0.023 A 
ATOM     64  C   UNL A   1      44.955  29.768  35.429  1.00  0.00     0.012 A 
ATOM     65  C   UNL A   1      43.825  27.996  36.661  1.00  0.00     0.148 A 
ATOM     66  C   UNL A   1      46.188  29.296  35.871  1.00  0.00     0.002 A 
ATOM     67  C   UNL A   1      45.052  27.568  37.145  1.00  0.00     0.091 A 
ATOM     68  F   UNL A   1      42.676  27.390  36.998  1.00  0.00    -0.205 F 
ATOM     69  C   UNL A   1      46.235  28.208  36.742  1.00  0.00     0.022 A 
BRANCH  67  70
ATOM     70  S   UNL A   1      45.197  26.256  38.361  1.00  0.00     0.127 S 
ATOM     71  O   UNL A   1      44.578  25.131  37.660  1.00  0.00    -0.237 OA
ATOM     72  O   UNL A   1      46.647  26.150  38.525  1.00  0.00    -0.237 OA
ATOM     73  O   UNL A   1      44.484  26.717  39.544  1.00  0.00    -0.744 OA
ENDBRANCH  67  70
ENDBRANCH  40  63
ENDBRANCH  14  15
ENDBRANCH   7   9
ENDBRANCH   6   7
ENDBRANCH   5   6
ENDBRANCH   4   5
ENDBRANCH   3   4
ENDBRANCH   2   3
ENDBRANCH   1   2
BRANCH   1  74
ATOM     74  O   UNL A   1      34.905  30.929  27.645  1.00  0.00    -0.377 OA
BRANCH  74  75
ATOM     75  C   UNL A   1      33.548  30.883  27.231  1.00  0.00     0.188 C 
BRANCH  75  76
ATOM     76  C   UNL A   1      33.016  29.638  26.496  1.00  0.00     0.188 C 
BRANCH  76  77
ATOM     77  O   UNL A   1      34.031  28.932  25.810  1.00  0.00    -0.376 OA
BRANCH  77  78
ATOM     78  C   UNL A   1      33.655  27.625  25.401  1.00  0.00     0.202 C 
BRANCH  78  79
ATOM     79  C   UNL A   1      33.278  27.453  23.920  1.00  0.00     0.261 C 
BRANCH  79  80
ATOM     80  O   UNL A   1      32.608  26.241  23.476  1.00  0.00    -0.463 OA
BRANCH  80  81
ATOM     81  C   UNL A   1      33.256  25.065  23.222  1.00  0.00     0.317 C 
ATOM     82  O   UNL A   1      33.979  24.925  22.244  1.00  0.00    -0.251 OA
BRANCH  81  83
ATOM     83  C   UNL A   1      32.890  23.900  24.317  1.00  0.00     0.098 C 
ATOM     84  C   UNL A   1      32.064  22.767  23.600  1.00  0.00     0.024 C 
ATOM     85  C   UNL A   1      34.290  23.346  24.733  1.00  0.00    -0.027 A 
ATOM     86  C   UNL A   1      32.244  21.337  24.091  1.00  0.00     0.006 C 
ATOM     87  C   UNL A   1      34.637  21.990  24.658  1.00  0.00    -0.044 A 
ATOM     88  C   UNL A   1      35.252  24.257  25.236  1.00  0.00     0.005 A 
ATOM     89  C   UNL A   1      33.705  20.930  24.142  1.00  0.00     0.036 C 
ATOM     90  C   UNL A   1      35.937  21.600  25.029  1.00  0.00     0.004 A 
ATOM     91  C   UNL A   1      36.531  23.861  25.594  1.00  0.00     0.000 A 
ATOM     92  C   UNL A   1      36.877  22.527  25.484  1.00  0.00     0.000 A 
BRANCH  83  93
ATOM     93  C   UNL A   1      32.253  24.395  25.735  1.00  0.00     0.040 C 
ATOM     94  C   UNL A   1      32.653  23.524  26.959  1.00  0.00     0.008 C 
ATOM     95  C   UNL A   1      30.768  24.546  26.120  1.00  0.00     0.119 C 
ATOM     96  C   UNL A   1      31.470  22.578  27.250  1.00  0.00     0.003 C 
ATOM     97  C   UNL A   1      30.280  23.157  26.495  1.00  0.00     0.032 C 
BRANCH  95  98
ATOM     98  O   UNL A   1      29.954  25.256  25.240  1.00  0.00    -0.393 OA
ATOM     99  H   UNL A   1      30.252  26.179  25.198  1.00  0.00     0.210 HD
ENDBRANCH  95  98
ENDBRANCH  83  93
ENDBRANCH  81  83
ENDBRANCH  80  81
ENDBRANCH  79  80
ENDBRANCH  78  79
ENDBRANCH  77  78
ENDBRANCH  76  77
ENDBRANCH  75  76
ENDBRANCH  74  75
ENDBRANCH   1  74
TORSDOF 25
ENDMDL
MODEL 2
REMARK VINA RESULT:      -9.3      1.186      7.621
REMARK SMILES O=C(OCCOCCOCCOCCOC(=O)[C@@]1([C@@H]2CCC[C@@H]2O)CCCc2ccccc21)c1ccc(-c2c3nc(c(-c4cccc(S(=O)(=O)[O-])c4F)c4ccc([nH]4)c(-c4cccc(S(=O)(=O)[O-])c4F)c4nc(c(-c5cccc(S(=O)(=O)[O-])c5F)c5ccc2[nH]5)C=C4)C=C3)cc1
REMARK SMILES IDX 8 1 7 2 6 3 5 4 4 5 3 6 2 7 1 8 34 9 35 10 96 11 36 12 95 13
REMARK SMILES IDX 37 14 38 15 39 16 89 17 40 18 94 19 88 20 90 21 41 22 93 23
REMARK SMILES IDX 87 24 86 25 42 27 74 28 54 29 73 30 55 31 58 32 72 33 91 34
REMARK SMILES IDX 56 35 57 36 71 38 92 39 59 40 43 41 44 42 52 43 45 44 47 45
REMARK SMILES IDX 53 46 46 47 48 48 49 49 50 50 51 51 75 52 76 53 84 54 77 55
REMARK SMILES IDX 79 56 85 57 78 58 80 59 81 60 82 61 83 62 60 63 61 64 69 65
REMARK SMILES IDX 62 66 64 67 70 68 63 69 65 70 66 71 67 72 68 73 9 74 10 75
REMARK SMILES IDX 11 76 12 77 13 78 14 79 15 80 16 81 17 82 18 83 25 84 33 85
REMARK SMILES IDX 26 86 28 87 32 88 27 89 29 90 31 91 30 92 19 93 20 94 23 95
REMARK SMILES IDX 21 96 22 97 24 98
REMARK H PARENT 90 26 58 37 24 99
REMARK Flexibility Score: inf
ROOT
ATOM      1  C   UNL A   1      35.197  33.491  28.035  1.00  0.00     0.188 C 
ENDROOT
BRANCH   1   2
ATOM      2  C   UNL A   1      34.069  33.969  28.951  1.00  0.00     0.188 C 
BRANCH   2   3
ATOM      3  O   UNL A   1      33.899  35.380  28.843  1.00  0.00    -0.376 OA
BRANCH   3   4
ATOM      4  C   UNL A   1      32.850  35.976  29.604  1.00  0.00     0.202 C 
BRANCH   4   5
ATOM      5  C   UNL A   1      33.362  36.963  30.646  1.00  0.00     0.261 C 
BRANCH   5   6
ATOM      6  O   UNL A   1      33.007  36.565  31.973  1.00  0.00    -0.460 OA
BRANCH   6   7
ATOM      7  C   UNL A   1      33.109  35.312  32.492  1.00  0.00     0.338 C 
ATOM      8  O   UNL A   1      32.068  34.691  32.702  1.00  0.00    -0.246 OA
BRANCH   7   9
ATOM      9  C   UNL A   1      34.407  34.627  32.791  1.00  0.00     0.060 A 
ATOM     10  C   UNL A   1      34.566  33.404  33.454  1.00  0.00     0.016 A 
ATOM     11  C   UNL A   1      35.555  35.237  32.269  1.00  0.00     0.016 A 
ATOM     12  C   UNL A   1      35.800  32.803  33.612  1.00  0.00     0.010 A 
ATOM     13  C   UNL A   1      36.808  34.645  32.423  1.00  0.00     0.010 A 
ATOM     14  C   UNL A   1      36.925  33.430  33.106  1.00  0.00    -0.014 A 
BRANCH  14  15
ATOM     15  C   UNL A   1      38.231  32.875  33.469  1.00  0.00     0.031 A 
ATOM     16  C   UNL A   1      38.788  31.818  32.577  1.00  0.00     0.074 A 
ATOM     17  C   UNL A   1      38.904  33.373  34.519  1.00  0.00     0.049 A 
ATOM     18  N   UNL A   1      39.806  31.034  32.766  1.00  0.00    -0.248 NA
ATOM     19  C   UNL A   1      38.096  31.616  31.288  1.00  0.00     0.031 C 
ATOM     20  C   UNL A   1      38.476  34.512  35.339  1.00  0.00     0.029 A 
ATOM     21  N   UNL A   1      40.081  32.973  35.089  1.00  0.00    -0.354 N 
ATOM     22  C   UNL A   1      39.818  30.179  31.673  1.00  0.00     0.074 A 
ATOM     23  C   UNL A   1      38.745  30.573  30.793  1.00  0.00     0.031 C 
ATOM     24  C   UNL A   1      39.358  34.689  36.335  1.00  0.00     0.029 A 
ATOM     25  C   UNL A   1      40.353  33.626  36.269  1.00  0.00     0.049 A 
ATOM     26  H   UNL A   1      40.670  32.289  34.697  1.00  0.00     0.167 HD
ATOM     27  C   UNL A   1      40.644  29.133  31.464  1.00  0.00     0.034 A 
ATOM     28  C   UNL A   1      41.256  33.327  37.220  1.00  0.00     0.034 A 
ATOM     29  C   UNL A   1      41.704  28.797  32.368  1.00  0.00     0.049 A 
ATOM     30  C   UNL A   1      42.128  32.122  36.984  1.00  0.00     0.074 A 
ATOM     31  C   UNL A   1      42.619  27.769  32.282  1.00  0.00     0.029 A 
ATOM     32  N   UNL A   1      41.970  29.487  33.545  1.00  0.00    -0.354 N 
ATOM     33  N   UNL A   1      42.165  31.323  35.943  1.00  0.00    -0.248 NA
ATOM     34  C   UNL A   1      43.080  31.772  38.045  1.00  0.00     0.031 C 
ATOM     35  C   UNL A   1      43.411  27.811  33.433  1.00  0.00     0.029 A 
ATOM     36  C   UNL A   1      43.020  28.892  34.212  1.00  0.00     0.049 A 
ATOM     37  H   UNL A   1      41.482  30.282  33.855  1.00  0.00     0.167 HD
ATOM     38  C   UNL A   1      43.155  30.388  36.210  1.00  0.00     0.074 A 
ATOM     39  C   UNL A   1      43.713  30.740  37.503  1.00  0.00     0.031 C 
ATOM     40  C   UNL A   1      43.561  29.323  35.476  1.00  0.00     0.034 A 
BRANCH  27  41
ATOM     41  C   UNL A   1      40.369  28.255  30.277  1.00  0.00     0.023 A 
ATOM     42  C   UNL A   1      39.321  27.315  30.300  1.00  0.00     0.012 A 
ATOM     43  C   UNL A   1      41.172  28.372  29.125  1.00  0.00     0.148 A 
ATOM     44  C   UNL A   1      39.093  26.485  29.202  1.00  0.00     0.002 A 
ATOM     45  C   UNL A   1      40.909  27.576  28.019  1.00  0.00     0.091 A 
ATOM     46  F   UNL A   1      42.187  29.247  29.143  1.00  0.00    -0.205 F 
ATOM     47  C   UNL A   1      39.879  26.623  28.060  1.00  0.00     0.022 A 
BRANCH  45  48
ATOM     48  S   UNL A   1      41.825  27.727  26.482  1.00  0.00     0.127 S 
ATOM     49  O   UNL A   1      41.618  29.140  26.155  1.00  0.00    -0.237 OA
ATOM     50  O   UNL A   1      43.186  27.397  26.914  1.00  0.00    -0.237 OA
ATOM     51  O   UNL A   1      41.228  26.784  25.556  1.00  0.00    -0.744 OA
ENDBRANCH  45  48
ENDBRANCH  27  41
BRANCH  28  52
ATOM     52  C   UNL A   1      41.330  34.119  38.482  1.00  0.00     0.023 A 
ATOM     53  C   UNL A   1      42.253  35.177  38.591  1.00  0.00     0.012 A 
ATOM     54  C   UNL A   1      40.491  33.832  39.579  1.00  0.00     0.148 A 
ATOM     55  C   UNL A   1      42.366  35.905  39.778  1.00  0.00     0.002 A 
ATOM     56  C   UNL A   1      40.567  34.598  40.737  1.00  0.00     0.091 A 
ATOM     57  F   UNL A   1      39.630  32.810  39.472  1.00  0.00    -0.205 F 
ATOM     58  C   UNL A   1      41.519  35.622  40.846  1.00  0.00     0.022 A 
BRANCH  56  59
ATOM     59  S   UNL A   1      39.431  34.381  42.111  1.00  0.00     0.127 S 
ATOM     60  O   UNL A   1      39.823  35.475  42.998  1.00  0.00    -0.237 OA
ATOM     61  O   UNL A   1      38.130  34.555  41.461  1.00  0.00    -0.237 OA
ATOM     62  O   UNL A   1      39.673  33.039  42.615  1.00  0.00    -0.744 OA
ENDBRANCH  56  59
ENDBRANCH  28  52
BRANCH  40  63
ATOM     63  C   UNL A   1      44.679  28.492  36.036  1.00  0.00     0.023 A 
ATOM     64  C   UNL A   1      46.012  28.799  35.708  1.00  0.00     0.012 A 
ATOM     65  C   UNL A   1      44.401  27.489  36.983  1.00  0.00     0.148 A 
ATOM     66  C   UNL A   1      47.059  28.101  36.304  1.00  0.00     0.002 A 
ATOM     67  C   UNL A   1      45.449  26.839  37.615  1.00  0.00     0.091 A 
ATOM     68  F   UNL A   1      43.119  27.212  37.263  1.00  0.00    -0.205 F 
ATOM     69  C   UNL A   1      46.778  27.135  37.270  1.00  0.00     0.022 A 
BRANCH  67  70
ATOM     70  S   UNL A   1      45.185  25.671  38.952  1.00  0.00     0.127 S 
ATOM     71  O   UNL A   1      44.232  26.394  39.794  1.00  0.00    -0.237 OA
ATOM     72  O   UNL A   1      44.626  24.518  38.246  1.00  0.00    -0.237 OA
ATOM     73  O   UNL A   1      46.491  25.440  39.554  1.00  0.00    -0.744 OA
ENDBRANCH  67  70
ENDBRANCH  40  63
ENDBRANCH  14  15
ENDBRANCH   7   9
ENDBRANCH   6   7
ENDBRANCH   5   6
ENDBRANCH   4   5
ENDBRANCH   3   4
ENDBRANCH   2   3
ENDBRANCH   1   2
BRANCH   1  74
ATOM     74  O   UNL A   1      35.100  32.117  27.684  1.00  0.00    -0.377 OA
BRANCH  74  75
ATOM     75  C   UNL A   1      33.825  31.548  27.941  1.00  0.00     0.188 C 
BRANCH  75  76
ATOM     76  C   UNL A   1      33.061  30.844  26.804  1.00  0.00     0.188 C 
BRANCH  76  77
ATOM     77  O   UNL A   1      33.677  29.639  26.393  1.00  0.00    -0.376 OA
BRANCH  77  78
ATOM     78  C   UNL A   1      33.243  29.168  25.126  1.00  0.00     0.202 C 
BRANCH  78  79
ATOM     79  C   UNL A   1      33.015  27.652  25.000  1.00  0.00     0.261 C 
BRANCH  79  80
ATOM     80  O   UNL A   1      33.967  26.831  24.268  1.00  0.00    -0.463 OA
BRANCH  80  81
ATOM     81  C   UNL A   1      33.605  25.830  23.412  1.00  0.00     0.317 C 
ATOM     82  O   UNL A   1      33.682  25.962  22.197  1.00  0.00    -0.251 OA
BRANCH  81  83
ATOM     83  C   UNL A   1      33.014  24.517  24.197  1.00  0.00     0.098 C 
ATOM     84  C   UNL A   1      32.130  23.680  23.197  1.00  0.00     0.024 C 
ATOM     85  C   UNL A   1      34.299  23.709  24.564  1.00  0.00    -0.027 A 
ATOM     86  C   UNL A   1      32.102  22.168  23.370  1.00  0.00     0.006 C 
ATOM     87  C   UNL A   1      34.494  22.367  24.211  1.00  0.00    -0.044 A 
ATOM     88  C   UNL A   1      35.311  24.359  25.314  1.00  0.00     0.005 A 
ATOM     89  C   UNL A   1      33.496  21.572  23.418  1.00  0.00     0.036 C 
ATOM     90  C   UNL A   1      35.703  21.740  24.566  1.00  0.00     0.004 A 
ATOM     91  C   UNL A   1      36.500  23.733  25.652  1.00  0.00     0.000 A 
ATOM     92  C   UNL A   1      36.699  22.418  25.271  1.00  0.00     0.000 A 
BRANCH  83  93
ATOM     93  C   UNL A   1      32.315  24.779  25.648  1.00  0.00     0.040 C 
ATOM     94  C   UNL A   1      32.789  23.816  26.773  1.00  0.00     0.008 C 
ATOM     95  C   UNL A   1      30.818  24.735  26.015  1.00  0.00     0.119 C 
ATOM     96  C   UNL A   1      31.705  22.730  26.928  1.00  0.00     0.003 C 
ATOM     97  C   UNL A   1      30.471  23.271  26.219  1.00  0.00     0.032 C 
BRANCH  95  98
ATOM     98  O   UNL A   1      29.946  25.458  25.204  1.00  0.00    -0.393 OA
ATOM     99  H   UNL A   1      29.958  26.392  25.468  1.00  0.00     0.210 HD
ENDBRANCH  95  98
ENDBRANCH  83  93
ENDBRANCH  81  83
ENDBRANCH  80  81
ENDBRANCH  79  80
ENDBRANCH  78  79
ENDBRANCH  77  78
ENDBRANCH  76  77
ENDBRANCH  75  76
ENDBRANCH  74  75
ENDBRANCH   1  74
TORSDOF 25
ENDMDL
MODEL 3
REMARK VINA RESULT:      -9.1      2.264      3.351
REMARK SMILES O=C(OCCOCCOCCOCCOC(=O)[C@@]1([C@@H]2CCC[C@@H]2O)CCCc2ccccc21)c1ccc(-c2c3nc(c(-c4cccc(S(=O)(=O)[O-])c4F)c4ccc([nH]4)c(-c4cccc(S(=O)(=O)[O-])c4F)c4nc(c(-c5cccc(S(=O)(=O)[O-])c5F)c5ccc2[nH]5)C=C4)C=C3)cc1
REMARK SMILES IDX 8 1 7 2 6 3 5 4 4 5 3 6 2 7 1 8 34 9 35 10 96 11 36 12 95 13
REMARK SMILES IDX 37 14 38 15 39 16 89 17 40 18 94 19 88 20 90 21 41 22 93 23
REMARK SMILES IDX 87 24 86 25 42 27 74 28 54 29 73 30 55 31 58 32 72 33 91 34
REMARK SMILES IDX 56 35 57 36 71 38 92 39 59 40 43 41 44 42 52 43 45 44 47 45
REMARK SMILES IDX 53 46 46 47 48 48 49 49 50 50 51 51 75 52 76 53 84 54 77 55
REMARK SMILES IDX 79 56 85 57 78 58 80 59 81 60 82 61 83 62 60 63 61 64 69 65
REMARK SMILES IDX 62 66 64 67 70 68 63 69 65 70 66 71 67 72 68 73 9 74 10 75
REMARK SMILES IDX 11 76 12 77 13 78 14 79 15 80 16 81 17 82 18 83 25 84 33 85
REMARK SMILES IDX 26 86 28 87 32 88 27 89 29 90 31 91 30 92 19 93 20 94 23 95
REMARK SMILES IDX 21 96 22 97 24 98
REMARK H PARENT 90 26 58 37 24 99
REMARK Flexibility Score: inf
ROOT
ATOM      1  C   UNL A   1      35.896  31.745  28.511  1.00  0.00     0.188 C 
ENDROOT
BRANCH   1   2
ATOM      2  C   UNL A   1      36.177  33.246  28.424  1.00  0.00     0.188 C 
BRANCH   2   3
ATOM      3  O   UNL A   1      35.180  33.898  27.641  1.00  0.00    -0.376 OA
BRANCH   3   4
ATOM      4  C   UNL A   1      34.454  34.961  28.256  1.00  0.00     0.202 C 
BRANCH   4   5
ATOM      5  C   UNL A   1      32.969  34.653  28.408  1.00  0.00     0.261 C 
BRANCH   5   6
ATOM      6  O   UNL A   1      32.560  34.681  29.778  1.00  0.00    -0.460 OA
BRANCH   6   7
ATOM      7  C   UNL A   1      33.195  35.320  30.796  1.00  0.00     0.338 C 
ATOM      8  O   UNL A   1      32.736  36.396  31.174  1.00  0.00    -0.246 OA
BRANCH   7   9
ATOM      9  C   UNL A   1      34.398  34.782  31.509  1.00  0.00     0.060 A 
ATOM     10  C   UNL A   1      35.397  35.535  32.137  1.00  0.00     0.016 A 
ATOM     11  C   UNL A   1      34.466  33.387  31.626  1.00  0.00     0.016 A 
ATOM     12  C   UNL A   1      36.429  34.950  32.846  1.00  0.00     0.010 A 
ATOM     13  C   UNL A   1      35.503  32.782  32.335  1.00  0.00     0.010 A 
ATOM     14  C   UNL A   1      36.489  33.572  32.936  1.00  0.00    -0.014 A 
BRANCH  14  15
ATOM     15  C   UNL A   1      37.700  32.981  33.512  1.00  0.00     0.031 A 
ATOM     16  C   UNL A   1      37.841  33.044  34.995  1.00  0.00     0.074 A 
ATOM     17  C   UNL A   1      38.583  32.353  32.720  1.00  0.00     0.049 A 
ATOM     18  N   UNL A   1      38.877  32.784  35.735  1.00  0.00    -0.248 NA
ATOM     19  C   UNL A   1      36.643  33.460  35.753  1.00  0.00     0.031 C 
ATOM     20  C   UNL A   1      38.422  32.128  31.280  1.00  0.00     0.029 A 
ATOM     21  N   UNL A   1      39.802  31.805  33.011  1.00  0.00    -0.354 N 
ATOM     22  C   UNL A   1      38.492  33.101  37.029  1.00  0.00     0.074 A 
ATOM     23  C   UNL A   1      37.111  33.516  36.990  1.00  0.00     0.031 C 
ATOM     24  C   UNL A   1      39.525  31.528  30.805  1.00  0.00     0.029 A 
ATOM     25  C   UNL A   1      40.493  31.411  31.888  1.00  0.00     0.049 A 
ATOM     26  H   UNL A   1      40.148  31.704  33.927  1.00  0.00     0.167 HD
ATOM     27  C   UNL A   1      39.260  33.077  38.139  1.00  0.00     0.034 A 
ATOM     28  C   UNL A   1      41.791  31.081  31.758  1.00  0.00     0.034 A 
ATOM     29  C   UNL A   1      40.624  32.640  38.120  1.00  0.00     0.049 A 
ATOM     30  C   UNL A   1      42.636  31.115  33.004  1.00  0.00     0.074 A 
ATOM     31  C   UNL A   1      41.519  32.559  39.166  1.00  0.00     0.029 A 
ATOM     32  N   UNL A   1      41.293  32.228  36.974  1.00  0.00    -0.354 N 
ATOM     33  N   UNL A   1      42.275  31.387  34.238  1.00  0.00    -0.248 NA
ATOM     34  C   UNL A   1      44.060  30.798  32.851  1.00  0.00     0.031 C 
ATOM     35  C   UNL A   1      42.746  32.140  38.642  1.00  0.00     0.029 A 
ATOM     36  C   UNL A   1      42.601  31.915  37.279  1.00  0.00     0.049 A 
ATOM     37  H   UNL A   1      40.892  32.168  36.078  1.00  0.00     0.167 HD
ATOM     38  C   UNL A   1      43.420  31.257  35.011  1.00  0.00     0.074 A 
ATOM     39  C   UNL A   1      44.481  30.851  34.107  1.00  0.00     0.031 C 
ATOM     40  C   UNL A   1      43.597  31.468  36.338  1.00  0.00     0.034 A 
BRANCH  27  41
ATOM     41  C   UNL A   1      38.664  33.610  39.409  1.00  0.00     0.023 A 
ATOM     42  C   UNL A   1      38.962  34.911  39.858  1.00  0.00     0.012 A 
ATOM     43  C   UNL A   1      37.796  32.798  40.165  1.00  0.00     0.148 A 
ATOM     44  C   UNL A   1      38.425  35.386  41.055  1.00  0.00     0.002 A 
ATOM     45  C   UNL A   1      37.228  33.294  41.330  1.00  0.00     0.091 A 
ATOM     46  F   UNL A   1      37.559  31.550  39.737  1.00  0.00    -0.205 F 
ATOM     47  C   UNL A   1      37.551  34.582  41.784  1.00  0.00     0.022 A 
BRANCH  45  48
ATOM     48  S   UNL A   1      36.043  32.356  42.301  1.00  0.00     0.127 S 
ATOM     49  O   UNL A   1      36.889  31.290  42.845  1.00  0.00    -0.237 OA
ATOM     50  O   UNL A   1      35.612  33.351  43.287  1.00  0.00    -0.237 OA
ATOM     51  O   UNL A   1      35.014  31.919  41.378  1.00  0.00    -0.744 OA
ENDBRANCH  45  48
ENDBRANCH  27  41
BRANCH  28  52
ATOM     52  C   UNL A   1      42.370  30.767  30.420  1.00  0.00     0.023 A 
ATOM     53  C   UNL A   1      42.176  29.493  29.854  1.00  0.00     0.012 A 
ATOM     54  C   UNL A   1      43.116  31.726  29.702  1.00  0.00     0.148 A 
ATOM     55  C   UNL A   1      42.744  29.167  28.621  1.00  0.00     0.002 A 
ATOM     56  C   UNL A   1      43.630  31.414  28.448  1.00  0.00     0.091 A 
ATOM     57  F   UNL A   1      43.312  32.929  30.259  1.00  0.00    -0.205 F 
ATOM     58  C   UNL A   1      43.463  30.128  27.914  1.00  0.00     0.022 A 
BRANCH  56  59
ATOM     59  S   UNL A   1      44.460  32.630  27.418  1.00  0.00     0.127 S 
ATOM     60  O   UNL A   1      45.762  32.738  28.076  1.00  0.00    -0.237 OA
ATOM     61  O   UNL A   1      44.485  31.960  26.116  1.00  0.00    -0.237 OA
ATOM     62  O   UNL A   1      43.627  33.820  27.464  1.00  0.00    -0.744 OA
ENDBRANCH  56  59
ENDBRANCH  28  52
BRANCH  40  63
ATOM     63  C   UNL A   1      44.972  31.229  36.892  1.00  0.00     0.023 A 
ATOM     64  C   UNL A   1      45.892  32.290  36.962  1.00  0.00     0.012 A 
ATOM     65  C   UNL A   1      45.294  29.980  37.453  1.00  0.00     0.148 A 
ATOM     66  C   UNL A   1      47.131  32.104  37.569  1.00  0.00     0.002 A 
ATOM     67  C   UNL A   1      46.505  29.819  38.108  1.00  0.00     0.091 A 
ATOM     68  F   UNL A   1      44.399  28.986  37.358  1.00  0.00    -0.205 F 
ATOM     69  C   UNL A   1      47.430  30.875  38.157  1.00  0.00     0.022 A 
BRANCH  67  70
ATOM     70  S   UNL A   1      46.923  28.316  38.995  1.00  0.00     0.127 S 
ATOM     71  O   UNL A   1      46.987  27.339  37.909  1.00  0.00    -0.237 OA
ATOM     72  O   UNL A   1      48.216  28.658  39.587  1.00  0.00    -0.237 OA
ATOM     73  O   UNL A   1      45.852  28.101  39.958  1.00  0.00    -0.744 OA
ENDBRANCH  67  70
ENDBRANCH  40  63
ENDBRANCH  14  15
ENDBRANCH   7   9
ENDBRANCH   6   7
ENDBRANCH   5   6
ENDBRANCH   4   5
ENDBRANCH   3   4
ENDBRANCH   2   3
ENDBRANCH   1   2
BRANCH   1  74
ATOM     74  O   UNL A   1      35.255  31.219  27.357  1.00  0.00    -0.377 OA
BRANCH  74  75
ATOM     75  C   UNL A   1      34.032  30.553  27.633  1.00  0.00     0.188 C 
BRANCH  75  76
ATOM     76  C   UNL A   1      33.008  30.337  26.503  1.00  0.00     0.188 C 
BRANCH  76  77
ATOM     77  O   UNL A   1      32.024  29.375  26.830  1.00  0.00    -0.376 OA
BRANCH  77  78
ATOM     78  C   UNL A   1      32.548  28.099  27.163  1.00  0.00     0.202 C 
BRANCH  78  79
ATOM     79  C   UNL A   1      33.569  27.500  26.181  1.00  0.00     0.261 C 
BRANCH  79  80
ATOM     80  O   UNL A   1      33.879  26.080  26.231  1.00  0.00    -0.463 OA
BRANCH  80  81
ATOM     81  C   UNL A   1      33.838  25.255  25.142  1.00  0.00     0.317 C 
ATOM     82  O   UNL A   1      34.787  25.151  24.376  1.00  0.00    -0.251 OA
BRANCH  81  83
ATOM     83  C   UNL A   1      32.384  24.514  24.973  1.00  0.00     0.098 C 
ATOM     84  C   UNL A   1      31.765  24.273  26.401  1.00  0.00     0.024 C 
ATOM     85  C   UNL A   1      31.531  25.570  24.202  1.00  0.00    -0.027 A 
ATOM     86  C   UNL A   1      30.250  24.328  26.537  1.00  0.00     0.006 C 
ATOM     87  C   UNL A   1      30.293  26.043  24.658  1.00  0.00    -0.044 A 
ATOM     88  C   UNL A   1      32.020  26.056  22.964  1.00  0.00     0.005 A 
ATOM     89  C   UNL A   1      29.670  25.603  25.953  1.00  0.00     0.036 C 
ATOM     90  C   UNL A   1      29.618  27.019  23.900  1.00  0.00     0.004 A 
ATOM     91  C   UNL A   1      31.348  27.021  22.230  1.00  0.00     0.000 A 
ATOM     92  C   UNL A   1      30.144  27.509  22.704  1.00  0.00     0.000 A 
BRANCH  83  93
ATOM     93  C   UNL A   1      32.332  23.210  23.994  1.00  0.00     0.040 C 
ATOM     94  C   UNL A   1      31.917  21.890  24.702  1.00  0.00     0.008 C 
ATOM     95  C   UNL A   1      33.468  22.594  23.153  1.00  0.00     0.119 C 
ATOM     96  C   UNL A   1      33.210  21.096  24.978  1.00  0.00     0.003 C 
ATOM     97  C   UNL A   1      34.281  21.730  24.101  1.00  0.00     0.032 C 
BRANCH  95  98
ATOM     98  O   UNL A   1      34.200  23.461  22.345  1.00  0.00    -0.393 OA
ATOM     99  H   UNL A   1      33.787  24.340  22.356  1.00  0.00     0.210 HD
ENDBRANCH  95  98
ENDBRANCH  83  93
ENDBRANCH  81  83
ENDBRANCH  80  81
ENDBRANCH  79  80
ENDBRANCH  78  79
ENDBRANCH  77  78
ENDBRANCH  76  77
ENDBRANCH  75  76
ENDBRANCH  74  75
ENDBRANCH   1  74
TORSDOF 25
ENDMDL
