MODEL 1
REMARK VINA RESULT:     -10.9      0.000      0.000
REMARK SMILES Cc1cccc2c1N=CN1C2=[NH+]NC(=O)[C@@H]1CC(=O)OCCOCCOCCOCCOC(=O)c1ccc(-c2c3nc(c(-c4cccc(S(=O)(=O)[O-])c4F)c4ccc([nH]4)c(-c4cccc(S(=O)(=O)[O-])c4F)c4nc(c(-c5cccc(S(=O)(=O)[O-])c5F)c5ccc2[nH]5)C=C4)C=C3)cc1
REMARK SMILES IDX 27 1 26 2 25 3 24 4 23 5 22 6 21 7 20 8 18 9 19 10 17 11
REMARK SMILES IDX 16 12 1 13 2 14 3 15 7 16 4 17 6 18 8 19 5 20 11 21 9 22
REMARK SMILES IDX 10 23 12 24 13 25 14 27 15 29 28 30 29 31 30 32 31 33 32 34
REMARK SMILES IDX 33 35 34 36 35 37 36 38 97 39 37 40 96 41 38 42 39 43 40 44
REMARK SMILES IDX 90 45 41 46 95 47 89 48 91 49 42 50 94 51 88 52 87 53 43 55
REMARK SMILES IDX 75 56 55 57 74 58 56 59 59 60 73 61 92 62 57 63 58 64 72 66
REMARK SMILES IDX 93 67 60 68 44 69 45 70 53 71 46 72 48 73 54 74 47 75 49 76
REMARK SMILES IDX 50 77 51 78 52 79 76 80 77 81 85 82 78 83 80 84 86 85 79 86
REMARK SMILES IDX 81 87 82 88 83 89 84 90 61 91 62 92 70 93 63 94 65 95 71 96
REMARK SMILES IDX 64 97 66 98 67 99 68 100 69 101
REMARK H PARENT 12 26 13 28 91 54 59 65
REMARK Flexibility Score: inf
ROOT
ATOM      1  C   UNL A   1      35.735  23.657  25.727  1.00  0.00     0.188 C 
ENDROOT
BRANCH   1   2
ATOM      2  O   UNL A   1      34.649  24.558  25.835  1.00  0.00    -0.377 OA
BRANCH   2   3
ATOM      3  C   UNL A   1      34.397  25.571  24.890  1.00  0.00     0.188 C 
BRANCH   3   4
ATOM      4  C   UNL A   1      33.760  26.806  25.537  1.00  0.00     0.188 C 
BRANCH   4   5
ATOM      5  O   UNL A   1      33.399  27.885  24.684  1.00  0.00    -0.376 OA
BRANCH   5   6
ATOM      6  C   UNL A   1      32.223  28.633  25.003  1.00  0.00     0.202 C 
BRANCH   6   7
ATOM      7  C   UNL A   1      30.904  28.340  24.240  1.00  0.00     0.261 C 
BRANCH   7   8
ATOM      8  O   UNL A   1      30.866  27.077  23.510  1.00  0.00    -0.463 OA
BRANCH   8   9
ATOM      9  C   UNL A   1      29.926  26.184  23.874  1.00  0.00     0.310 C 
ATOM     10  O   UNL A   1      28.745  26.486  24.047  1.00  0.00    -0.252 OA
BRANCH   9  11
ATOM     11  C   UNL A   1      30.312  24.712  23.845  1.00  0.00     0.183 C 
BRANCH  11  12
ATOM     12  C   UNL A   1      31.342  23.952  24.686  1.00  0.00     0.286 C 
ATOM     13  C   UNL A   1      32.373  18.246  21.854  1.00  0.00     0.047 C 
ATOM     14  C   UNL A   1      32.506  18.682  23.283  1.00  0.00    -0.024 A 
ATOM     15  C   UNL A   1      32.701  17.718  24.291  1.00  0.00     0.006 A 
ATOM     16  C   UNL A   1      32.409  20.034  23.625  1.00  0.00     0.085 A 
ATOM     17  C   UNL A   1      32.781  18.077  25.634  1.00  0.00     0.001 A 
ATOM     18  C   UNL A   1      32.511  20.373  24.984  1.00  0.00     0.092 A 
ATOM     19  N   UNL A   1      32.143  20.997  22.620  1.00  0.00    -0.215 NA
ATOM     20  C   UNL A   1      32.705  19.414  25.986  1.00  0.00     0.019 A 
ATOM     21  C   UNL A   1      32.214  21.778  25.352  1.00  0.00     0.309 C 
ATOM     22  C   UNL A   1      31.782  22.167  23.028  1.00  0.00     0.317 C 
ATOM     23  N   UNL A   1      31.684  22.574  24.338  1.00  0.00    -0.202 N 
ATOM     24  N   UNL A   1      32.440  22.130  26.583  1.00  0.00    -0.169 N 
ATOM     25  N   UNL A   1      31.998  23.339  26.977  1.00  0.00    -0.193 N 
ATOM     26  H   UNL A   1      32.918  21.535  27.205  1.00  0.00     0.340 HD
ATOM     27  C   UNL A   1      31.239  24.178  26.201  1.00  0.00     0.300 C 
ATOM     28  H   UNL A   1      32.237  23.642  27.884  1.00  0.00     0.216 HD
ATOM     29  O   UNL A   1      30.685  25.144  26.722  1.00  0.00    -0.267 OA
ENDBRANCH  11  12
ENDBRANCH   9  11
ENDBRANCH   8   9
ENDBRANCH   7   8
ENDBRANCH   6   7
ENDBRANCH   5   6
ENDBRANCH   4   5
ENDBRANCH   3   4
ENDBRANCH   2   3
ENDBRANCH   1   2
BRANCH   1  30
ATOM     30  C   UNL A   1      36.119  23.127  24.343  1.00  0.00     0.188 C 
BRANCH  30  31
ATOM     31  O   UNL A   1      35.779  21.761  24.152  1.00  0.00    -0.376 OA
BRANCH  31  32
ATOM     32  C   UNL A   1      36.106  20.842  25.184  1.00  0.00     0.202 C 
BRANCH  32  33
ATOM     33  C   UNL A   1      37.458  20.124  25.062  1.00  0.00     0.261 C 
BRANCH  33  34
ATOM     34  O   UNL A   1      38.632  20.954  25.112  1.00  0.00    -0.460 OA
BRANCH  34  35
ATOM     35  C   UNL A   1      39.590  20.666  26.013  1.00  0.00     0.338 C 
ATOM     36  O   UNL A   1      40.134  19.590  26.200  1.00  0.00    -0.246 OA
BRANCH  35  37
ATOM     37  C   UNL A   1      39.990  21.926  26.662  1.00  0.00     0.060 A 
ATOM     38  C   UNL A   1      39.399  23.128  26.253  1.00  0.00     0.016 A 
ATOM     39  C   UNL A   1      40.993  21.919  27.630  1.00  0.00     0.016 A 
ATOM     40  C   UNL A   1      39.835  24.338  26.792  1.00  0.00     0.010 A 
ATOM     41  C   UNL A   1      41.444  23.135  28.152  1.00  0.00     0.010 A 
ATOM     42  C   UNL A   1      40.893  24.352  27.708  1.00  0.00    -0.014 A 
BRANCH  42  43
ATOM     43  C   UNL A   1      41.590  25.626  28.003  1.00  0.00     0.031 A 
ATOM     44  C   UNL A   1      40.792  26.725  28.654  1.00  0.00     0.074 A 
ATOM     45  C   UNL A   1      42.893  25.816  27.726  1.00  0.00     0.049 A 
ATOM     46  N   UNL A   1      41.166  27.936  28.970  1.00  0.00    -0.248 NA
ATOM     47  C   UNL A   1      39.397  26.413  29.017  1.00  0.00     0.031 C 
ATOM     48  C   UNL A   1      43.801  24.820  27.163  1.00  0.00     0.029 A 
ATOM     49  N   UNL A   1      43.668  26.945  27.845  1.00  0.00    -0.354 N 
ATOM     50  C   UNL A   1      40.064  28.523  29.578  1.00  0.00     0.074 A 
ATOM     51  C   UNL A   1      38.992  27.555  29.554  1.00  0.00     0.031 C 
ATOM     52  C   UNL A   1      44.985  25.407  26.905  1.00  0.00     0.029 A 
ATOM     53  C   UNL A   1      44.912  26.818  27.272  1.00  0.00     0.049 A 
ATOM     54  H   UNL A   1      43.363  27.765  28.296  1.00  0.00     0.167 HD
ATOM     55  C   UNL A   1      39.967  29.744  30.145  1.00  0.00     0.034 A 
ATOM     56  C   UNL A   1      45.864  27.743  27.038  1.00  0.00     0.034 A 
ATOM     57  C   UNL A   1      41.036  30.698  30.200  1.00  0.00     0.049 A 
ATOM     58  C   UNL A   1      45.685  29.143  27.561  1.00  0.00     0.074 A 
ATOM     59  C   UNL A   1      41.044  31.933  30.823  1.00  0.00     0.029 A 
ATOM     60  N   UNL A   1      42.271  30.535  29.602  1.00  0.00    -0.354 N 
ATOM     61  N   UNL A   1      44.684  29.640  28.244  1.00  0.00    -0.248 NA
ATOM     62  C   UNL A   1      46.787  30.092  27.336  1.00  0.00     0.031 C 
ATOM     63  C   UNL A   1      42.281  32.531  30.578  1.00  0.00     0.029 A 
ATOM     64  C   UNL A   1      43.044  31.659  29.818  1.00  0.00     0.049 A 
ATOM     65  H   UNL A   1      42.555  29.740  29.097  1.00  0.00     0.167 HD
ATOM     66  C   UNL A   1      45.057  30.936  28.578  1.00  0.00     0.074 A 
ATOM     67  C   UNL A   1      46.369  31.158  28.010  1.00  0.00     0.031 C 
ATOM     68  C   UNL A   1      44.371  31.854  29.300  1.00  0.00     0.034 A 
BRANCH  55  69
ATOM     69  C   UNL A   1      38.680  30.111  30.819  1.00  0.00     0.023 A 
ATOM     70  C   UNL A   1      38.513  29.804  32.184  1.00  0.00     0.012 A 
ATOM     71  C   UNL A   1      37.707  30.870  30.146  1.00  0.00     0.148 A 
ATOM     72  C   UNL A   1      37.392  30.257  32.875  1.00  0.00     0.002 A 
ATOM     73  C   UNL A   1      36.606  31.342  30.847  1.00  0.00     0.091 A 
ATOM     74  F   UNL A   1      37.892  31.133  28.845  1.00  0.00    -0.205 F 
ATOM     75  C   UNL A   1      36.447  31.036  32.210  1.00  0.00     0.022 A 
BRANCH  73  76
ATOM     76  S   UNL A   1      35.357  32.393  30.102  1.00  0.00     0.127 S 
ATOM     77  O   UNL A   1      36.129  33.598  29.798  1.00  0.00    -0.237 OA
ATOM     78  O   UNL A   1      34.961  31.610  28.933  1.00  0.00    -0.237 OA
ATOM     79  O   UNL A   1      34.321  32.568  31.109  1.00  0.00    -0.744 OA
ENDBRANCH  73  76
ENDBRANCH  55  69
BRANCH  56  80
ATOM     80  C   UNL A   1      47.094  27.381  26.281  1.00  0.00     0.023 A 
ATOM     81  C   UNL A   1      48.170  26.771  26.948  1.00  0.00     0.012 A 
ATOM     82  C   UNL A   1      47.202  27.658  24.905  1.00  0.00     0.148 A 
ATOM     83  C   UNL A   1      49.340  26.447  26.256  1.00  0.00     0.002 A 
ATOM     84  C   UNL A   1      48.360  27.311  24.215  1.00  0.00     0.091 A 
ATOM     85  F   UNL A   1      46.170  28.262  24.299  1.00  0.00    -0.205 F 
ATOM     86  C   UNL A   1      49.431  26.707  24.891  1.00  0.00     0.022 A 
BRANCH  84  87
ATOM     87  S   UNL A   1      48.548  27.549  22.443  1.00  0.00     0.127 S 
ATOM     88  O   UNL A   1      49.817  28.270  22.371  1.00  0.00    -0.237 OA
ATOM     89  O   UNL A   1      48.597  26.170  21.960  1.00  0.00    -0.237 OA
ATOM     90  O   UNL A   1      47.372  28.298  22.024  1.00  0.00    -0.744 OA
ENDBRANCH  84  87
ENDBRANCH  56  80
BRANCH  68  91
ATOM     91  C   UNL A   1      45.010  33.187  29.571  1.00  0.00     0.023 A 
ATOM     92  C   UNL A   1      44.848  34.232  28.644  1.00  0.00     0.012 A 
ATOM     93  C   UNL A   1      45.612  33.445  30.819  1.00  0.00     0.148 A 
ATOM     94  C   UNL A   1      45.275  35.522  28.957  1.00  0.00     0.002 A 
ATOM     95  C   UNL A   1      46.003  34.739  31.138  1.00  0.00     0.091 A 
ATOM     96  F   UNL A   1      45.750  32.429  31.683  1.00  0.00    -0.205 F 
ATOM     97  C   UNL A   1      45.838  35.779  30.207  1.00  0.00     0.022 A 
BRANCH  95  98
ATOM     98  S   UNL A   1      46.659  35.187  32.748  1.00  0.00     0.127 S 
ATOM     99  O   UNL A   1      45.576  34.768  33.638  1.00  0.00    -0.237 OA
ATOM    100  O   UNL A   1      47.867  34.367  32.828  1.00  0.00    -0.237 OA
ATOM    101  O   UNL A   1      46.898  36.624  32.705  1.00  0.00    -0.744 OA
ENDBRANCH  95  98
ENDBRANCH  68  91
ENDBRANCH  42  43
ENDBRANCH  35  37
ENDBRANCH  34  35
ENDBRANCH  33  34
ENDBRANCH  32  33
ENDBRANCH  31  32
ENDBRANCH  30  31
ENDBRANCH   1  30
TORSDOF 24
ENDMDL
MODEL 2
REMARK VINA RESULT:     -10.8      1.788      7.427
REMARK SMILES Cc1cccc2c1N=CN1C2=[NH+]NC(=O)[C@@H]1CC(=O)OCCOCCOCCOCCOC(=O)c1ccc(-c2c3nc(c(-c4cccc(S(=O)(=O)[O-])c4F)c4ccc([nH]4)c(-c4cccc(S(=O)(=O)[O-])c4F)c4nc(c(-c5cccc(S(=O)(=O)[O-])c5F)c5ccc2[nH]5)C=C4)C=C3)cc1
REMARK SMILES IDX 27 1 26 2 25 3 24 4 23 5 22 6 21 7 20 8 18 9 19 10 17 11
REMARK SMILES IDX 16 12 1 13 2 14 3 15 7 16 4 17 6 18 8 19 5 20 11 21 9 22
REMARK SMILES IDX 10 23 12 24 13 25 14 27 15 29 28 30 29 31 30 32 31 33 32 34
REMARK SMILES IDX 33 35 34 36 35 37 36 38 97 39 37 40 96 41 38 42 39 43 40 44
REMARK SMILES IDX 90 45 41 46 95 47 89 48 91 49 42 50 94 51 88 52 87 53 43 55
REMARK SMILES IDX 75 56 55 57 74 58 56 59 59 60 73 61 92 62 57 63 58 64 72 66
REMARK SMILES IDX 93 67 60 68 44 69 45 70 53 71 46 72 48 73 54 74 47 75 49 76
REMARK SMILES IDX 50 77 51 78 52 79 76 80 77 81 85 82 78 83 80 84 86 85 79 86
REMARK SMILES IDX 81 87 82 88 83 89 84 90 61 91 62 92 70 93 63 94 65 95 71 96
REMARK SMILES IDX 64 97 66 98 67 99 68 100 69 101
REMARK H PARENT 12 26 13 28 91 54 59 65
REMARK Flexibility Score: inf
ROOT
ATOM      1  C   UNL A   1      36.022  21.845  25.367  1.00  0.00     0.188 C 
ENDROOT
BRANCH   1   2
ATOM      2  O   UNL A   1      35.057  22.638  24.701  1.00  0.00    -0.377 OA
BRANCH   2   3
ATOM      3  C   UNL A   1      35.318  23.303  23.487  1.00  0.00     0.188 C 
BRANCH   3   4
ATOM      4  C   UNL A   1      34.600  24.655  23.413  1.00  0.00     0.188 C 
BRANCH   4   5
ATOM      5  O   UNL A   1      33.677  24.854  22.349  1.00  0.00    -0.376 OA
BRANCH   5   6
ATOM      6  C   UNL A   1      33.390  26.196  21.948  1.00  0.00     0.202 C 
BRANCH   6   7
ATOM      7  C   UNL A   1      32.252  26.977  22.658  1.00  0.00     0.261 C 
BRANCH   7   8
ATOM      8  O   UNL A   1      30.965  26.291  22.724  1.00  0.00    -0.463 OA
BRANCH   8   9
ATOM      9  C   UNL A   1      30.521  25.931  23.944  1.00  0.00     0.310 C 
ATOM     10  O   UNL A   1      29.981  26.720  24.720  1.00  0.00    -0.252 OA
BRANCH   9  11
ATOM     11  C   UNL A   1      30.491  24.444  24.265  1.00  0.00     0.183 C 
BRANCH  11  12
ATOM     12  C   UNL A   1      31.524  23.576  24.989  1.00  0.00     0.286 C 
ATOM     13  C   UNL A   1      32.258  18.138  21.594  1.00  0.00     0.047 C 
ATOM     14  C   UNL A   1      32.456  18.431  23.051  1.00  0.00    -0.024 A 
ATOM     15  C   UNL A   1      32.655  17.370  23.955  1.00  0.00     0.006 A 
ATOM     16  C   UNL A   1      32.418  19.747  23.523  1.00  0.00     0.085 A 
ATOM     17  C   UNL A   1      32.796  17.597  25.322  1.00  0.00     0.001 A 
ATOM     18  C   UNL A   1      32.581  19.951  24.903  1.00  0.00     0.092 A 
ATOM     19  N   UNL A   1      32.149  20.810  22.624  1.00  0.00    -0.215 NA
ATOM     20  C   UNL A   1      32.778  18.896  25.801  1.00  0.00     0.019 A 
ATOM     21  C   UNL A   1      32.345  21.323  25.413  1.00  0.00     0.309 C 
ATOM     22  C   UNL A   1      31.842  21.946  23.155  1.00  0.00     0.317 C 
ATOM     23  N   UNL A   1      31.806  22.228  24.500  1.00  0.00    -0.202 N 
ATOM     24  N   UNL A   1      32.627  21.549  26.662  1.00  0.00    -0.169 N 
ATOM     25  N   UNL A   1      32.241  22.727  27.185  1.00  0.00    -0.193 N 
ATOM     26  H   UNL A   1      33.106  20.883  27.205  1.00  0.00     0.340 HD
ATOM     27  C   UNL A   1      31.483  23.659  26.522  1.00  0.00     0.300 C 
ATOM     28  H   UNL A   1      32.522  22.935  28.107  1.00  0.00     0.216 HD
ATOM     29  O   UNL A   1      30.981  24.587  27.154  1.00  0.00    -0.267 OA
ENDBRANCH  11  12
ENDBRANCH   9  11
ENDBRANCH   8   9
ENDBRANCH   7   8
ENDBRANCH   6   7
ENDBRANCH   5   6
ENDBRANCH   4   5
ENDBRANCH   3   4
ENDBRANCH   2   3
ENDBRANCH   1   2
BRANCH   1  30
ATOM     30  C   UNL A   1      37.431  21.746  24.776  1.00  0.00     0.188 C 
BRANCH  30  31
ATOM     31  O   UNL A   1      37.772  20.432  24.358  1.00  0.00    -0.376 OA
BRANCH  31  32
ATOM     32  C   UNL A   1      38.169  19.499  25.352  1.00  0.00     0.202 C 
BRANCH  32  33
ATOM     33  C   UNL A   1      39.674  19.395  25.638  1.00  0.00     0.261 C 
BRANCH  33  34
ATOM     34  O   UNL A   1      40.354  20.625  25.950  1.00  0.00    -0.460 OA
BRANCH  34  35
ATOM     35  C   UNL A   1      41.135  20.671  27.047  1.00  0.00     0.338 C 
ATOM     36  O   UNL A   1      41.802  19.768  27.523  1.00  0.00    -0.246 OA
BRANCH  35  37
ATOM     37  C   UNL A   1      41.166  22.067  27.516  1.00  0.00     0.060 A 
ATOM     38  C   UNL A   1      40.387  23.030  26.863  1.00  0.00     0.016 A 
ATOM     39  C   UNL A   1      42.014  22.427  28.562  1.00  0.00     0.016 A 
ATOM     40  C   UNL A   1      40.479  24.371  27.235  1.00  0.00     0.010 A 
ATOM     41  C   UNL A   1      42.122  23.775  28.918  1.00  0.00     0.010 A 
ATOM     42  C   UNL A   1      41.384  24.757  28.232  1.00  0.00    -0.014 A 
BRANCH  42  43
ATOM     43  C   UNL A   1      41.745  26.186  28.379  1.00  0.00     0.031 A 
ATOM     44  C   UNL A   1      43.137  26.601  27.983  1.00  0.00     0.074 A 
ATOM     45  C   UNL A   1      40.873  27.106  28.832  1.00  0.00     0.049 A 
ATOM     46  N   UNL A   1      43.698  27.779  28.059  1.00  0.00    -0.248 NA
ATOM     47  C   UNL A   1      44.005  25.559  27.404  1.00  0.00     0.031 C 
ATOM     48  C   UNL A   1      39.477  26.861  29.185  1.00  0.00     0.029 A 
ATOM     49  N   UNL A   1      41.060  28.439  29.115  1.00  0.00    -0.354 N 
ATOM     50  C   UNL A   1      44.971  27.623  27.529  1.00  0.00     0.074 A 
ATOM     51  C   UNL A   1      45.123  26.232  27.169  1.00  0.00     0.031 C 
ATOM     52  C   UNL A   1      38.960  27.983  29.719  1.00  0.00     0.029 A 
ATOM     53  C   UNL A   1      39.990  29.018  29.756  1.00  0.00     0.049 A 
ATOM     54  H   UNL A   1      41.881  28.931  28.883  1.00  0.00     0.167 HD
ATOM     55  C   UNL A   1      45.916  28.564  27.319  1.00  0.00     0.034 A 
ATOM     56  C   UNL A   1      39.870  30.228  30.338  1.00  0.00     0.034 A 
ATOM     57  C   UNL A   1      45.762  29.952  27.644  1.00  0.00     0.049 A 
ATOM     58  C   UNL A   1      40.989  31.227  30.212  1.00  0.00     0.074 A 
ATOM     59  C   UNL A   1      46.645  30.988  27.397  1.00  0.00     0.029 A 
ATOM     60  N   UNL A   1      44.672  30.492  28.299  1.00  0.00    -0.354 N 
ATOM     61  N   UNL A   1      42.137  31.097  29.594  1.00  0.00    -0.248 NA
ATOM     62  C   UNL A   1      40.776  32.556  30.807  1.00  0.00     0.031 C 
ATOM     63  C   UNL A   1      46.096  32.157  27.927  1.00  0.00     0.029 A 
ATOM     64  C   UNL A   1      44.868  31.847  28.488  1.00  0.00     0.049 A 
ATOM     65  H   UNL A   1      43.877  29.989  28.588  1.00  0.00     0.167 HD
ATOM     66  C   UNL A   1      42.757  32.338  29.678  1.00  0.00     0.074 A 
ATOM     67  C   UNL A   1      41.867  33.205  30.419  1.00  0.00     0.031 C 
ATOM     68  C   UNL A   1      43.955  32.720  29.175  1.00  0.00     0.034 A 
BRANCH  55  69
ATOM     69  C   UNL A   1      47.190  28.151  26.644  1.00  0.00     0.023 A 
ATOM     70  C   UNL A   1      48.252  27.668  27.432  1.00  0.00     0.012 A 
ATOM     71  C   UNL A   1      47.281  28.115  25.242  1.00  0.00     0.148 A 
ATOM     72  C   UNL A   1      49.392  27.144  26.829  1.00  0.00     0.002 A 
ATOM     73  C   UNL A   1      48.408  27.565  24.647  1.00  0.00     0.091 A 
ATOM     74  F   UNL A   1      46.255  28.593  24.524  1.00  0.00    -0.205 F 
ATOM     75  C   UNL A   1      49.464  27.081  25.438  1.00  0.00     0.022 A 
BRANCH  73  76
ATOM     76  S   UNL A   1      48.580  27.389  22.870  1.00  0.00     0.127 S 
ATOM     77  O   UNL A   1      49.931  27.908  22.652  1.00  0.00    -0.237 OA
ATOM     78  O   UNL A   1      48.446  25.944  22.694  1.00  0.00    -0.237 OA
ATOM     79  O   UNL A   1      47.516  28.186  22.279  1.00  0.00    -0.744 OA
ENDBRANCH  73  76
ENDBRANCH  55  69
BRANCH  56  80
ATOM     80  C   UNL A   1      38.633  30.583  31.086  1.00  0.00     0.023 A 
ATOM     81  C   UNL A   1      38.490  30.185  32.427  1.00  0.00     0.012 A 
ATOM     82  C   UNL A   1      37.593  31.299  30.463  1.00  0.00     0.148 A 
ATOM     83  C   UNL A   1      37.325  30.490  33.135  1.00  0.00     0.002 A 
ATOM     84  C   UNL A   1      36.445  31.621  31.181  1.00  0.00     0.091 A 
ATOM     85  F   UNL A   1      37.746  31.644  29.177  1.00  0.00    -0.205 F 
ATOM     86  C   UNL A   1      36.309  31.215  32.517  1.00  0.00     0.022 A 
BRANCH  84  87
ATOM     87  S   UNL A   1      35.108  32.605  30.490  1.00  0.00     0.127 S 
ATOM     88  O   UNL A   1      34.194  32.706  31.626  1.00  0.00    -0.237 OA
ATOM     89  O   UNL A   1      35.799  33.847  30.145  1.00  0.00    -0.237 OA
ATOM     90  O   UNL A   1      34.616  31.846  29.349  1.00  0.00    -0.744 OA
ENDBRANCH  84  87
ENDBRANCH  56  80
BRANCH  68  91
ATOM     91  C   UNL A   1      44.395  34.145  29.355  1.00  0.00     0.023 A 
ATOM     92  C   UNL A   1      45.417  34.442  30.274  1.00  0.00     0.012 A 
ATOM     93  C   UNL A   1      43.918  35.151  28.490  1.00  0.00     0.148 A 
ATOM     94  C   UNL A   1      45.965  35.723  30.328  1.00  0.00     0.002 A 
ATOM     95  C   UNL A   1      44.492  36.416  28.526  1.00  0.00     0.091 A 
ATOM     96  F   UNL A   1      42.943  34.838  27.624  1.00  0.00    -0.205 F 
ATOM     97  C   UNL A   1      45.514  36.704  29.446  1.00  0.00     0.022 A 
BRANCH  95  98
ATOM     98  S   UNL A   1      44.039  37.720  27.377  1.00  0.00     0.127 S 
ATOM     99  O   UNL A   1      43.623  38.787  28.288  1.00  0.00    -0.237 OA
ATOM    100  O   UNL A   1      45.300  37.969  26.681  1.00  0.00    -0.237 OA
ATOM    101  O   UNL A   1      42.976  37.176  26.542  1.00  0.00    -0.744 OA
ENDBRANCH  95  98
ENDBRANCH  68  91
ENDBRANCH  42  43
ENDBRANCH  35  37
ENDBRANCH  34  35
ENDBRANCH  33  34
ENDBRANCH  32  33
ENDBRANCH  31  32
ENDBRANCH  30  31
ENDBRANCH   1  30
TORSDOF 24
ENDMDL
MODEL 3
REMARK VINA RESULT:     -10.8      1.820      2.089
REMARK SMILES Cc1cccc2c1N=CN1C2=[NH+]NC(=O)[C@@H]1CC(=O)OCCOCCOCCOCCOC(=O)c1ccc(-c2c3nc(c(-c4cccc(S(=O)(=O)[O-])c4F)c4ccc([nH]4)c(-c4cccc(S(=O)(=O)[O-])c4F)c4nc(c(-c5cccc(S(=O)(=O)[O-])c5F)c5ccc2[nH]5)C=C4)C=C3)cc1
REMARK SMILES IDX 27 1 26 2 25 3 24 4 23 5 22 6 21 7 20 8 18 9 19 10 17 11
REMARK SMILES IDX 16 12 1 13 2 14 3 15 7 16 4 17 6 18 8 19 5 20 11 21 9 22
REMARK SMILES IDX 10 23 12 24 13 25 14 27 15 29 28 30 29 31 30 32 31 33 32 34
REMARK SMILES IDX 33 35 34 36 35 37 36 38 97 39 37 40 96 41 38 42 39 43 40 44
REMARK SMILES IDX 90 45 41 46 95 47 89 48 91 49 42 50 94 51 88 52 87 53 43 55
REMARK SMILES IDX 75 56 55 57 74 58 56 59 59 60 73 61 92 62 57 63 58 64 72 66
REMARK SMILES IDX 93 67 60 68 44 69 45 70 53 71 46 72 48 73 54 74 47 75 49 76
REMARK SMILES IDX 50 77 51 78 52 79 76 80 77 81 85 82 78 83 80 84 86 85 79 86
REMARK SMILES IDX 81 87 82 88 83 89 84 90 61 91 62 92 70 93 63 94 65 95 71 96
REMARK SMILES IDX 64 97 66 98 67 99 68 100 69 101
REMARK H PARENT 12 26 13 28 91 54 59 65
REMARK Flexibility Score: inf
ROOT
ATOM      1  C   UNL A   1      35.872  23.707  25.673  1.00  0.00     0.188 C 
ENDROOT
BRANCH   1   2
ATOM      2  O   UNL A   1      34.717  24.523  25.741  1.00  0.00    -0.377 OA
BRANCH   2   3
ATOM      3  C   UNL A   1      34.254  25.286  24.651  1.00  0.00     0.188 C 
BRANCH   3   4
ATOM      4  C   UNL A   1      33.822  26.692  25.084  1.00  0.00     0.188 C 
BRANCH   4   5
ATOM      5  O   UNL A   1      33.386  27.589  24.071  1.00  0.00    -0.376 OA
BRANCH   5   6
ATOM      6  C   UNL A   1      32.356  28.526  24.396  1.00  0.00     0.202 C 
BRANCH   6   7
ATOM      7  C   UNL A   1      30.915  28.285  23.876  1.00  0.00     0.261 C 
BRANCH   7   8
ATOM      8  O   UNL A   1      30.688  26.998  23.224  1.00  0.00    -0.463 OA
BRANCH   8   9
ATOM      9  C   UNL A   1      29.806  26.162  23.805  1.00  0.00     0.310 C 
ATOM     10  O   UNL A   1      28.671  26.509  24.136  1.00  0.00    -0.252 OA
BRANCH   9  11
ATOM     11  C   UNL A   1      30.162  24.683  23.836  1.00  0.00     0.183 C 
BRANCH  11  12
ATOM     12  C   UNL A   1      31.252  23.954  24.629  1.00  0.00     0.286 C 
ATOM     13  C   UNL A   1      32.337  18.290  21.734  1.00  0.00     0.047 C 
ATOM     14  C   UNL A   1      32.518  18.727  23.157  1.00  0.00    -0.024 A 
ATOM     15  C   UNL A   1      32.788  17.767  24.151  1.00  0.00     0.006 A 
ATOM     16  C   UNL A   1      32.394  20.074  23.508  1.00  0.00     0.085 A 
ATOM     17  C   UNL A   1      32.915  18.126  25.491  1.00  0.00     0.001 A 
ATOM     18  C   UNL A   1      32.545  20.413  24.862  1.00  0.00     0.092 A 
ATOM     19  N   UNL A   1      32.054  21.031  22.519  1.00  0.00    -0.215 NA
ATOM     20  C   UNL A   1      32.812  19.459  25.851  1.00  0.00     0.019 A 
ATOM     21  C   UNL A   1      32.219  21.807  25.248  1.00  0.00     0.309 C 
ATOM     22  C   UNL A   1      31.674  22.188  22.946  1.00  0.00     0.317 C 
ATOM     23  N   UNL A   1      31.621  22.588  24.261  1.00  0.00    -0.202 N 
ATOM     24  N   UNL A   1      32.488  22.164  26.469  1.00  0.00    -0.169 N 
ATOM     25  N   UNL A   1      32.026  23.356  26.887  1.00  0.00    -0.193 N 
ATOM     26  H   UNL A   1      33.011  21.582  27.067  1.00  0.00     0.340 HD
ATOM     27  C   UNL A   1      31.207  24.173  26.148  1.00  0.00     0.300 C 
ATOM     28  H   UNL A   1      32.294  23.665  27.784  1.00  0.00     0.216 HD
ATOM     29  O   UNL A   1      30.646  25.120  26.696  1.00  0.00    -0.267 OA
ENDBRANCH  11  12
ENDBRANCH   9  11
ENDBRANCH   8   9
ENDBRANCH   7   8
ENDBRANCH   6   7
ENDBRANCH   5   6
ENDBRANCH   4   5
ENDBRANCH   3   4
ENDBRANCH   2   3
ENDBRANCH   1   2
BRANCH   1  30
ATOM     30  C   UNL A   1      36.406  23.296  24.299  1.00  0.00     0.188 C 
BRANCH  30  31
ATOM     31  O   UNL A   1      36.143  21.937  23.979  1.00  0.00    -0.376 OA
BRANCH  31  32
ATOM     32  C   UNL A   1      36.286  20.971  25.010  1.00  0.00     0.202 C 
BRANCH  32  33
ATOM     33  C   UNL A   1      37.621  20.216  25.065  1.00  0.00     0.261 C 
BRANCH  33  34
ATOM     34  O   UNL A   1      38.809  21.020  25.190  1.00  0.00    -0.460 OA
BRANCH  34  35
ATOM     35  C   UNL A   1      39.664  20.758  26.196  1.00  0.00     0.338 C 
ATOM     36  O   UNL A   1      40.154  19.682  26.494  1.00  0.00    -0.246 OA
BRANCH  35  37
ATOM     37  C   UNL A   1      40.034  22.042  26.816  1.00  0.00     0.060 A 
ATOM     38  C   UNL A   1      39.443  23.225  26.353  1.00  0.00     0.016 A 
ATOM     39  C   UNL A   1      41.010  22.076  27.811  1.00  0.00     0.016 A 
ATOM     40  C   UNL A   1      39.854  24.456  26.864  1.00  0.00     0.010 A 
ATOM     41  C   UNL A   1      41.436  23.312  28.305  1.00  0.00     0.010 A 
ATOM     42  C   UNL A   1      40.887  24.509  27.807  1.00  0.00    -0.014 A 
BRANCH  42  43
ATOM     43  C   UNL A   1      41.563  25.798  28.081  1.00  0.00     0.031 A 
ATOM     44  C   UNL A   1      40.740  26.908  28.680  1.00  0.00     0.074 A 
ATOM     45  C   UNL A   1      42.870  25.994  27.827  1.00  0.00     0.049 A 
ATOM     46  N   UNL A   1      41.094  28.131  28.969  1.00  0.00    -0.248 NA
ATOM     47  C   UNL A   1      39.340  26.592  29.021  1.00  0.00     0.031 C 
ATOM     48  C   UNL A   1      43.801  24.992  27.315  1.00  0.00     0.029 A 
ATOM     49  N   UNL A   1      43.631  27.135  27.931  1.00  0.00    -0.354 N 
ATOM     50  C   UNL A   1      39.973  28.724  29.534  1.00  0.00     0.074 A 
ATOM     51  C   UNL A   1      38.911  27.744  29.515  1.00  0.00     0.031 C 
ATOM     52  C   UNL A   1      44.985  25.583  27.066  1.00  0.00     0.029 A 
ATOM     53  C   UNL A   1      44.889  27.004  27.389  1.00  0.00     0.049 A 
ATOM     54  H   UNL A   1      43.308  27.965  28.350  1.00  0.00     0.167 HD
ATOM     55  C   UNL A   1      39.850  29.960  30.063  1.00  0.00     0.034 A 
ATOM     56  C   UNL A   1      45.837  27.932  27.149  1.00  0.00     0.034 A 
ATOM     57  C   UNL A   1      40.908  30.926  30.114  1.00  0.00     0.049 A 
ATOM     58  C   UNL A   1      45.632  29.345  27.627  1.00  0.00     0.074 A 
ATOM     59  C   UNL A   1      40.889  32.179  30.699  1.00  0.00     0.029 A 
ATOM     60  N   UNL A   1      42.158  30.759  29.548  1.00  0.00    -0.354 N 
ATOM     61  N   UNL A   1      44.610  29.851  28.273  1.00  0.00    -0.248 NA
ATOM     62  C   UNL A   1      46.729  30.299  27.398  1.00  0.00     0.031 C 
ATOM     63  C   UNL A   1      42.126  32.783  30.465  1.00  0.00     0.029 A 
ATOM     64  C   UNL A   1      42.914  31.898  29.748  1.00  0.00     0.049 A 
ATOM     65  H   UNL A   1      42.462  29.953  29.073  1.00  0.00     0.167 HD
ATOM     66  C   UNL A   1      44.963  31.160  28.576  1.00  0.00     0.074 A 
ATOM     67  C   UNL A   1      46.285  31.379  28.031  1.00  0.00     0.031 C 
ATOM     68  C   UNL A   1      44.251  32.092  29.255  1.00  0.00     0.034 A 
BRANCH  55  69
ATOM     69  C   UNL A   1      38.544  30.333  30.697  1.00  0.00     0.023 A 
ATOM     70  C   UNL A   1      38.343  30.047  32.061  1.00  0.00     0.012 A 
ATOM     71  C   UNL A   1      37.587  31.078  29.986  1.00  0.00     0.148 A 
ATOM     72  C   UNL A   1      37.202  30.506  32.714  1.00  0.00     0.002 A 
ATOM     73  C   UNL A   1      36.467  31.557  30.650  1.00  0.00     0.091 A 
ATOM     74  F   UNL A   1      37.806  31.322  28.686  1.00  0.00    -0.205 F 
ATOM     75  C   UNL A   1      36.272  31.271  32.013  1.00  0.00     0.022 A 
BRANCH  73  76
ATOM     76  S   UNL A   1      35.235  32.592  29.855  1.00  0.00     0.127 S 
ATOM     77  O   UNL A   1      36.073  33.594  29.196  1.00  0.00    -0.237 OA
ATOM     78  O   UNL A   1      34.586  31.647  28.948  1.00  0.00    -0.237 OA
ATOM     79  O   UNL A   1      34.390  33.106  30.922  1.00  0.00    -0.744 OA
ENDBRANCH  73  76
ENDBRANCH  55  69
BRANCH  56  80
ATOM     80  C   UNL A   1      47.088  27.561  26.432  1.00  0.00     0.023 A 
ATOM     81  C   UNL A   1      47.166  27.721  25.038  1.00  0.00     0.012 A 
ATOM     82  C   UNL A   1      48.190  27.033  27.130  1.00  0.00     0.148 A 
ATOM     83  C   UNL A   1      48.324  27.355  24.347  1.00  0.00     0.002 A 
ATOM     84  C   UNL A   1      49.350  26.693  26.440  1.00  0.00     0.091 A 
ATOM     85  F   UNL A   1      48.079  26.868  28.455  1.00  0.00    -0.205 F 
ATOM     86  C   UNL A   1      49.417  26.851  25.048  1.00  0.00     0.022 A 
BRANCH  84  87
ATOM     87  S   UNL A   1      50.833  26.094  27.262  1.00  0.00     0.127 S 
ATOM     88  O   UNL A   1      50.479  24.705  27.543  1.00  0.00    -0.237 OA
ATOM     89  O   UNL A   1      51.844  26.271  26.220  1.00  0.00    -0.237 OA
ATOM     90  O   UNL A   1      51.005  26.950  28.427  1.00  0.00    -0.744 OA
ENDBRANCH  84  87
ENDBRANCH  56  80
BRANCH  68  91
ATOM     91  C   UNL A   1      44.870  33.438  29.501  1.00  0.00     0.023 A 
ATOM     92  C   UNL A   1      45.679  33.631  30.635  1.00  0.00     0.012 A 
ATOM     93  C   UNL A   1      44.792  34.446  28.518  1.00  0.00     0.148 A 
ATOM     94  C   UNL A   1      46.406  34.810  30.789  1.00  0.00     0.002 A 
ATOM     95  C   UNL A   1      45.546  35.604  28.660  1.00  0.00     0.091 A 
ATOM     96  F   UNL A   1      44.014  34.233  27.447  1.00  0.00    -0.205 F 
ATOM     97  C   UNL A   1      46.352  35.788  29.796  1.00  0.00     0.022 A 
BRANCH  95  98
ATOM     98  S   UNL A   1      45.609  36.883  27.402  1.00  0.00     0.127 S 
ATOM     99  O   UNL A   1      46.238  36.174  26.287  1.00  0.00    -0.237 OA
ATOM    100  O   UNL A   1      44.193  37.194  27.207  1.00  0.00    -0.237 OA
ATOM    101  O   UNL A   1      46.402  37.969  27.964  1.00  0.00    -0.744 OA
ENDBRANCH  95  98
ENDBRANCH  68  91
ENDBRANCH  42  43
ENDBRANCH  35  37
ENDBRANCH  34  35
ENDBRANCH  33  34
ENDBRANCH  32  33
ENDBRANCH  31  32
ENDBRANCH  30  31
ENDBRANCH   1  30
TORSDOF 24
ENDMDL
