MODEL 1
REMARK VINA RESULT:     -10.0      0.000      0.000
REMARK SMILES C=C(C)C[C@@]1(C(=O)OCCOCCOCCOCCOC(=O)c2ccc(-c3c4nc(c(-c5cccc(S(=O)(=O)[O-])c5F)c5ccc([nH]5)c(-c5cccc(S(=O)(=O)[O-])c5F)c5nc(c(-c6cccc(S(=O)(=O)[O-])c6F)c6ccc3[nH]6)C=C5)C=C4)cc2)COc2ccccc2C1
REMARK SMILES IDX 15 1 14 2 13 3 12 4 11 5 10 6 9 7 8 8 6 9 7 10 5 11 86 12
REMARK SMILES IDX 94 13 87 14 93 15 88 16 92 17 89 18 91 19 90 20 4 21 2 22
REMARK SMILES IDX 1 23 3 24 16 25 17 26 18 27 19 28 20 29 21 30 22 31 23 32
REMARK SMILES IDX 24 33 85 34 25 35 84 36 26 37 27 38 28 39 78 40 29 41 83 42
REMARK SMILES IDX 77 43 79 44 30 45 82 46 76 47 75 48 31 50 63 51 43 52 62 53
REMARK SMILES IDX 44 54 47 55 61 56 80 57 45 58 46 59 60 61 81 62 48 63 32 64
REMARK SMILES IDX 33 65 41 66 34 67 36 68 42 69 35 70 37 71 38 72 39 73 40 74
REMARK SMILES IDX 64 75 65 76 73 77 66 78 68 79 74 80 67 81 69 82 70 83 71 84
REMARK SMILES IDX 72 85 49 86 50 87 58 88 51 89 53 90 59 91 52 92 54 93 55 94
REMARK SMILES IDX 56 95 57 96
REMARK H PARENT 79 49 47 60
REMARK Flexibility Score: inf
ROOT
ATOM      1  C   UNL A   1      34.697  19.112  24.899  1.00  0.00     0.188 C 
ENDROOT
BRANCH   1   2
ATOM      2  O   UNL A   1      33.580  19.362  24.071  1.00  0.00    -0.377 OA
BRANCH   2   3
ATOM      3  C   UNL A   1      32.446  19.993  24.617  1.00  0.00     0.188 C 
BRANCH   3   4
ATOM      4  C   UNL A   1      32.549  21.487  24.923  1.00  0.00     0.188 C 
BRANCH   4   5
ATOM      5  O   UNL A   1      32.568  21.904  26.270  1.00  0.00    -0.376 OA
BRANCH   5   6
ATOM      6  C   UNL A   1      31.870  23.055  26.709  1.00  0.00     0.202 C 
BRANCH   6   7
ATOM      7  C   UNL A   1      30.587  23.663  26.097  1.00  0.00     0.261 C 
BRANCH   7   8
ATOM      8  O   UNL A   1      30.644  24.838  25.273  1.00  0.00    -0.463 OA
BRANCH   8   9
ATOM      9  C   UNL A   1      30.900  24.636  23.961  1.00  0.00     0.316 C 
ATOM     10  O   UNL A   1      30.348  23.755  23.304  1.00  0.00    -0.251 OA
BRANCH   9  11
ATOM     11  C   UNL A   1      32.019  25.522  23.369  1.00  0.00     0.110 C 
ATOM     12  C   UNL A   1      32.737  24.991  22.100  1.00  0.00     0.249 C 
ATOM     13  C   UNL A   1      33.052  25.775  24.496  1.00  0.00     0.062 C 
ATOM     14  O   UNL A   1      33.903  24.164  22.211  1.00  0.00    -0.492 OA
ATOM     15  C   UNL A   1      34.247  24.869  24.498  1.00  0.00    -0.005 A 
ATOM     16  C   UNL A   1      34.643  24.204  23.349  1.00  0.00     0.122 A 
ATOM     17  C   UNL A   1      35.026  24.729  25.660  1.00  0.00     0.007 A 
ATOM     18  C   UNL A   1      35.805  23.424  23.343  1.00  0.00     0.047 A 
ATOM     19  C   UNL A   1      36.175  23.936  25.663  1.00  0.00     0.001 A 
ATOM     20  C   UNL A   1      36.572  23.288  24.498  1.00  0.00     0.004 A 
BRANCH  11  21
ATOM     21  C   UNL A   1      31.232  26.864  23.093  1.00  0.00     0.052 C 
BRANCH  21  22
ATOM     22  C   UNL A   1      31.877  28.167  23.511  1.00  0.00    -0.079 C 
ATOM     23  C   UNL A   1      31.439  28.846  24.584  1.00  0.00     0.007 C 
ATOM     24  C   UNL A   1      33.010  28.665  22.657  1.00  0.00     0.039 C 
ENDBRANCH  21  22
ENDBRANCH  11  21
ENDBRANCH   9  11
ENDBRANCH   8   9
ENDBRANCH   7   8
ENDBRANCH   6   7
ENDBRANCH   5   6
ENDBRANCH   4   5
ENDBRANCH   3   4
ENDBRANCH   2   3
ENDBRANCH   1   2
BRANCH   1  25
ATOM     25  C   UNL A   1      35.888  20.087  24.932  1.00  0.00     0.188 C 
BRANCH  25  26
ATOM     26  O   UNL A   1      37.170  19.506  24.762  1.00  0.00    -0.376 OA
BRANCH  26  27
ATOM     27  C   UNL A   1      38.316  20.148  25.296  1.00  0.00     0.202 C 
BRANCH  27  28
ATOM     28  C   UNL A   1      39.520  19.290  25.712  1.00  0.00     0.261 C 
BRANCH  28  29
ATOM     29  O   UNL A   1      40.372  19.835  26.721  1.00  0.00    -0.460 OA
BRANCH  29  30
ATOM     30  C   UNL A   1      41.564  20.338  26.327  1.00  0.00     0.338 C 
ATOM     31  O   UNL A   1      42.384  19.814  25.611  1.00  0.00    -0.246 OA
BRANCH  30  32
ATOM     32  C   UNL A   1      41.598  21.745  26.779  1.00  0.00     0.060 A 
ATOM     33  C   UNL A   1      41.188  22.748  25.894  1.00  0.00     0.016 A 
ATOM     34  C   UNL A   1      41.996  22.056  28.081  1.00  0.00     0.016 A 
ATOM     35  C   UNL A   1      41.210  24.080  26.300  1.00  0.00     0.010 A 
ATOM     36  C   UNL A   1      42.044  23.392  28.479  1.00  0.00     0.010 A 
ATOM     37  C   UNL A   1      41.689  24.408  27.574  1.00  0.00    -0.014 A 
BRANCH  37  38
ATOM     38  C   UNL A   1      42.053  25.811  27.866  1.00  0.00     0.031 A 
ATOM     39  C   UNL A   1      43.434  26.265  27.486  1.00  0.00     0.074 A 
ATOM     40  C   UNL A   1      41.179  26.660  28.431  1.00  0.00     0.049 A 
ATOM     41  N   UNL A   1      44.001  27.430  27.650  1.00  0.00    -0.248 NA
ATOM     42  C   UNL A   1      44.296  25.264  26.831  1.00  0.00     0.031 C 
ATOM     43  C   UNL A   1      39.807  26.333  28.813  1.00  0.00     0.029 A 
ATOM     44  N   UNL A   1      41.329  27.973  28.795  1.00  0.00    -0.354 N 
ATOM     45  C   UNL A   1      45.287  27.296  27.145  1.00  0.00     0.074 A 
ATOM     46  C   UNL A   1      45.428  25.933  26.687  1.00  0.00     0.031 C 
ATOM     47  C   UNL A   1      39.244  27.416  29.378  1.00  0.00     0.029 A 
ATOM     48  C   UNL A   1      40.226  28.499  29.424  1.00  0.00     0.049 A 
ATOM     49  H   UNL A   1      42.149  28.491  28.623  1.00  0.00     0.167 HD
ATOM     50  C   UNL A   1      46.263  28.230  27.055  1.00  0.00     0.034 A 
ATOM     51  C   UNL A   1      40.045  29.710  29.986  1.00  0.00     0.034 A 
ATOM     52  C   UNL A   1      46.115  29.582  27.517  1.00  0.00     0.049 A 
ATOM     53  C   UNL A   1      41.168  30.715  29.929  1.00  0.00     0.074 A 
ATOM     54  C   UNL A   1      47.029  30.617  27.458  1.00  0.00     0.029 A 
ATOM     55  N   UNL A   1      44.981  30.081  28.140  1.00  0.00    -0.354 N 
ATOM     56  N   UNL A   1      42.349  30.607  29.368  1.00  0.00    -0.248 NA
ATOM     57  C   UNL A   1      40.921  32.021  30.557  1.00  0.00     0.031 C 
ATOM     58  C   UNL A   1      46.462  31.732  28.084  1.00  0.00     0.029 A 
ATOM     59  C   UNL A   1      45.176  31.406  28.486  1.00  0.00     0.049 A 
ATOM     60  H   UNL A   1      44.158  29.568  28.312  1.00  0.00     0.167 HD
ATOM     61  C   UNL A   1      42.967  31.843  29.533  1.00  0.00     0.074 A 
ATOM     62  C   UNL A   1      42.023  32.687  30.237  1.00  0.00     0.031 C 
ATOM     63  C   UNL A   1      44.204  32.243  29.145  1.00  0.00     0.034 A 
BRANCH  50  64
ATOM     64  C   UNL A   1      47.569  27.808  26.436  1.00  0.00     0.023 A 
ATOM     65  C   UNL A   1      48.648  27.424  27.260  1.00  0.00     0.012 A 
ATOM     66  C   UNL A   1      47.728  27.777  25.037  1.00  0.00     0.148 A 
ATOM     67  C   UNL A   1      49.876  27.064  26.705  1.00  0.00     0.002 A 
ATOM     68  C   UNL A   1      48.937  27.366  24.490  1.00  0.00     0.091 A 
ATOM     69  F   UNL A   1      46.701  28.169  24.268  1.00  0.00    -0.205 F 
ATOM     70  C   UNL A   1      50.016  27.026  25.321  1.00  0.00     0.022 A 
BRANCH  68  71
ATOM     71  S   UNL A   1      49.194  27.208  22.719  1.00  0.00     0.127 S 
ATOM     72  O   UNL A   1      50.635  26.969  22.649  1.00  0.00    -0.237 OA
ATOM     73  O   UNL A   1      48.365  26.047  22.393  1.00  0.00    -0.237 OA
ATOM     74  O   UNL A   1      48.740  28.462  22.133  1.00  0.00    -0.744 OA
ENDBRANCH  68  71
ENDBRANCH  50  64
BRANCH  51  75
ATOM     75  C   UNL A   1      38.741  30.056  30.620  1.00  0.00     0.023 A 
ATOM     76  C   UNL A   1      38.478  29.634  31.938  1.00  0.00     0.012 A 
ATOM     77  C   UNL A   1      37.767  30.804  29.932  1.00  0.00     0.148 A 
ATOM     78  C   UNL A   1      37.255  29.923  32.546  1.00  0.00     0.002 A 
ATOM     79  C   UNL A   1      36.573  31.135  30.563  1.00  0.00     0.091 A 
ATOM     80  F   UNL A   1      38.031  31.185  28.674  1.00  0.00    -0.205 F 
ATOM     81  C   UNL A   1      36.308  30.680  31.863  1.00  0.00     0.022 A 
BRANCH  79  82
ATOM     82  S   UNL A   1      35.343  32.206  29.809  1.00  0.00     0.127 S 
ATOM     83  O   UNL A   1      34.837  31.365  28.727  1.00  0.00    -0.237 OA
ATOM     84  O   UNL A   1      34.409  32.413  30.917  1.00  0.00    -0.237 OA
ATOM     85  O   UNL A   1      36.060  33.402  29.392  1.00  0.00    -0.744 OA
ENDBRANCH  79  82
ENDBRANCH  51  75
BRANCH  63  86
ATOM     86  C   UNL A   1      44.595  33.673  29.416  1.00  0.00     0.023 A 
ATOM     87  C   UNL A   1      45.126  34.038  30.670  1.00  0.00     0.012 A 
ATOM     88  C   UNL A   1      44.507  34.640  28.394  1.00  0.00     0.148 A 
ATOM     89  C   UNL A   1      45.526  35.351  30.913  1.00  0.00     0.002 A 
ATOM     90  C   UNL A   1      44.961  35.932  28.627  1.00  0.00     0.091 A 
ATOM     91  F   UNL A   1      43.986  34.276  27.214  1.00  0.00    -0.205 F 
ATOM     92  C   UNL A   1      45.456  36.294  29.890  1.00  0.00     0.022 A 
BRANCH  90  93
ATOM     93  S   UNL A   1      45.005  37.184  27.339  1.00  0.00     0.127 S 
ATOM     94  O   UNL A   1      43.605  37.227  26.918  1.00  0.00    -0.237 OA
ATOM     95  O   UNL A   1      45.459  38.365  28.073  1.00  0.00    -0.237 OA
ATOM     96  O   UNL A   1      45.943  36.698  26.336  1.00  0.00    -0.744 OA
ENDBRANCH  90  93
ENDBRANCH  63  86
ENDBRANCH  37  38
ENDBRANCH  30  32
ENDBRANCH  29  30
ENDBRANCH  28  29
ENDBRANCH  27  28
ENDBRANCH  26  27
ENDBRANCH  25  26
ENDBRANCH   1  25
TORSDOF 25
ENDMDL
MODEL 2
REMARK VINA RESULT:      -9.9      1.258      2.826
REMARK SMILES C=C(C)C[C@@]1(C(=O)OCCOCCOCCOCCOC(=O)c2ccc(-c3c4nc(c(-c5cccc(S(=O)(=O)[O-])c5F)c5ccc([nH]5)c(-c5cccc(S(=O)(=O)[O-])c5F)c5nc(c(-c6cccc(S(=O)(=O)[O-])c6F)c6ccc3[nH]6)C=C5)C=C4)cc2)COc2ccccc2C1
REMARK SMILES IDX 15 1 14 2 13 3 12 4 11 5 10 6 9 7 8 8 6 9 7 10 5 11 86 12
REMARK SMILES IDX 94 13 87 14 93 15 88 16 92 17 89 18 91 19 90 20 4 21 2 22
REMARK SMILES IDX 1 23 3 24 16 25 17 26 18 27 19 28 20 29 21 30 22 31 23 32
REMARK SMILES IDX 24 33 85 34 25 35 84 36 26 37 27 38 28 39 78 40 29 41 83 42
REMARK SMILES IDX 77 43 79 44 30 45 82 46 76 47 75 48 31 50 63 51 43 52 62 53
REMARK SMILES IDX 44 54 47 55 61 56 80 57 45 58 46 59 60 61 81 62 48 63 32 64
REMARK SMILES IDX 33 65 41 66 34 67 36 68 42 69 35 70 37 71 38 72 39 73 40 74
REMARK SMILES IDX 64 75 65 76 73 77 66 78 68 79 74 80 67 81 69 82 70 83 71 84
REMARK SMILES IDX 72 85 49 86 50 87 58 88 51 89 53 90 59 91 52 92 54 93 55 94
REMARK SMILES IDX 56 95 57 96
REMARK H PARENT 79 49 47 60
REMARK Flexibility Score: inf
ROOT
ATOM      1  C   UNL A   1      35.897  22.823  25.407  1.00  0.00     0.188 C 
ENDROOT
BRANCH   1   2
ATOM      2  O   UNL A   1      34.918  21.896  24.983  1.00  0.00    -0.377 OA
BRANCH   2   3
ATOM      3  C   UNL A   1      33.561  22.161  25.243  1.00  0.00     0.188 C 
BRANCH   3   4
ATOM      4  C   UNL A   1      32.524  21.471  24.356  1.00  0.00     0.188 C 
BRANCH   4   5
ATOM      5  O   UNL A   1      31.825  22.241  23.404  1.00  0.00    -0.376 OA
BRANCH   5   6
ATOM      6  C   UNL A   1      32.168  23.586  23.127  1.00  0.00     0.202 C 
BRANCH   6   7
ATOM      7  C   UNL A   1      31.214  24.729  22.709  1.00  0.00     0.261 C 
BRANCH   7   8
ATOM      8  O   UNL A   1      31.654  25.778  21.834  1.00  0.00    -0.463 OA
BRANCH   8   9
ATOM      9  C   UNL A   1      32.665  26.552  22.289  1.00  0.00     0.316 C 
ATOM     10  O   UNL A   1      33.824  26.431  21.894  1.00  0.00    -0.251 OA
BRANCH   9  11
ATOM     11  C   UNL A   1      32.281  27.528  23.423  1.00  0.00     0.110 C 
ATOM     12  C   UNL A   1      31.161  27.069  24.394  1.00  0.00     0.249 C 
ATOM     13  C   UNL A   1      31.891  28.874  22.763  1.00  0.00     0.062 C 
ATOM     14  O   UNL A   1      29.786  27.367  24.119  1.00  0.00    -0.492 OA
ATOM     15  C   UNL A   1      30.423  29.092  22.549  1.00  0.00    -0.005 A 
ATOM     16  C   UNL A   1      29.480  28.401  23.294  1.00  0.00     0.122 A 
ATOM     17  C   UNL A   1      29.979  30.053  21.625  1.00  0.00     0.007 A 
ATOM     18  C   UNL A   1      28.116  28.671  23.140  1.00  0.00     0.047 A 
ATOM     19  C   UNL A   1      28.617  30.311  21.455  1.00  0.00     0.001 A 
ATOM     20  C   UNL A   1      27.682  29.624  22.221  1.00  0.00     0.004 A 
BRANCH  11  21
ATOM     21  C   UNL A   1      33.670  27.706  24.156  1.00  0.00     0.052 C 
BRANCH  21  22
ATOM     22  C   UNL A   1      33.804  27.180  25.567  1.00  0.00    -0.079 C 
ATOM     23  C   UNL A   1      33.917  25.863  25.811  1.00  0.00     0.007 C 
ATOM     24  C   UNL A   1      33.784  28.198  26.674  1.00  0.00     0.039 C 
ENDBRANCH  21  22
ENDBRANCH  11  21
ENDBRANCH   9  11
ENDBRANCH   8   9
ENDBRANCH   7   8
ENDBRANCH   6   7
ENDBRANCH   5   6
ENDBRANCH   4   5
ENDBRANCH   3   4
ENDBRANCH   2   3
ENDBRANCH   1   2
BRANCH   1  25
ATOM     25  C   UNL A   1      37.388  22.593  25.098  1.00  0.00     0.188 C 
BRANCH  25  26
ATOM     26  O   UNL A   1      38.016  21.546  25.819  1.00  0.00    -0.376 OA
BRANCH  26  27
ATOM     27  C   UNL A   1      38.126  20.255  25.243  1.00  0.00     0.202 C 
BRANCH  27  28
ATOM     28  C   UNL A   1      39.426  19.463  25.442  1.00  0.00     0.261 C 
BRANCH  28  29
ATOM     29  O   UNL A   1      40.234  19.836  26.560  1.00  0.00    -0.460 OA
BRANCH  29  30
ATOM     30  C   UNL A   1      41.487  20.278  26.305  1.00  0.00     0.338 C 
ATOM     31  O   UNL A   1      42.355  19.711  25.684  1.00  0.00    -0.246 OA
BRANCH  30  32
ATOM     32  C   UNL A   1      41.541  21.681  26.764  1.00  0.00     0.060 A 
ATOM     33  C   UNL A   1      41.097  22.691  25.901  1.00  0.00     0.016 A 
ATOM     34  C   UNL A   1      41.989  21.985  28.051  1.00  0.00     0.016 A 
ATOM     35  C   UNL A   1      41.137  24.020  26.313  1.00  0.00     0.010 A 
ATOM     36  C   UNL A   1      42.054  23.318  28.454  1.00  0.00     0.010 A 
ATOM     37  C   UNL A   1      41.666  24.340  27.569  1.00  0.00    -0.014 A 
BRANCH  37  38
ATOM     38  C   UNL A   1      42.043  25.741  27.855  1.00  0.00     0.031 A 
ATOM     39  C   UNL A   1      43.423  26.185  27.458  1.00  0.00     0.074 A 
ATOM     40  C   UNL A   1      41.182  26.597  28.429  1.00  0.00     0.049 A 
ATOM     41  N   UNL A   1      43.999  27.346  27.613  1.00  0.00    -0.248 NA
ATOM     42  C   UNL A   1      44.269  25.178  26.794  1.00  0.00     0.031 C 
ATOM     43  C   UNL A   1      39.812  26.280  28.828  1.00  0.00     0.029 A 
ATOM     44  N   UNL A   1      41.345  27.910  28.789  1.00  0.00    -0.354 N 
ATOM     45  C   UNL A   1      45.279  27.203  27.093  1.00  0.00     0.074 A 
ATOM     46  C   UNL A   1      45.404  25.838  26.635  1.00  0.00     0.031 C 
ATOM     47  C   UNL A   1      39.264  27.368  29.398  1.00  0.00     0.029 A 
ATOM     48  C   UNL A   1      40.253  28.444  29.430  1.00  0.00     0.049 A 
ATOM     49  H   UNL A   1      42.167  28.421  28.606  1.00  0.00     0.167 HD
ATOM     50  C   UNL A   1      46.260  28.130  26.990  1.00  0.00     0.034 A 
ATOM     51  C   UNL A   1      40.087  29.657  29.992  1.00  0.00     0.034 A 
ATOM     52  C   UNL A   1      46.126  29.484  27.452  1.00  0.00     0.049 A 
ATOM     53  C   UNL A   1      41.216  30.654  29.920  1.00  0.00     0.074 A 
ATOM     54  C   UNL A   1      47.047  30.512  27.381  1.00  0.00     0.029 A 
ATOM     55  N   UNL A   1      45.003  29.992  28.088  1.00  0.00    -0.354 N 
ATOM     56  N   UNL A   1      42.390  30.537  29.346  1.00  0.00    -0.248 NA
ATOM     57  C   UNL A   1      40.985  31.963  30.549  1.00  0.00     0.031 C 
ATOM     58  C   UNL A   1      46.495  31.632  28.012  1.00  0.00     0.029 A 
ATOM     59  C   UNL A   1      45.211  31.316  28.430  1.00  0.00     0.049 A 
ATOM     60  H   UNL A   1      44.179  29.484  28.270  1.00  0.00     0.167 HD
ATOM     61  C   UNL A   1      43.018  31.769  29.502  1.00  0.00     0.074 A 
ATOM     62  C   UNL A   1      42.089  32.621  30.215  1.00  0.00     0.031 C 
ATOM     63  C   UNL A   1      44.253  32.160  29.098  1.00  0.00     0.034 A 
BRANCH  50  64
ATOM     64  C   UNL A   1      47.556  27.698  26.356  1.00  0.00     0.023 A 
ATOM     65  C   UNL A   1      48.628  27.269  27.167  1.00  0.00     0.012 A 
ATOM     66  C   UNL A   1      47.711  27.703  24.957  1.00  0.00     0.148 A 
ATOM     67  C   UNL A   1      49.847  26.898  26.599  1.00  0.00     0.002 A 
ATOM     68  C   UNL A   1      48.910  27.283  24.395  1.00  0.00     0.091 A 
ATOM     69  F   UNL A   1      46.692  28.138  24.202  1.00  0.00    -0.205 F 
ATOM     70  C   UNL A   1      49.984  26.896  25.214  1.00  0.00     0.022 A 
BRANCH  68  71
ATOM     71  S   UNL A   1      49.160  27.169  22.620  1.00  0.00     0.127 S 
ATOM     72  O   UNL A   1      48.383  25.975  22.288  1.00  0.00    -0.237 OA
ATOM     73  O   UNL A   1      48.580  28.427  22.149  1.00  0.00    -0.237 OA
ATOM     74  O   UNL A   1      50.599  27.052  22.424  1.00  0.00    -0.744 OA
ENDBRANCH  68  71
ENDBRANCH  50  64
BRANCH  51  75
ATOM     75  C   UNL A   1      38.793  30.012  30.641  1.00  0.00     0.023 A 
ATOM     76  C   UNL A   1      38.536  29.581  31.957  1.00  0.00     0.012 A 
ATOM     77  C   UNL A   1      37.822  30.779  29.969  1.00  0.00     0.148 A 
ATOM     78  C   UNL A   1      37.322  29.879  32.579  1.00  0.00     0.002 A 
ATOM     79  C   UNL A   1      36.638  31.119  30.614  1.00  0.00     0.091 A 
ATOM     80  F   UNL A   1      38.080  31.169  28.713  1.00  0.00    -0.205 F 
ATOM     81  C   UNL A   1      36.379  30.655  31.912  1.00  0.00     0.022 A 
BRANCH  79  82
ATOM     82  S   UNL A   1      35.415  32.212  29.881  1.00  0.00     0.127 S 
ATOM     83  O   UNL A   1      36.226  33.375  29.529  1.00  0.00    -0.237 OA
ATOM     84  O   UNL A   1      34.949  31.418  28.744  1.00  0.00    -0.237 OA
ATOM     85  O   UNL A   1      34.412  32.434  30.913  1.00  0.00    -0.744 OA
ENDBRANCH  79  82
ENDBRANCH  51  75
BRANCH  63  86
ATOM     86  C   UNL A   1      44.657  33.588  29.363  1.00  0.00     0.023 A 
ATOM     87  C   UNL A   1      45.215  33.948  30.606  1.00  0.00     0.012 A 
ATOM     88  C   UNL A   1      44.554  34.556  28.344  1.00  0.00     0.148 A 
ATOM     89  C   UNL A   1      45.627  35.259  30.842  1.00  0.00     0.002 A 
ATOM     90  C   UNL A   1      45.019  35.846  28.568  1.00  0.00     0.091 A 
ATOM     91  F   UNL A   1      44.007  34.196  27.174  1.00  0.00    -0.205 F 
ATOM     92  C   UNL A   1      45.541  36.204  29.821  1.00  0.00     0.022 A 
BRANCH  90  93
ATOM     93  S   UNL A   1      45.044  37.098  27.281  1.00  0.00     0.127 S 
ATOM     94  O   UNL A   1      43.628  37.188  26.925  1.00  0.00    -0.237 OA
ATOM     95  O   UNL A   1      45.570  38.262  27.994  1.00  0.00    -0.237 OA
ATOM     96  O   UNL A   1      45.918  36.584  26.234  1.00  0.00    -0.744 OA
ENDBRANCH  90  93
ENDBRANCH  63  86
ENDBRANCH  37  38
ENDBRANCH  30  32
ENDBRANCH  29  30
ENDBRANCH  28  29
ENDBRANCH  27  28
ENDBRANCH  26  27
ENDBRANCH  25  26
ENDBRANCH   1  25
TORSDOF 25
ENDMDL
MODEL 3
REMARK VINA RESULT:      -9.3      2.252      8.258
REMARK SMILES C=C(C)C[C@@]1(C(=O)OCCOCCOCCOCCOC(=O)c2ccc(-c3c4nc(c(-c5cccc(S(=O)(=O)[O-])c5F)c5ccc([nH]5)c(-c5cccc(S(=O)(=O)[O-])c5F)c5nc(c(-c6cccc(S(=O)(=O)[O-])c6F)c6ccc3[nH]6)C=C5)C=C4)cc2)COc2ccccc2C1
REMARK SMILES IDX 15 1 14 2 13 3 12 4 11 5 10 6 9 7 8 8 6 9 7 10 5 11 86 12
REMARK SMILES IDX 94 13 87 14 93 15 88 16 92 17 89 18 91 19 90 20 4 21 2 22
REMARK SMILES IDX 1 23 3 24 16 25 17 26 18 27 19 28 20 29 21 30 22 31 23 32
REMARK SMILES IDX 24 33 85 34 25 35 84 36 26 37 27 38 28 39 78 40 29 41 83 42
REMARK SMILES IDX 77 43 79 44 30 45 82 46 76 47 75 48 31 50 63 51 43 52 62 53
REMARK SMILES IDX 44 54 47 55 61 56 80 57 45 58 46 59 60 61 81 62 48 63 32 64
REMARK SMILES IDX 33 65 41 66 34 67 36 68 42 69 35 70 37 71 38 72 39 73 40 74
REMARK SMILES IDX 64 75 65 76 73 77 66 78 68 79 74 80 67 81 69 82 70 83 71 84
REMARK SMILES IDX 72 85 49 86 50 87 58 88 51 89 53 90 59 91 52 92 54 93 55 94
REMARK SMILES IDX 56 95 57 96
REMARK H PARENT 79 49 47 60
REMARK Flexibility Score: inf
ROOT
ATOM      1  C   UNL A   1      37.282  23.173  24.549  1.00  0.00     0.188 C 
ENDROOT
BRANCH   1   2
ATOM      2  O   UNL A   1      35.969  23.554  24.192  1.00  0.00    -0.377 OA
BRANCH   2   3
ATOM      3  C   UNL A   1      34.876  22.904  24.795  1.00  0.00     0.188 C 
BRANCH   3   4
ATOM      4  C   UNL A   1      33.673  22.577  23.910  1.00  0.00     0.188 C 
BRANCH   4   5
ATOM      5  O   UNL A   1      32.714  23.582  23.668  1.00  0.00    -0.376 OA
BRANCH   5   6
ATOM      6  C   UNL A   1      32.877  24.544  22.643  1.00  0.00     0.202 C 
BRANCH   6   7
ATOM      7  C   UNL A   1      33.507  25.951  22.770  1.00  0.00     0.261 C 
BRANCH   7   8
ATOM      8  O   UNL A   1      32.829  27.114  22.271  1.00  0.00    -0.463 OA
BRANCH   8   9
ATOM      9  C   UNL A   1      32.681  28.139  23.140  1.00  0.00     0.316 C 
ATOM     10  O   UNL A   1      33.455  29.094  23.180  1.00  0.00    -0.251 OA
BRANCH   9  11
ATOM     11  C   UNL A   1      31.529  27.972  24.156  1.00  0.00     0.110 C 
ATOM     12  C   UNL A   1      30.319  27.110  23.710  1.00  0.00     0.249 C 
ATOM     13  C   UNL A   1      31.052  29.392  24.551  1.00  0.00     0.062 C 
ATOM     14  O   UNL A   1      29.201  27.709  23.040  1.00  0.00    -0.492 OA
ATOM     15  C   UNL A   1      29.856  29.907  23.806  1.00  0.00    -0.005 A 
ATOM     16  C   UNL A   1      28.971  29.039  23.186  1.00  0.00     0.122 A 
ATOM     17  C   UNL A   1      29.580  31.285  23.779  1.00  0.00     0.007 A 
ATOM     18  C   UNL A   1      27.818  29.526  22.562  1.00  0.00     0.047 A 
ATOM     19  C   UNL A   1      28.439  31.775  23.140  1.00  0.00     0.001 A 
ATOM     20  C   UNL A   1      27.550  30.893  22.536  1.00  0.00     0.004 A 
BRANCH  11  21
ATOM     21  C   UNL A   1      32.295  27.336  25.383  1.00  0.00     0.052 C 
BRANCH  21  22
ATOM     22  C   UNL A   1      32.431  28.161  26.644  1.00  0.00    -0.079 C 
ATOM     23  C   UNL A   1      31.514  28.091  27.623  1.00  0.00     0.007 C 
ATOM     24  C   UNL A   1      33.626  29.069  26.732  1.00  0.00     0.039 C 
ENDBRANCH  21  22
ENDBRANCH  11  21
ENDBRANCH   9  11
ENDBRANCH   8   9
ENDBRANCH   7   8
ENDBRANCH   6   7
ENDBRANCH   5   6
ENDBRANCH   4   5
ENDBRANCH   3   4
ENDBRANCH   2   3
ENDBRANCH   1   2
BRANCH   1  25
ATOM     25  C   UNL A   1      37.597  22.661  25.967  1.00  0.00     0.188 C 
BRANCH  25  26
ATOM     26  O   UNL A   1      38.786  21.900  26.101  1.00  0.00    -0.376 OA
BRANCH  26  27
ATOM     27  C   UNL A   1      38.910  20.656  25.433  1.00  0.00     0.202 C 
BRANCH  27  28
ATOM     28  C   UNL A   1      39.829  19.581  26.033  1.00  0.00     0.261 C 
BRANCH  28  29
ATOM     29  O   UNL A   1      41.087  19.385  25.383  1.00  0.00    -0.460 OA
BRANCH  29  30
ATOM     30  C   UNL A   1      42.199  19.416  26.153  1.00  0.00     0.338 C 
ATOM     31  O   UNL A   1      42.946  18.500  26.405  1.00  0.00    -0.246 OA
BRANCH  30  32
ATOM     32  C   UNL A   1      42.445  20.836  26.480  1.00  0.00     0.060 A 
ATOM     33  C   UNL A   1      42.508  21.767  25.437  1.00  0.00     0.016 A 
ATOM     34  C   UNL A   1      42.573  21.240  27.811  1.00  0.00     0.016 A 
ATOM     35  C   UNL A   1      42.738  23.110  25.722  1.00  0.00     0.010 A 
ATOM     36  C   UNL A   1      42.830  22.581  28.094  1.00  0.00     0.010 A 
ATOM     37  C   UNL A   1      42.953  23.510  27.046  1.00  0.00    -0.014 A 
BRANCH  37  38
ATOM     38  C   UNL A   1      43.548  24.838  27.308  1.00  0.00     0.031 A 
ATOM     39  C   UNL A   1      42.637  25.920  27.817  1.00  0.00     0.074 A 
ATOM     40  C   UNL A   1      44.858  25.071  27.122  1.00  0.00     0.049 A 
ATOM     41  N   UNL A   1      42.905  27.165  28.106  1.00  0.00    -0.248 NA
ATOM     42  C   UNL A   1      41.228  25.544  28.030  1.00  0.00     0.031 C 
ATOM     43  C   UNL A   1      45.834  24.087  26.659  1.00  0.00     0.029 A 
ATOM     44  N   UNL A   1      45.585  26.221  27.287  1.00  0.00    -0.354 N 
ATOM     45  C   UNL A   1      41.700  27.726  28.506  1.00  0.00     0.074 A 
ATOM     46  C   UNL A   1      40.693  26.693  28.406  1.00  0.00     0.031 C 
ATOM     47  C   UNL A   1      47.036  24.684  26.559  1.00  0.00     0.029 A 
ATOM     48  C   UNL A   1      46.904  26.095  26.920  1.00  0.00     0.049 A 
ATOM     49  H   UNL A   1      45.200  27.058  27.634  1.00  0.00     0.167 HD
ATOM     50  C   UNL A   1      41.453  28.986  28.935  1.00  0.00     0.034 A 
ATOM     51  C   UNL A   1      47.880  27.022  26.866  1.00  0.00     0.034 A 
ATOM     52  C   UNL A   1      42.460  30.006  29.028  1.00  0.00     0.049 A 
ATOM     53  C   UNL A   1      47.567  28.435  27.291  1.00  0.00     0.074 A 
ATOM     54  C   UNL A   1      42.327  31.309  29.467  1.00  0.00     0.029 A 
ATOM     55  N   UNL A   1      43.785  29.840  28.656  1.00  0.00    -0.354 N 
ATOM     56  N   UNL A   1      46.445  28.931  27.753  1.00  0.00    -0.248 NA
ATOM     57  C   UNL A   1      48.666  29.408  27.213  1.00  0.00     0.031 C 
ATOM     58  C   UNL A   1      43.565  31.944  29.322  1.00  0.00     0.029 A 
ATOM     59  C   UNL A   1      44.480  31.021  28.841  1.00  0.00     0.049 A 
ATOM     60  H   UNL A   1      44.175  29.004  28.311  1.00  0.00     0.167 HD
ATOM     61  C   UNL A   1      46.714  30.260  28.067  1.00  0.00     0.074 A 
ATOM     62  C   UNL A   1      48.109  30.486  27.751  1.00  0.00     0.031 C 
ATOM     63  C   UNL A   1      45.882  31.210  28.564  1.00  0.00     0.034 A 
BRANCH  50  64
ATOM     64  C   UNL A   1      40.038  29.317  29.331  1.00  0.00     0.023 A 
ATOM     65  C   UNL A   1      39.098  29.684  28.344  1.00  0.00     0.012 A 
ATOM     66  C   UNL A   1      39.631  29.252  30.677  1.00  0.00     0.148 A 
ATOM     67  C   UNL A   1      37.793  30.028  28.696  1.00  0.00     0.002 A 
ATOM     68  C   UNL A   1      38.316  29.544  31.014  1.00  0.00     0.091 A 
ATOM     69  F   UNL A   1      40.542  28.926  31.605  1.00  0.00    -0.205 F 
ATOM     70  C   UNL A   1      37.400  29.948  30.028  1.00  0.00     0.022 A 
BRANCH  68  71
ATOM     71  S   UNL A   1      37.690  29.396  32.692  1.00  0.00     0.127 S 
ATOM     72  O   UNL A   1      36.356  29.981  32.562  1.00  0.00    -0.237 OA
ATOM     73  O   UNL A   1      37.705  27.947  32.895  1.00  0.00    -0.237 OA
ATOM     74  O   UNL A   1      38.618  30.138  33.533  1.00  0.00    -0.744 OA
ENDBRANCH  68  71
ENDBRANCH  50  64
BRANCH  51  75
ATOM     75  C   UNL A   1      49.253  26.641  26.428  1.00  0.00     0.023 A 
ATOM     76  C   UNL A   1      50.043  25.821  27.257  1.00  0.00     0.012 A 
ATOM     77  C   UNL A   1      49.776  27.077  25.195  1.00  0.00     0.148 A 
ATOM     78  C   UNL A   1      51.341  25.470  26.882  1.00  0.00     0.002 A 
ATOM     79  C   UNL A   1      51.049  26.678  24.803  1.00  0.00     0.091 A 
ATOM     80  F   UNL A   1      49.014  27.866  24.426  1.00  0.00    -0.205 F 
ATOM     81  C   UNL A   1      51.840  25.890  25.653  1.00  0.00     0.022 A 
BRANCH  79  82
ATOM     82  S   UNL A   1      51.732  27.070  23.188  1.00  0.00     0.127 S 
ATOM     83  O   UNL A   1      52.085  28.479  23.347  1.00  0.00    -0.237 OA
ATOM     84  O   UNL A   1      52.871  26.154  23.116  1.00  0.00    -0.237 OA
ATOM     85  O   UNL A   1      50.671  26.792  22.230  1.00  0.00    -0.744 OA
ENDBRANCH  79  82
ENDBRANCH  51  75
BRANCH  63  86
ATOM     86  C   UNL A   1      46.466  32.569  28.856  1.00  0.00     0.023 A 
ATOM     87  C   UNL A   1      46.999  32.854  30.129  1.00  0.00     0.012 A 
ATOM     88  C   UNL A   1      46.556  33.538  27.836  1.00  0.00     0.148 A 
ATOM     89  C   UNL A   1      47.577  34.095  30.392  1.00  0.00     0.002 A 
ATOM     90  C   UNL A   1      47.183  34.751  28.090  1.00  0.00     0.091 A 
ATOM     91  F   UNL A   1      46.030  33.253  26.636  1.00  0.00    -0.205 F 
ATOM     92  C   UNL A   1      47.680  35.038  29.372  1.00  0.00     0.022 A 
BRANCH  90  93
ATOM     93  S   UNL A   1      47.454  35.983  26.811  1.00  0.00     0.127 S 
ATOM     94  O   UNL A   1      48.680  35.492  26.182  1.00  0.00    -0.237 OA
ATOM     95  O   UNL A   1      46.250  35.846  25.991  1.00  0.00    -0.237 OA
ATOM     96  O   UNL A   1      47.575  37.261  27.500  1.00  0.00    -0.744 OA
ENDBRANCH  90  93
ENDBRANCH  63  86
ENDBRANCH  37  38
ENDBRANCH  30  32
ENDBRANCH  29  30
ENDBRANCH  28  29
ENDBRANCH  27  28
ENDBRANCH  26  27
ENDBRANCH  25  26
ENDBRANCH   1  25
TORSDOF 25
ENDMDL
