MODEL 1
REMARK VINA RESULT:      -9.6      0.000      0.000
REMARK SMILES O=C(OCCOCCOCCOCCOC(=O)c1cc(/C=C/c2cc(O)cc(O)c2)ccc1O)c1ccc(-c2c3nc(c(-c4cccc(S(=O)(=O)[O-])c4F)c4ccc([nH]4)c(-c4cccc(S(=O)(=O)[O-])c4F)c4nc(c(-c5cccc(S(=O)(=O)[O-])c5F)c5ccc2[nH]5)C=C4)C=C3)cc1
REMARK SMILES IDX 9 1 8 2 7 3 6 4 5 5 4 6 3 7 2 8 1 9 35 10 36 11 97 12 37 13
REMARK SMILES IDX 96 14 38 15 39 16 40 17 90 18 41 19 95 20 89 21 91 22 42 23
REMARK SMILES IDX 94 24 88 25 87 26 43 28 75 29 55 30 74 31 56 32 59 33 73 34
REMARK SMILES IDX 92 35 57 36 58 37 72 39 93 40 60 41 44 42 45 43 53 44 46 45
REMARK SMILES IDX 48 46 54 47 47 48 49 49 50 50 51 51 52 52 76 53 77 54 85 55
REMARK SMILES IDX 78 56 80 57 86 58 79 59 81 60 82 61 83 62 84 63 61 64 62 65
REMARK SMILES IDX 70 66 63 67 65 68 71 69 64 70 66 71 67 72 68 73 69 74 10 75
REMARK SMILES IDX 11 76 12 77 13 78 14 79 15 80 16 81 17 82 18 83 19 84 33 85
REMARK SMILES IDX 20 86 32 87 31 88 34 89 21 91 22 92 23 93 24 94 30 95 25 96
REMARK SMILES IDX 28 97 27 98 26 99 29 101
REMARK H PARENT 91 27 59 38 34 90 26 100 29 102
REMARK Flexibility Score: inf
ROOT
ATOM      1  O   UNL A   1      33.157  23.824  26.263  1.00  0.00    -0.377 OA
ENDROOT
BRANCH   1   2
ATOM      2  C   UNL A   1      32.934  22.563  26.891  1.00  0.00     0.188 C 
BRANCH   2   3
ATOM      3  C   UNL A   1      33.505  21.366  26.131  1.00  0.00     0.188 C 
BRANCH   3   4
ATOM      4  O   UNL A   1      34.927  21.334  26.257  1.00  0.00    -0.376 OA
BRANCH   4   5
ATOM      5  C   UNL A   1      35.659  21.567  25.059  1.00  0.00     0.202 C 
BRANCH   5   6
ATOM      6  C   UNL A   1      37.178  21.541  25.234  1.00  0.00     0.261 C 
BRANCH   6   7
ATOM      7  O   UNL A   1      37.670  22.734  25.859  1.00  0.00    -0.460 OA
BRANCH   7   8
ATOM      8  C   UNL A   1      38.931  22.969  26.304  1.00  0.00     0.338 C 
ATOM      9  O   UNL A   1      39.764  22.073  26.170  1.00  0.00    -0.246 OA
BRANCH   8  10
ATOM     10  C   UNL A   1      39.376  24.256  26.935  1.00  0.00     0.060 A 
ATOM     11  C   UNL A   1      39.278  24.571  28.292  1.00  0.00     0.016 A 
ATOM     12  C   UNL A   1      40.017  25.185  26.097  1.00  0.00     0.016 A 
ATOM     13  C   UNL A   1      39.741  25.777  28.802  1.00  0.00     0.010 A 
ATOM     14  C   UNL A   1      40.513  26.391  26.605  1.00  0.00     0.010 A 
ATOM     15  C   UNL A   1      40.358  26.695  27.961  1.00  0.00    -0.014 A 
BRANCH  15  16
ATOM     16  C   UNL A   1      40.727  28.009  28.513  1.00  0.00     0.031 A 
ATOM     17  C   UNL A   1      42.182  28.325  28.668  1.00  0.00     0.074 A 
ATOM     18  C   UNL A   1      39.770  28.916  28.785  1.00  0.00     0.049 A 
ATOM     19  N   UNL A   1      42.746  29.380  29.186  1.00  0.00    -0.248 NA
ATOM     20  C   UNL A   1      43.135  27.323  28.154  1.00  0.00     0.031 C 
ATOM     21  C   UNL A   1      38.335  28.718  28.569  1.00  0.00     0.029 A 
ATOM     22  N   UNL A   1      39.859  30.180  29.305  1.00  0.00    -0.354 N 
ATOM     23  C   UNL A   1      44.112  29.142  29.121  1.00  0.00     0.074 A 
ATOM     24  C   UNL A   1      44.299  27.862  28.480  1.00  0.00     0.031 C 
ATOM     25  C   UNL A   1      37.676  29.814  28.977  1.00  0.00     0.029 A 
ATOM     26  C   UNL A   1      38.635  30.763  29.535  1.00  0.00     0.049 A 
ATOM     27  H   UNL A   1      40.716  30.627  29.495  1.00  0.00     0.167 HD
ATOM     28  C   UNL A   1      45.115  29.926  29.574  1.00  0.00     0.034 A 
ATOM     29  C   UNL A   1      38.331  31.909  30.173  1.00  0.00     0.034 A 
ATOM     30  C   UNL A   1      44.899  31.202  30.191  1.00  0.00     0.049 A 
ATOM     31  C   UNL A   1      39.470  32.734  30.715  1.00  0.00     0.074 A 
ATOM     32  C   UNL A   1      45.833  32.088  30.691  1.00  0.00     0.029 A 
ATOM     33  N   UNL A   1      43.649  31.766  30.406  1.00  0.00    -0.354 N 
ATOM     34  N   UNL A   1      40.763  32.532  30.596  1.00  0.00    -0.248 NA
ATOM     35  C   UNL A   1      39.118  33.942  31.471  1.00  0.00     0.031 C 
ATOM     36  C   UNL A   1      45.145  33.174  31.238  1.00  0.00     0.029 A 
ATOM     37  C   UNL A   1      43.783  32.977  31.056  1.00  0.00     0.049 A 
ATOM     38  H   UNL A   1      42.793  31.362  30.135  1.00  0.00     0.167 HD
ATOM     39  C   UNL A   1      41.377  33.591  31.253  1.00  0.00     0.074 A 
ATOM     40  C   UNL A   1      40.313  34.453  31.732  1.00  0.00     0.031 C 
ATOM     41  C   UNL A   1      42.694  33.824  31.471  1.00  0.00     0.034 A 
BRANCH  28  42
ATOM     42  C   UNL A   1      46.516  29.400  29.456  1.00  0.00     0.023 A 
ATOM     43  C   UNL A   1      47.036  28.536  30.439  1.00  0.00     0.012 A 
ATOM     44  C   UNL A   1      47.313  29.754  28.350  1.00  0.00     0.148 A 
ATOM     45  C   UNL A   1      48.339  28.048  30.332  1.00  0.00     0.002 A 
ATOM     46  C   UNL A   1      48.595  29.235  28.230  1.00  0.00     0.091 A 
ATOM     47  F   UNL A   1      46.803  30.600  27.443  1.00  0.00    -0.205 F 
ATOM     48  C   UNL A   1      49.114  28.390  29.225  1.00  0.00     0.022 A 
BRANCH  46  49
ATOM     49  S   UNL A   1      49.655  29.576  26.822  1.00  0.00     0.127 S 
ATOM     50  O   UNL A   1      49.078  28.703  25.800  1.00  0.00    -0.237 OA
ATOM     51  O   UNL A   1      49.421  31.004  26.606  1.00  0.00    -0.237 OA
ATOM     52  O   UNL A   1      51.007  29.229  27.237  1.00  0.00    -0.744 OA
ENDBRANCH  46  49
ENDBRANCH  28  42
BRANCH  29  53
ATOM     53  C   UNL A   1      36.910  32.320  30.374  1.00  0.00     0.023 A 
ATOM     54  C   UNL A   1      36.310  32.179  31.640  1.00  0.00     0.012 A 
ATOM     55  C   UNL A   1      36.143  32.843  29.312  1.00  0.00     0.148 A 
ATOM     56  C   UNL A   1      34.968  32.518  31.835  1.00  0.00     0.002 A 
ATOM     57  C   UNL A   1      34.826  33.233  29.528  1.00  0.00     0.091 A 
ATOM     58  F   UNL A   1      36.712  32.942  28.101  1.00  0.00    -0.205 F 
ATOM     59  C   UNL A   1      34.230  33.055  30.784  1.00  0.00     0.022 A 
BRANCH  57  60
ATOM     60  S   UNL A   1      33.861  34.055  28.254  1.00  0.00     0.127 S 
ATOM     61  O   UNL A   1      33.184  32.930  27.616  1.00  0.00    -0.237 OA
ATOM     62  O   UNL A   1      32.993  34.932  29.040  1.00  0.00    -0.237 OA
ATOM     63  O   UNL A   1      34.835  34.766  27.435  1.00  0.00    -0.744 OA
ENDBRANCH  57  60
ENDBRANCH  29  53
BRANCH  41  64
ATOM     64  C   UNL A   1      43.057  35.057  32.249  1.00  0.00     0.023 A 
ATOM     65  C   UNL A   1      43.137  34.991  33.654  1.00  0.00     0.012 A 
ATOM     66  C   UNL A   1      43.415  36.245  31.585  1.00  0.00     0.148 A 
ATOM     67  C   UNL A   1      43.549  36.099  34.389  1.00  0.00     0.002 A 
ATOM     68  C   UNL A   1      43.875  37.328  32.320  1.00  0.00     0.091 A 
ATOM     69  F   UNL A   1      43.311  36.286  30.248  1.00  0.00    -0.205 F 
ATOM     70  C   UNL A   1      43.933  37.261  33.722  1.00  0.00     0.022 A 
BRANCH  68  71
ATOM     71  S   UNL A   1      44.491  38.822  31.540  1.00  0.00     0.127 S 
ATOM     72  O   UNL A   1      44.438  39.778  32.644  1.00  0.00    -0.237 OA
ATOM     73  O   UNL A   1      45.842  38.428  31.138  1.00  0.00    -0.237 OA
ATOM     74  O   UNL A   1      43.588  39.097  30.430  1.00  0.00    -0.744 OA
ENDBRANCH  68  71
ENDBRANCH  41  64
ENDBRANCH  15  16
ENDBRANCH   8  10
ENDBRANCH   7   8
ENDBRANCH   6   7
ENDBRANCH   5   6
ENDBRANCH   4   5
ENDBRANCH   3   4
ENDBRANCH   2   3
ENDBRANCH   1   2
BRANCH   1  75
ATOM     75  C   UNL A   1      32.642  24.974  26.927  1.00  0.00     0.188 C 
BRANCH  75  76
ATOM     76  C   UNL A   1      32.497  26.304  26.152  1.00  0.00     0.188 C 
BRANCH  76  77
ATOM     77  O   UNL A   1      33.714  26.985  25.891  1.00  0.00    -0.376 OA
BRANCH  77  78
ATOM     78  C   UNL A   1      34.144  26.971  24.531  1.00  0.00     0.202 C 
BRANCH  78  79
ATOM     79  C   UNL A   1      34.297  25.563  23.950  1.00  0.00     0.261 C 
BRANCH  79  80
ATOM     80  O   UNL A   1      34.190  25.499  22.516  1.00  0.00    -0.460 OA
BRANCH  80  81
ATOM     81  C   UNL A   1      33.137  24.854  21.959  1.00  0.00     0.342 C 
ATOM     82  O   UNL A   1      33.167  23.884  21.224  1.00  0.00    -0.246 OA
BRANCH  81  83
ATOM     83  C   UNL A   1      31.917  25.370  22.627  1.00  0.00     0.102 A 
ATOM     84  C   UNL A   1      31.430  26.638  22.245  1.00  0.00     0.027 A 
ATOM     85  C   UNL A   1      31.160  24.554  23.473  1.00  0.00     0.130 A 
ATOM     86  C   UNL A   1      30.157  27.056  22.659  1.00  0.00    -0.025 A 
ATOM     87  C   UNL A   1      29.915  24.981  23.924  1.00  0.00     0.048 A 
ATOM     88  C   UNL A   1      29.418  26.221  23.513  1.00  0.00     0.012 A 
BRANCH  85  89
ATOM     89  O   UNL A   1      31.628  23.334  23.865  1.00  0.00    -0.507 OA
ATOM     90  H   UNL A   1      31.027  22.646  24.074  1.00  0.00     0.293 HD
ENDBRANCH  85  89
BRANCH  86  91
ATOM     91  C   UNL A   1      29.552  28.345  22.282  1.00  0.00     0.009 C 
ATOM     92  C   UNL A   1      29.812  29.545  22.830  1.00  0.00     0.009 C 
BRANCH  92  93
ATOM     93  C   UNL A   1      29.172  30.786  22.342  1.00  0.00    -0.018 A 
ATOM     94  C   UNL A   1      28.481  30.816  21.119  1.00  0.00     0.054 A 
ATOM     95  C   UNL A   1      29.220  31.956  23.116  1.00  0.00     0.054 A 
ATOM     96  C   UNL A   1      27.892  31.997  20.670  1.00  0.00     0.119 A 
ATOM     97  C   UNL A   1      28.620  33.129  22.648  1.00  0.00     0.119 A 
ATOM     98  C   UNL A   1      27.965  33.159  21.424  1.00  0.00     0.092 A 
BRANCH  96  99
ATOM     99  O   UNL A   1      27.228  32.048  19.479  1.00  0.00    -0.508 OA
ATOM    100  H   UNL A   1      26.308  31.875  19.448  1.00  0.00     0.293 HD
ENDBRANCH  96  99
BRANCH  97 101
ATOM    101  O   UNL A   1      28.657  34.289  23.367  1.00  0.00    -0.508 OA
ATOM    102  H   UNL A   1      27.858  34.700  23.633  1.00  0.00     0.293 HD
ENDBRANCH  97 101
ENDBRANCH  92  93
ENDBRANCH  86  91
ENDBRANCH  81  83
ENDBRANCH  80  81
ENDBRANCH  79  80
ENDBRANCH  78  79
ENDBRANCH  77  78
ENDBRANCH  76  77
ENDBRANCH  75  76
ENDBRANCH   1  75
TORSDOF 28
ENDMDL
MODEL 2
REMARK VINA RESULT:      -9.4      3.752      9.924
REMARK SMILES O=C(OCCOCCOCCOCCOC(=O)c1cc(/C=C/c2cc(O)cc(O)c2)ccc1O)c1ccc(-c2c3nc(c(-c4cccc(S(=O)(=O)[O-])c4F)c4ccc([nH]4)c(-c4cccc(S(=O)(=O)[O-])c4F)c4nc(c(-c5cccc(S(=O)(=O)[O-])c5F)c5ccc2[nH]5)C=C4)C=C3)cc1
REMARK SMILES IDX 9 1 8 2 7 3 6 4 5 5 4 6 3 7 2 8 1 9 35 10 36 11 97 12 37 13
REMARK SMILES IDX 96 14 38 15 39 16 40 17 90 18 41 19 95 20 89 21 91 22 42 23
REMARK SMILES IDX 94 24 88 25 87 26 43 28 75 29 55 30 74 31 56 32 59 33 73 34
REMARK SMILES IDX 92 35 57 36 58 37 72 39 93 40 60 41 44 42 45 43 53 44 46 45
REMARK SMILES IDX 48 46 54 47 47 48 49 49 50 50 51 51 52 52 76 53 77 54 85 55
REMARK SMILES IDX 78 56 80 57 86 58 79 59 81 60 82 61 83 62 84 63 61 64 62 65
REMARK SMILES IDX 70 66 63 67 65 68 71 69 64 70 66 71 67 72 68 73 69 74 10 75
REMARK SMILES IDX 11 76 12 77 13 78 14 79 15 80 16 81 17 82 18 83 19 84 33 85
REMARK SMILES IDX 20 86 32 87 31 88 34 89 21 91 22 92 23 93 24 94 30 95 25 96
REMARK SMILES IDX 28 97 27 98 26 99 29 101
REMARK H PARENT 91 27 59 38 34 90 26 100 29 102
REMARK Flexibility Score: inf
ROOT
ATOM      1  O   UNL A   1      33.323  27.488  24.649  1.00  0.00    -0.377 OA
ENDROOT
BRANCH   1   2
ATOM      2  C   UNL A   1      32.068  27.635  23.988  1.00  0.00     0.188 C 
BRANCH   2   3
ATOM      3  C   UNL A   1      31.242  28.833  24.454  1.00  0.00     0.188 C 
BRANCH   3   4
ATOM      4  O   UNL A   1      32.093  29.826  25.029  1.00  0.00    -0.376 OA
BRANCH   4   5
ATOM      5  C   UNL A   1      31.436  30.853  25.762  1.00  0.00     0.202 C 
BRANCH   5   6
ATOM      6  C   UNL A   1      32.173  31.292  27.029  1.00  0.00     0.261 C 
BRANCH   6   7
ATOM      7  O   UNL A   1      33.582  31.043  26.947  1.00  0.00    -0.460 OA
BRANCH   7   8
ATOM      8  C   UNL A   1      34.279  30.049  27.555  1.00  0.00     0.338 C 
ATOM      9  O   UNL A   1      33.760  28.935  27.612  1.00  0.00    -0.246 OA
BRANCH   8  10
ATOM     10  C   UNL A   1      35.646  30.220  28.151  1.00  0.00     0.060 A 
ATOM     11  C   UNL A   1      36.459  31.347  28.007  1.00  0.00     0.016 A 
ATOM     12  C   UNL A   1      36.107  29.189  28.987  1.00  0.00     0.016 A 
ATOM     13  C   UNL A   1      37.704  31.437  28.617  1.00  0.00     0.010 A 
ATOM     14  C   UNL A   1      37.347  29.281  29.628  1.00  0.00     0.010 A 
ATOM     15  C   UNL A   1      38.156  30.403  29.428  1.00  0.00    -0.014 A 
BRANCH  15  16
ATOM     16  C   UNL A   1      39.527  30.482  29.958  1.00  0.00     0.031 A 
ATOM     17  C   UNL A   1      39.756  31.280  31.205  1.00  0.00     0.074 A 
ATOM     18  C   UNL A   1      40.515  29.781  29.372  1.00  0.00     0.049 A 
ATOM     19  N   UNL A   1      40.875  31.546  31.819  1.00  0.00    -0.248 NA
ATOM     20  C   UNL A   1      38.560  31.841  31.859  1.00  0.00     0.031 C 
ATOM     21  C   UNL A   1      40.352  28.903  28.212  1.00  0.00     0.029 A 
ATOM     22  N   UNL A   1      41.850  29.700  29.668  1.00  0.00    -0.354 N 
ATOM     23  C   UNL A   1      40.527  32.357  32.890  1.00  0.00     0.074 A 
ATOM     24  C   UNL A   1      39.091  32.512  32.870  1.00  0.00     0.031 C 
ATOM     25  C   UNL A   1      41.548  28.389  27.879  1.00  0.00     0.029 A 
ATOM     26  C   UNL A   1      42.565  28.948  28.764  1.00  0.00     0.049 A 
ATOM     27  H   UNL A   1      42.258  30.136  30.451  1.00  0.00     0.167 HD
ATOM     28  C   UNL A   1      41.346  32.931  33.799  1.00  0.00     0.034 A 
ATOM     29  C   UNL A   1      43.895  28.781  28.642  1.00  0.00     0.034 A 
ATOM     30  C   UNL A   1      42.768  32.745  33.805  1.00  0.00     0.049 A 
ATOM     31  C   UNL A   1      44.785  29.478  29.639  1.00  0.00     0.074 A 
ATOM     32  C   UNL A   1      43.703  33.273  34.673  1.00  0.00     0.029 A 
ATOM     33  N   UNL A   1      43.461  31.976  32.880  1.00  0.00    -0.354 N 
ATOM     34  N   UNL A   1      44.446  30.195  30.686  1.00  0.00    -0.248 NA
ATOM     35  C   UNL A   1      46.235  29.345  29.447  1.00  0.00     0.031 C 
ATOM     36  C   UNL A   1      44.967  32.849  34.251  1.00  0.00     0.029 A 
ATOM     37  C   UNL A   1      44.816  32.036  33.137  1.00  0.00     0.049 A 
ATOM     38  H   UNL A   1      43.046  31.464  32.147  1.00  0.00     0.167 HD
ATOM     39  C   UNL A   1      45.637  30.588  31.283  1.00  0.00     0.074 A 
ATOM     40  C   UNL A   1      46.706  29.996  30.502  1.00  0.00     0.031 C 
ATOM     41  C   UNL A   1      45.841  31.389  32.358  1.00  0.00     0.034 A 
BRANCH  28  42
ATOM     42  C   UNL A   1      40.725  33.839  34.820  1.00  0.00     0.023 A 
ATOM     43  C   UNL A   1      40.635  35.224  34.579  1.00  0.00     0.012 A 
ATOM     44  C   UNL A   1      40.210  33.307  36.019  1.00  0.00     0.148 A 
ATOM     45  C   UNL A   1      40.059  36.069  35.528  1.00  0.00     0.002 A 
ATOM     46  C   UNL A   1      39.605  34.150  36.942  1.00  0.00     0.091 A 
ATOM     47  F   UNL A   1      40.334  31.990  36.235  1.00  0.00    -0.205 F 
ATOM     48  C   UNL A   1      39.538  35.532  36.703  1.00  0.00     0.022 A 
BRANCH  46  49
ATOM     49  S   UNL A   1      38.862  33.551  38.463  1.00  0.00     0.127 S 
ATOM     50  O   UNL A   1      39.076  34.686  39.362  1.00  0.00    -0.237 OA
ATOM     51  O   UNL A   1      37.472  33.345  38.060  1.00  0.00    -0.237 OA
ATOM     52  O   UNL A   1      39.587  32.339  38.819  1.00  0.00    -0.744 OA
ENDBRANCH  46  49
ENDBRANCH  28  42
BRANCH  29  53
ATOM     53  C   UNL A   1      44.466  27.968  27.528  1.00  0.00     0.023 A 
ATOM     54  C   UNL A   1      44.754  28.576  26.290  1.00  0.00     0.012 A 
ATOM     55  C   UNL A   1      44.716  26.589  27.683  1.00  0.00     0.148 A 
ATOM     56  C   UNL A   1      45.247  27.822  25.223  1.00  0.00     0.002 A 
ATOM     57  C   UNL A   1      45.263  25.856  26.634  1.00  0.00     0.091 A 
ATOM     58  F   UNL A   1      44.407  26.011  28.853  1.00  0.00    -0.205 F 
ATOM     59  C   UNL A   1      45.512  26.466  25.397  1.00  0.00     0.022 A 
BRANCH  57  60
ATOM     60  S   UNL A   1      45.753  24.139  26.834  1.00  0.00     0.127 S 
ATOM     61  O   UNL A   1      44.464  23.453  26.803  1.00  0.00    -0.237 OA
ATOM     62  O   UNL A   1      46.597  23.918  25.659  1.00  0.00    -0.237 OA
ATOM     63  O   UNL A   1      46.474  24.092  28.099  1.00  0.00    -0.744 OA
ENDBRANCH  57  60
ENDBRANCH  29  53
BRANCH  41  64
ATOM     64  C   UNL A   1      47.264  31.660  32.755  1.00  0.00     0.023 A 
ATOM     65  C   UNL A   1      47.910  30.790  33.653  1.00  0.00     0.012 A 
ATOM     66  C   UNL A   1      47.985  32.713  32.162  1.00  0.00     0.148 A 
ATOM     67  C   UNL A   1      49.253  30.976  33.972  1.00  0.00     0.002 A 
ATOM     68  C   UNL A   1      49.335  32.861  32.444  1.00  0.00     0.091 A 
ATOM     69  F   UNL A   1      47.340  33.538  31.324  1.00  0.00    -0.205 F 
ATOM     70  C   UNL A   1      49.969  32.001  33.357  1.00  0.00     0.022 A 
BRANCH  68  71
ATOM     71  S   UNL A   1      50.358  34.082  31.616  1.00  0.00     0.127 S 
ATOM     72  O   UNL A   1      49.693  35.329  31.987  1.00  0.00    -0.237 OA
ATOM     73  O   UNL A   1      51.662  33.874  32.246  1.00  0.00    -0.237 OA
ATOM     74  O   UNL A   1      50.314  33.747  30.198  1.00  0.00    -0.744 OA
ENDBRANCH  68  71
ENDBRANCH  41  64
ENDBRANCH  15  16
ENDBRANCH   8  10
ENDBRANCH   7   8
ENDBRANCH   6   7
ENDBRANCH   5   6
ENDBRANCH   4   5
ENDBRANCH   3   4
ENDBRANCH   2   3
ENDBRANCH   1   2
BRANCH   1  75
ATOM     75  C   UNL A   1      33.519  26.292  25.398  1.00  0.00     0.188 C 
BRANCH  75  76
ATOM     76  C   UNL A   1      32.327  25.656  26.148  1.00  0.00     0.188 C 
BRANCH  76  77
ATOM     77  O   UNL A   1      32.351  24.239  26.230  1.00  0.00    -0.376 OA
BRANCH  77  78
ATOM     78  C   UNL A   1      31.076  23.610  26.329  1.00  0.00     0.202 C 
BRANCH  78  79
ATOM     79  C   UNL A   1      31.037  22.203  25.724  1.00  0.00     0.261 C 
BRANCH  79  80
ATOM     80  O   UNL A   1      32.290  21.498  25.782  1.00  0.00    -0.460 OA
BRANCH  80  81
ATOM     81  C   UNL A   1      32.838  21.027  24.637  1.00  0.00     0.342 C 
ATOM     82  O   UNL A   1      32.320  20.293  23.815  1.00  0.00    -0.246 OA
BRANCH  81  83
ATOM     83  C   UNL A   1      34.094  21.785  24.420  1.00  0.00     0.102 A 
ATOM     84  C   UNL A   1      35.296  21.251  24.932  1.00  0.00     0.027 A 
ATOM     85  C   UNL A   1      34.126  22.898  23.574  1.00  0.00     0.130 A 
ATOM     86  C   UNL A   1      36.528  21.794  24.542  1.00  0.00    -0.025 A 
ATOM     87  C   UNL A   1      35.343  23.470  23.218  1.00  0.00     0.048 A 
ATOM     88  C   UNL A   1      36.534  22.916  23.696  1.00  0.00     0.012 A 
BRANCH  85  89
ATOM     89  O   UNL A   1      32.969  23.435  23.088  1.00  0.00    -0.507 OA
ATOM     90  H   UNL A   1      32.783  23.396  22.171  1.00  0.00     0.293 HD
ENDBRANCH  85  89
BRANCH  86  91
ATOM     91  C   UNL A   1      37.832  21.283  24.996  1.00  0.00     0.009 C 
ATOM     92  C   UNL A   1      38.610  21.807  25.961  1.00  0.00     0.009 C 
BRANCH  92  93
ATOM     93  C   UNL A   1      39.888  21.182  26.364  1.00  0.00    -0.018 A 
ATOM     94  C   UNL A   1      40.287  19.940  25.845  1.00  0.00     0.054 A 
ATOM     95  C   UNL A   1      40.745  21.845  27.258  1.00  0.00     0.054 A 
ATOM     96  C   UNL A   1      41.491  19.361  26.245  1.00  0.00     0.119 A 
ATOM     97  C   UNL A   1      41.949  21.248  27.643  1.00  0.00     0.119 A 
ATOM     98  C   UNL A   1      42.323  20.005  27.149  1.00  0.00     0.092 A 
BRANCH  96  99
ATOM     99  O   UNL A   1      41.888  18.149  25.761  1.00  0.00    -0.508 OA
ATOM    100  H   UNL A   1      42.798  17.927  25.746  1.00  0.00     0.293 HD
ENDBRANCH  96  99
BRANCH  97 101
ATOM    101  O   UNL A   1      42.802  21.855  28.519  1.00  0.00    -0.508 OA
ATOM    102  H   UNL A   1      42.748  21.666  29.434  1.00  0.00     0.293 HD
ENDBRANCH  97 101
ENDBRANCH  92  93
ENDBRANCH  86  91
ENDBRANCH  81  83
ENDBRANCH  80  81
ENDBRANCH  79  80
ENDBRANCH  78  79
ENDBRANCH  77  78
ENDBRANCH  76  77
ENDBRANCH  75  76
ENDBRANCH   1  75
TORSDOF 28
ENDMDL
MODEL 3
REMARK VINA RESULT:      -9.1      7.968     12.841
REMARK SMILES O=C(OCCOCCOCCOCCOC(=O)c1cc(/C=C/c2cc(O)cc(O)c2)ccc1O)c1ccc(-c2c3nc(c(-c4cccc(S(=O)(=O)[O-])c4F)c4ccc([nH]4)c(-c4cccc(S(=O)(=O)[O-])c4F)c4nc(c(-c5cccc(S(=O)(=O)[O-])c5F)c5ccc2[nH]5)C=C4)C=C3)cc1
REMARK SMILES IDX 9 1 8 2 7 3 6 4 5 5 4 6 3 7 2 8 1 9 35 10 36 11 97 12 37 13
REMARK SMILES IDX 96 14 38 15 39 16 40 17 90 18 41 19 95 20 89 21 91 22 42 23
REMARK SMILES IDX 94 24 88 25 87 26 43 28 75 29 55 30 74 31 56 32 59 33 73 34
REMARK SMILES IDX 92 35 57 36 58 37 72 39 93 40 60 41 44 42 45 43 53 44 46 45
REMARK SMILES IDX 48 46 54 47 47 48 49 49 50 50 51 51 52 52 76 53 77 54 85 55
REMARK SMILES IDX 78 56 80 57 86 58 79 59 81 60 82 61 83 62 84 63 61 64 62 65
REMARK SMILES IDX 70 66 63 67 65 68 71 69 64 70 66 71 67 72 68 73 69 74 10 75
REMARK SMILES IDX 11 76 12 77 13 78 14 79 15 80 16 81 17 82 18 83 19 84 33 85
REMARK SMILES IDX 20 86 32 87 31 88 34 89 21 91 22 92 23 93 24 94 30 95 25 96
REMARK SMILES IDX 28 97 27 98 26 99 29 101
REMARK H PARENT 91 27 59 38 34 90 26 100 29 102
REMARK Flexibility Score: inf
ROOT
ATOM      1  O   UNL A   1      52.904  28.382  23.598  1.00  0.00    -0.377 OA
ENDROOT
BRANCH   1   2
ATOM      2  C   UNL A   1      54.059  29.090  24.043  1.00  0.00     0.188 C 
BRANCH   2   3
ATOM      3  C   UNL A   1      54.308  29.015  25.549  1.00  0.00     0.188 C 
BRANCH   3   4
ATOM      4  O   UNL A   1      54.228  27.660  25.995  1.00  0.00    -0.376 OA
BRANCH   4   5
ATOM      5  C   UNL A   1      53.203  27.382  26.943  1.00  0.00     0.202 C 
BRANCH   5   6
ATOM      6  C   UNL A   1      53.012  25.895  27.244  1.00  0.00     0.261 C 
BRANCH   6   7
ATOM      7  O   UNL A   1      51.981  25.668  28.213  1.00  0.00    -0.460 OA
BRANCH   7   8
ATOM      8  C   UNL A   1      50.669  25.411  27.975  1.00  0.00     0.338 C 
ATOM      9  O   UNL A   1      50.393  24.440  27.270  1.00  0.00    -0.246 OA
BRANCH   8  10
ATOM     10  C   UNL A   1      49.536  26.227  28.525  1.00  0.00     0.060 A 
ATOM     11  C   UNL A   1      49.669  27.368  29.319  1.00  0.00     0.016 A 
ATOM     12  C   UNL A   1      48.239  25.851  28.139  1.00  0.00     0.016 A 
ATOM     13  C   UNL A   1      48.565  28.085  29.766  1.00  0.00     0.010 A 
ATOM     14  C   UNL A   1      47.121  26.581  28.560  1.00  0.00     0.010 A 
ATOM     15  C   UNL A   1      47.286  27.693  29.392  1.00  0.00    -0.014 A 
BRANCH  15  16
ATOM     16  C   UNL A   1      46.139  28.404  29.980  1.00  0.00     0.031 A 
ATOM     17  C   UNL A   1      45.698  29.684  29.340  1.00  0.00     0.074 A 
ATOM     18  C   UNL A   1      45.469  27.858  31.012  1.00  0.00     0.049 A 
ATOM     19  N   UNL A   1      44.764  30.513  29.713  1.00  0.00    -0.248 NA
ATOM     20  C   UNL A   1      46.393  30.076  28.100  1.00  0.00     0.031 C 
ATOM     21  C   UNL A   1      45.777  26.566  31.629  1.00  0.00     0.029 A 
ATOM     22  N   UNL A   1      44.395  28.321  31.725  1.00  0.00    -0.354 N 
ATOM     23  C   UNL A   1      44.802  31.554  28.796  1.00  0.00     0.074 A 
ATOM     24  C   UNL A   1      45.823  31.239  27.825  1.00  0.00     0.031 C 
ATOM     25  C   UNL A   1      44.926  26.351  32.646  1.00  0.00     0.029 A 
ATOM     26  C   UNL A   1      44.056  27.514  32.786  1.00  0.00     0.049 A 
ATOM     27  H   UNL A   1      43.914  29.151  31.501  1.00  0.00     0.167 HD
ATOM     28  C   UNL A   1      44.054  32.679  28.784  1.00  0.00     0.034 A 
ATOM     29  C   UNL A   1      43.176  27.725  33.784  1.00  0.00     0.034 A 
ATOM     30  C   UNL A   1      43.033  32.956  29.753  1.00  0.00     0.049 A 
ATOM     31  C   UNL A   1      42.396  29.015  33.771  1.00  0.00     0.074 A 
ATOM     32  C   UNL A   1      42.209  34.060  29.845  1.00  0.00     0.029 A 
ATOM     33  N   UNL A   1      42.711  32.118  30.811  1.00  0.00    -0.354 N 
ATOM     34  N   UNL A   1      42.394  29.967  32.867  1.00  0.00    -0.248 NA
ATOM     35  C   UNL A   1      41.496  29.261  34.905  1.00  0.00     0.031 C 
ATOM     36  C   UNL A   1      41.410  33.905  30.982  1.00  0.00     0.029 A 
ATOM     37  C   UNL A   1      41.718  32.692  31.581  1.00  0.00     0.049 A 
ATOM     38  H   UNL A   1      43.129  31.244  30.988  1.00  0.00     0.167 HD
ATOM     39  C   UNL A   1      41.488  30.919  33.317  1.00  0.00     0.074 A 
ATOM     40  C   UNL A   1      40.931  30.408  34.555  1.00  0.00     0.031 C 
ATOM     41  C   UNL A   1      41.161  32.121  32.781  1.00  0.00     0.034 A 
BRANCH  28  42
ATOM     42  C   UNL A   1      44.347  33.698  27.721  1.00  0.00     0.023 A 
ATOM     43  C   UNL A   1      43.666  33.658  26.489  1.00  0.00     0.012 A 
ATOM     44  C   UNL A   1      45.293  34.714  27.960  1.00  0.00     0.148 A 
ATOM     45  C   UNL A   1      43.939  34.604  25.501  1.00  0.00     0.002 A 
ATOM     46  C   UNL A   1      45.533  35.674  26.985  1.00  0.00     0.091 A 
ATOM     47  F   UNL A   1      45.946  34.713  29.131  1.00  0.00    -0.205 F 
ATOM     48  C   UNL A   1      44.864  35.615  25.752  1.00  0.00     0.022 A 
BRANCH  46  49
ATOM     49  S   UNL A   1      46.669  37.043  27.228  1.00  0.00     0.127 S 
ATOM     50  O   UNL A   1      47.922  36.340  27.509  1.00  0.00    -0.237 OA
ATOM     51  O   UNL A   1      46.623  37.709  25.928  1.00  0.00    -0.237 OA
ATOM     52  O   UNL A   1      46.137  37.820  28.338  1.00  0.00    -0.744 OA
ENDBRANCH  46  49
ENDBRANCH  28  42
BRANCH  29  53
ATOM     53  C   UNL A   1      43.017  26.732  34.887  1.00  0.00     0.023 A 
ATOM     54  C   UNL A   1      42.019  25.742  34.803  1.00  0.00     0.012 A 
ATOM     55  C   UNL A   1      43.843  26.770  36.030  1.00  0.00     0.148 A 
ATOM     56  C   UNL A   1      41.827  24.832  35.847  1.00  0.00     0.002 A 
ATOM     57  C   UNL A   1      43.685  25.824  37.038  1.00  0.00     0.091 A 
ATOM     58  F   UNL A   1      44.768  27.738  36.118  1.00  0.00    -0.205 F 
ATOM     59  C   UNL A   1      42.666  24.866  36.958  1.00  0.00     0.022 A 
BRANCH  57  60
ATOM     60  S   UNL A   1      44.816  25.728  38.431  1.00  0.00     0.127 S 
ATOM     61  O   UNL A   1      46.071  26.176  37.832  1.00  0.00    -0.237 OA
ATOM     62  O   UNL A   1      44.218  26.666  39.381  1.00  0.00    -0.237 OA
ATOM     63  O   UNL A   1      44.773  24.337  38.863  1.00  0.00    -0.744 OA
ENDBRANCH  57  60
ENDBRANCH  29  53
BRANCH  41  64
ATOM     64  C   UNL A   1      40.154  32.955  33.521  1.00  0.00     0.023 A 
ATOM     65  C   UNL A   1      40.595  33.864  34.502  1.00  0.00     0.012 A 
ATOM     66  C   UNL A   1      38.791  32.910  33.172  1.00  0.00     0.148 A 
ATOM     67  C   UNL A   1      39.687  34.704  35.142  1.00  0.00     0.002 A 
ATOM     68  C   UNL A   1      37.902  33.786  33.777  1.00  0.00     0.091 A 
ATOM     69  F   UNL A   1      38.397  32.022  32.248  1.00  0.00    -0.205 F 
ATOM     70  C   UNL A   1      38.345  34.676  34.769  1.00  0.00     0.022 A 
BRANCH  68  71
ATOM     71  S   UNL A   1      36.180  33.895  33.282  1.00  0.00     0.127 S 
ATOM     72  O   UNL A   1      35.660  32.602  33.724  1.00  0.00    -0.237 OA
ATOM     73  O   UNL A   1      35.705  35.042  34.057  1.00  0.00    -0.237 OA
ATOM     74  O   UNL A   1      36.190  34.106  31.840  1.00  0.00    -0.744 OA
ENDBRANCH  68  71
ENDBRANCH  41  64
ENDBRANCH  15  16
ENDBRANCH   8  10
ENDBRANCH   7   8
ENDBRANCH   6   7
ENDBRANCH   5   6
ENDBRANCH   4   5
ENDBRANCH   3   4
ENDBRANCH   2   3
ENDBRANCH   1   2
BRANCH   1  75
ATOM     75  C   UNL A   1      52.480  28.620  22.259  1.00  0.00     0.188 C 
BRANCH  75  76
ATOM     76  C   UNL A   1      51.657  29.887  21.932  1.00  0.00     0.188 C 
BRANCH  76  77
ATOM     77  O   UNL A   1      50.438  29.655  21.244  1.00  0.00    -0.376 OA
BRANCH  77  78
ATOM     78  C   UNL A   1      50.185  28.296  20.890  1.00  0.00     0.202 C 
BRANCH  78  79
ATOM     79  C   UNL A   1      48.955  27.701  21.582  1.00  0.00     0.261 C 
BRANCH  79  80
ATOM     80  O   UNL A   1      48.764  28.145  22.937  1.00  0.00    -0.460 OA
BRANCH  80  81
ATOM     81  C   UNL A   1      48.956  27.270  23.953  1.00  0.00     0.342 C 
ATOM     82  O   UNL A   1      49.976  27.090  24.594  1.00  0.00    -0.246 OA
BRANCH  81  83
ATOM     83  C   UNL A   1      47.618  26.757  24.335  1.00  0.00     0.102 A 
ATOM     84  C   UNL A   1      47.460  25.367  24.517  1.00  0.00     0.027 A 
ATOM     85  C   UNL A   1      46.586  27.632  24.689  1.00  0.00     0.130 A 
ATOM     86  C   UNL A   1      46.295  24.864  25.114  1.00  0.00    -0.025 A 
ATOM     87  C   UNL A   1      45.409  27.136  25.241  1.00  0.00     0.048 A 
ATOM     88  C   UNL A   1      45.271  25.762  25.456  1.00  0.00     0.012 A 
BRANCH  85  89
ATOM     89  O   UNL A   1      46.719  28.977  24.500  1.00  0.00    -0.507 OA
ATOM     90  H   UNL A   1      47.561  29.343  24.314  1.00  0.00     0.293 HD
ENDBRANCH  85  89
BRANCH  86  91
ATOM     91  C   UNL A   1      46.057  23.435  25.375  1.00  0.00     0.009 C 
ATOM     92  C   UNL A   1      45.342  22.586  24.615  1.00  0.00     0.009 C 
BRANCH  92  93
ATOM     93  C   UNL A   1      45.204  21.154  24.955  1.00  0.00    -0.018 A 
ATOM     94  C   UNL A   1      46.329  20.358  25.228  1.00  0.00     0.054 A 
ATOM     95  C   UNL A   1      43.929  20.570  25.041  1.00  0.00     0.054 A 
ATOM     96  C   UNL A   1      46.179  19.007  25.537  1.00  0.00     0.119 A 
ATOM     97  C   UNL A   1      43.803  19.214  25.356  1.00  0.00     0.119 A 
ATOM     98  C   UNL A   1      44.921  18.426  25.595  1.00  0.00     0.092 A 
BRANCH  96  99
ATOM     99  O   UNL A   1      47.261  18.215  25.793  1.00  0.00    -0.508 OA
ATOM    100  H   UNL A   1      47.665  17.736  25.097  1.00  0.00     0.293 HD
ENDBRANCH  96  99
BRANCH  97 101
ATOM    101  O   UNL A   1      42.582  18.608  25.437  1.00  0.00    -0.508 OA
ATOM    102  H   UNL A   1      42.030  18.561  24.681  1.00  0.00     0.293 HD
ENDBRANCH  97 101
ENDBRANCH  92  93
ENDBRANCH  86  91
ENDBRANCH  81  83
ENDBRANCH  80  81
ENDBRANCH  79  80
ENDBRANCH  78  79
ENDBRANCH  77  78
ENDBRANCH  76  77
ENDBRANCH  75  76
ENDBRANCH   1  75
TORSDOF 28
ENDMDL
