MODEL 1
REMARK VINA RESULT:     -10.1      0.000      0.000
REMARK SMILES CS(=O)(=O)c1ccc(/C=C(/C(=O)OCCOCCOCCOCCOC(=O)c2ccc(-c3c4nc(c(-c5cccc(S(=O)(=O)[O-])c5F)c5ccc([nH]5)c(-c5cccc(S(=O)(=O)[O-])c5F)c5nc(c(-c6cccc(S(=O)(=O)[O-])c6F)c6ccc3[nH]6)C=C5)C=C4)cc2)c2ccccc2)cc1
REMARK SMILES IDX 20 1 19 2 18 3 17 4 16 5 15 6 14 7 13 8 11 9 12 10 10 11
REMARK SMILES IDX 9 12 8 13 5 14 6 15 98 16 7 17 97 18 2 19 1 20 3 21 4 22
REMARK SMILES IDX 91 23 92 24 96 25 93 26 95 27 94 28 21 29 22 30 23 31 24 32
REMARK SMILES IDX 25 33 26 34 27 35 28 36 29 37 90 38 30 39 89 40 31 41 32 42
REMARK SMILES IDX 33 43 83 44 34 45 88 46 82 47 84 48 35 49 87 50 81 51 80 52
REMARK SMILES IDX 36 54 68 55 48 56 67 57 49 58 52 59 66 60 85 61 50 62 51 63
REMARK SMILES IDX 65 65 86 66 53 67 37 68 38 69 46 70 39 71 41 72 47 73 40 74
REMARK SMILES IDX 42 75 43 76 44 77 45 78 69 79 70 80 78 81 71 82 73 83 79 84
REMARK SMILES IDX 72 85 74 86 75 87 76 88 77 89 54 90 55 91 63 92 56 93 58 94
REMARK SMILES IDX 64 95 57 96 59 97 60 98 61 99 62 100
REMARK H PARENT 84 53 52 64
REMARK Flexibility Score: inf
ROOT
ATOM      1  C   UNL A   1      35.868  23.404  24.137  1.00  0.00     0.188 C 
ENDROOT
BRANCH   1   2
ATOM      2  O   UNL A   1      34.816  22.830  24.896  1.00  0.00    -0.377 OA
BRANCH   2   3
ATOM      3  C   UNL A   1      34.947  22.718  26.299  1.00  0.00     0.188 C 
BRANCH   3   4
ATOM      4  C   UNL A   1      34.096  21.694  27.075  1.00  0.00     0.188 C 
BRANCH   4   5
ATOM      5  O   UNL A   1      32.690  21.845  26.923  1.00  0.00    -0.376 OA
BRANCH   5   6
ATOM      6  C   UNL A   1      32.138  21.299  25.732  1.00  0.00     0.202 C 
BRANCH   6   7
ATOM      7  C   UNL A   1      31.335  22.306  24.903  1.00  0.00     0.261 C 
BRANCH   7   8
ATOM      8  O   UNL A   1      31.668  23.680  25.161  1.00  0.00    -0.460 OA
BRANCH   8   9
ATOM      9  C   UNL A   1      30.753  24.439  25.809  1.00  0.00     0.338 C 
ATOM     10  O   UNL A   1      30.120  24.099  26.797  1.00  0.00    -0.246 OA
BRANCH   9  11
ATOM     11  C   UNL A   1      30.714  25.821  25.226  1.00  0.00     0.067 C 
ATOM     12  C   UNL A   1      29.869  26.060  24.195  1.00  0.00     0.024 C 
BRANCH  12  13
ATOM     13  C   UNL A   1      29.524  27.343  23.546  1.00  0.00    -0.025 A 
ATOM     14  C   UNL A   1      28.742  29.892  22.677  1.00  0.00     0.067 A 
ATOM     15  C   UNL A   1      30.080  29.513  22.592  1.00  0.00     0.021 A 
ATOM     16  C   UNL A   1      27.773  28.975  23.079  1.00  0.00     0.021 A 
ATOM     17  C   UNL A   1      30.459  28.235  23.005  1.00  0.00     0.009 A 
ATOM     18  C   UNL A   1      28.167  27.704  23.505  1.00  0.00     0.009 A 
BRANCH  14  19
ATOM     19  S   UNL A   1      28.291  31.579  22.366  1.00  0.00     0.175 S 
ATOM     20  C   UNL A   1      27.921  31.614  20.628  1.00  0.00     0.163 C 
ATOM     21  O   UNL A   1      29.472  32.399  22.555  1.00  0.00    -0.224 OA
ATOM     22  O   UNL A   1      27.065  31.842  23.094  1.00  0.00    -0.224 OA
ENDBRANCH  14  19
ENDBRANCH  12  13
BRANCH  11  23
ATOM     23  C   UNL A   1      31.583  26.850  25.831  1.00  0.00    -0.011 A 
ATOM     24  C   UNL A   1      31.103  27.635  26.894  1.00  0.00     0.009 A 
ATOM     25  C   UNL A   1      32.910  27.005  25.423  1.00  0.00     0.009 A 
ATOM     26  C   UNL A   1      31.936  28.541  27.549  1.00  0.00     0.001 A 
ATOM     27  C   UNL A   1      33.745  27.912  26.083  1.00  0.00     0.001 A 
ATOM     28  C   UNL A   1      33.260  28.675  27.146  1.00  0.00     0.000 A 
ENDBRANCH  11  23
ENDBRANCH   9  11
ENDBRANCH   8   9
ENDBRANCH   7   8
ENDBRANCH   6   7
ENDBRANCH   5   6
ENDBRANCH   4   5
ENDBRANCH   3   4
ENDBRANCH   2   3
ENDBRANCH   1   2
BRANCH   1  29
ATOM     29  C   UNL A   1      37.000  22.503  23.611  1.00  0.00     0.188 C 
BRANCH  29  30
ATOM     30  O   UNL A   1      36.972  21.162  24.092  1.00  0.00    -0.376 OA
BRANCH  30  31
ATOM     31  C   UNL A   1      38.103  20.742  24.843  1.00  0.00     0.202 C 
BRANCH  31  32
ATOM     32  C   UNL A   1      38.387  21.596  26.084  1.00  0.00     0.261 C 
BRANCH  32  33
ATOM     33  O   UNL A   1      39.680  22.217  26.109  1.00  0.00    -0.460 OA
BRANCH  33  34
ATOM     34  C   UNL A   1      40.414  22.085  27.235  1.00  0.00     0.338 C 
ATOM     35  O   UNL A   1      40.946  21.075  27.660  1.00  0.00    -0.246 OA
BRANCH  34  36
ATOM     36  C   UNL A   1      40.626  23.438  27.779  1.00  0.00     0.060 A 
ATOM     37  C   UNL A   1      39.590  24.377  27.684  1.00  0.00     0.016 A 
ATOM     38  C   UNL A   1      41.830  23.761  28.407  1.00  0.00     0.016 A 
ATOM     39  C   UNL A   1      39.772  25.661  28.197  1.00  0.00     0.010 A 
ATOM     40  C   UNL A   1      42.018  25.051  28.901  1.00  0.00     0.010 A 
ATOM     41  C   UNL A   1      41.002  26.012  28.770  1.00  0.00    -0.014 A 
BRANCH  41  42
ATOM     42  C   UNL A   1      41.312  27.432  29.048  1.00  0.00     0.031 A 
ATOM     43  C   UNL A   1      42.757  27.841  29.099  1.00  0.00     0.074 A 
ATOM     44  C   UNL A   1      40.339  28.327  29.288  1.00  0.00     0.049 A 
ATOM     45  N   UNL A   1      43.279  29.007  29.372  1.00  0.00    -0.248 NA
ATOM     46  C   UNL A   1      43.747  26.789  28.808  1.00  0.00     0.031 C 
ATOM     47  C   UNL A   1      38.905  28.044  29.273  1.00  0.00     0.029 A 
ATOM     48  N   UNL A   1      40.420  29.655  29.625  1.00  0.00    -0.354 N 
ATOM     49  C   UNL A   1      44.654  28.826  29.309  1.00  0.00     0.074 A 
ATOM     50  C   UNL A   1      44.889  27.437  28.984  1.00  0.00     0.031 C 
ATOM     51  C   UNL A   1      38.239  29.160  29.621  1.00  0.00     0.029 A 
ATOM     52  C   UNL A   1      39.200  30.226  29.903  1.00  0.00     0.049 A 
ATOM     53  H   UNL A   1      41.269  30.151  29.664  1.00  0.00     0.167 HD
ATOM     54  C   UNL A   1      45.637  29.738  29.491  1.00  0.00     0.034 A 
ATOM     55  C   UNL A   1      38.902  31.461  30.354  1.00  0.00     0.034 A 
ATOM     56  C   UNL A   1      45.403  31.118  29.809  1.00  0.00     0.049 A 
ATOM     57  C   UNL A   1      40.018  32.451  30.578  1.00  0.00     0.074 A 
ATOM     58  C   UNL A   1      46.329  32.133  29.968  1.00  0.00     0.029 A 
ATOM     59  N   UNL A   1      44.153  31.675  30.035  1.00  0.00    -0.354 N 
ATOM     60  N   UNL A   1      41.307  32.306  30.378  1.00  0.00    -0.248 NA
ATOM     61  C   UNL A   1      39.635  33.788  31.059  1.00  0.00     0.031 C 
ATOM     62  C   UNL A   1      45.639  33.301  30.312  1.00  0.00     0.029 A 
ATOM     63  C   UNL A   1      44.283  33.016  30.345  1.00  0.00     0.049 A 
ATOM     64  H   UNL A   1      43.300  31.187  29.983  1.00  0.00     0.167 HD
ATOM     65  C   UNL A   1      41.882  33.538  30.677  1.00  0.00     0.074 A 
ATOM     66  C   UNL A   1      40.798  34.424  31.051  1.00  0.00     0.031 C 
ATOM     67  C   UNL A   1      43.189  33.900  30.660  1.00  0.00     0.034 A 
BRANCH  54  68
ATOM     68  C   UNL A   1      47.056  29.270  29.321  1.00  0.00     0.023 A 
ATOM     69  C   UNL A   1      47.678  28.553  30.363  1.00  0.00     0.012 A 
ATOM     70  C   UNL A   1      47.758  29.505  28.125  1.00  0.00     0.148 A 
ATOM     71  C   UNL A   1      48.989  28.099  30.227  1.00  0.00     0.002 A 
ATOM     72  C   UNL A   1      49.050  29.015  27.981  1.00  0.00     0.091 A 
ATOM     73  F   UNL A   1      47.158  30.215  27.159  1.00  0.00    -0.205 F 
ATOM     74  C   UNL A   1      49.670  28.320  29.033  1.00  0.00     0.022 A 
BRANCH  72  75
ATOM     75  S   UNL A   1      49.985  29.188  26.456  1.00  0.00     0.127 S 
ATOM     76  O   UNL A   1      51.224  28.487  26.790  1.00  0.00    -0.237 OA
ATOM     77  O   UNL A   1      49.132  28.494  25.491  1.00  0.00    -0.237 OA
ATOM     78  O   UNL A   1      50.116  30.620  26.228  1.00  0.00    -0.744 OA
ENDBRANCH  72  75
ENDBRANCH  54  68
BRANCH  55  79
ATOM     79  C   UNL A   1      37.482  31.849  30.590  1.00  0.00     0.023 A 
ATOM     80  C   UNL A   1      36.949  31.762  31.891  1.00  0.00     0.012 A 
ATOM     81  C   UNL A   1      36.664  32.310  29.541  1.00  0.00     0.148 A 
ATOM     82  C   UNL A   1      35.616  32.099  32.137  1.00  0.00     0.002 A 
ATOM     83  C   UNL A   1      35.354  32.695  29.803  1.00  0.00     0.091 A 
ATOM     84  F   UNL A   1      37.183  32.366  28.307  1.00  0.00    -0.205 F 
ATOM     85  C   UNL A   1      34.822  32.574  31.097  1.00  0.00     0.022 A 
BRANCH  83  86
ATOM     86  S   UNL A   1      34.298  33.436  28.553  1.00  0.00     0.127 S 
ATOM     87  O   UNL A   1      35.188  34.429  27.958  1.00  0.00    -0.237 OA
ATOM     88  O   UNL A   1      33.995  32.288  27.695  1.00  0.00    -0.237 OA
ATOM     89  O   UNL A   1      33.148  33.963  29.273  1.00  0.00    -0.744 OA
ENDBRANCH  83  86
ENDBRANCH  55  79
BRANCH  67  90
ATOM     90  C   UNL A   1      43.530  35.321  31.025  1.00  0.00     0.023 A 
ATOM     91  C   UNL A   1      43.910  35.631  32.346  1.00  0.00     0.012 A 
ATOM     92  C   UNL A   1      43.562  36.330  30.041  1.00  0.00     0.148 A 
ATOM     93  C   UNL A   1      44.286  36.929  32.688  1.00  0.00     0.002 A 
ATOM     94  C   UNL A   1      43.984  37.610  30.380  1.00  0.00     0.091 A 
ATOM     95  F   UNL A   1      43.182  36.019  28.793  1.00  0.00    -0.205 F 
ATOM     96  C   UNL A   1      44.336  37.914  31.705  1.00  0.00     0.022 A 
BRANCH  94  97
ATOM     97  S   UNL A   1      44.171  38.915  29.159  1.00  0.00     0.127 S 
ATOM     98  O   UNL A   1      45.000  38.261  28.148  1.00  0.00    -0.237 OA
ATOM     99  O   UNL A   1      42.789  39.160  28.748  1.00  0.00    -0.237 OA
ATOM    100  O   UNL A   1      44.798  40.029  29.858  1.00  0.00    -0.744 OA
ENDBRANCH  94  97
ENDBRANCH  67  90
ENDBRANCH  41  42
ENDBRANCH  34  36
ENDBRANCH  33  34
ENDBRANCH  32  33
ENDBRANCH  31  32
ENDBRANCH  30  31
ENDBRANCH  29  30
ENDBRANCH   1  29
TORSDOF 26
ENDMDL
MODEL 2
REMARK VINA RESULT:      -9.3      5.222      8.663
REMARK SMILES CS(=O)(=O)c1ccc(/C=C(/C(=O)OCCOCCOCCOCCOC(=O)c2ccc(-c3c4nc(c(-c5cccc(S(=O)(=O)[O-])c5F)c5ccc([nH]5)c(-c5cccc(S(=O)(=O)[O-])c5F)c5nc(c(-c6cccc(S(=O)(=O)[O-])c6F)c6ccc3[nH]6)C=C5)C=C4)cc2)c2ccccc2)cc1
REMARK SMILES IDX 20 1 19 2 18 3 17 4 16 5 15 6 14 7 13 8 11 9 12 10 10 11
REMARK SMILES IDX 9 12 8 13 5 14 6 15 98 16 7 17 97 18 2 19 1 20 3 21 4 22
REMARK SMILES IDX 91 23 92 24 96 25 93 26 95 27 94 28 21 29 22 30 23 31 24 32
REMARK SMILES IDX 25 33 26 34 27 35 28 36 29 37 90 38 30 39 89 40 31 41 32 42
REMARK SMILES IDX 33 43 83 44 34 45 88 46 82 47 84 48 35 49 87 50 81 51 80 52
REMARK SMILES IDX 36 54 68 55 48 56 67 57 49 58 52 59 66 60 85 61 50 62 51 63
REMARK SMILES IDX 65 65 86 66 53 67 37 68 38 69 46 70 39 71 41 72 47 73 40 74
REMARK SMILES IDX 42 75 43 76 44 77 45 78 69 79 70 80 78 81 71 82 73 83 79 84
REMARK SMILES IDX 72 85 74 86 75 87 76 88 77 89 54 90 55 91 63 92 56 93 58 94
REMARK SMILES IDX 64 95 57 96 59 97 60 98 61 99 62 100
REMARK H PARENT 84 53 52 64
REMARK Flexibility Score: inf
ROOT
ATOM      1  C   UNL A   1      45.357  19.261  24.782  1.00  0.00     0.188 C 
ENDROOT
BRANCH   1   2
ATOM      2  O   UNL A   1      44.340  19.354  25.765  1.00  0.00    -0.377 OA
BRANCH   2   3
ATOM      3  C   UNL A   1      42.983  19.267  25.376  1.00  0.00     0.188 C 
BRANCH   3   4
ATOM      4  C   UNL A   1      41.887  19.055  26.440  1.00  0.00     0.188 C 
BRANCH   4   5
ATOM      5  O   UNL A   1      41.356  20.250  27.000  1.00  0.00    -0.376 OA
BRANCH   5   6
ATOM      6  C   UNL A   1      41.334  21.378  26.135  1.00  0.00     0.202 C 
BRANCH   6   7
ATOM      7  C   UNL A   1      40.593  22.588  26.714  1.00  0.00     0.261 C 
BRANCH   7   8
ATOM      8  O   UNL A   1      39.175  22.400  26.854  1.00  0.00    -0.460 OA
BRANCH   8   9
ATOM      9  C   UNL A   1      38.359  23.307  26.268  1.00  0.00     0.338 C 
ATOM     10  O   UNL A   1      38.611  24.492  26.110  1.00  0.00    -0.246 OA
BRANCH   9  11
ATOM     11  C   UNL A   1      37.143  22.629  25.709  1.00  0.00     0.067 C 
ATOM     12  C   UNL A   1      37.243  21.328  25.346  1.00  0.00     0.024 C 
BRANCH  12  13
ATOM     13  C   UNL A   1      36.181  20.391  24.920  1.00  0.00    -0.025 A 
ATOM     14  C   UNL A   1      34.204  18.453  24.474  1.00  0.00     0.067 A 
ATOM     15  C   UNL A   1      33.868  19.804  24.439  1.00  0.00     0.021 A 
ATOM     16  C   UNL A   1      35.534  18.060  24.612  1.00  0.00     0.021 A 
ATOM     17  C   UNL A   1      34.860  20.765  24.638  1.00  0.00     0.009 A 
ATOM     18  C   UNL A   1      36.516  19.030  24.827  1.00  0.00     0.009 A 
BRANCH  14  19
ATOM     19  S   UNL A   1      32.918  17.232  24.444  1.00  0.00     0.175 S 
ATOM     20  C   UNL A   1      33.659  15.805  25.201  1.00  0.00     0.163 C 
ATOM     21  O   UNL A   1      32.668  16.882  23.058  1.00  0.00    -0.224 OA
ATOM     22  O   UNL A   1      31.853  17.701  25.308  1.00  0.00    -0.224 OA
ENDBRANCH  14  19
ENDBRANCH  12  13
BRANCH  11  23
ATOM     23  C   UNL A   1      35.897  23.415  25.613  1.00  0.00    -0.011 A 
ATOM     24  C   UNL A   1      35.615  24.141  24.442  1.00  0.00     0.009 A 
ATOM     25  C   UNL A   1      34.945  23.387  26.635  1.00  0.00     0.009 A 
ATOM     26  C   UNL A   1      34.400  24.807  24.287  1.00  0.00     0.001 A 
ATOM     27  C   UNL A   1      33.726  24.054  26.477  1.00  0.00     0.001 A 
ATOM     28  C   UNL A   1      33.453  24.758  25.304  1.00  0.00     0.000 A 
ENDBRANCH  11  23
ENDBRANCH   9  11
ENDBRANCH   8   9
ENDBRANCH   7   8
ENDBRANCH   6   7
ENDBRANCH   5   6
ENDBRANCH   4   5
ENDBRANCH   3   4
ENDBRANCH   2   3
ENDBRANCH   1   2
BRANCH   1  29
ATOM     29  C   UNL A   1      46.353  20.423  24.612  1.00  0.00     0.188 C 
BRANCH  29  30
ATOM     30  O   UNL A   1      45.766  21.666  24.237  1.00  0.00    -0.376 OA
BRANCH  30  31
ATOM     31  C   UNL A   1      45.764  22.682  25.230  1.00  0.00     0.202 C 
BRANCH  31  32
ATOM     32  C   UNL A   1      46.664  23.880  24.908  1.00  0.00     0.261 C 
BRANCH  32  33
ATOM     33  O   UNL A   1      45.968  25.074  24.525  1.00  0.00    -0.460 OA
BRANCH  33  34
ATOM     34  C   UNL A   1      46.598  26.253  24.721  1.00  0.00     0.338 C 
ATOM     35  O   UNL A   1      47.314  26.850  23.937  1.00  0.00    -0.246 OA
BRANCH  34  36
ATOM     36  C   UNL A   1      46.113  26.801  26.000  1.00  0.00     0.060 A 
ATOM     37  C   UNL A   1      44.738  26.782  26.268  1.00  0.00     0.016 A 
ATOM     38  C   UNL A   1      47.019  27.300  26.938  1.00  0.00     0.016 A 
ATOM     39  C   UNL A   1      44.262  27.293  27.475  1.00  0.00     0.010 A 
ATOM     40  C   UNL A   1      46.540  27.829  28.135  1.00  0.00     0.010 A 
ATOM     41  C   UNL A   1      45.159  27.855  28.393  1.00  0.00    -0.014 A 
BRANCH  41  42
ATOM     42  C   UNL A   1      44.652  28.656  29.530  1.00  0.00     0.031 A 
ATOM     43  C   UNL A   1      44.463  27.964  30.850  1.00  0.00     0.074 A 
ATOM     44  C   UNL A   1      44.332  29.953  29.385  1.00  0.00     0.049 A 
ATOM     45  N   UNL A   1      43.988  28.436  31.972  1.00  0.00    -0.248 NA
ATOM     46  C   UNL A   1      44.856  26.545  30.910  1.00  0.00     0.031 C 
ATOM     47  C   UNL A   1      44.466  30.726  28.152  1.00  0.00     0.029 A 
ATOM     48  N   UNL A   1      43.793  30.838  30.284  1.00  0.00    -0.354 N 
ATOM     49  C   UNL A   1      44.004  27.371  32.863  1.00  0.00     0.074 A 
ATOM     50  C   UNL A   1      44.524  26.225  32.151  1.00  0.00     0.031 C 
ATOM     51  C   UNL A   1      43.988  31.966  28.362  1.00  0.00     0.029 A 
ATOM     52  C   UNL A   1      43.497  32.065  29.737  1.00  0.00     0.049 A 
ATOM     53  H   UNL A   1      43.634  30.617  31.230  1.00  0.00     0.167 HD
ATOM     54  C   UNL A   1      43.633  27.351  34.164  1.00  0.00     0.034 A 
ATOM     55  C   UNL A   1      42.880  33.132  30.282  1.00  0.00     0.034 A 
ATOM     56  C   UNL A   1      43.122  28.491  34.871  1.00  0.00     0.049 A 
ATOM     57  C   UNL A   1      42.449  33.075  31.726  1.00  0.00     0.074 A 
ATOM     58  C   UNL A   1      42.762  28.585  36.203  1.00  0.00     0.029 A 
ATOM     59  N   UNL A   1      42.882  29.730  34.300  1.00  0.00    -0.354 N 
ATOM     60  N   UNL A   1      42.599  32.106  32.598  1.00  0.00    -0.248 NA
ATOM     61  C   UNL A   1      41.791  34.272  32.273  1.00  0.00     0.031 C 
ATOM     62  C   UNL A   1      42.282  29.879  36.433  1.00  0.00     0.029 A 
ATOM     63  C   UNL A   1      42.365  30.594  35.248  1.00  0.00     0.049 A 
ATOM     64  H   UNL A   1      43.053  29.962  33.359  1.00  0.00     0.167 HD
ATOM     65  C   UNL A   1      42.086  32.587  33.798  1.00  0.00     0.074 A 
ATOM     66  C   UNL A   1      41.641  33.942  33.548  1.00  0.00     0.031 C 
ATOM     67  C   UNL A   1      41.978  31.960  34.997  1.00  0.00     0.034 A 
BRANCH  54  68
ATOM     68  C   UNL A   1      43.797  26.055  34.910  1.00  0.00     0.023 A 
ATOM     69  C   UNL A   1      42.719  25.148  34.967  1.00  0.00     0.012 A 
ATOM     70  C   UNL A   1      45.019  25.719  35.520  1.00  0.00     0.148 A 
ATOM     71  C   UNL A   1      42.848  23.936  35.643  1.00  0.00     0.002 A 
ATOM     72  C   UNL A   1      45.153  24.492  36.158  1.00  0.00     0.091 A 
ATOM     73  F   UNL A   1      46.020  26.609  35.480  1.00  0.00    -0.205 F 
ATOM     74  C   UNL A   1      44.067  23.604  36.228  1.00  0.00     0.022 A 
BRANCH  72  75
ATOM     75  S   UNL A   1      46.702  23.944  36.882  1.00  0.00     0.127 S 
ATOM     76  O   UNL A   1      46.340  22.618  37.382  1.00  0.00    -0.237 OA
ATOM     77  O   UNL A   1      47.598  23.935  35.726  1.00  0.00    -0.237 OA
ATOM     78  O   UNL A   1      47.038  24.928  37.902  1.00  0.00    -0.744 OA
ENDBRANCH  72  75
ENDBRANCH  54  68
BRANCH  55  79
ATOM     79  C   UNL A   1      42.664  34.365  29.472  1.00  0.00     0.023 A 
ATOM     80  C   UNL A   1      41.408  34.589  28.874  1.00  0.00     0.012 A 
ATOM     81  C   UNL A   1      43.686  35.318  29.300  1.00  0.00     0.148 A 
ATOM     82  C   UNL A   1      41.184  35.724  28.093  1.00  0.00     0.002 A 
ATOM     83  C   UNL A   1      43.440  36.473  28.566  1.00  0.00     0.091 A 
ATOM     84  F   UNL A   1      44.880  35.078  29.859  1.00  0.00    -0.205 F 
ATOM     85  C   UNL A   1      42.195  36.670  27.947  1.00  0.00     0.022 A 
BRANCH  83  86
ATOM     86  S   UNL A   1      44.639  37.803  28.429  1.00  0.00     0.127 S 
ATOM     87  O   UNL A   1      45.704  37.170  27.656  1.00  0.00    -0.237 OA
ATOM     88  O   UNL A   1      43.878  38.825  27.708  1.00  0.00    -0.237 OA
ATOM     89  O   UNL A   1      44.979  38.166  29.798  1.00  0.00    -0.744 OA
ENDBRANCH  83  86
ENDBRANCH  55  79
BRANCH  67  90
ATOM     90  C   UNL A   1      41.384  32.734  36.145  1.00  0.00     0.023 A 
ATOM     91  C   UNL A   1      42.097  33.813  36.703  1.00  0.00     0.012 A 
ATOM     92  C   UNL A   1      40.084  32.449  36.609  1.00  0.00     0.148 A 
ATOM     93  C   UNL A   1      41.538  34.577  37.725  1.00  0.00     0.002 A 
ATOM     94  C   UNL A   1      39.515  33.245  37.596  1.00  0.00     0.091 A 
ATOM     95  F   UNL A   1      39.428  31.407  36.077  1.00  0.00    -0.205 F 
ATOM     96  C   UNL A   1      40.244  34.303  38.162  1.00  0.00     0.022 A 
BRANCH  94  97
ATOM     97  S   UNL A   1      37.820  33.024  38.151  1.00  0.00     0.127 S 
ATOM     98  O   UNL A   1      37.874  31.690  38.748  1.00  0.00    -0.237 OA
ATOM     99  O   UNL A   1      37.660  34.116  39.110  1.00  0.00    -0.237 OA
ATOM    100  O   UNL A   1      36.991  33.143  36.958  1.00  0.00    -0.744 OA
ENDBRANCH  94  97
ENDBRANCH  67  90
ENDBRANCH  41  42
ENDBRANCH  34  36
ENDBRANCH  33  34
ENDBRANCH  32  33
ENDBRANCH  31  32
ENDBRANCH  30  31
ENDBRANCH  29  30
ENDBRANCH   1  29
TORSDOF 26
ENDMDL
MODEL 3
REMARK VINA RESULT:      -8.7      4.177     10.056
REMARK SMILES CS(=O)(=O)c1ccc(/C=C(/C(=O)OCCOCCOCCOCCOC(=O)c2ccc(-c3c4nc(c(-c5cccc(S(=O)(=O)[O-])c5F)c5ccc([nH]5)c(-c5cccc(S(=O)(=O)[O-])c5F)c5nc(c(-c6cccc(S(=O)(=O)[O-])c6F)c6ccc3[nH]6)C=C5)C=C4)cc2)c2ccccc2)cc1
REMARK SMILES IDX 20 1 19 2 18 3 17 4 16 5 15 6 14 7 13 8 11 9 12 10 10 11
REMARK SMILES IDX 9 12 8 13 5 14 6 15 98 16 7 17 97 18 2 19 1 20 3 21 4 22
REMARK SMILES IDX 91 23 92 24 96 25 93 26 95 27 94 28 21 29 22 30 23 31 24 32
REMARK SMILES IDX 25 33 26 34 27 35 28 36 29 37 90 38 30 39 89 40 31 41 32 42
REMARK SMILES IDX 33 43 83 44 34 45 88 46 82 47 84 48 35 49 87 50 81 51 80 52
REMARK SMILES IDX 36 54 68 55 48 56 67 57 49 58 52 59 66 60 85 61 50 62 51 63
REMARK SMILES IDX 65 65 86 66 53 67 37 68 38 69 46 70 39 71 41 72 47 73 40 74
REMARK SMILES IDX 42 75 43 76 44 77 45 78 69 79 70 80 78 81 71 82 73 83 79 84
REMARK SMILES IDX 72 85 74 86 75 87 76 88 77 89 54 90 55 91 63 92 56 93 58 94
REMARK SMILES IDX 64 95 57 96 59 97 60 98 61 99 62 100
REMARK H PARENT 84 53 52 64
REMARK Flexibility Score: inf
ROOT
ATOM      1  C   UNL A   1      36.683  30.040  29.436  1.00  0.00     0.188 C 
ENDROOT
BRANCH   1   2
ATOM      2  O   UNL A   1      35.392  29.717  28.948  1.00  0.00    -0.377 OA
BRANCH   2   3
ATOM      3  C   UNL A   1      35.229  29.349  27.593  1.00  0.00     0.188 C 
BRANCH   3   4
ATOM      4  C   UNL A   1      33.893  28.750  27.110  1.00  0.00     0.188 C 
BRANCH   4   5
ATOM      5  O   UNL A   1      33.842  28.441  25.722  1.00  0.00    -0.376 OA
BRANCH   5   6
ATOM      6  C   UNL A   1      33.539  27.089  25.404  1.00  0.00     0.202 C 
BRANCH   6   7
ATOM      7  C   UNL A   1      32.864  26.910  24.040  1.00  0.00     0.261 C 
BRANCH   7   8
ATOM      8  O   UNL A   1      32.302  25.605  23.827  1.00  0.00    -0.460 OA
BRANCH   8   9
ATOM      9  C   UNL A   1      32.847  24.835  22.856  1.00  0.00     0.338 C 
ATOM     10  O   UNL A   1      33.116  25.206  21.723  1.00  0.00    -0.246 OA
BRANCH   9  11
ATOM     11  C   UNL A   1      33.207  23.484  23.401  1.00  0.00     0.067 C 
ATOM     12  C   UNL A   1      32.287  22.494  23.322  1.00  0.00     0.024 C 
BRANCH  12  13
ATOM     13  C   UNL A   1      32.431  21.056  23.635  1.00  0.00    -0.025 A 
ATOM     14  C   UNL A   1      33.003  18.331  23.963  1.00  0.00     0.067 A 
ATOM     15  C   UNL A   1      33.138  19.200  25.043  1.00  0.00     0.021 A 
ATOM     16  C   UNL A   1      32.474  18.782  22.755  1.00  0.00     0.021 A 
ATOM     17  C   UNL A   1      32.829  20.551  24.880  1.00  0.00     0.009 A 
ATOM     18  C   UNL A   1      32.184  20.140  22.599  1.00  0.00     0.009 A 
BRANCH  14  19
ATOM     19  S   UNL A   1      33.602  16.666  24.101  1.00  0.00     0.175 S 
ATOM     20  C   UNL A   1      35.075  16.817  25.084  1.00  0.00     0.163 C 
ATOM     21  O   UNL A   1      34.025  16.234  22.783  1.00  0.00    -0.224 OA
ATOM     22  O   UNL A   1      32.624  15.916  24.864  1.00  0.00    -0.224 OA
ENDBRANCH  14  19
ENDBRANCH  12  13
BRANCH  11  23
ATOM     23  C   UNL A   1      34.558  23.307  23.967  1.00  0.00    -0.011 A 
ATOM     24  C   UNL A   1      35.625  22.935  23.130  1.00  0.00     0.009 A 
ATOM     25  C   UNL A   1      34.820  23.583  25.312  1.00  0.00     0.009 A 
ATOM     26  C   UNL A   1      36.929  22.860  23.620  1.00  0.00     0.001 A 
ATOM     27  C   UNL A   1      36.128  23.510  25.801  1.00  0.00     0.001 A 
ATOM     28  C   UNL A   1      37.180  23.154  24.956  1.00  0.00     0.000 A 
ENDBRANCH  11  23
ENDBRANCH   9  11
ENDBRANCH   8   9
ENDBRANCH   7   8
ENDBRANCH   6   7
ENDBRANCH   5   6
ENDBRANCH   4   5
ENDBRANCH   3   4
ENDBRANCH   2   3
ENDBRANCH   1   2
BRANCH   1  29
ATOM     29  C   UNL A   1      37.456  31.215  28.809  1.00  0.00     0.188 C 
BRANCH  29  30
ATOM     30  O   UNL A   1      37.389  32.436  29.541  1.00  0.00    -0.376 OA
BRANCH  30  31
ATOM     31  C   UNL A   1      38.219  32.523  30.691  1.00  0.00     0.202 C 
BRANCH  31  32
ATOM     32  C   UNL A   1      38.207  33.896  31.373  1.00  0.00     0.261 C 
BRANCH  32  33
ATOM     33  O   UNL A   1      39.485  34.544  31.451  1.00  0.00    -0.460 OA
BRANCH  33  34
ATOM     34  C   UNL A   1      40.317  34.164  32.445  1.00  0.00     0.338 C 
ATOM     35  O   UNL A   1      40.215  34.413  33.633  1.00  0.00    -0.246 OA
BRANCH  34  36
ATOM     36  C   UNL A   1      41.287  33.218  31.866  1.00  0.00     0.060 A 
ATOM     37  C   UNL A   1      42.149  32.521  32.723  1.00  0.00     0.016 A 
ATOM     38  C   UNL A   1      41.320  33.003  30.487  1.00  0.00     0.016 A 
ATOM     39  C   UNL A   1      43.071  31.620  32.192  1.00  0.00     0.010 A 
ATOM     40  C   UNL A   1      42.256  32.117  29.956  1.00  0.00     0.010 A 
ATOM     41  C   UNL A   1      43.153  31.447  30.803  1.00  0.00    -0.014 A 
BRANCH  41  42
ATOM     42  C   UNL A   1      44.305  30.729  30.213  1.00  0.00     0.031 A 
ATOM     43  C   UNL A   1      45.526  31.529  29.858  1.00  0.00     0.074 A 
ATOM     44  C   UNL A   1      44.253  29.410  29.962  1.00  0.00     0.049 A 
ATOM     45  N   UNL A   1      46.634  31.139  29.287  1.00  0.00    -0.248 NA
ATOM     46  C   UNL A   1      45.488  32.965  30.186  1.00  0.00     0.031 C 
ATOM     47  C   UNL A   1      43.120  28.535  30.256  1.00  0.00     0.029 A 
ATOM     48  N   UNL A   1      45.175  28.585  29.367  1.00  0.00    -0.354 N 
ATOM     49  C   UNL A   1      47.416  32.280  29.167  1.00  0.00     0.074 A 
ATOM     50  C   UNL A   1      46.653  33.381  29.712  1.00  0.00     0.031 C 
ATOM     51  C   UNL A   1      43.400  27.297  29.808  1.00  0.00     0.029 A 
ATOM     52  C   UNL A   1      44.721  27.300  29.180  1.00  0.00     0.049 A 
ATOM     53  H   UNL A   1      46.074  28.884  29.101  1.00  0.00     0.167 HD
ATOM     54  C   UNL A   1      48.665  32.400  28.661  1.00  0.00     0.034 A 
ATOM     55  C   UNL A   1      45.302  26.257  28.553  1.00  0.00     0.034 A 
ATOM     56  C   UNL A   1      49.424  31.306  28.125  1.00  0.00     0.049 A 
ATOM     57  C   UNL A   1      46.683  26.425  27.970  1.00  0.00     0.074 A 
ATOM     58  C   UNL A   1      50.716  31.316  27.631  1.00  0.00     0.029 A 
ATOM     59  N   UNL A   1      48.953  30.009  27.995  1.00  0.00    -0.354 N 
ATOM     60  N   UNL A   1      47.468  27.477  27.989  1.00  0.00    -0.248 NA
ATOM     61  C   UNL A   1      47.273  25.252  27.308  1.00  0.00     0.031 C 
ATOM     62  C   UNL A   1      51.019  30.026  27.182  1.00  0.00     0.029 A 
ATOM     63  C   UNL A   1      49.924  29.211  27.417  1.00  0.00     0.049 A 
ATOM     64  H   UNL A   1      48.061  29.701  28.274  1.00  0.00     0.167 HD
ATOM     65  C   UNL A   1      48.651  27.082  27.373  1.00  0.00     0.074 A 
ATOM     66  C   UNL A   1      48.489  25.689  27.011  1.00  0.00     0.031 C 
ATOM     67  C   UNL A   1      49.767  27.810  27.114  1.00  0.00     0.034 A 
BRANCH  54  68
ATOM     68  C   UNL A   1      49.296  33.766  28.693  1.00  0.00     0.023 A 
ATOM     69  C   UNL A   1      50.066  34.147  29.810  1.00  0.00     0.012 A 
ATOM     70  C   UNL A   1      49.158  34.653  27.610  1.00  0.00     0.148 A 
ATOM     71  C   UNL A   1      50.669  35.402  29.861  1.00  0.00     0.002 A 
ATOM     72  C   UNL A   1      49.795  35.887  27.650  1.00  0.00     0.091 A 
ATOM     73  F   UNL A   1      48.396  34.282  26.572  1.00  0.00    -0.205 F 
ATOM     74  C   UNL A   1      50.542  36.267  28.777  1.00  0.00     0.022 A 
BRANCH  72  75
ATOM     75  S   UNL A   1      49.749  37.043  26.275  1.00  0.00     0.127 S 
ATOM     76  O   UNL A   1      49.975  38.318  26.955  1.00  0.00    -0.237 OA
ATOM     77  O   UNL A   1      50.867  36.585  25.449  1.00  0.00    -0.237 OA
ATOM     78  O   UNL A   1      48.438  36.883  25.662  1.00  0.00    -0.744 OA
ENDBRANCH  72  75
ENDBRANCH  54  68
BRANCH  55  79
ATOM     79  C   UNL A   1      44.597  24.946  28.473  1.00  0.00     0.023 A 
ATOM     80  C   UNL A   1      44.420  24.183  29.643  1.00  0.00     0.012 A 
ATOM     81  C   UNL A   1      44.092  24.458  27.252  1.00  0.00     0.148 A 
ATOM     82  C   UNL A   1      43.782  22.942  29.594  1.00  0.00     0.002 A 
ATOM     83  C   UNL A   1      43.410  23.247  27.219  1.00  0.00     0.091 A 
ATOM     84  F   UNL A   1      44.288  25.189  26.145  1.00  0.00    -0.205 F 
ATOM     85  C   UNL A   1      43.269  22.479  28.386  1.00  0.00     0.022 A 
BRANCH  83  86
ATOM     86  S   UNL A   1      42.608  22.633  25.734  1.00  0.00     0.127 S 
ATOM     87  O   UNL A   1      42.902  23.692  24.773  1.00  0.00    -0.237 OA
ATOM     88  O   UNL A   1      43.321  21.375  25.503  1.00  0.00    -0.237 OA
ATOM     89  O   UNL A   1      41.205  22.467  26.087  1.00  0.00    -0.744 OA
ENDBRANCH  83  86
ENDBRANCH  55  79
BRANCH  67  90
ATOM     90  C   UNL A   1      50.918  27.116  26.434  1.00  0.00     0.023 A 
ATOM     91  C   UNL A   1      51.598  26.076  27.099  1.00  0.00     0.012 A 
ATOM     92  C   UNL A   1      51.267  27.433  25.106  1.00  0.00     0.148 A 
ATOM     93  C   UNL A   1      52.626  25.383  26.463  1.00  0.00     0.002 A 
ATOM     94  C   UNL A   1      52.261  26.705  24.463  1.00  0.00     0.091 A 
ATOM     95  F   UNL A   1      50.619  28.436  24.496  1.00  0.00    -0.205 F 
ATOM     96  C   UNL A   1      52.949  25.687  25.143  1.00  0.00     0.022 A 
BRANCH  94  97
ATOM     97  S   UNL A   1      52.675  26.964  22.733  1.00  0.00     0.127 S 
ATOM     98  O   UNL A   1      51.363  26.872  22.095  1.00  0.00    -0.237 OA
ATOM     99  O   UNL A   1      53.252  28.308  22.748  1.00  0.00    -0.237 OA
ATOM    100  O   UNL A   1      53.617  25.908  22.386  1.00  0.00    -0.744 OA
ENDBRANCH  94  97
ENDBRANCH  67  90
ENDBRANCH  41  42
ENDBRANCH  34  36
ENDBRANCH  33  34
ENDBRANCH  32  33
ENDBRANCH  31  32
ENDBRANCH  30  31
ENDBRANCH  29  30
ENDBRANCH   1  29
TORSDOF 26
ENDMDL
