MODEL 1
REMARK VINA RESULT:      -8.6      0.000      0.000
REMARK SMILES CSc1ncccc1C(=O)N1CSC[C@H]1C(=O)OCCOCCOCCOCCOC(=O)c1ccc(-c2c3nc(c(-c4cccc(S(=O)(=O)[O-])c4F)c4ccc([nH]4)c(-c4cccc(S(=O)(=O)[O-])c4F)c4nc(c(-c5cccc(S(=O)(=O)[O-])c5F)c5ccc2[nH]5)C=C4)C=C3)cc1
REMARK SMILES IDX 24 1 23 2 22 3 21 4 20 5 19 6 18 7 16 8 17 9 15 10 11 11
REMARK SMILES IDX 12 12 13 13 14 14 9 15 10 16 8 17 3 18 4 19 5 20 7 21 6 22
REMARK SMILES IDX 2 23 1 24 25 25 26 26 27 27 28 28 29 29 30 30 31 31 32 32
REMARK SMILES IDX 33 33 34 34 95 35 35 36 94 37 36 38 37 39 38 40 88 41 39 42
REMARK SMILES IDX 93 43 87 44 89 45 40 46 92 47 86 48 85 49 41 51 73 52 53 53
REMARK SMILES IDX 72 54 54 55 57 56 71 57 90 58 55 59 56 60 70 62 91 63 58 64
REMARK SMILES IDX 42 65 43 66 51 67 44 68 46 69 52 70 45 71 47 72 48 73 49 74
REMARK SMILES IDX 50 75 74 76 75 77 83 78 76 79 78 80 84 81 77 82 79 83 80 84
REMARK SMILES IDX 81 85 82 86 59 87 60 88 68 89 61 90 63 91 69 92 62 93 64 94
REMARK SMILES IDX 65 95 66 96 67 97
REMARK H PARENT 89 50 57 61
REMARK Flexibility Score: inf
ROOT
ATOM      1  O   UNL A   1      43.469  19.629  26.399  1.00  0.00    -0.377 OA
ENDROOT
BRANCH   1   2
ATOM      2  C   UNL A   1      42.104  19.424  26.085  1.00  0.00     0.188 C 
BRANCH   2   3
ATOM      3  C   UNL A   1      41.294  20.701  25.781  1.00  0.00     0.188 C 
BRANCH   3   4
ATOM      4  O   UNL A   1      40.047  20.975  26.420  1.00  0.00    -0.376 OA
BRANCH   4   5
ATOM      5  C   UNL A   1      38.832  20.866  25.694  1.00  0.00     0.202 C 
BRANCH   5   6
ATOM      6  C   UNL A   1      37.780  21.972  25.891  1.00  0.00     0.261 C 
BRANCH   6   7
ATOM      7  O   UNL A   1      36.398  21.561  25.766  1.00  0.00    -0.462 OA
BRANCH   7   8
ATOM      8  C   UNL A   1      35.570  22.427  25.131  1.00  0.00     0.329 C 
ATOM      9  O   UNL A   1      35.967  23.365  24.439  1.00  0.00    -0.250 OA
BRANCH   8  10
ATOM     10  C   UNL A   1      34.065  22.280  25.475  1.00  0.00     0.206 C 
ATOM     11  N   UNL A   1      32.899  22.725  24.666  1.00  0.00    -0.315 N 
ATOM     12  C   UNL A   1      32.449  21.725  23.724  1.00  0.00     0.191 C 
ATOM     13  S   UNL A   1      32.547  20.182  24.654  1.00  0.00    -0.138 SA
ATOM     14  C   UNL A   1      33.872  20.779  25.748  1.00  0.00     0.108 C 
BRANCH  11  15
ATOM     15  C   UNL A   1      32.241  23.923  24.987  1.00  0.00     0.258 C 
ATOM     16  O   UNL A   1      31.545  24.001  25.998  1.00  0.00    -0.269 OA
BRANCH  15  17
ATOM     17  C   UNL A   1      32.216  25.072  24.023  1.00  0.00     0.072 A 
ATOM     18  C   UNL A   1      31.175  26.006  23.910  1.00  0.00     0.108 A 
ATOM     19  N   UNL A   1      31.135  26.944  22.916  1.00  0.00    -0.249 NA
ATOM     20  C   UNL A   1      32.111  26.950  21.992  1.00  0.00     0.112 A 
ATOM     21  C   UNL A   1      33.200  25.105  23.019  1.00  0.00     0.018 A 
ATOM     22  C   UNL A   1      33.157  26.056  22.000  1.00  0.00     0.021 A 
BRANCH  18  23
ATOM     23  S   UNL A   1      29.735  26.075  24.958  1.00  0.00    -0.109 SA
ATOM     24  C   UNL A   1      28.503  26.685  23.763  1.00  0.00     0.092 C 
ENDBRANCH  18  23
ENDBRANCH  15  17
ENDBRANCH  11  15
ENDBRANCH   8  10
ENDBRANCH   7   8
ENDBRANCH   6   7
ENDBRANCH   5   6
ENDBRANCH   4   5
ENDBRANCH   3   4
ENDBRANCH   2   3
ENDBRANCH   1   2
BRANCH   1  25
ATOM     25  C   UNL A   1      44.402  19.264  25.401  1.00  0.00     0.188 C 
BRANCH  25  26
ATOM     26  C   UNL A   1      45.111  20.431  24.697  1.00  0.00     0.188 C 
BRANCH  26  27
ATOM     27  O   UNL A   1      44.229  21.266  23.958  1.00  0.00    -0.376 OA
BRANCH  27  28
ATOM     28  C   UNL A   1      44.130  22.640  24.304  1.00  0.00     0.202 C 
BRANCH  28  29
ATOM     29  C   UNL A   1      45.340  23.309  24.969  1.00  0.00     0.261 C 
BRANCH  29  30
ATOM     30  O   UNL A   1      45.111  24.292  25.979  1.00  0.00    -0.460 OA
BRANCH  30  31
ATOM     31  C   UNL A   1      45.125  25.595  25.643  1.00  0.00     0.338 C 
ATOM     32  O   UNL A   1      45.549  26.091  24.624  1.00  0.00    -0.246 OA
BRANCH  31  33
ATOM     33  C   UNL A   1      44.305  26.276  26.669  1.00  0.00     0.060 A 
ATOM     34  C   UNL A   1      44.421  27.665  26.801  1.00  0.00     0.016 A 
ATOM     35  C   UNL A   1      43.381  25.560  27.436  1.00  0.00     0.016 A 
ATOM     36  C   UNL A   1      43.642  28.337  27.739  1.00  0.00     0.010 A 
ATOM     37  C   UNL A   1      42.617  26.232  28.390  1.00  0.00     0.010 A 
ATOM     38  C   UNL A   1      42.780  27.616  28.572  1.00  0.00    -0.014 A 
BRANCH  38  39
ATOM     39  C   UNL A   1      42.236  28.267  29.784  1.00  0.00     0.031 A 
ATOM     40  C   UNL A   1      40.945  29.026  29.650  1.00  0.00     0.074 A 
ATOM     41  C   UNL A   1      42.860  28.179  30.970  1.00  0.00     0.049 A 
ATOM     42  N   UNL A   1      40.268  29.679  30.555  1.00  0.00    -0.248 NA
ATOM     43  C   UNL A   1      40.337  29.051  28.308  1.00  0.00     0.031 C 
ATOM     44  C   UNL A   1      44.107  27.458  31.220  1.00  0.00     0.029 A 
ATOM     45  N   UNL A   1      42.531  28.718  32.187  1.00  0.00    -0.354 N 
ATOM     46  C   UNL A   1      39.177  30.222  29.889  1.00  0.00     0.074 A 
ATOM     47  C   UNL A   1      39.287  29.834  28.501  1.00  0.00     0.031 C 
ATOM     48  C   UNL A   1      44.449  27.618  32.510  1.00  0.00     0.029 A 
ATOM     49  C   UNL A   1      43.460  28.471  33.168  1.00  0.00     0.049 A 
ATOM     50  H   UNL A   1      41.707  29.235  32.343  1.00  0.00     0.167 HD
ATOM     51  C   UNL A   1      38.168  30.972  30.388  1.00  0.00     0.034 A 
ATOM     52  C   UNL A   1      43.511  28.903  34.443  1.00  0.00     0.034 A 
ATOM     53  C   UNL A   1      38.062  31.348  31.770  1.00  0.00     0.049 A 
ATOM     54  C   UNL A   1      42.394  29.767  34.969  1.00  0.00     0.074 A 
ATOM     55  C   UNL A   1      37.054  32.059  32.393  1.00  0.00     0.029 A 
ATOM     56  N   UNL A   1      39.014  31.067  32.739  1.00  0.00    -0.354 N 
ATOM     57  N   UNL A   1      41.306  30.175  34.359  1.00  0.00    -0.248 NA
ATOM     58  C   UNL A   1      42.494  30.204  36.369  1.00  0.00     0.031 C 
ATOM     59  C   UNL A   1      37.419  32.249  33.730  1.00  0.00     0.029 A 
ATOM     60  C   UNL A   1      38.631  31.611  33.952  1.00  0.00     0.049 A 
ATOM     61  H   UNL A   1      39.840  30.554  32.586  1.00  0.00     0.167 HD
ATOM     62  C   UNL A   1      40.575  30.881  35.310  1.00  0.00     0.074 A 
ATOM     63  C   UNL A   1      41.338  30.831  36.540  1.00  0.00     0.031 C 
ATOM     64  C   UNL A   1      39.384  31.517  35.176  1.00  0.00     0.034 A 
BRANCH  51  65
ATOM     65  C   UNL A   1      37.109  31.439  29.425  1.00  0.00     0.023 A 
ATOM     66  C   UNL A   1      37.113  32.769  28.955  1.00  0.00     0.012 A 
ATOM     67  C   UNL A   1      36.117  30.550  28.970  1.00  0.00     0.148 A 
ATOM     68  C   UNL A   1      36.120  33.218  28.085  1.00  0.00     0.002 A 
ATOM     69  C   UNL A   1      35.160  30.990  28.063  1.00  0.00     0.091 A 
ATOM     70  F   UNL A   1      36.111  29.299  29.450  1.00  0.00    -0.205 F 
ATOM     71  C   UNL A   1      35.152  32.326  27.632  1.00  0.00     0.022 A 
BRANCH  69  72
ATOM     72  S   UNL A   1      33.922  29.896  27.361  1.00  0.00     0.127 S 
ATOM     73  O   UNL A   1      32.737  30.754  27.362  1.00  0.00    -0.237 OA
ATOM     74  O   UNL A   1      34.474  29.620  26.034  1.00  0.00    -0.237 OA
ATOM     75  O   UNL A   1      33.859  28.741  28.245  1.00  0.00    -0.744 OA
ENDBRANCH  69  72
ENDBRANCH  51  65
BRANCH  52  76
ATOM     76  C   UNL A   1      44.642  28.494  35.323  1.00  0.00     0.023 A 
ATOM     77  C   UNL A   1      44.521  27.336  36.117  1.00  0.00     0.012 A 
ATOM     78  C   UNL A   1      45.842  29.231  35.361  1.00  0.00     0.148 A 
ATOM     79  C   UNL A   1      45.565  26.934  36.951  1.00  0.00     0.002 A 
ATOM     80  C   UNL A   1      46.898  28.794  36.152  1.00  0.00     0.091 A 
ATOM     81  F   UNL A   1      45.930  30.336  34.608  1.00  0.00    -0.205 F 
ATOM     82  C   UNL A   1      46.756  27.656  36.961  1.00  0.00     0.022 A 
BRANCH  80  83
ATOM     83  S   UNL A   1      48.508  29.588  36.139  1.00  0.00     0.127 S 
ATOM     84  O   UNL A   1      48.982  29.282  34.792  1.00  0.00    -0.237 OA
ATOM     85  O   UNL A   1      48.149  30.989  36.364  1.00  0.00    -0.237 OA
ATOM     86  O   UNL A   1      49.262  28.977  37.224  1.00  0.00    -0.744 OA
ENDBRANCH  80  83
ENDBRANCH  52  76
BRANCH  64  87
ATOM     87  C   UNL A   1      38.800  32.176  36.400  1.00  0.00     0.023 A 
ATOM     88  C   UNL A   1      39.025  33.544  36.644  1.00  0.00     0.012 A 
ATOM     89  C   UNL A   1      37.958  31.449  37.268  1.00  0.00     0.148 A 
ATOM     90  C   UNL A   1      38.453  34.170  37.751  1.00  0.00     0.002 A 
ATOM     91  C   UNL A   1      37.347  32.091  38.336  1.00  0.00     0.091 A 
ATOM     92  F   UNL A   1      37.767  30.143  37.026  1.00  0.00    -0.205 F 
ATOM     93  C   UNL A   1      37.605  33.449  38.589  1.00  0.00     0.022 A 
BRANCH  91  94
ATOM     94  S   UNL A   1      36.160  31.269  39.404  1.00  0.00     0.127 S 
ATOM     95  O   UNL A   1      36.079  29.943  38.793  1.00  0.00    -0.237 OA
ATOM     96  O   UNL A   1      36.837  31.304  40.701  1.00  0.00    -0.237 OA
ATOM     97  O   UNL A   1      34.940  32.062  39.336  1.00  0.00    -0.744 OA
ENDBRANCH  91  94
ENDBRANCH  64  87
ENDBRANCH  38  39
ENDBRANCH  31  33
ENDBRANCH  30  31
ENDBRANCH  29  30
ENDBRANCH  28  29
ENDBRANCH  27  28
ENDBRANCH  26  27
ENDBRANCH  25  26
ENDBRANCH   1  25
TORSDOF 26
ENDMDL
MODEL 2
REMARK VINA RESULT:      -7.8     11.847     17.792
REMARK SMILES CSc1ncccc1C(=O)N1CSC[C@H]1C(=O)OCCOCCOCCOCCOC(=O)c1ccc(-c2c3nc(c(-c4cccc(S(=O)(=O)[O-])c4F)c4ccc([nH]4)c(-c4cccc(S(=O)(=O)[O-])c4F)c4nc(c(-c5cccc(S(=O)(=O)[O-])c5F)c5ccc2[nH]5)C=C4)C=C3)cc1
REMARK SMILES IDX 24 1 23 2 22 3 21 4 20 5 19 6 18 7 16 8 17 9 15 10 11 11
REMARK SMILES IDX 12 12 13 13 14 14 9 15 10 16 8 17 3 18 4 19 5 20 7 21 6 22
REMARK SMILES IDX 2 23 1 24 25 25 26 26 27 27 28 28 29 29 30 30 31 31 32 32
REMARK SMILES IDX 33 33 34 34 95 35 35 36 94 37 36 38 37 39 38 40 88 41 39 42
REMARK SMILES IDX 93 43 87 44 89 45 40 46 92 47 86 48 85 49 41 51 73 52 53 53
REMARK SMILES IDX 72 54 54 55 57 56 71 57 90 58 55 59 56 60 70 62 91 63 58 64
REMARK SMILES IDX 42 65 43 66 51 67 44 68 46 69 52 70 45 71 47 72 48 73 49 74
REMARK SMILES IDX 50 75 74 76 75 77 83 78 76 79 78 80 84 81 77 82 79 83 80 84
REMARK SMILES IDX 81 85 82 86 59 87 60 88 68 89 61 90 63 91 69 92 62 93 64 94
REMARK SMILES IDX 65 95 66 96 67 97
REMARK H PARENT 89 50 57 61
REMARK Flexibility Score: inf
ROOT
ATOM      1  O   UNL A   1      44.234  42.618  25.207  1.00  0.00    -0.377 OA
ENDROOT
BRANCH   1   2
ATOM      2  C   UNL A   1      44.602  43.957  25.479  1.00  0.00     0.188 C 
BRANCH   2   3
ATOM      3  C   UNL A   1      44.623  44.901  24.260  1.00  0.00     0.188 C 
BRANCH   3   4
ATOM      4  O   UNL A   1      45.797  45.086  23.468  1.00  0.00    -0.376 OA
BRANCH   4   5
ATOM      5  C   UNL A   1      46.247  44.054  22.604  1.00  0.00     0.202 C 
BRANCH   5   6
ATOM      6  C   UNL A   1      45.185  43.266  21.819  1.00  0.00     0.261 C 
BRANCH   6   7
ATOM      7  O   UNL A   1      45.228  43.404  20.378  1.00  0.00    -0.462 OA
BRANCH   7   8
ATOM      8  C   UNL A   1      46.426  43.163  19.789  1.00  0.00     0.329 C 
ATOM      9  O   UNL A   1      47.060  42.119  19.938  1.00  0.00    -0.250 OA
BRANCH   8  10
ATOM     10  C   UNL A   1      47.054  44.369  19.045  1.00  0.00     0.206 C 
ATOM     11  N   UNL A   1      46.417  45.675  18.727  1.00  0.00    -0.315 N 
ATOM     12  C   UNL A   1      46.578  46.654  19.778  1.00  0.00     0.191 C 
ATOM     13  S   UNL A   1      48.283  46.430  20.319  1.00  0.00    -0.138 SA
ATOM     14  C   UNL A   1      48.343  44.680  19.824  1.00  0.00     0.108 C 
BRANCH  11  15
ATOM     15  C   UNL A   1      45.910  45.910  17.439  1.00  0.00     0.258 C 
ATOM     16  O   UNL A   1      46.652  45.864  16.459  1.00  0.00    -0.269 OA
BRANCH  15  17
ATOM     17  C   UNL A   1      44.507  46.403  17.240  1.00  0.00     0.072 A 
ATOM     18  C   UNL A   1      43.371  45.584  17.158  1.00  0.00     0.108 A 
ATOM     19  N   UNL A   1      42.137  46.071  16.829  1.00  0.00    -0.249 NA
ATOM     20  C   UNL A   1      42.013  47.378  16.539  1.00  0.00     0.112 A 
ATOM     21  C   UNL A   1      44.330  47.757  16.905  1.00  0.00     0.018 A 
ATOM     22  C   UNL A   1      43.074  48.254  16.561  1.00  0.00     0.021 A 
BRANCH  18  23
ATOM     23  S   UNL A   1      43.357  43.816  17.382  1.00  0.00    -0.109 SA
ATOM     24  C   UNL A   1      42.049  43.666  18.641  1.00  0.00     0.092 C 
ENDBRANCH  18  23
ENDBRANCH  15  17
ENDBRANCH  11  15
ENDBRANCH   8  10
ENDBRANCH   7   8
ENDBRANCH   6   7
ENDBRANCH   5   6
ENDBRANCH   4   5
ENDBRANCH   3   4
ENDBRANCH   2   3
ENDBRANCH   1   2
BRANCH   1  25
ATOM     25  C   UNL A   1      45.132  41.620  25.653  1.00  0.00     0.188 C 
BRANCH  25  26
ATOM     26  C   UNL A   1      44.488  40.298  26.098  1.00  0.00     0.188 C 
BRANCH  26  27
ATOM     27  O   UNL A   1      43.084  40.393  26.299  1.00  0.00    -0.376 OA
BRANCH  27  28
ATOM     28  C   UNL A   1      42.367  39.240  26.716  1.00  0.00     0.202 C 
BRANCH  28  29
ATOM     29  C   UNL A   1      43.168  37.987  27.095  1.00  0.00     0.261 C 
BRANCH  29  30
ATOM     30  O   UNL A   1      42.890  36.763  26.413  1.00  0.00    -0.460 OA
BRANCH  30  31
ATOM     31  C   UNL A   1      42.313  35.752  27.088  1.00  0.00     0.338 C 
ATOM     32  O   UNL A   1      41.153  35.650  27.417  1.00  0.00    -0.246 OA
BRANCH  31  33
ATOM     33  C   UNL A   1      43.333  34.682  27.143  1.00  0.00     0.060 A 
ATOM     34  C   UNL A   1      43.786  34.257  28.398  1.00  0.00     0.016 A 
ATOM     35  C   UNL A   1      43.780  34.059  25.974  1.00  0.00     0.016 A 
ATOM     36  C   UNL A   1      44.725  33.233  28.483  1.00  0.00     0.010 A 
ATOM     37  C   UNL A   1      44.737  33.048  26.060  1.00  0.00     0.010 A 
ATOM     38  C   UNL A   1      45.243  32.665  27.313  1.00  0.00    -0.014 A 
BRANCH  38  39
ATOM     39  C   UNL A   1      46.476  31.851  27.391  1.00  0.00     0.031 A 
ATOM     40  C   UNL A   1      46.346  30.426  27.852  1.00  0.00     0.074 A 
ATOM     41  C   UNL A   1      47.674  32.356  27.051  1.00  0.00     0.049 A 
ATOM     42  N   UNL A   1      47.268  29.516  28.005  1.00  0.00    -0.248 NA
ATOM     43  C   UNL A   1      44.986  29.970  28.190  1.00  0.00     0.031 C 
ATOM     44  C   UNL A   1      47.916  33.717  26.577  1.00  0.00     0.029 A 
ATOM     45  N   UNL A   1      48.917  31.778  27.071  1.00  0.00    -0.354 N 
ATOM     46  C   UNL A   1      46.610  28.393  28.489  1.00  0.00     0.074 A 
ATOM     47  C   UNL A   1      45.213  28.738  28.617  1.00  0.00     0.031 C 
ATOM     48  C   UNL A   1      49.235  33.875  26.369  1.00  0.00     0.029 A 
ATOM     49  C   UNL A   1      49.929  32.637  26.720  1.00  0.00     0.049 A 
ATOM     50  H   UNL A   1      49.070  30.836  27.315  1.00  0.00     0.167 HD
ATOM     51  C   UNL A   1      47.122  27.178  28.793  1.00  0.00     0.034 A 
ATOM     52  C   UNL A   1      51.263  32.446  26.704  1.00  0.00     0.034 A 
ATOM     53  C   UNL A   1      48.511  26.840  28.656  1.00  0.00     0.049 A 
ATOM     54  C   UNL A   1      51.814  31.095  27.080  1.00  0.00     0.074 A 
ATOM     55  C   UNL A   1      49.127  25.624  28.884  1.00  0.00     0.029 A 
ATOM     56  N   UNL A   1      49.506  27.731  28.282  1.00  0.00    -0.354 N 
ATOM     57  N   UNL A   1      51.169  30.004  27.423  1.00  0.00    -0.248 NA
ATOM     58  C   UNL A   1      53.275  30.938  27.038  1.00  0.00     0.031 C 
ATOM     59  C   UNL A   1      50.502  25.792  28.694  1.00  0.00     0.029 A 
ATOM     60  C   UNL A   1      50.737  27.100  28.297  1.00  0.00     0.049 A 
ATOM     61  H   UNL A   1      49.357  28.674  28.041  1.00  0.00     0.167 HD
ATOM     62  C   UNL A   1      52.140  29.023  27.597  1.00  0.00     0.074 A 
ATOM     63  C   UNL A   1      53.415  29.646  27.307  1.00  0.00     0.031 C 
ATOM     64  C   UNL A   1      51.992  27.726  27.966  1.00  0.00     0.034 A 
BRANCH  51  65
ATOM     65  C   UNL A   1      46.168  26.134  29.312  1.00  0.00     0.023 A 
ATOM     66  C   UNL A   1      45.502  25.274  28.416  1.00  0.00     0.012 A 
ATOM     67  C   UNL A   1      45.948  25.995  30.696  1.00  0.00     0.148 A 
ATOM     68  C   UNL A   1      44.595  24.322  28.886  1.00  0.00     0.002 A 
ATOM     69  C   UNL A   1      45.083  25.010  31.160  1.00  0.00     0.091 A 
ATOM     70  F   UNL A   1      46.568  26.840  31.530  1.00  0.00    -0.205 F 
ATOM     71  C   UNL A   1      44.396  24.185  30.256  1.00  0.00     0.022 A 
BRANCH  69  72
ATOM     72  S   UNL A   1      44.822  24.704  32.909  1.00  0.00     0.127 S 
ATOM     73  O   UNL A   1      46.193  24.536  33.388  1.00  0.00    -0.237 OA
ATOM     74  O   UNL A   1      44.172  25.941  33.343  1.00  0.00    -0.237 OA
ATOM     75  O   UNL A   1      43.982  23.517  32.988  1.00  0.00    -0.744 OA
ENDBRANCH  69  72
ENDBRANCH  51  65
BRANCH  52  76
ATOM     76  C   UNL A   1      52.168  33.551  26.281  1.00  0.00     0.023 A 
ATOM     77  C   UNL A   1      52.568  34.521  27.221  1.00  0.00     0.012 A 
ATOM     78  C   UNL A   1      52.654  33.632  24.961  1.00  0.00     0.148 A 
ATOM     79  C   UNL A   1      53.414  35.567  26.848  1.00  0.00     0.002 A 
ATOM     80  C   UNL A   1      53.540  34.644  24.610  1.00  0.00     0.091 A 
ATOM     81  F   UNL A   1      52.252  32.705  24.080  1.00  0.00    -0.205 F 
ATOM     82  C   UNL A   1      53.908  35.622  25.546  1.00  0.00     0.022 A 
BRANCH  80  83
ATOM     83  S   UNL A   1      54.322  34.727  22.996  1.00  0.00     0.127 S 
ATOM     84  O   UNL A   1      53.173  34.623  22.100  1.00  0.00    -0.237 OA
ATOM     85  O   UNL A   1      54.954  36.047  23.040  1.00  0.00    -0.237 OA
ATOM     86  O   UNL A   1      55.257  33.612  22.949  1.00  0.00    -0.744 OA
ENDBRANCH  80  83
ENDBRANCH  52  76
BRANCH  64  87
ATOM     87  C   UNL A   1      53.232  26.871  28.039  1.00  0.00     0.023 A 
ATOM     88  C   UNL A   1      53.960  26.779  29.240  1.00  0.00     0.012 A 
ATOM     89  C   UNL A   1      53.627  26.094  26.930  1.00  0.00     0.148 A 
ATOM     90  C   UNL A   1      55.084  25.958  29.326  1.00  0.00     0.002 A 
ATOM     91  C   UNL A   1      54.712  25.236  27.040  1.00  0.00     0.091 A 
ATOM     92  F   UNL A   1      52.928  26.206  25.791  1.00  0.00    -0.205 F 
ATOM     93  C   UNL A   1      55.452  25.177  28.232  1.00  0.00     0.022 A 
BRANCH  91  94
ATOM     94  S   UNL A   1      55.195  24.118  25.720  1.00  0.00     0.127 S 
ATOM     95  O   UNL A   1      56.101  24.957  24.937  1.00  0.00    -0.237 OA
ATOM     96  O   UNL A   1      55.848  23.035  26.456  1.00  0.00    -0.237 OA
ATOM     97  O   UNL A   1      53.962  23.734  25.046  1.00  0.00    -0.744 OA
ENDBRANCH  91  94
ENDBRANCH  64  87
ENDBRANCH  38  39
ENDBRANCH  31  33
ENDBRANCH  30  31
ENDBRANCH  29  30
ENDBRANCH  28  29
ENDBRANCH  27  28
ENDBRANCH  26  27
ENDBRANCH  25  26
ENDBRANCH   1  25
TORSDOF 26
ENDMDL
MODEL 3
REMARK VINA RESULT:      -7.7     12.369     18.420
REMARK SMILES CSc1ncccc1C(=O)N1CSC[C@H]1C(=O)OCCOCCOCCOCCOC(=O)c1ccc(-c2c3nc(c(-c4cccc(S(=O)(=O)[O-])c4F)c4ccc([nH]4)c(-c4cccc(S(=O)(=O)[O-])c4F)c4nc(c(-c5cccc(S(=O)(=O)[O-])c5F)c5ccc2[nH]5)C=C4)C=C3)cc1
REMARK SMILES IDX 24 1 23 2 22 3 21 4 20 5 19 6 18 7 16 8 17 9 15 10 11 11
REMARK SMILES IDX 12 12 13 13 14 14 9 15 10 16 8 17 3 18 4 19 5 20 7 21 6 22
REMARK SMILES IDX 2 23 1 24 25 25 26 26 27 27 28 28 29 29 30 30 31 31 32 32
REMARK SMILES IDX 33 33 34 34 95 35 35 36 94 37 36 38 37 39 38 40 88 41 39 42
REMARK SMILES IDX 93 43 87 44 89 45 40 46 92 47 86 48 85 49 41 51 73 52 53 53
REMARK SMILES IDX 72 54 54 55 57 56 71 57 90 58 55 59 56 60 70 62 91 63 58 64
REMARK SMILES IDX 42 65 43 66 51 67 44 68 46 69 52 70 45 71 47 72 48 73 49 74
REMARK SMILES IDX 50 75 74 76 75 77 83 78 76 79 78 80 84 81 77 82 79 83 80 84
REMARK SMILES IDX 81 85 82 86 59 87 60 88 68 89 61 90 63 91 69 92 62 93 64 94
REMARK SMILES IDX 65 95 66 96 67 97
REMARK H PARENT 89 50 57 61
REMARK Flexibility Score: inf
ROOT
ATOM      1  O   UNL A   1      44.516  42.738  24.363  1.00  0.00    -0.377 OA
ENDROOT
BRANCH   1   2
ATOM      2  C   UNL A   1      45.643  42.312  25.106  1.00  0.00     0.188 C 
BRANCH   2   3
ATOM      3  C   UNL A   1      46.662  41.452  24.332  1.00  0.00     0.188 C 
BRANCH   3   4
ATOM      4  O   UNL A   1      46.426  41.025  22.990  1.00  0.00    -0.376 OA
BRANCH   4   5
ATOM      5  C   UNL A   1      46.878  41.812  21.899  1.00  0.00     0.202 C 
BRANCH   5   6
ATOM      6  C   UNL A   1      45.817  42.384  20.943  1.00  0.00     0.261 C 
BRANCH   6   7
ATOM      7  O   UNL A   1      45.217  43.641  21.340  1.00  0.00    -0.462 OA
BRANCH   7   8
ATOM      8  C   UNL A   1      46.076  44.643  21.651  1.00  0.00     0.329 C 
ATOM      9  O   UNL A   1      46.126  45.178  22.758  1.00  0.00    -0.250 OA
BRANCH   8  10
ATOM     10  C   UNL A   1      46.886  45.216  20.459  1.00  0.00     0.206 C 
ATOM     11  N   UNL A   1      46.662  46.498  19.739  1.00  0.00    -0.315 N 
ATOM     12  C   UNL A   1      47.366  47.612  20.333  1.00  0.00     0.191 C 
ATOM     13  S   UNL A   1      48.977  46.924  20.763  1.00  0.00    -0.138 SA
ATOM     14  C   UNL A   1      48.344  45.228  20.948  1.00  0.00     0.108 C 
BRANCH  11  15
ATOM     15  C   UNL A   1      45.990  46.499  18.507  1.00  0.00     0.258 C 
ATOM     16  O   UNL A   1      46.078  45.537  17.747  1.00  0.00    -0.269 OA
BRANCH  15  17
ATOM     17  C   UNL A   1      45.304  47.736  18.003  1.00  0.00     0.072 A 
ATOM     18  C   UNL A   1      45.850  48.638  17.078  1.00  0.00     0.108 A 
ATOM     19  N   UNL A   1      45.245  49.824  16.766  1.00  0.00    -0.249 NA
ATOM     20  C   UNL A   1      44.103  50.155  17.394  1.00  0.00     0.112 A 
ATOM     21  C   UNL A   1      44.122  48.137  18.650  1.00  0.00     0.018 A 
ATOM     22  C   UNL A   1      43.508  49.350  18.339  1.00  0.00     0.021 A 
BRANCH  18  23
ATOM     23  S   UNL A   1      47.410  48.439  16.241  1.00  0.00    -0.109 SA
ATOM     24  C   UNL A   1      48.419  49.648  17.158  1.00  0.00     0.092 C 
ENDBRANCH  18  23
ENDBRANCH  15  17
ENDBRANCH  11  15
ENDBRANCH   8  10
ENDBRANCH   7   8
ENDBRANCH   6   7
ENDBRANCH   5   6
ENDBRANCH   4   5
ENDBRANCH   3   4
ENDBRANCH   2   3
ENDBRANCH   1   2
BRANCH   1  25
ATOM     25  C   UNL A   1      43.306  42.052  24.614  1.00  0.00     0.188 C 
BRANCH  25  26
ATOM     26  C   UNL A   1      43.334  41.062  25.788  1.00  0.00     0.188 C 
BRANCH  26  27
ATOM     27  O   UNL A   1      42.050  40.563  26.138  1.00  0.00    -0.376 OA
BRANCH  27  28
ATOM     28  C   UNL A   1      41.942  39.609  27.185  1.00  0.00     0.202 C 
BRANCH  28  29
ATOM     29  C   UNL A   1      42.341  38.158  26.887  1.00  0.00     0.261 C 
BRANCH  29  30
ATOM     30  O   UNL A   1      42.449  37.239  27.975  1.00  0.00    -0.460 OA
BRANCH  30  31
ATOM     31  C   UNL A   1      41.875  36.027  27.870  1.00  0.00     0.338 C 
ATOM     32  O   UNL A   1      40.693  35.768  27.846  1.00  0.00    -0.246 OA
BRANCH  31  33
ATOM     33  C   UNL A   1      42.979  35.094  27.555  1.00  0.00     0.060 A 
ATOM     34  C   UNL A   1      43.773  34.622  28.606  1.00  0.00     0.016 A 
ATOM     35  C   UNL A   1      43.177  34.636  26.249  1.00  0.00     0.016 A 
ATOM     36  C   UNL A   1      44.803  33.722  28.346  1.00  0.00     0.010 A 
ATOM     37  C   UNL A   1      44.221  33.750  25.986  1.00  0.00     0.010 A 
ATOM     38  C   UNL A   1      45.064  33.327  27.028  1.00  0.00    -0.014 A 
BRANCH  38  39
ATOM     39  C   UNL A   1      46.352  32.673  26.713  1.00  0.00     0.031 A 
ATOM     40  C   UNL A   1      46.408  31.172  26.777  1.00  0.00     0.074 A 
ATOM     41  C   UNL A   1      47.437  33.386  26.369  1.00  0.00     0.049 A 
ATOM     42  N   UNL A   1      47.410  30.368  26.549  1.00  0.00    -0.248 NA
ATOM     43  C   UNL A   1      45.160  30.486  27.155  1.00  0.00     0.031 C 
ATOM     44  C   UNL A   1      47.494  34.842  26.259  1.00  0.00     0.029 A 
ATOM     45  N   UNL A   1      48.708  32.973  26.062  1.00  0.00    -0.354 N 
ATOM     46  C   UNL A   1      46.928  29.088  26.788  1.00  0.00     0.074 A 
ATOM     47  C   UNL A   1      45.546  29.221  27.192  1.00  0.00     0.031 C 
ATOM     48  C   UNL A   1      48.746  35.203  25.929  1.00  0.00     0.029 A 
ATOM     49  C   UNL A   1      49.582  34.007  25.829  1.00  0.00     0.049 A 
ATOM     50  H   UNL A   1      48.971  32.025  26.015  1.00  0.00     0.167 HD
ATOM     51  C   UNL A   1      47.573  27.905  26.675  1.00  0.00     0.034 A 
ATOM     52  C   UNL A   1      50.906  33.985  25.583  1.00  0.00     0.034 A 
ATOM     53  C   UNL A   1      48.945  27.780  26.265  1.00  0.00     0.049 A 
ATOM     54  C   UNL A   1      51.613  32.657  25.495  1.00  0.00     0.074 A 
ATOM     55  C   UNL A   1      49.681  26.628  26.065  1.00  0.00     0.029 A 
ATOM     56  N   UNL A   1      49.795  28.848  26.022  1.00  0.00    -0.354 N 
ATOM     57  N   UNL A   1      51.118  31.447  25.607  1.00  0.00    -0.248 NA
ATOM     58  C   UNL A   1      53.056  32.689  25.217  1.00  0.00     0.031 C 
ATOM     59  C   UNL A   1      50.991  27.000  25.746  1.00  0.00     0.029 A 
ATOM     60  C   UNL A   1      51.057  28.385  25.697  1.00  0.00     0.049 A 
ATOM     61  H   UNL A   1      49.537  29.798  26.072  1.00  0.00     0.167 HD
ATOM     62  C   UNL A   1      52.177  30.575  25.373  1.00  0.00     0.074 A 
ATOM     63  C   UNL A   1      53.337  31.398  25.099  1.00  0.00     0.031 C 
ATOM     64  C   UNL A   1      52.191  29.219  25.387  1.00  0.00     0.034 A 
BRANCH  51  65
ATOM     65  C   UNL A   1      46.799  26.657  27.009  1.00  0.00     0.023 A 
ATOM     66  C   UNL A   1      46.860  26.111  28.308  1.00  0.00     0.012 A 
ATOM     67  C   UNL A   1      45.994  26.035  26.036  1.00  0.00     0.148 A 
ATOM     68  C   UNL A   1      46.168  24.940  28.619  1.00  0.00     0.002 A 
ATOM     69  C   UNL A   1      45.267  24.898  26.367  1.00  0.00     0.091 A 
ATOM     70  F   UNL A   1      45.972  26.552  24.799  1.00  0.00    -0.205 F 
ATOM     71  C   UNL A   1      45.364  24.342  27.652  1.00  0.00     0.022 A 
BRANCH  69  72
ATOM     72  S   UNL A   1      44.144  24.103  25.215  1.00  0.00     0.127 S 
ATOM     73  O   UNL A   1      45.048  23.740  24.124  1.00  0.00    -0.237 OA
ATOM     74  O   UNL A   1      43.651  22.970  26.000  1.00  0.00    -0.237 OA
ATOM     75  O   UNL A   1      43.133  25.098  24.886  1.00  0.00    -0.744 OA
ENDBRANCH  69  72
ENDBRANCH  51  65
BRANCH  52  76
ATOM     76  C   UNL A   1      51.644  35.261  25.364  1.00  0.00     0.023 A 
ATOM     77  C   UNL A   1      51.929  35.682  24.050  1.00  0.00     0.012 A 
ATOM     78  C   UNL A   1      52.043  36.069  26.446  1.00  0.00     0.148 A 
ATOM     79  C   UNL A   1      52.621  36.871  23.819  1.00  0.00     0.002 A 
ATOM     80  C   UNL A   1      52.683  37.280  26.207  1.00  0.00     0.091 A 
ATOM     81  F   UNL A   1      51.773  35.644  27.688  1.00  0.00    -0.205 F 
ATOM     82  C   UNL A   1      52.989  37.675  24.895  1.00  0.00     0.022 A 
BRANCH  80  83
ATOM     83  S   UNL A   1      53.086  38.436  27.520  1.00  0.00     0.127 S 
ATOM     84  O   UNL A   1      53.628  39.566  26.770  1.00  0.00    -0.237 OA
ATOM     85  O   UNL A   1      51.773  38.667  28.124  1.00  0.00    -0.237 OA
ATOM     86  O   UNL A   1      54.033  37.743  28.383  1.00  0.00    -0.744 OA
ENDBRANCH  80  83
ENDBRANCH  52  76
BRANCH  64  87
ATOM     87  C   UNL A   1      53.488  28.527  25.055  1.00  0.00     0.023 A 
ATOM     88  C   UNL A   1      53.853  28.309  23.713  1.00  0.00     0.012 A 
ATOM     89  C   UNL A   1      54.385  28.164  26.082  1.00  0.00     0.148 A 
ATOM     90  C   UNL A   1      55.071  27.707  23.398  1.00  0.00     0.002 A 
ATOM     91  C   UNL A   1      55.619  27.617  25.760  1.00  0.00     0.091 A 
ATOM     92  F   UNL A   1      54.013  28.367  27.355  1.00  0.00    -0.205 F 
ATOM     93  C   UNL A   1      55.958  27.373  24.419  1.00  0.00     0.022 A 
BRANCH  91  94
ATOM     94  S   UNL A   1      56.866  27.254  27.001  1.00  0.00     0.127 S 
ATOM     95  O   UNL A   1      56.219  26.192  27.770  1.00  0.00    -0.237 OA
ATOM     96  O   UNL A   1      57.996  26.813  26.182  1.00  0.00    -0.237 OA
ATOM     97  O   UNL A   1      57.090  28.498  27.723  1.00  0.00    -0.744 OA
ENDBRANCH  91  94
ENDBRANCH  64  87
ENDBRANCH  38  39
ENDBRANCH  31  33
ENDBRANCH  30  31
ENDBRANCH  29  30
ENDBRANCH  28  29
ENDBRANCH  27  28
ENDBRANCH  26  27
ENDBRANCH  25  26
ENDBRANCH   1  25
TORSDOF 26
ENDMDL
