MODEL 1
REMARK VINA RESULT:      -8.3      0.000      0.000
REMARK SMILES O=C(OCCOCCOCCOCCOC(=O)[C@H]1CCCCN1c1cc(-c2ccccc2)nc(-c2cccc(Cl)c2)n1)c1ccc(-c2c3nc(c(-c4cccc(S(=O)(=O)[O-])c4F)c4ccc([nH]4)c(-c4cccc(S(=O)(=O)[O-])c4F)c4nc(c(-c5cccc(S(=O)(=O)[O-])c5F)c5ccc2[nH]5)C=C4)C=C3)cc1
REMARK SMILES IDX 8 1 7 2 6 3 5 4 4 5 3 6 2 7 1 8 43 9 44 10 105 11 45 12
REMARK SMILES IDX 104 13 46 14 47 15 48 16 98 17 49 18 103 19 97 20 99 21
REMARK SMILES IDX 50 22 102 23 96 24 95 25 51 27 83 28 63 29 82 30 64 31 67 32
REMARK SMILES IDX 81 33 100 34 65 35 66 36 80 38 101 39 68 40 52 41 53 42
REMARK SMILES IDX 61 43 54 44 56 45 62 46 55 47 57 48 58 49 59 50 60 51 84 52
REMARK SMILES IDX 85 53 93 54 86 55 88 56 94 57 87 58 89 59 90 60 91 61 92 62
REMARK SMILES IDX 69 63 70 64 78 65 71 66 73 67 79 68 72 69 74 70 75 71 76 72
REMARK SMILES IDX 77 73 9 74 10 75 11 76 12 77 13 78 14 79 15 80 16 81 17 82
REMARK SMILES IDX 18 83 19 84 23 85 20 86 22 87 21 88 24 89 25 90 42 91 26 92
REMARK SMILES IDX 34 93 33 94 27 95 28 96 32 97 29 98 31 99 30 100 35 101
REMARK SMILES IDX 36 102 41 103 37 104 39 105 38 106 40 107
REMARK H PARENT 99 26 67 37
REMARK Flexibility Score: inf
ROOT
ATOM      1  C   UNL A   1      33.144  35.316  28.955  1.00  0.00     0.188 C 
ENDROOT
BRANCH   1   2
ATOM      2  C   UNL A   1      33.563  34.172  28.020  1.00  0.00     0.188 C 
BRANCH   2   3
ATOM      3  O   UNL A   1      34.478  33.309  28.676  1.00  0.00    -0.376 OA
BRANCH   3   4
ATOM      4  C   UNL A   1      35.879  33.404  28.468  1.00  0.00     0.202 C 
BRANCH   4   5
ATOM      5  C   UNL A   1      36.658  32.104  28.535  1.00  0.00     0.261 C 
BRANCH   5   6
ATOM      6  O   UNL A   1      36.019  30.983  27.910  1.00  0.00    -0.460 OA
BRANCH   6   7
ATOM      7  C   UNL A   1      36.354  29.672  27.913  1.00  0.00     0.338 C 
ATOM      8  O   UNL A   1      35.491  28.855  27.593  1.00  0.00    -0.246 OA
BRANCH   7   9
ATOM      9  C   UNL A   1      37.708  29.154  28.244  1.00  0.00     0.060 A 
ATOM     10  C   UNL A   1      38.017  28.346  29.335  1.00  0.00     0.016 A 
ATOM     11  C   UNL A   1      38.719  29.383  27.302  1.00  0.00     0.016 A 
ATOM     12  C   UNL A   1      39.289  27.879  29.578  1.00  0.00     0.010 A 
ATOM     13  C   UNL A   1      39.997  28.850  27.489  1.00  0.00     0.010 A 
ATOM     14  C   UNL A   1      40.280  28.119  28.648  1.00  0.00    -0.014 A 
BRANCH  14  15
ATOM     15  C   UNL A   1      41.634  27.700  29.013  1.00  0.00     0.031 A 
ATOM     16  C   UNL A   1      42.241  28.347  30.211  1.00  0.00     0.074 A 
ATOM     17  C   UNL A   1      42.215  26.680  28.360  1.00  0.00     0.049 A 
ATOM     18  N   UNL A   1      43.455  28.254  30.665  1.00  0.00    -0.248 NA
ATOM     19  C   UNL A   1      41.356  29.212  31.015  1.00  0.00     0.031 C 
ATOM     20  C   UNL A   1      41.592  25.894  27.287  1.00  0.00     0.029 A 
ATOM     21  N   UNL A   1      43.455  26.122  28.501  1.00  0.00    -0.354 N 
ATOM     22  C   UNL A   1      43.508  29.123  31.745  1.00  0.00     0.074 A 
ATOM     23  C   UNL A   1      42.195  29.692  31.919  1.00  0.00     0.031 C 
ATOM     24  C   UNL A   1      42.467  24.977  26.849  1.00  0.00     0.029 A 
ATOM     25  C   UNL A   1      43.731  25.177  27.542  1.00  0.00     0.049 A 
ATOM     26  H   UNL A   1      44.084  26.372  29.216  1.00  0.00     0.167 HD
ATOM     27  C   UNL A   1      44.588  29.431  32.491  1.00  0.00     0.034 A 
ATOM     28  C   UNL A   1      44.907  24.611  27.216  1.00  0.00     0.034 A 
ATOM     29  C   UNL A   1      45.867  28.821  32.279  1.00  0.00     0.049 A 
ATOM     30  C   UNL A   1      46.110  25.030  28.020  1.00  0.00     0.074 A 
ATOM     31  C   UNL A   1      47.051  29.046  32.950  1.00  0.00     0.029 A 
ATOM     32  N   UNL A   1      46.126  27.876  31.294  1.00  0.00    -0.354 N 
ATOM     33  N   UNL A   1      46.167  25.840  29.052  1.00  0.00    -0.248 NA
ATOM     34  C   UNL A   1      47.403  24.466  27.622  1.00  0.00     0.031 C 
ATOM     35  C   UNL A   1      48.038  28.268  32.336  1.00  0.00     0.029 A 
ATOM     36  C   UNL A   1      47.458  27.525  31.317  1.00  0.00     0.049 A 
ATOM     37  H   UNL A   1      45.455  27.511  30.673  1.00  0.00     0.167 HD
ATOM     38  C   UNL A   1      47.498  25.870  29.442  1.00  0.00     0.074 A 
ATOM     39  C   UNL A   1      48.207  24.971  28.549  1.00  0.00     0.031 C 
ATOM     40  C   UNL A   1      48.093  26.584  30.428  1.00  0.00     0.034 A 
BRANCH  27  41
ATOM     41  C   UNL A   1      44.438  30.521  33.510  1.00  0.00     0.023 A 
ATOM     42  C   UNL A   1      44.616  31.873  33.157  1.00  0.00     0.012 A 
ATOM     43  C   UNL A   1      44.124  30.186  34.841  1.00  0.00     0.148 A 
ATOM     44  C   UNL A   1      44.508  32.874  34.123  1.00  0.00     0.002 A 
ATOM     45  C   UNL A   1      43.971  31.189  35.786  1.00  0.00     0.091 A 
ATOM     46  F   UNL A   1      44.002  28.889  35.159  1.00  0.00    -0.205 F 
ATOM     47  C   UNL A   1      44.174  32.533  35.433  1.00  0.00     0.022 A 
BRANCH  45  48
ATOM     48  S   UNL A   1      43.480  30.856  37.480  1.00  0.00     0.127 S 
ATOM     49  O   UNL A   1      43.889  32.088  38.154  1.00  0.00    -0.237 OA
ATOM     50  O   UNL A   1      42.035  30.683  37.347  1.00  0.00    -0.237 OA
ATOM     51  O   UNL A   1      44.208  29.661  37.886  1.00  0.00    -0.744 OA
ENDBRANCH  45  48
ENDBRANCH  27  41
BRANCH  28  52
ATOM     52  C   UNL A   1      45.015  23.679  26.057  1.00  0.00     0.023 A 
ATOM     53  C   UNL A   1      45.682  24.086  24.888  1.00  0.00     0.012 A 
ATOM     54  C   UNL A   1      44.451  22.385  26.106  1.00  0.00     0.148 A 
ATOM     55  C   UNL A   1      45.753  23.241  23.778  1.00  0.00     0.002 A 
ATOM     56  C   UNL A   1      44.578  21.528  25.020  1.00  0.00     0.091 A 
ATOM     57  F   UNL A   1      43.801  22.015  27.218  1.00  0.00    -0.205 F 
ATOM     58  C   UNL A   1      45.210  21.961  23.846  1.00  0.00     0.022 A 
BRANCH  56  59
ATOM     59  S   UNL A   1      44.019  19.821  25.072  1.00  0.00     0.127 S 
ATOM     60  O   UNL A   1      42.633  19.972  25.503  1.00  0.00    -0.237 OA
ATOM     61  O   UNL A   1      44.190  19.403  23.679  1.00  0.00    -0.237 OA
ATOM     62  O   UNL A   1      44.909  19.146  26.009  1.00  0.00    -0.744 OA
ENDBRANCH  56  59
ENDBRANCH  28  52
BRANCH  40  63
ATOM     63  C   UNL A   1      49.569  26.390  30.614  1.00  0.00     0.023 A 
ATOM     64  C   UNL A   1      50.040  25.445  31.543  1.00  0.00     0.012 A 
ATOM     65  C   UNL A   1      50.476  27.063  29.773  1.00  0.00     0.148 A 
ATOM     66  C   UNL A   1      51.403  25.185  31.648  1.00  0.00     0.002 A 
ATOM     67  C   UNL A   1      51.825  26.754  29.842  1.00  0.00     0.091 A 
ATOM     68  F   UNL A   1      49.995  27.968  28.908  1.00  0.00    -0.205 F 
ATOM     69  C   UNL A   1      52.293  25.826  30.787  1.00  0.00     0.022 A 
BRANCH  67  70
ATOM     70  S   UNL A   1      53.023  27.439  28.695  1.00  0.00     0.127 S 
ATOM     71  O   UNL A   1      54.271  26.860  29.189  1.00  0.00    -0.237 OA
ATOM     72  O   UNL A   1      52.563  26.901  27.415  1.00  0.00    -0.237 OA
ATOM     73  O   UNL A   1      52.920  28.887  28.817  1.00  0.00    -0.744 OA
ENDBRANCH  67  70
ENDBRANCH  40  63
ENDBRANCH  14  15
ENDBRANCH   7   9
ENDBRANCH   6   7
ENDBRANCH   5   6
ENDBRANCH   4   5
ENDBRANCH   3   4
ENDBRANCH   2   3
ENDBRANCH   1   2
BRANCH   1  74
ATOM     74  O   UNL A   1      33.650  35.243  30.293  1.00  0.00    -0.377 OA
BRANCH  74  75
ATOM     75  C   UNL A   1      32.850  35.886  31.279  1.00  0.00     0.188 C 
BRANCH  75  76
ATOM     76  C   UNL A   1      33.428  36.043  32.717  1.00  0.00     0.188 C 
BRANCH  76  77
ATOM     77  O   UNL A   1      34.338  35.020  33.089  1.00  0.00    -0.376 OA
BRANCH  77  78
ATOM     78  C   UNL A   1      35.738  35.220  32.928  1.00  0.00     0.202 C 
BRANCH  78  79
ATOM     79  C   UNL A   1      36.575  34.250  32.073  1.00  0.00     0.261 C 
BRANCH  79  80
ATOM     80  O   UNL A   1      37.965  34.572  31.951  1.00  0.00    -0.462 OA
BRANCH  80  81
ATOM     81  C   UNL A   1      38.721  34.531  33.084  1.00  0.00     0.328 C 
ATOM     82  O   UNL A   1      38.387  35.007  34.151  1.00  0.00    -0.250 OA
BRANCH  81  83
ATOM     83  C   UNL A   1      39.975  33.652  32.824  1.00  0.00     0.193 C 
ATOM     84  C   UNL A   1      40.120  32.529  33.841  1.00  0.00     0.037 C 
ATOM     85  N   UNL A   1      40.003  33.103  31.473  1.00  0.00    -0.343 N 
ATOM     86  C   UNL A   1      38.986  31.531  33.648  1.00  0.00     0.005 C 
ATOM     87  C   UNL A   1      38.990  32.134  31.120  1.00  0.00     0.119 C 
ATOM     88  C   UNL A   1      38.915  31.036  32.196  1.00  0.00     0.022 C 
BRANCH  85  89
ATOM     89  C   UNL A   1      41.041  33.451  30.639  1.00  0.00     0.134 A 
ATOM     90  C   UNL A   1      41.165  34.745  30.176  1.00  0.00     0.076 A 
ATOM     91  N   UNL A   1      41.949  32.509  30.326  1.00  0.00    -0.211 NA
ATOM     92  C   UNL A   1      42.239  35.025  29.350  1.00  0.00     0.076 A 
ATOM     93  C   UNL A   1      42.970  32.869  29.520  1.00  0.00     0.162 A 
ATOM     94  N   UNL A   1      43.158  34.098  29.017  1.00  0.00    -0.228 NA
BRANCH  92  95
ATOM     95  C   UNL A   1      42.396  36.326  28.693  1.00  0.00     0.000 A 
ATOM     96  C   UNL A   1      43.126  37.345  29.329  1.00  0.00     0.010 A 
ATOM     97  C   UNL A   1      41.844  36.594  27.430  1.00  0.00     0.010 A 
ATOM     98  C   UNL A   1      43.324  38.584  28.714  1.00  0.00     0.001 A 
ATOM     99  C   UNL A   1      42.033  37.838  26.819  1.00  0.00     0.001 A 
ATOM    100  C   UNL A   1      42.779  38.828  27.457  1.00  0.00     0.000 A 
ENDBRANCH  92  95
BRANCH  93 101
ATOM    101  C   UNL A   1      43.903  31.820  29.075  1.00  0.00     0.021 A 
ATOM    102  C   UNL A   1      43.507  30.867  28.118  1.00  0.00     0.012 A 
ATOM    103  C   UNL A   1      45.226  31.754  29.553  1.00  0.00     0.032 A 
ATOM    104  C   UNL A   1      44.391  29.890  27.648  1.00  0.00     0.002 A 
ATOM    105  C   UNL A   1      46.101  30.765  29.097  1.00  0.00     0.041 A 
ATOM    106  C   UNL A   1      45.690  29.837  28.144  1.00  0.00     0.020 A 
ATOM    107  Cl  UNL A   1      47.707  30.687  29.715  1.00  0.00    -0.084 Cl
ENDBRANCH  93 101
ENDBRANCH  85  89
ENDBRANCH  81  83
ENDBRANCH  80  81
ENDBRANCH  79  80
ENDBRANCH  78  79
ENDBRANCH  77  78
ENDBRANCH  76  77
ENDBRANCH  75  76
ENDBRANCH  74  75
ENDBRANCH   1  74
TORSDOF 26
ENDMDL
MODEL 2
REMARK VINA RESULT:      -8.1      3.909      8.986
REMARK SMILES O=C(OCCOCCOCCOCCOC(=O)[C@H]1CCCCN1c1cc(-c2ccccc2)nc(-c2cccc(Cl)c2)n1)c1ccc(-c2c3nc(c(-c4cccc(S(=O)(=O)[O-])c4F)c4ccc([nH]4)c(-c4cccc(S(=O)(=O)[O-])c4F)c4nc(c(-c5cccc(S(=O)(=O)[O-])c5F)c5ccc2[nH]5)C=C4)C=C3)cc1
REMARK SMILES IDX 8 1 7 2 6 3 5 4 4 5 3 6 2 7 1 8 43 9 44 10 105 11 45 12
REMARK SMILES IDX 104 13 46 14 47 15 48 16 98 17 49 18 103 19 97 20 99 21
REMARK SMILES IDX 50 22 102 23 96 24 95 25 51 27 83 28 63 29 82 30 64 31 67 32
REMARK SMILES IDX 81 33 100 34 65 35 66 36 80 38 101 39 68 40 52 41 53 42
REMARK SMILES IDX 61 43 54 44 56 45 62 46 55 47 57 48 58 49 59 50 60 51 84 52
REMARK SMILES IDX 85 53 93 54 86 55 88 56 94 57 87 58 89 59 90 60 91 61 92 62
REMARK SMILES IDX 69 63 70 64 78 65 71 66 73 67 79 68 72 69 74 70 75 71 76 72
REMARK SMILES IDX 77 73 9 74 10 75 11 76 12 77 13 78 14 79 15 80 16 81 17 82
REMARK SMILES IDX 18 83 19 84 23 85 20 86 22 87 21 88 24 89 25 90 42 91 26 92
REMARK SMILES IDX 34 93 33 94 27 95 28 96 32 97 29 98 31 99 30 100 35 101
REMARK SMILES IDX 36 102 41 103 37 104 39 105 38 106 40 107
REMARK H PARENT 99 26 67 37
REMARK Flexibility Score: inf
ROOT
ATOM      1  C   UNL A   1      43.181  23.749  25.068  1.00  0.00     0.188 C 
ENDROOT
BRANCH   1   2
ATOM      2  C   UNL A   1      43.442  23.106  26.439  1.00  0.00     0.188 C 
BRANCH   2   3
ATOM      3  O   UNL A   1      42.252  22.525  26.946  1.00  0.00    -0.376 OA
BRANCH   3   4
ATOM      4  C   UNL A   1      41.583  21.473  26.267  1.00  0.00     0.202 C 
BRANCH   4   5
ATOM      5  C   UNL A   1      40.118  21.278  26.607  1.00  0.00     0.261 C 
BRANCH   5   6
ATOM      6  O   UNL A   1      39.204  22.035  25.801  1.00  0.00    -0.460 OA
BRANCH   6   7
ATOM      7  C   UNL A   1      38.672  23.263  26.001  1.00  0.00     0.338 C 
ATOM      8  O   UNL A   1      37.542  23.481  25.565  1.00  0.00    -0.246 OA
BRANCH   7   9
ATOM      9  C   UNL A   1      39.348  24.358  26.747  1.00  0.00     0.060 A 
ATOM     10  C   UNL A   1      40.172  25.327  26.181  1.00  0.00     0.016 A 
ATOM     11  C   UNL A   1      39.012  24.503  28.098  1.00  0.00     0.016 A 
ATOM     12  C   UNL A   1      40.755  26.331  26.921  1.00  0.00     0.010 A 
ATOM     13  C   UNL A   1      39.529  25.563  28.849  1.00  0.00     0.010 A 
ATOM     14  C   UNL A   1      40.425  26.459  28.255  1.00  0.00    -0.014 A 
BRANCH  14  15
ATOM     15  C   UNL A   1      41.161  27.469  29.017  1.00  0.00     0.031 A 
ATOM     16  C   UNL A   1      40.401  28.676  29.450  1.00  0.00     0.074 A 
ATOM     17  C   UNL A   1      42.423  27.221  29.407  1.00  0.00     0.049 A 
ATOM     18  N   UNL A   1      40.839  29.760  30.014  1.00  0.00    -0.248 NA
ATOM     19  C   UNL A   1      38.942  28.653  29.226  1.00  0.00     0.031 C 
ATOM     20  C   UNL A   1      43.161  25.976  29.155  1.00  0.00     0.029 A 
ATOM     21  N   UNL A   1      43.310  27.996  30.101  1.00  0.00    -0.354 N 
ATOM     22  C   UNL A   1      39.732  30.588  30.121  1.00  0.00     0.074 A 
ATOM     23  C   UNL A   1      38.589  29.866  29.619  1.00  0.00     0.031 C 
ATOM     24  C   UNL A   1      44.397  26.087  29.662  1.00  0.00     0.029 A 
ATOM     25  C   UNL A   1      44.563  27.436  30.183  1.00  0.00     0.049 A 
ATOM     26  H   UNL A   1      43.075  28.864  30.500  1.00  0.00     0.167 HD
ATOM     27  C   UNL A   1      39.704  31.860  30.570  1.00  0.00     0.034 A 
ATOM     28  C   UNL A   1      45.725  27.999  30.558  1.00  0.00     0.034 A 
ATOM     29  C   UNL A   1      40.872  32.523  31.070  1.00  0.00     0.049 A 
ATOM     30  C   UNL A   1      45.676  29.442  30.985  1.00  0.00     0.074 A 
ATOM     31  C   UNL A   1      40.995  33.811  31.545  1.00  0.00     0.029 A 
ATOM     32  N   UNL A   1      42.132  31.940  31.132  1.00  0.00    -0.354 N 
ATOM     33  N   UNL A   1      44.631  30.229  31.103  1.00  0.00    -0.248 NA
ATOM     34  C   UNL A   1      46.952  30.076  31.330  1.00  0.00     0.031 C 
ATOM     35  C   UNL A   1      42.343  34.022  31.851  1.00  0.00     0.029 A 
ATOM     36  C   UNL A   1      43.049  32.851  31.611  1.00  0.00     0.049 A 
ATOM     37  H   UNL A   1      42.338  31.013  30.873  1.00  0.00     0.167 HD
ATOM     38  C   UNL A   1      45.118  31.447  31.554  1.00  0.00     0.074 A 
ATOM     39  C   UNL A   1      46.551  31.281  31.715  1.00  0.00     0.031 C 
ATOM     40  C   UNL A   1      44.458  32.605  31.794  1.00  0.00     0.034 A 
BRANCH  27  41
ATOM     41  C   UNL A   1      38.413  32.612  30.443  1.00  0.00     0.023 A 
ATOM     42  C   UNL A   1      38.085  33.293  29.255  1.00  0.00     0.012 A 
ATOM     43  C   UNL A   1      37.521  32.644  31.532  1.00  0.00     0.148 A 
ATOM     44  C   UNL A   1      36.896  34.018  29.164  1.00  0.00     0.002 A 
ATOM     45  C   UNL A   1      36.319  33.326  31.418  1.00  0.00     0.091 A 
ATOM     46  F   UNL A   1      37.878  32.022  32.666  1.00  0.00    -0.205 F 
ATOM     47  C   UNL A   1      36.010  34.025  30.239  1.00  0.00     0.022 A 
BRANCH  45  48
ATOM     48  S   UNL A   1      35.086  33.339  32.722  1.00  0.00     0.127 S 
ATOM     49  O   UNL A   1      34.820  34.770  32.863  1.00  0.00    -0.237 OA
ATOM     50  O   UNL A   1      34.000  32.572  32.117  1.00  0.00    -0.237 OA
ATOM     51  O   UNL A   1      35.712  32.712  33.879  1.00  0.00    -0.744 OA
ENDBRANCH  45  48
ENDBRANCH  27  41
BRANCH  28  52
ATOM     52  C   UNL A   1      47.008  27.243  30.470  1.00  0.00     0.023 A 
ATOM     53  C   UNL A   1      47.450  26.481  31.566  1.00  0.00     0.012 A 
ATOM     54  C   UNL A   1      47.798  27.279  29.300  1.00  0.00     0.148 A 
ATOM     55  C   UNL A   1      48.670  25.802  31.516  1.00  0.00     0.002 A 
ATOM     56  C   UNL A   1      48.980  26.552  29.235  1.00  0.00     0.091 A 
ATOM     57  F   UNL A   1      47.376  28.023  28.269  1.00  0.00    -0.205 F 
ATOM     58  C   UNL A   1      49.431  25.831  30.349  1.00  0.00     0.022 A 
BRANCH  56  59
ATOM     59  S   UNL A   1      49.954  26.432  27.729  1.00  0.00     0.127 S 
ATOM     60  O   UNL A   1      48.916  26.293  26.712  1.00  0.00    -0.237 OA
ATOM     61  O   UNL A   1      50.659  27.714  27.720  1.00  0.00    -0.237 OA
ATOM     62  O   UNL A   1      50.822  25.276  27.916  1.00  0.00    -0.744 OA
ENDBRANCH  56  59
ENDBRANCH  28  52
BRANCH  40  63
ATOM     63  C   UNL A   1      45.272  33.764  32.292  1.00  0.00     0.023 A 
ATOM     64  C   UNL A   1      45.900  34.625  31.373  1.00  0.00     0.012 A 
ATOM     65  C   UNL A   1      45.304  34.058  33.668  1.00  0.00     0.148 A 
ATOM     66  C   UNL A   1      46.569  35.759  31.822  1.00  0.00     0.002 A 
ATOM     67  C   UNL A   1      45.921  35.221  34.100  1.00  0.00     0.091 A 
ATOM     68  F   UNL A   1      44.708  33.209  34.517  1.00  0.00    -0.205 F 
ATOM     69  C   UNL A   1      46.566  36.066  33.181  1.00  0.00     0.022 A 
BRANCH  67  70
ATOM     70  S   UNL A   1      45.861  35.756  35.813  1.00  0.00     0.127 S 
ATOM     71  O   UNL A   1      46.934  34.962  36.408  1.00  0.00    -0.237 OA
ATOM     72  O   UNL A   1      46.149  37.185  35.696  1.00  0.00    -0.237 OA
ATOM     73  O   UNL A   1      44.520  35.443  36.289  1.00  0.00    -0.744 OA
ENDBRANCH  67  70
ENDBRANCH  40  63
ENDBRANCH  14  15
ENDBRANCH   7   9
ENDBRANCH   6   7
ENDBRANCH   5   6
ENDBRANCH   4   5
ENDBRANCH   3   4
ENDBRANCH   2   3
ENDBRANCH   1   2
BRANCH   1  74
ATOM     74  O   UNL A   1      43.675  25.083  24.902  1.00  0.00    -0.377 OA
BRANCH  74  75
ATOM     75  C   UNL A   1      45.052  25.261  25.216  1.00  0.00     0.188 C 
BRANCH  75  76
ATOM     76  C   UNL A   1      45.479  26.555  25.972  1.00  0.00     0.188 C 
BRANCH  76  77
ATOM     77  O   UNL A   1      44.391  27.355  26.407  1.00  0.00    -0.376 OA
BRANCH  77  78
ATOM     78  C   UNL A   1      44.571  28.753  26.608  1.00  0.00     0.202 C 
BRANCH  78  79
ATOM     79  C   UNL A   1      43.358  29.676  26.831  1.00  0.00     0.261 C 
BRANCH  79  80
ATOM     80  O   UNL A   1      43.485  31.004  26.311  1.00  0.00    -0.462 OA
BRANCH  80  81
ATOM     81  C   UNL A   1      43.959  31.965  27.153  1.00  0.00     0.328 C 
ATOM     82  O   UNL A   1      43.674  32.048  28.331  1.00  0.00    -0.250 OA
BRANCH  81  83
ATOM     83  C   UNL A   1      45.027  32.811  26.405  1.00  0.00     0.193 C 
ATOM     84  C   UNL A   1      44.455  33.527  25.191  1.00  0.00     0.037 C 
ATOM     85  N   UNL A   1      45.691  33.770  27.279  1.00  0.00    -0.343 N 
ATOM     86  C   UNL A   1      43.474  34.594  25.656  1.00  0.00     0.005 C 
ATOM     87  C   UNL A   1      44.900  34.856  27.812  1.00  0.00     0.119 C 
ATOM     88  C   UNL A   1      44.117  35.541  26.678  1.00  0.00     0.022 C 
BRANCH  85  89
ATOM     89  C   UNL A   1      47.049  33.660  27.471  1.00  0.00     0.134 A 
ATOM     90  C   UNL A   1      47.555  32.805  28.429  1.00  0.00     0.076 A 
ATOM     91  N   UNL A   1      47.866  34.372  26.673  1.00  0.00    -0.211 NA
ATOM     92  C   UNL A   1      48.931  32.736  28.560  1.00  0.00     0.076 A 
ATOM     93  C   UNL A   1      49.196  34.241  26.863  1.00  0.00     0.162 A 
ATOM     94  N   UNL A   1      49.768  33.444  27.778  1.00  0.00    -0.228 NA
BRANCH  92  95
ATOM     95  C   UNL A   1      49.573  31.968  29.630  1.00  0.00     0.000 A 
ATOM     96  C   UNL A   1      49.879  30.611  29.427  1.00  0.00     0.010 A 
ATOM     97  C   UNL A   1      49.907  32.546  30.865  1.00  0.00     0.010 A 
ATOM     98  C   UNL A   1      50.523  29.860  30.414  1.00  0.00     0.001 A 
ATOM     99  C   UNL A   1      50.543  31.791  31.857  1.00  0.00     0.001 A 
ATOM    100  C   UNL A   1      50.857  30.453  31.628  1.00  0.00     0.000 A 
ENDBRANCH  92  95
BRANCH  93 101
ATOM    101  C   UNL A   1      50.094  35.103  26.078  1.00  0.00     0.021 A 
ATOM    102  C   UNL A   1      49.642  35.727  24.899  1.00  0.00     0.012 A 
ATOM    103  C   UNL A   1      51.415  35.367  26.490  1.00  0.00     0.032 A 
ATOM    104  C   UNL A   1      50.465  36.584  24.163  1.00  0.00     0.002 A 
ATOM    105  C   UNL A   1      52.242  36.209  25.742  1.00  0.00     0.041 A 
ATOM    106  C   UNL A   1      51.770  36.822  24.583  1.00  0.00     0.020 A 
ATOM    107  Cl  UNL A   1      53.861  36.498  26.250  1.00  0.00    -0.084 Cl
ENDBRANCH  93 101
ENDBRANCH  85  89
ENDBRANCH  81  83
ENDBRANCH  80  81
ENDBRANCH  79  80
ENDBRANCH  78  79
ENDBRANCH  77  78
ENDBRANCH  76  77
ENDBRANCH  75  76
ENDBRANCH  74  75
ENDBRANCH   1  74
TORSDOF 26
ENDMDL
MODEL 3
REMARK VINA RESULT:      -7.8      3.860      8.893
REMARK SMILES O=C(OCCOCCOCCOCCOC(=O)[C@H]1CCCCN1c1cc(-c2ccccc2)nc(-c2cccc(Cl)c2)n1)c1ccc(-c2c3nc(c(-c4cccc(S(=O)(=O)[O-])c4F)c4ccc([nH]4)c(-c4cccc(S(=O)(=O)[O-])c4F)c4nc(c(-c5cccc(S(=O)(=O)[O-])c5F)c5ccc2[nH]5)C=C4)C=C3)cc1
REMARK SMILES IDX 8 1 7 2 6 3 5 4 4 5 3 6 2 7 1 8 43 9 44 10 105 11 45 12
REMARK SMILES IDX 104 13 46 14 47 15 48 16 98 17 49 18 103 19 97 20 99 21
REMARK SMILES IDX 50 22 102 23 96 24 95 25 51 27 83 28 63 29 82 30 64 31 67 32
REMARK SMILES IDX 81 33 100 34 65 35 66 36 80 38 101 39 68 40 52 41 53 42
REMARK SMILES IDX 61 43 54 44 56 45 62 46 55 47 57 48 58 49 59 50 60 51 84 52
REMARK SMILES IDX 85 53 93 54 86 55 88 56 94 57 87 58 89 59 90 60 91 61 92 62
REMARK SMILES IDX 69 63 70 64 78 65 71 66 73 67 79 68 72 69 74 70 75 71 76 72
REMARK SMILES IDX 77 73 9 74 10 75 11 76 12 77 13 78 14 79 15 80 16 81 17 82
REMARK SMILES IDX 18 83 19 84 23 85 20 86 22 87 21 88 24 89 25 90 42 91 26 92
REMARK SMILES IDX 34 93 33 94 27 95 28 96 32 97 29 98 31 99 30 100 35 101
REMARK SMILES IDX 36 102 41 103 37 104 39 105 38 106 40 107
REMARK H PARENT 99 26 67 37
REMARK Flexibility Score: inf
ROOT
ATOM      1  C   UNL A   1      43.390  23.874  25.305  1.00  0.00     0.188 C 
ENDROOT
BRANCH   1   2
ATOM      2  C   UNL A   1      43.533  23.284  26.717  1.00  0.00     0.188 C 
BRANCH   2   3
ATOM      3  O   UNL A   1      42.341  22.616  27.095  1.00  0.00    -0.376 OA
BRANCH   3   4
ATOM      4  C   UNL A   1      41.656  21.743  26.209  1.00  0.00     0.202 C 
BRANCH   4   5
ATOM      5  C   UNL A   1      40.231  21.385  26.585  1.00  0.00     0.261 C 
BRANCH   5   6
ATOM      6  O   UNL A   1      39.218  22.053  25.821  1.00  0.00    -0.460 OA
BRANCH   6   7
ATOM      7  C   UNL A   1      38.665  23.278  25.983  1.00  0.00     0.338 C 
ATOM      8  O   UNL A   1      37.547  23.474  25.507  1.00  0.00    -0.246 OA
BRANCH   7   9
ATOM      9  C   UNL A   1      39.304  24.393  26.729  1.00  0.00     0.060 A 
ATOM     10  C   UNL A   1      40.141  25.359  26.174  1.00  0.00     0.016 A 
ATOM     11  C   UNL A   1      38.918  24.564  28.064  1.00  0.00     0.016 A 
ATOM     12  C   UNL A   1      40.688  26.383  26.914  1.00  0.00     0.010 A 
ATOM     13  C   UNL A   1      39.398  25.643  28.811  1.00  0.00     0.010 A 
ATOM     14  C   UNL A   1      40.308  26.535  28.232  1.00  0.00    -0.014 A 
BRANCH  14  15
ATOM     15  C   UNL A   1      41.007  27.567  28.999  1.00  0.00     0.031 A 
ATOM     16  C   UNL A   1      40.224  28.780  29.369  1.00  0.00     0.074 A 
ATOM     17  C   UNL A   1      42.252  27.334  29.449  1.00  0.00     0.049 A 
ATOM     18  N   UNL A   1      40.634  29.881  29.924  1.00  0.00    -0.248 NA
ATOM     19  C   UNL A   1      38.777  28.745  29.083  1.00  0.00     0.031 C 
ATOM     20  C   UNL A   1      43.004  26.086  29.260  1.00  0.00     0.029 A 
ATOM     21  N   UNL A   1      43.105  28.130  30.160  1.00  0.00    -0.354 N 
ATOM     22  C   UNL A   1      39.521  30.706  29.962  1.00  0.00     0.074 A 
ATOM     23  C   UNL A   1      38.403  29.966  29.431  1.00  0.00     0.031 C 
ATOM     24  C   UNL A   1      44.217  26.216  29.817  1.00  0.00     0.029 A 
ATOM     25  C   UNL A   1      44.356  27.578  30.310  1.00  0.00     0.049 A 
ATOM     26  H   UNL A   1      42.850  29.007  30.527  1.00  0.00     0.167 HD
ATOM     27  C   UNL A   1      39.469  31.988  30.378  1.00  0.00     0.034 A 
ATOM     28  C   UNL A   1      45.499  28.156  30.721  1.00  0.00     0.034 A 
ATOM     29  C   UNL A   1      40.612  32.669  30.911  1.00  0.00     0.049 A 
ATOM     30  C   UNL A   1      45.426  29.609  31.109  1.00  0.00     0.074 A 
ATOM     31  C   UNL A   1      40.710  33.969  31.359  1.00  0.00     0.029 A 
ATOM     32  N   UNL A   1      41.870  32.093  31.042  1.00  0.00    -0.354 N 
ATOM     33  N   UNL A   1      44.374  30.393  31.162  1.00  0.00    -0.248 NA
ATOM     34  C   UNL A   1      46.684  30.257  31.492  1.00  0.00     0.031 C 
ATOM     35  C   UNL A   1      42.043  34.193  31.717  1.00  0.00     0.029 A 
ATOM     36  C   UNL A   1      42.762  33.020  31.537  1.00  0.00     0.049 A 
ATOM     37  H   UNL A   1      42.091  31.161  30.814  1.00  0.00     0.167 HD
ATOM     38  C   UNL A   1      44.837  31.624  31.603  1.00  0.00     0.074 A 
ATOM     39  C   UNL A   1      46.263  31.469  31.830  1.00  0.00     0.031 C 
ATOM     40  C   UNL A   1      44.163  32.785  31.786  1.00  0.00     0.034 A 
BRANCH  27  41
ATOM     41  C   UNL A   1      38.182  32.730  30.177  1.00  0.00     0.023 A 
ATOM     42  C   UNL A   1      37.859  33.297  28.929  1.00  0.00     0.012 A 
ATOM     43  C   UNL A   1      37.288  32.870  31.256  1.00  0.00     0.148 A 
ATOM     44  C   UNL A   1      36.674  34.016  28.767  1.00  0.00     0.002 A 
ATOM     45  C   UNL A   1      36.090  33.545  31.075  1.00  0.00     0.091 A 
ATOM     46  F   UNL A   1      37.639  32.357  32.445  1.00  0.00    -0.205 F 
ATOM     47  C   UNL A   1      35.786  34.129  29.835  1.00  0.00     0.022 A 
BRANCH  45  48
ATOM     48  S   UNL A   1      34.855  33.688  32.369  1.00  0.00     0.127 S 
ATOM     49  O   UNL A   1      34.136  34.893  31.960  1.00  0.00    -0.237 OA
ATOM     50  O   UNL A   1      34.104  32.444  32.208  1.00  0.00    -0.237 OA
ATOM     51  O   UNL A   1      35.590  33.804  33.621  1.00  0.00    -0.744 OA
ENDBRANCH  45  48
ENDBRANCH  27  41
BRANCH  28  52
ATOM     52  C   UNL A   1      46.786  27.403  30.706  1.00  0.00     0.023 A 
ATOM     53  C   UNL A   1      47.128  26.576  31.791  1.00  0.00     0.012 A 
ATOM     54  C   UNL A   1      47.681  27.508  29.619  1.00  0.00     0.148 A 
ATOM     55  C   UNL A   1      48.350  25.899  31.813  1.00  0.00     0.002 A 
ATOM     56  C   UNL A   1      48.867  26.784  29.620  1.00  0.00     0.091 A 
ATOM     57  F   UNL A   1      47.354  28.314  28.599  1.00  0.00    -0.205 F 
ATOM     58  C   UNL A   1      49.215  25.996  30.726  1.00  0.00     0.022 A 
BRANCH  56  59
ATOM     59  S   UNL A   1      49.976  26.753  28.207  1.00  0.00     0.127 S 
ATOM     60  O   UNL A   1      49.113  27.245  27.137  1.00  0.00    -0.237 OA
ATOM     61  O   UNL A   1      51.029  27.679  28.625  1.00  0.00    -0.237 OA
ATOM     62  O   UNL A   1      50.416  25.368  28.085  1.00  0.00    -0.744 OA
ENDBRANCH  56  59
ENDBRANCH  28  52
BRANCH  40  63
ATOM     63  C   UNL A   1      44.951  33.959  32.289  1.00  0.00     0.023 A 
ATOM     64  C   UNL A   1      45.379  34.953  31.389  1.00  0.00     0.012 A 
ATOM     65  C   UNL A   1      45.153  34.128  33.671  1.00  0.00     0.148 A 
ATOM     66  C   UNL A   1      46.019  36.095  31.860  1.00  0.00     0.002 A 
ATOM     67  C   UNL A   1      45.736  35.296  34.137  1.00  0.00     0.091 A 
ATOM     68  F   UNL A   1      44.745  33.156  34.500  1.00  0.00    -0.205 F 
ATOM     69  C   UNL A   1      46.183  36.274  33.233  1.00  0.00     0.022 A 
BRANCH  67  70
ATOM     70  S   UNL A   1      45.876  35.664  35.888  1.00  0.00     0.127 S 
ATOM     71  O   UNL A   1      46.773  34.602  36.342  1.00  0.00    -0.237 OA
ATOM     72  O   UNL A   1      46.468  37.001  35.872  1.00  0.00    -0.237 OA
ATOM     73  O   UNL A   1      44.523  35.604  36.424  1.00  0.00    -0.744 OA
ENDBRANCH  67  70
ENDBRANCH  40  63
ENDBRANCH  14  15
ENDBRANCH   7   9
ENDBRANCH   6   7
ENDBRANCH   5   6
ENDBRANCH   4   5
ENDBRANCH   3   4
ENDBRANCH   2   3
ENDBRANCH   1   2
BRANCH   1  74
ATOM     74  O   UNL A   1      44.010  25.148  25.098  1.00  0.00    -0.377 OA
BRANCH  74  75
ATOM     75  C   UNL A   1      45.393  25.209  25.428  1.00  0.00     0.188 C 
BRANCH  75  76
ATOM     76  C   UNL A   1      45.939  26.502  26.103  1.00  0.00     0.188 C 
BRANCH  76  77
ATOM     77  O   UNL A   1      44.935  27.320  26.682  1.00  0.00    -0.376 OA
BRANCH  77  78
ATOM     78  C   UNL A   1      44.838  28.693  26.318  1.00  0.00     0.202 C 
BRANCH  78  79
ATOM     79  C   UNL A   1      43.705  29.574  26.879  1.00  0.00     0.261 C 
BRANCH  79  80
ATOM     80  O   UNL A   1      43.635  30.904  26.353  1.00  0.00    -0.462 OA
BRANCH  80  81
ATOM     81  C   UNL A   1      44.018  31.925  27.170  1.00  0.00     0.328 C 
ATOM     82  O   UNL A   1      43.728  32.009  28.347  1.00  0.00    -0.250 OA
BRANCH  81  83
ATOM     83  C   UNL A   1      45.000  32.849  26.399  1.00  0.00     0.193 C 
ATOM     84  C   UNL A   1      44.388  33.418  25.128  1.00  0.00     0.037 C 
ATOM     85  N   UNL A   1      45.515  33.932  27.229  1.00  0.00    -0.343 N 
ATOM     86  C   UNL A   1      43.270  34.381  25.499  1.00  0.00     0.005 C 
ATOM     87  C   UNL A   1      44.581  34.942  27.671  1.00  0.00     0.119 C 
ATOM     88  C   UNL A   1      43.760  35.459  26.477  1.00  0.00     0.022 C 
BRANCH  85  89
ATOM     89  C   UNL A   1      46.869  34.000  27.462  1.00  0.00     0.134 A 
ATOM     90  C   UNL A   1      47.727  34.460  26.484  1.00  0.00     0.076 A 
ATOM     91  N   UNL A   1      47.324  33.649  28.679  1.00  0.00    -0.211 NA
ATOM     92  C   UNL A   1      49.075  34.512  26.793  1.00  0.00     0.076 A 
ATOM     93  C   UNL A   1      48.653  33.735  28.898  1.00  0.00     0.162 A 
ATOM     94  N   UNL A   1      49.556  34.159  28.001  1.00  0.00    -0.228 NA
BRANCH  92  95
ATOM     95  C   UNL A   1      50.090  34.854  25.791  1.00  0.00     0.000 A 
ATOM     96  C   UNL A   1      50.257  36.193  25.397  1.00  0.00     0.010 A 
ATOM     97  C   UNL A   1      50.918  33.882  25.208  1.00  0.00     0.010 A 
ATOM     98  C   UNL A   1      51.238  36.556  24.472  1.00  0.00     0.001 A 
ATOM     99  C   UNL A   1      51.894  34.245  24.273  1.00  0.00     0.001 A 
ATOM    100  C   UNL A   1      52.058  35.581  23.912  1.00  0.00     0.000 A 
ENDBRANCH  92  95
BRANCH  93 101
ATOM    101  C   UNL A   1      49.176  33.242  30.183  1.00  0.00     0.021 A 
ATOM    102  C   UNL A   1      48.835  33.883  31.390  1.00  0.00     0.012 A 
ATOM    103  C   UNL A   1      49.995  32.099  30.260  1.00  0.00     0.032 A 
ATOM    104  C   UNL A   1      49.284  33.404  32.624  1.00  0.00     0.002 A 
ATOM    105  C   UNL A   1      50.459  31.634  31.493  1.00  0.00     0.041 A 
ATOM    106  C   UNL A   1      50.102  32.279  32.675  1.00  0.00     0.020 A 
ATOM    107  Cl  UNL A   1      51.481  30.251  31.562  1.00  0.00    -0.084 Cl
ENDBRANCH  93 101
ENDBRANCH  85  89
ENDBRANCH  81  83
ENDBRANCH  80  81
ENDBRANCH  79  80
ENDBRANCH  78  79
ENDBRANCH  77  78
ENDBRANCH  76  77
ENDBRANCH  75  76
ENDBRANCH  74  75
ENDBRANCH   1  74
TORSDOF 26
ENDMDL
