MODEL 1
REMARK VINA RESULT:      -7.7      0.000      0.000
REMARK SMILES CCc1cc(OC[C@@H]2C[N@@H+](CC)CCO2)c(C(=O)OCCOCCOCCOCCOC(=O)c2ccc(-c3c4nc(c(-c5cccc(S(=O)(=O)[O-])c5F)c5ccc([nH]5)c(-c5cccc(S(=O)(=O)[O-])c5F)c5nc(c(-c6cccc(S(=O)(=O)[O-])c6F)c6ccc3[nH]6)C=C5)C=C4)cc2)s1
REMARK SMILES IDX 24 1 23 2 22 3 21 4 20 5 19 6 17 7 18 8 16 9 3 10 4 11 97 12
REMARK SMILES IDX 5 13 2 14 1 15 6 16 7 17 8 18 9 19 15 20 10 21 14 22 13 23
REMARK SMILES IDX 11 25 12 26 25 27 26 28 27 29 28 30 29 31 30 32 31 33 32 34
REMARK SMILES IDX 33 35 34 36 35 37 96 38 36 39 95 40 37 41 38 42 39 43 89 44
REMARK SMILES IDX 40 45 94 46 88 47 90 48 41 49 93 50 87 51 86 52 42 54 74 55
REMARK SMILES IDX 54 56 73 57 55 58 58 59 72 60 91 61 56 62 57 63 71 65 92 66
REMARK SMILES IDX 59 67 43 68 44 69 52 70 45 71 47 72 53 73 46 74 48 75 49 76
REMARK SMILES IDX 50 77 51 78 75 79 76 80 84 81 77 82 79 83 85 84 78 85 80 86
REMARK SMILES IDX 81 87 82 88 83 89 60 90 61 91 69 92 62 93 64 94 70 95 63 96
REMARK SMILES IDX 65 97 66 98 67 99 68 100
REMARK H PARENT 10 24 90 53 58 64
REMARK Flexibility Score: inf
ROOT
ATOM      1  C   UNL A   1      41.315  20.562  27.008  1.00  0.00     0.188 C 
ENDROOT
BRANCH   1   2
ATOM      2  C   UNL A   1      40.071  21.083  26.268  1.00  0.00     0.188 C 
BRANCH   2   3
ATOM      3  O   UNL A   1      39.212  20.057  25.779  1.00  0.00    -0.376 OA
BRANCH   3   4
ATOM      4  C   UNL A   1      38.086  20.488  25.024  1.00  0.00     0.202 C 
BRANCH   4   5
ATOM      5  C   UNL A   1      37.595  21.904  25.344  1.00  0.00     0.261 C 
BRANCH   5   6
ATOM      6  O   UNL A   1      36.274  22.182  24.874  1.00  0.00    -0.459 OA
BRANCH   6   7
ATOM      7  C   UNL A   1      35.245  22.187  25.757  1.00  0.00     0.352 C 
ATOM      8  O   UNL A   1      35.204  22.891  26.761  1.00  0.00    -0.245 OA
BRANCH   7   9
ATOM      9  C   UNL A   1      34.172  21.373  25.220  1.00  0.00     0.155 A 
ATOM     10  C   UNL A   1      32.825  19.466  24.391  1.00  0.00     0.009 A 
ATOM     11  C   UNL A   1      32.052  20.583  24.635  1.00  0.00     0.062 A 
ATOM     12  S   UNL A   1      34.473  19.746  24.772  1.00  0.00    -0.130 S 
ATOM     13  C   UNL A   1      32.846  21.708  25.007  1.00  0.00     0.145 A 
BRANCH  10  14
ATOM     14  C   UNL A   1      32.384  18.151  23.824  1.00  0.00     0.043 C 
ATOM     15  C   UNL A   1      32.347  18.200  22.301  1.00  0.00     0.010 C 
ENDBRANCH  10  14
BRANCH  13  16
ATOM     16  O   UNL A   1      32.464  23.004  25.116  1.00  0.00    -0.489 OA
BRANCH  16  17
ATOM     17  C   UNL A   1      32.708  23.827  23.975  1.00  0.00     0.267 C 
BRANCH  17  18
ATOM     18  C   UNL A   1      31.962  25.187  23.931  1.00  0.00     0.210 C 
ATOM     19  C   UNL A   1      32.838  26.460  23.987  1.00  0.00     0.298 C 
ATOM     20  O   UNL A   1      31.018  25.238  25.018  1.00  0.00    -0.363 OA
ATOM     21  N   UNL A   1      32.110  27.737  23.962  1.00  0.00    -0.331 N 
ATOM     22  C   UNL A   1      30.167  26.384  24.896  1.00  0.00     0.222 C 
ATOM     23  C   UNL A   1      30.966  27.699  24.878  1.00  0.00     0.291 C 
ATOM     24  H   UNL A   1      32.728  28.456  24.339  1.00  0.00     0.348 HD
BRANCH  21  25
ATOM     25  C   UNL A   1      31.881  28.291  22.632  1.00  0.00     0.258 C 
ATOM     26  C   UNL A   1      30.641  29.144  22.406  1.00  0.00     0.071 C 
ENDBRANCH  21  25
ENDBRANCH  17  18
ENDBRANCH  16  17
ENDBRANCH  13  16
ENDBRANCH   7   9
ENDBRANCH   6   7
ENDBRANCH   5   6
ENDBRANCH   4   5
ENDBRANCH   3   4
ENDBRANCH   2   3
ENDBRANCH   1   2
BRANCH   1  27
ATOM     27  O   UNL A   1      42.342  21.483  27.321  1.00  0.00    -0.377 OA
BRANCH  27  28
ATOM     28  C   UNL A   1      42.046  22.623  28.119  1.00  0.00     0.188 C 
BRANCH  28  29
ATOM     29  C   UNL A   1      41.873  24.026  27.492  1.00  0.00     0.188 C 
BRANCH  29  30
ATOM     30  O   UNL A   1      42.193  24.127  26.109  1.00  0.00    -0.376 OA
BRANCH  30  31
ATOM     31  C   UNL A   1      43.574  24.108  25.779  1.00  0.00     0.202 C 
BRANCH  31  32
ATOM     32  C   UNL A   1      44.091  25.405  25.146  1.00  0.00     0.261 C 
BRANCH  32  33
ATOM     33  O   UNL A   1      44.014  26.559  25.996  1.00  0.00    -0.460 OA
BRANCH  33  34
ATOM     34  C   UNL A   1      45.027  27.448  25.913  1.00  0.00     0.338 C 
ATOM     35  O   UNL A   1      45.930  27.467  25.095  1.00  0.00    -0.246 OA
BRANCH  34  36
ATOM     36  C   UNL A   1      44.764  28.518  26.890  1.00  0.00     0.060 A 
ATOM     37  C   UNL A   1      43.649  29.343  26.706  1.00  0.00     0.016 A 
ATOM     38  C   UNL A   1      45.625  28.707  27.973  1.00  0.00     0.016 A 
ATOM     39  C   UNL A   1      43.415  30.395  27.587  1.00  0.00     0.010 A 
ATOM     40  C   UNL A   1      45.398  29.769  28.846  1.00  0.00     0.010 A 
ATOM     41  C   UNL A   1      44.316  30.640  28.633  1.00  0.00    -0.014 A 
BRANCH  41  42
ATOM     42  C   UNL A   1      44.246  31.914  29.381  1.00  0.00     0.031 A 
ATOM     43  C   UNL A   1      45.207  33.009  29.010  1.00  0.00     0.074 A 
ATOM     44  C   UNL A   1      43.366  32.087  30.383  1.00  0.00     0.049 A 
ATOM     45  N   UNL A   1      45.343  34.201  29.525  1.00  0.00    -0.248 NA
ATOM     46  C   UNL A   1      46.148  32.715  27.914  1.00  0.00     0.031 C 
ATOM     47  C   UNL A   1      42.399  31.093  30.842  1.00  0.00     0.029 A 
ATOM     48  N   UNL A   1      43.167  33.163  31.210  1.00  0.00    -0.354 N 
ATOM     49  C   UNL A   1      46.392  34.793  28.833  1.00  0.00     0.074 A 
ATOM     50  C   UNL A   1      46.870  33.824  27.872  1.00  0.00     0.031 C 
ATOM     51  C   UNL A   1      41.727  31.595  31.893  1.00  0.00     0.029 A 
ATOM     52  C   UNL A   1      42.224  32.939  32.185  1.00  0.00     0.049 A 
ATOM     53  H   UNL A   1      43.653  34.014  31.116  1.00  0.00     0.167 HD
ATOM     54  C   UNL A   1      46.900  36.039  28.970  1.00  0.00     0.034 A 
ATOM     55  C   UNL A   1      41.822  33.727  33.202  1.00  0.00     0.034 A 
ATOM     56  C   UNL A   1      46.416  37.005  29.916  1.00  0.00     0.049 A 
ATOM     57  C   UNL A   1      42.413  35.108  33.341  1.00  0.00     0.074 A 
ATOM     58  C   UNL A   1      46.830  38.312  30.099  1.00  0.00     0.029 A 
ATOM     59  N   UNL A   1      45.421  36.764  30.849  1.00  0.00    -0.354 N 
ATOM     60  N   UNL A   1      43.302  35.708  32.585  1.00  0.00    -0.248 NA
ATOM     61  C   UNL A   1      41.917  35.936  34.451  1.00  0.00     0.031 C 
ATOM     62  C   UNL A   1      46.097  38.856  31.158  1.00  0.00     0.029 A 
ATOM     63  C   UNL A   1      45.212  37.895  31.620  1.00  0.00     0.049 A 
ATOM     64  H   UNL A   1      44.934  35.915  30.950  1.00  0.00     0.167 HD
ATOM     65  C   UNL A   1      43.444  36.991  33.104  1.00  0.00     0.074 A 
ATOM     66  C   UNL A   1      42.535  37.088  34.229  1.00  0.00     0.031 C 
ATOM     67  C   UNL A   1      44.261  37.994  32.697  1.00  0.00     0.034 A 
BRANCH  54  68
ATOM     68  C   UNL A   1      48.020  36.436  28.047  1.00  0.00     0.023 A 
ATOM     69  C   UNL A   1      47.719  37.063  26.821  1.00  0.00     0.012 A 
ATOM     70  C   UNL A   1      49.365  36.228  28.407  1.00  0.00     0.148 A 
ATOM     71  C   UNL A   1      48.738  37.450  25.953  1.00  0.00     0.002 A 
ATOM     72  C   UNL A   1      50.377  36.652  27.554  1.00  0.00     0.091 A 
ATOM     73  F   UNL A   1      49.629  35.603  29.563  1.00  0.00    -0.205 F 
ATOM     74  C   UNL A   1      50.066  37.254  26.324  1.00  0.00     0.022 A 
BRANCH  72  75
ATOM     75  S   UNL A   1      52.117  36.507  27.976  1.00  0.00     0.127 S 
ATOM     76  O   UNL A   1      52.621  37.829  27.605  1.00  0.00    -0.237 OA
ATOM     77  O   UNL A   1      52.066  36.256  29.417  1.00  0.00    -0.237 OA
ATOM     78  O   UNL A   1      52.628  35.396  27.186  1.00  0.00    -0.744 OA
ENDBRANCH  72  75
ENDBRANCH  54  68
BRANCH  55  79
ATOM     79  C   UNL A   1      40.769  33.250  34.142  1.00  0.00     0.023 A 
ATOM     80  C   UNL A   1      41.143  32.515  35.284  1.00  0.00     0.012 A 
ATOM     81  C   UNL A   1      39.407  33.528  33.918  1.00  0.00     0.148 A 
ATOM     82  C   UNL A   1      40.177  32.041  36.172  1.00  0.00     0.002 A 
ATOM     83  C   UNL A   1      38.453  33.094  34.833  1.00  0.00     0.091 A 
ATOM     84  F   UNL A   1      39.071  34.211  32.815  1.00  0.00    -0.205 F 
ATOM     85  C   UNL A   1      38.834  32.338  35.952  1.00  0.00     0.022 A 
BRANCH  83  86
ATOM     86  S   UNL A   1      36.714  33.524  34.689  1.00  0.00     0.127 S 
ATOM     87  O   UNL A   1      36.787  34.911  34.237  1.00  0.00    -0.237 OA
ATOM     88  O   UNL A   1      36.251  32.573  33.679  1.00  0.00    -0.237 OA
ATOM     89  O   UNL A   1      36.148  33.320  36.015  1.00  0.00    -0.744 OA
ENDBRANCH  83  86
ENDBRANCH  55  79
BRANCH  67  90
ATOM     90  C   UNL A   1      44.195  39.303  33.442  1.00  0.00     0.023 A 
ATOM     91  C   UNL A   1      44.866  39.441  34.672  1.00  0.00     0.012 A 
ATOM     92  C   UNL A   1      43.549  40.420  32.875  1.00  0.00     0.148 A 
ATOM     93  C   UNL A   1      44.871  40.665  35.342  1.00  0.00     0.002 A 
ATOM     94  C   UNL A   1      43.597  41.647  33.526  1.00  0.00     0.091 A 
ATOM     95  F   UNL A   1      42.901  40.264  31.713  1.00  0.00    -0.205 F 
ATOM     96  C   UNL A   1      44.249  41.769  34.764  1.00  0.00     0.022 A 
BRANCH  94  97
ATOM     97  S   UNL A   1      42.908  43.144  32.808  1.00  0.00     0.127 S 
ATOM     98  O   UNL A   1      42.334  43.800  33.980  1.00  0.00    -0.237 OA
ATOM     99  O   UNL A   1      44.094  43.803  32.260  1.00  0.00    -0.237 OA
ATOM    100  O   UNL A   1      41.950  42.699  31.805  1.00  0.00    -0.744 OA
ENDBRANCH  94  97
ENDBRANCH  67  90
ENDBRANCH  41  42
ENDBRANCH  34  36
ENDBRANCH  33  34
ENDBRANCH  32  33
ENDBRANCH  31  32
ENDBRANCH  30  31
ENDBRANCH  29  30
ENDBRANCH  28  29
ENDBRANCH  27  28
ENDBRANCH   1  27
TORSDOF 28
ENDMDL
MODEL 2
REMARK VINA RESULT:      -7.7      6.142     13.235
REMARK SMILES CCc1cc(OC[C@@H]2C[N@@H+](CC)CCO2)c(C(=O)OCCOCCOCCOCCOC(=O)c2ccc(-c3c4nc(c(-c5cccc(S(=O)(=O)[O-])c5F)c5ccc([nH]5)c(-c5cccc(S(=O)(=O)[O-])c5F)c5nc(c(-c6cccc(S(=O)(=O)[O-])c6F)c6ccc3[nH]6)C=C5)C=C4)cc2)s1
REMARK SMILES IDX 24 1 23 2 22 3 21 4 20 5 19 6 17 7 18 8 16 9 3 10 4 11 97 12
REMARK SMILES IDX 5 13 2 14 1 15 6 16 7 17 8 18 9 19 15 20 10 21 14 22 13 23
REMARK SMILES IDX 11 25 12 26 25 27 26 28 27 29 28 30 29 31 30 32 31 33 32 34
REMARK SMILES IDX 33 35 34 36 35 37 96 38 36 39 95 40 37 41 38 42 39 43 89 44
REMARK SMILES IDX 40 45 94 46 88 47 90 48 41 49 93 50 87 51 86 52 42 54 74 55
REMARK SMILES IDX 54 56 73 57 55 58 58 59 72 60 91 61 56 62 57 63 71 65 92 66
REMARK SMILES IDX 59 67 43 68 44 69 52 70 45 71 47 72 53 73 46 74 48 75 49 76
REMARK SMILES IDX 50 77 51 78 75 79 76 80 84 81 77 82 79 83 85 84 78 85 80 86
REMARK SMILES IDX 81 87 82 88 83 89 60 90 61 91 69 92 62 93 64 94 70 95 63 96
REMARK SMILES IDX 65 97 66 98 67 99 68 100
REMARK H PARENT 10 24 90 53 58 64
REMARK Flexibility Score: inf
ROOT
ATOM      1  C   UNL A   1      41.427  33.344  38.636  1.00  0.00     0.188 C 
ENDROOT
BRANCH   1   2
ATOM      2  C   UNL A   1      41.640  32.922  37.172  1.00  0.00     0.188 C 
BRANCH   2   3
ATOM      3  O   UNL A   1      40.452  32.918  36.387  1.00  0.00    -0.376 OA
BRANCH   3   4
ATOM      4  C   UNL A   1      40.614  33.185  35.000  1.00  0.00     0.202 C 
BRANCH   4   5
ATOM      5  C   UNL A   1      39.490  34.010  34.364  1.00  0.00     0.261 C 
BRANCH   5   6
ATOM      6  O   UNL A   1      38.549  33.233  33.618  1.00  0.00    -0.459 OA
BRANCH   6   7
ATOM      7  C   UNL A   1      37.796  32.309  34.265  1.00  0.00     0.352 C 
ATOM      8  O   UNL A   1      37.200  32.520  35.316  1.00  0.00    -0.245 OA
BRANCH   7   9
ATOM      9  C   UNL A   1      37.688  31.132  33.424  1.00  0.00     0.155 A 
ATOM     10  C   UNL A   1      38.089  28.937  32.349  1.00  0.00     0.009 A 
ATOM     11  C   UNL A   1      36.829  29.428  32.075  1.00  0.00     0.062 A 
ATOM     12  S   UNL A   1      38.966  29.992  33.376  1.00  0.00    -0.130 S 
ATOM     13  C   UNL A   1      36.643  30.739  32.605  1.00  0.00     0.145 A 
BRANCH  10  14
ATOM     14  C   UNL A   1      38.717  27.680  31.827  1.00  0.00     0.043 C 
ATOM     15  C   UNL A   1      39.269  27.890  30.422  1.00  0.00     0.010 C 
ENDBRANCH  10  14
BRANCH  13  16
ATOM     16  O   UNL A   1      35.630  31.606  32.360  1.00  0.00    -0.489 OA
BRANCH  16  17
ATOM     17  C   UNL A   1      35.883  32.599  31.365  1.00  0.00     0.267 C 
BRANCH  17  18
ATOM     18  C   UNL A   1      34.738  33.612  31.093  1.00  0.00     0.210 C 
ATOM     19  C   UNL A   1      34.943  34.584  29.908  1.00  0.00     0.298 C 
ATOM     20  O   UNL A   1      34.507  34.388  32.283  1.00  0.00    -0.363 OA
ATOM     21  N   UNL A   1      33.855  35.546  29.678  1.00  0.00    -0.331 N 
ATOM     22  C   UNL A   1      33.329  35.190  32.143  1.00  0.00     0.222 C 
ATOM     23  C   UNL A   1      33.420  36.149  30.942  1.00  0.00     0.291 C 
ATOM     24  H   UNL A   1      34.232  36.320  29.132  1.00  0.00     0.348 HD
BRANCH  21  25
ATOM     25  C   UNL A   1      32.813  35.093  28.763  1.00  0.00     0.258 C 
ATOM     26  C   UNL A   1      33.104  33.895  27.871  1.00  0.00     0.071 C 
ENDBRANCH  21  25
ENDBRANCH  17  18
ENDBRANCH  16  17
ENDBRANCH  13  16
ENDBRANCH   7   9
ENDBRANCH   6   7
ENDBRANCH   5   6
ENDBRANCH   4   5
ENDBRANCH   3   4
ENDBRANCH   2   3
ENDBRANCH   1   2
BRANCH   1  27
ATOM     27  O   UNL A   1      40.715  34.540  38.892  1.00  0.00    -0.377 OA
BRANCH  27  28
ATOM     28  C   UNL A   1      40.893  35.212  40.134  1.00  0.00     0.188 C 
BRANCH  28  29
ATOM     29  C   UNL A   1      42.281  35.716  40.590  1.00  0.00     0.188 C 
BRANCH  29  30
ATOM     30  O   UNL A   1      43.036  34.808  41.384  1.00  0.00    -0.376 OA
BRANCH  30  31
ATOM     31  C   UNL A   1      44.299  34.416  40.865  1.00  0.00     0.202 C 
BRANCH  31  32
ATOM     32  C   UNL A   1      45.026  33.357  41.701  1.00  0.00     0.261 C 
BRANCH  32  33
ATOM     33  O   UNL A   1      45.274  32.120  41.016  1.00  0.00    -0.460 OA
BRANCH  33  34
ATOM     34  C   UNL A   1      46.379  32.060  40.242  1.00  0.00     0.338 C 
ATOM     35  O   UNL A   1      47.532  32.256  40.582  1.00  0.00    -0.246 OA
BRANCH  34  36
ATOM     36  C   UNL A   1      45.975  31.541  38.925  1.00  0.00     0.060 A 
ATOM     37  C   UNL A   1      44.695  30.994  38.777  1.00  0.00     0.016 A 
ATOM     38  C   UNL A   1      46.864  31.589  37.848  1.00  0.00     0.016 A 
ATOM     39  C   UNL A   1      44.315  30.446  37.554  1.00  0.00     0.010 A 
ATOM     40  C   UNL A   1      46.487  31.028  36.629  1.00  0.00     0.010 A 
ATOM     41  C   UNL A   1      45.227  30.420  36.491  1.00  0.00    -0.014 A 
BRANCH  41  42
ATOM     42  C   UNL A   1      44.947  29.585  35.302  1.00  0.00     0.031 A 
ATOM     43  C   UNL A   1      44.258  30.228  34.130  1.00  0.00     0.074 A 
ATOM     44  C   UNL A   1      45.275  28.282  35.271  1.00  0.00     0.049 A 
ATOM     45  N   UNL A   1      43.901  29.702  32.989  1.00  0.00    -0.248 NA
ATOM     46  C   UNL A   1      43.919  31.656  34.268  1.00  0.00     0.031 C 
ATOM     47  C   UNL A   1      45.928  27.547  36.352  1.00  0.00     0.029 A 
ATOM     48  N   UNL A   1      45.074  27.341  34.293  1.00  0.00    -0.354 N 
ATOM     49  C   UNL A   1      43.280  30.724  32.281  1.00  0.00     0.074 A 
ATOM     50  C   UNL A   1      43.293  31.897  33.127  1.00  0.00     0.031 C 
ATOM     51  C   UNL A   1      46.049  26.258  35.989  1.00  0.00     0.029 A 
ATOM     52  C   UNL A   1      45.470  26.077  34.659  1.00  0.00     0.049 A 
ATOM     53  H   UNL A   1      44.682  27.551  33.414  1.00  0.00     0.167 HD
ATOM     54  C   UNL A   1      42.763  30.695  31.032  1.00  0.00     0.034 A 
ATOM     55  C   UNL A   1      45.364  24.908  33.995  1.00  0.00     0.034 A 
ATOM     56  C   UNL A   1      42.762  29.533  30.189  1.00  0.00     0.049 A 
ATOM     57  C   UNL A   1      44.773  24.900  32.607  1.00  0.00     0.074 A 
ATOM     58  C   UNL A   1      42.309  29.414  28.888  1.00  0.00     0.029 A 
ATOM     59  N   UNL A   1      43.225  28.283  30.569  1.00  0.00    -0.354 N 
ATOM     60  N   UNL A   1      44.324  25.905  31.893  1.00  0.00    -0.248 NA
ATOM     61  C   UNL A   1      44.708  23.602  31.918  1.00  0.00     0.031 C 
ATOM     62  C   UNL A   1      42.479  28.085  28.487  1.00  0.00     0.029 A 
ATOM     63  C   UNL A   1      43.058  27.382  29.532  1.00  0.00     0.049 A 
ATOM     64  H   UNL A   1      43.614  28.067  31.447  1.00  0.00     0.167 HD
ATOM     65  C   UNL A   1      43.959  25.368  30.662  1.00  0.00     0.074 A 
ATOM     66  C   UNL A   1      44.257  23.951  30.721  1.00  0.00     0.031 C 
ATOM     67  C   UNL A   1      43.415  25.988  29.586  1.00  0.00     0.034 A 
BRANCH  54  68
ATOM     68  C   UNL A   1      42.184  31.975  30.491  1.00  0.00     0.023 A 
ATOM     69  C   UNL A   1      40.843  32.303  30.775  1.00  0.00     0.012 A 
ATOM     70  C   UNL A   1      42.973  32.867  29.741  1.00  0.00     0.148 A 
ATOM     71  C   UNL A   1      40.286  33.487  30.295  1.00  0.00     0.002 A 
ATOM     72  C   UNL A   1      42.422  34.064  29.299  1.00  0.00     0.091 A 
ATOM     73  F   UNL A   1      44.237  32.522  29.457  1.00  0.00    -0.205 F 
ATOM     74  C   UNL A   1      41.077  34.371  29.567  1.00  0.00     0.022 A 
BRANCH  72  75
ATOM     75  S   UNL A   1      43.381  35.299  28.415  1.00  0.00     0.127 S 
ATOM     76  O   UNL A   1      44.148  35.909  29.500  1.00  0.00    -0.237 OA
ATOM     77  O   UNL A   1      44.171  34.477  27.496  1.00  0.00    -0.237 OA
ATOM     78  O   UNL A   1      42.411  36.169  27.766  1.00  0.00    -0.744 OA
ENDBRANCH  72  75
ENDBRANCH  54  68
BRANCH  55  79
ATOM     79  C   UNL A   1      45.875  23.652  34.613  1.00  0.00     0.023 A 
ATOM     80  C   UNL A   1      44.977  22.788  35.267  1.00  0.00     0.012 A 
ATOM     81  C   UNL A   1      47.239  23.306  34.548  1.00  0.00     0.148 A 
ATOM     82  C   UNL A   1      45.430  21.614  35.870  1.00  0.00     0.002 A 
ATOM     83  C   UNL A   1      47.677  22.111  35.109  1.00  0.00     0.091 A 
ATOM     84  F   UNL A   1      48.081  24.152  33.939  1.00  0.00    -0.205 F 
ATOM     85  C   UNL A   1      46.776  21.271  35.783  1.00  0.00     0.022 A 
BRANCH  83  86
ATOM     86  S   UNL A   1      49.371  21.535  34.950  1.00  0.00     0.127 S 
ATOM     87  O   UNL A   1      49.491  21.355  33.505  1.00  0.00    -0.237 OA
ATOM     88  O   UNL A   1      50.126  22.665  35.492  1.00  0.00    -0.237 OA
ATOM     89  O   UNL A   1      49.449  20.319  35.747  1.00  0.00    -0.744 OA
ENDBRANCH  83  86
ENDBRANCH  55  79
BRANCH  67  90
ATOM     90  C   UNL A   1      43.133  25.155  28.361  1.00  0.00     0.023 A 
ATOM     91  C   UNL A   1      44.136  24.982  27.389  1.00  0.00     0.012 A 
ATOM     92  C   UNL A   1      41.909  24.471  28.224  1.00  0.00     0.148 A 
ATOM     93  C   UNL A   1      43.916  24.161  26.283  1.00  0.00     0.002 A 
ATOM     94  C   UNL A   1      41.714  23.619  27.143  1.00  0.00     0.091 A 
ATOM     95  F   UNL A   1      40.959  24.663  29.150  1.00  0.00    -0.205 F 
ATOM     96  C   UNL A   1      42.712  23.470  26.166  1.00  0.00     0.022 A 
BRANCH  94  97
ATOM     97  S   UNL A   1      40.233  22.616  26.965  1.00  0.00     0.127 S 
ATOM     98  O   UNL A   1      40.266  22.285  25.542  1.00  0.00    -0.237 OA
ATOM     99  O   UNL A   1      40.508  21.491  27.859  1.00  0.00    -0.237 OA
ATOM    100  O   UNL A   1      39.125  23.462  27.388  1.00  0.00    -0.744 OA
ENDBRANCH  94  97
ENDBRANCH  67  90
ENDBRANCH  41  42
ENDBRANCH  34  36
ENDBRANCH  33  34
ENDBRANCH  32  33
ENDBRANCH  31  32
ENDBRANCH  30  31
ENDBRANCH  29  30
ENDBRANCH  28  29
ENDBRANCH  27  28
ENDBRANCH   1  27
TORSDOF 28
ENDMDL
MODEL 3
REMARK VINA RESULT:      -7.4      5.910     12.920
REMARK SMILES CCc1cc(OC[C@@H]2C[N@@H+](CC)CCO2)c(C(=O)OCCOCCOCCOCCOC(=O)c2ccc(-c3c4nc(c(-c5cccc(S(=O)(=O)[O-])c5F)c5ccc([nH]5)c(-c5cccc(S(=O)(=O)[O-])c5F)c5nc(c(-c6cccc(S(=O)(=O)[O-])c6F)c6ccc3[nH]6)C=C5)C=C4)cc2)s1
REMARK SMILES IDX 24 1 23 2 22 3 21 4 20 5 19 6 17 7 18 8 16 9 3 10 4 11 97 12
REMARK SMILES IDX 5 13 2 14 1 15 6 16 7 17 8 18 9 19 15 20 10 21 14 22 13 23
REMARK SMILES IDX 11 25 12 26 25 27 26 28 27 29 28 30 29 31 30 32 31 33 32 34
REMARK SMILES IDX 33 35 34 36 35 37 96 38 36 39 95 40 37 41 38 42 39 43 89 44
REMARK SMILES IDX 40 45 94 46 88 47 90 48 41 49 93 50 87 51 86 52 42 54 74 55
REMARK SMILES IDX 54 56 73 57 55 58 58 59 72 60 91 61 56 62 57 63 71 65 92 66
REMARK SMILES IDX 59 67 43 68 44 69 52 70 45 71 47 72 53 73 46 74 48 75 49 76
REMARK SMILES IDX 50 77 51 78 75 79 76 80 84 81 77 82 79 83 85 84 78 85 80 86
REMARK SMILES IDX 81 87 82 88 83 89 60 90 61 91 69 92 62 93 64 94 70 95 63 96
REMARK SMILES IDX 65 97 66 98 67 99 68 100
REMARK H PARENT 10 24 90 53 58 64
REMARK Flexibility Score: inf
ROOT
ATOM      1  C   UNL A   1      48.809  34.608  26.409  1.00  0.00     0.188 C 
ENDROOT
BRANCH   1   2
ATOM      2  C   UNL A   1      47.556  33.825  26.837  1.00  0.00     0.188 C 
BRANCH   2   3
ATOM      3  O   UNL A   1      47.480  32.508  26.299  1.00  0.00    -0.376 OA
BRANCH   3   4
ATOM      4  C   UNL A   1      46.734  31.564  27.056  1.00  0.00     0.202 C 
BRANCH   4   5
ATOM      5  C   UNL A   1      47.420  30.208  27.258  1.00  0.00     0.261 C 
BRANCH   5   6
ATOM      6  O   UNL A   1      46.529  29.092  27.213  1.00  0.00    -0.459 OA
BRANCH   6   7
ATOM      7  C   UNL A   1      45.867  28.821  26.060  1.00  0.00     0.352 C 
ATOM      8  O   UNL A   1      46.381  28.859  24.947  1.00  0.00    -0.245 OA
BRANCH   7   9
ATOM      9  C   UNL A   1      44.545  28.325  26.392  1.00  0.00     0.155 A 
ATOM     10  C   UNL A   1      42.128  28.173  26.908  1.00  0.00     0.009 A 
ATOM     11  C   UNL A   1      42.679  26.939  26.628  1.00  0.00     0.062 A 
ATOM     12  S   UNL A   1      43.289  29.426  26.777  1.00  0.00    -0.130 S 
ATOM     13  C   UNL A   1      44.091  27.019  26.439  1.00  0.00     0.145 A 
BRANCH  10  14
ATOM     14  C   UNL A   1      40.721  28.475  27.327  1.00  0.00     0.043 C 
ATOM     15  C   UNL A   1      40.276  27.545  28.450  1.00  0.00     0.010 C 
ENDBRANCH  10  14
BRANCH  13  16
ATOM     16  O   UNL A   1      44.984  26.002  26.358  1.00  0.00    -0.489 OA
BRANCH  16  17
ATOM     17  C   UNL A   1      45.117  25.387  25.076  1.00  0.00     0.267 C 
BRANCH  17  18
ATOM     18  C   UNL A   1      44.630  23.918  24.961  1.00  0.00     0.210 C 
ATOM     19  C   UNL A   1      44.638  23.083  26.263  1.00  0.00     0.298 C 
ATOM     20  O   UNL A   1      45.431  23.235  23.979  1.00  0.00    -0.363 OA
ATOM     21  N   UNL A   1      44.189  21.689  26.128  1.00  0.00    -0.331 N 
ATOM     22  C   UNL A   1      44.887  21.941  23.693  1.00  0.00     0.222 C 
ATOM     23  C   UNL A   1      44.799  21.059  24.952  1.00  0.00     0.291 C 
ATOM     24  H   UNL A   1      44.551  21.167  26.925  1.00  0.00     0.348 HD
BRANCH  21  25
ATOM     25  C   UNL A   1      42.760  21.478  26.331  1.00  0.00     0.258 C 
ATOM     26  C   UNL A   1      42.195  20.083  26.109  1.00  0.00     0.071 C 
ENDBRANCH  21  25
ENDBRANCH  17  18
ENDBRANCH  16  17
ENDBRANCH  13  16
ENDBRANCH   7   9
ENDBRANCH   6   7
ENDBRANCH   5   6
ENDBRANCH   4   5
ENDBRANCH   3   4
ENDBRANCH   2   3
ENDBRANCH   1   2
BRANCH   1  27
ATOM     27  O   UNL A   1      49.019  35.893  26.963  1.00  0.00    -0.377 OA
BRANCH  27  28
ATOM     28  C   UNL A   1      48.548  37.043  26.269  1.00  0.00     0.188 C 
BRANCH  28  29
ATOM     29  C   UNL A   1      47.040  37.281  26.028  1.00  0.00     0.188 C 
BRANCH  29  30
ATOM     30  O   UNL A   1      46.343  37.935  27.083  1.00  0.00    -0.376 OA
BRANCH  30  31
ATOM     31  C   UNL A   1      46.270  37.238  28.318  1.00  0.00     0.202 C 
BRANCH  31  32
ATOM     32  C   UNL A   1      46.691  38.064  29.538  1.00  0.00     0.261 C 
BRANCH  32  33
ATOM     33  O   UNL A   1      46.007  37.727  30.754  1.00  0.00    -0.460 OA
BRANCH  33  34
ATOM     34  C   UNL A   1      44.926  38.472  31.074  1.00  0.00     0.338 C 
ATOM     35  O   UNL A   1      44.379  39.315  30.387  1.00  0.00    -0.246 OA
BRANCH  34  36
ATOM     36  C   UNL A   1      44.397  37.966  32.352  1.00  0.00     0.060 A 
ATOM     37  C   UNL A   1      44.857  36.736  32.834  1.00  0.00     0.016 A 
ATOM     38  C   UNL A   1      43.445  38.704  33.059  1.00  0.00     0.016 A 
ATOM     39  C   UNL A   1      44.327  36.214  34.012  1.00  0.00     0.010 A 
ATOM     40  C   UNL A   1      42.906  38.174  34.230  1.00  0.00     0.010 A 
ATOM     41  C   UNL A   1      43.316  36.910  34.688  1.00  0.00    -0.014 A 
BRANCH  41  42
ATOM     42  C   UNL A   1      42.546  36.236  35.756  1.00  0.00     0.031 A 
ATOM     43  C   UNL A   1      41.413  35.334  35.352  1.00  0.00     0.074 A 
ATOM     44  C   UNL A   1      42.830  36.437  37.054  1.00  0.00     0.049 A 
ATOM     45  N   UNL A   1      40.594  34.647  36.103  1.00  0.00    -0.248 NA
ATOM     46  C   UNL A   1      41.166  35.195  33.906  1.00  0.00     0.031 C 
ATOM     47  C   UNL A   1      43.891  37.302  37.565  1.00  0.00     0.029 A 
ATOM     48  N   UNL A   1      42.223  35.942  38.180  1.00  0.00    -0.354 N 
ATOM     49  C   UNL A   1      39.724  34.010  35.226  1.00  0.00     0.074 A 
ATOM     50  C   UNL A   1      40.103  34.405  33.887  1.00  0.00     0.031 C 
ATOM     51  C   UNL A   1      43.843  37.299  38.909  1.00  0.00     0.029 A 
ATOM     52  C   UNL A   1      42.742  36.445  39.350  1.00  0.00     0.049 A 
ATOM     53  H   UNL A   1      41.487  35.289  38.154  1.00  0.00     0.167 HD
ATOM     54  C   UNL A   1      38.713  33.157  35.507  1.00  0.00     0.034 A 
ATOM     55  C   UNL A   1      42.359  36.244  40.627  1.00  0.00     0.034 A 
ATOM     56  C   UNL A   1      38.346  32.755  36.836  1.00  0.00     0.049 A 
ATOM     57  C   UNL A   1      41.220  35.297  40.914  1.00  0.00     0.074 A 
ATOM     58  C   UNL A   1      37.370  31.856  37.224  1.00  0.00     0.029 A 
ATOM     59  N   UNL A   1      38.931  33.240  37.995  1.00  0.00    -0.354 N 
ATOM     60  N   UNL A   1      40.502  34.588  40.076  1.00  0.00    -0.248 NA
ATOM     61  C   UNL A   1      40.864  35.094  42.326  1.00  0.00     0.031 C 
ATOM     62  C   UNL A   1      37.350  31.812  38.622  1.00  0.00     0.029 A 
ATOM     63  C   UNL A   1      38.329  32.667  39.102  1.00  0.00     0.049 A 
ATOM     64  H   UNL A   1      39.665  33.894  38.027  1.00  0.00     0.167 HD
ATOM     65  C   UNL A   1      39.638  33.829  40.858  1.00  0.00     0.074 A 
ATOM     66  C   UNL A   1      39.933  34.152  42.239  1.00  0.00     0.031 C 
ATOM     67  C   UNL A   1      38.676  32.955  40.470  1.00  0.00     0.034 A 
BRANCH  54  68
ATOM     68  C   UNL A   1      37.954  32.574  34.345  1.00  0.00     0.023 A 
ATOM     69  C   UNL A   1      38.326  31.314  33.836  1.00  0.00     0.012 A 
ATOM     70  C   UNL A   1      36.855  33.251  33.785  1.00  0.00     0.148 A 
ATOM     71  C   UNL A   1      37.634  30.747  32.768  1.00  0.00     0.002 A 
ATOM     72  C   UNL A   1      36.144  32.663  32.746  1.00  0.00     0.091 A 
ATOM     73  F   UNL A   1      36.536  34.462  34.263  1.00  0.00    -0.205 F 
ATOM     74  C   UNL A   1      36.538  31.417  32.230  1.00  0.00     0.022 A 
BRANCH  72  75
ATOM     75  S   UNL A   1      34.676  33.414  32.035  1.00  0.00     0.127 S 
ATOM     76  O   UNL A   1      34.354  32.474  30.962  1.00  0.00    -0.237 OA
ATOM     77  O   UNL A   1      33.743  33.397  33.163  1.00  0.00    -0.237 OA
ATOM     78  O   UNL A   1      35.077  34.745  31.603  1.00  0.00    -0.744 OA
ENDBRANCH  72  75
ENDBRANCH  54  68
BRANCH  55  79
ATOM     79  C   UNL A   1      43.091  36.915  41.738  1.00  0.00     0.023 A 
ATOM     80  C   UNL A   1      42.620  38.148  42.231  1.00  0.00     0.012 A 
ATOM     81  C   UNL A   1      44.239  36.338  42.312  1.00  0.00     0.148 A 
ATOM     82  C   UNL A   1      43.296  38.807  43.259  1.00  0.00     0.002 A 
ATOM     83  C   UNL A   1      44.880  36.976  43.369  1.00  0.00     0.091 A 
ATOM     84  F   UNL A   1      44.683  35.174  41.814  1.00  0.00    -0.205 F 
ATOM     85  C   UNL A   1      44.419  38.218  43.833  1.00  0.00     0.022 A 
BRANCH  83  86
ATOM     86  S   UNL A   1      46.267  36.239  44.242  1.00  0.00     0.127 S 
ATOM     87  O   UNL A   1      46.559  37.256  45.250  1.00  0.00    -0.237 OA
ATOM     88  O   UNL A   1      45.675  35.008  44.765  1.00  0.00    -0.237 OA
ATOM     89  O   UNL A   1      47.299  36.033  43.235  1.00  0.00    -0.744 OA
ENDBRANCH  83  86
ENDBRANCH  55  79
BRANCH  67  90
ATOM     90  C   UNL A   1      37.889  32.250  41.545  1.00  0.00     0.023 A 
ATOM     91  C   UNL A   1      38.414  31.092  42.149  1.00  0.00     0.012 A 
ATOM     92  C   UNL A   1      36.676  32.789  42.018  1.00  0.00     0.148 A 
ATOM     93  C   UNL A   1      37.731  30.465  43.191  1.00  0.00     0.002 A 
ATOM     94  C   UNL A   1      36.024  32.186  43.087  1.00  0.00     0.091 A 
ATOM     95  F   UNL A   1      36.183  33.882  41.418  1.00  0.00    -0.205 F 
ATOM     96  C   UNL A   1      36.544  31.018  43.668  1.00  0.00     0.022 A 
BRANCH  94  97
ATOM     97  S   UNL A   1      34.544  32.885  43.829  1.00  0.00     0.127 S 
ATOM     98  O   UNL A   1      34.843  34.315  43.801  1.00  0.00    -0.237 OA
ATOM     99  O   UNL A   1      33.497  32.462  42.898  1.00  0.00    -0.237 OA
ATOM    100  O   UNL A   1      34.444  32.290  45.155  1.00  0.00    -0.744 OA
ENDBRANCH  94  97
ENDBRANCH  67  90
ENDBRANCH  41  42
ENDBRANCH  34  36
ENDBRANCH  33  34
ENDBRANCH  32  33
ENDBRANCH  31  32
ENDBRANCH  30  31
ENDBRANCH  29  30
ENDBRANCH  28  29
ENDBRANCH  27  28
ENDBRANCH   1  27
TORSDOF 28
ENDMDL
