MODEL 1
REMARK VINA RESULT:      -7.3      0.000      0.000
REMARK SMILES CC(=O)c1ccc(N2CCN(c3ccc(C(=O)OCCOCCOCCOCCOC(=O)c4ccc(-c5c6nc(c(-c7cccc(S(=O)(=O)[O-])c7F)c7ccc([nH]7)c(-c7cccc(S(=O)(=O)[O-])c7F)c7nc(c(-c8cccc(S(=O)(=O)[O-])c8F)c8ccc5[nH]8)C=C7)C=C6)cc4)cc3NS(=O)(=O)c3ccc(C)cc3)CC2)cc1
REMARK SMILES IDX 24 1 23 2 22 3 21 4 20 5 19 6 18 7 16 8 17 9 15 10 12 11
REMARK SMILES IDX 13 12 97 13 14 14 96 15 11 16 8 17 9 18 110 19 10 20 109 21
REMARK SMILES IDX 7 22 4 23 5 24 112 25 6 26 111 27 2 28 1 29 3 30 98 31 99 33
REMARK SMILES IDX 100 34 101 35 102 36 103 37 108 38 104 39 107 40 105 41
REMARK SMILES IDX 106 42 25 43 26 44 27 45 28 46 29 47 30 48 31 49 32 50 33 51
REMARK SMILES IDX 34 52 95 53 35 54 94 55 36 56 37 57 38 58 88 59 39 60 93 61
REMARK SMILES IDX 87 62 89 63 40 64 92 65 86 66 85 67 41 69 73 70 53 71 72 72
REMARK SMILES IDX 54 73 57 74 71 75 90 76 55 77 56 78 70 80 91 81 58 82 42 83
REMARK SMILES IDX 43 84 51 85 44 86 46 87 52 88 45 89 47 90 48 91 49 92 50 93
REMARK SMILES IDX 74 94 75 95 83 96 76 97 78 98 84 99 77 100 79 101 80 102
REMARK SMILES IDX 81 103 82 104 59 105 60 106 68 107 61 108 63 109 69 110
REMARK SMILES IDX 62 111 64 112 65 113 66 114 67 115
REMARK H PARENT 98 32 89 68 57 79
REMARK Flexibility Score: inf
ROOT
ATOM      1  O   UNL A   1      34.172  34.372  28.505  1.00  0.00    -0.377 OA
ENDROOT
BRANCH   1   2
ATOM      2  C   UNL A   1      32.947  34.990  28.875  1.00  0.00     0.188 C 
BRANCH   2   3
ATOM      3  C   UNL A   1      32.875  35.741  30.212  1.00  0.00     0.188 C 
BRANCH   3   4
ATOM      4  O   UNL A   1      33.207  35.037  31.408  1.00  0.00    -0.376 OA
BRANCH   4   5
ATOM      5  C   UNL A   1      34.507  35.154  31.980  1.00  0.00     0.202 C 
BRANCH   5   6
ATOM      6  C   UNL A   1      34.739  34.520  33.345  1.00  0.00     0.261 C 
BRANCH   6   7
ATOM      7  O   UNL A   1      35.494  33.309  33.193  1.00  0.00    -0.460 OA
BRANCH   7   8
ATOM      8  C   UNL A   1      36.785  33.470  32.826  1.00  0.00     0.338 C 
ATOM      9  O   UNL A   1      37.207  33.760  31.720  1.00  0.00    -0.246 OA
BRANCH   8  10
ATOM     10  C   UNL A   1      37.627  33.454  34.039  1.00  0.00     0.062 A 
ATOM     11  C   UNL A   1      39.231  33.259  36.315  1.00  0.00     0.061 A 
ATOM     12  C   UNL A   1      38.630  32.115  35.787  1.00  0.00     0.029 A 
ATOM     13  C   UNL A   1      39.077  34.503  35.642  1.00  0.00     0.073 A 
ATOM     14  C   UNL A   1      37.838  32.210  34.646  1.00  0.00     0.018 A 
ATOM     15  C   UNL A   1      38.245  34.609  34.531  1.00  0.00     0.044 A 
BRANCH  11  16
ATOM     16  N   UNL A   1      39.900  33.259  37.548  1.00  0.00    -0.366 N 
ATOM     17  N   UNL A   1      40.830  32.815  40.195  1.00  0.00    -0.368 N 
ATOM     18  C   UNL A   1      41.794  32.801  39.082  1.00  0.00     0.138 C 
ATOM     19  C   UNL A   1      39.661  33.689  39.992  1.00  0.00     0.138 C 
ATOM     20  C   UNL A   1      41.073  32.396  37.770  1.00  0.00     0.138 C 
ATOM     21  C   UNL A   1      38.944  33.302  38.688  1.00  0.00     0.138 C 
BRANCH  17  22
ATOM     22  C   UNL A   1      41.221  32.568  41.494  1.00  0.00     0.037 A 
ATOM     23  C   UNL A   1      42.064  31.916  44.099  1.00  0.00     0.017 A 
ATOM     24  C   UNL A   1      42.379  33.161  43.549  1.00  0.00     0.014 A 
ATOM     25  C   UNL A   1      41.291  31.011  43.372  1.00  0.00     0.014 A 
ATOM     26  C   UNL A   1      41.971  33.474  42.247  1.00  0.00     0.026 A 
ATOM     27  C   UNL A   1      40.867  31.348  42.087  1.00  0.00     0.026 A 
BRANCH  23  28
ATOM     28  C   UNL A   1      42.592  31.570  45.442  1.00  0.00     0.159 C 
ATOM     29  C   UNL A   1      42.787  30.112  45.766  1.00  0.00     0.093 C 
ATOM     30  O   UNL A   1      42.911  32.459  46.228  1.00  0.00    -0.295 OA
ENDBRANCH  23  28
ENDBRANCH  17  22
ENDBRANCH  11  16
BRANCH  13  31
ATOM     31  N   UNL A   1      40.001  35.509  36.064  1.00  0.00    -0.277 N 
ATOM     32  H   UNL A   1      39.683  36.120  36.767  1.00  0.00     0.180 HD
BRANCH  31  33
ATOM     33  S   UNL A   1      41.546  35.773  35.511  1.00  0.00     0.261 S 
ATOM     34  O   UNL A   1      41.551  37.085  34.881  1.00  0.00    -0.201 OA
ATOM     35  O   UNL A   1      42.404  35.464  36.623  1.00  0.00    -0.201 OA
BRANCH  33  36
ATOM     36  C   UNL A   1      41.814  34.550  34.258  1.00  0.00     0.087 A 
ATOM     37  C   UNL A   1      42.584  33.430  34.578  1.00  0.00     0.022 A 
ATOM     38  C   UNL A   1      41.425  34.782  32.940  1.00  0.00     0.022 A 
ATOM     39  C   UNL A   1      43.082  32.619  33.556  1.00  0.00     0.005 A 
ATOM     40  C   UNL A   1      41.948  33.979  31.929  1.00  0.00     0.005 A 
ATOM     41  C   UNL A   1      42.838  32.943  32.219  1.00  0.00    -0.051 A 
ATOM     42  C   UNL A   1      43.509  32.198  31.107  1.00  0.00     0.044 C 
ENDBRANCH  33  36
ENDBRANCH  31  33
ENDBRANCH  13  31
ENDBRANCH   8  10
ENDBRANCH   7   8
ENDBRANCH   6   7
ENDBRANCH   5   6
ENDBRANCH   4   5
ENDBRANCH   3   4
ENDBRANCH   2   3
ENDBRANCH   1   2
BRANCH   1  43
ATOM     43  C   UNL A   1      34.339  33.007  28.862  1.00  0.00     0.188 C 
BRANCH  43  44
ATOM     44  C   UNL A   1      34.138  32.058  27.679  1.00  0.00     0.188 C 
BRANCH  44  45
ATOM     45  O   UNL A   1      33.981  30.708  28.103  1.00  0.00    -0.376 OA
BRANCH  45  46
ATOM     46  C   UNL A   1      35.040  29.823  27.752  1.00  0.00     0.202 C 
BRANCH  46  47
ATOM     47  C   UNL A   1      36.342  29.900  28.569  1.00  0.00     0.261 C 
BRANCH  47  48
ATOM     48  O   UNL A   1      36.350  29.264  29.860  1.00  0.00    -0.460 OA
BRANCH  48  49
ATOM     49  C   UNL A   1      36.593  30.011  30.956  1.00  0.00     0.338 C 
ATOM     50  O   UNL A   1      35.803  30.726  31.548  1.00  0.00    -0.246 OA
BRANCH  49  51
ATOM     51  C   UNL A   1      37.959  29.695  31.438  1.00  0.00     0.060 A 
ATOM     52  C   UNL A   1      38.952  30.681  31.362  1.00  0.00     0.016 A 
ATOM     53  C   UNL A   1      38.264  28.429  31.946  1.00  0.00     0.016 A 
ATOM     54  C   UNL A   1      40.265  30.382  31.744  1.00  0.00     0.010 A 
ATOM     55  C   UNL A   1      39.580  28.129  32.314  1.00  0.00     0.010 A 
ATOM     56  C   UNL A   1      40.596  29.090  32.176  1.00  0.00    -0.014 A 
BRANCH  56  57
ATOM     57  C   UNL A   1      42.021  28.675  32.272  1.00  0.00     0.031 A 
ATOM     58  C   UNL A   1      42.649  28.013  31.075  1.00  0.00     0.074 A 
ATOM     59  C   UNL A   1      42.746  28.858  33.390  1.00  0.00     0.049 A 
ATOM     60  N   UNL A   1      43.857  27.539  30.929  1.00  0.00    -0.248 NA
ATOM     61  C   UNL A   1      41.793  27.861  29.885  1.00  0.00     0.031 C 
ATOM     62  C   UNL A   1      42.256  29.472  34.617  1.00  0.00     0.029 A 
ATOM     63  N   UNL A   1      44.045  28.518  33.680  1.00  0.00    -0.354 N 
ATOM     64  C   UNL A   1      43.902  27.010  29.645  1.00  0.00     0.074 A 
ATOM     65  C   UNL A   1      42.596  27.212  29.056  1.00  0.00     0.031 C 
ATOM     66  C   UNL A   1      43.235  29.453  35.540  1.00  0.00     0.029 A 
ATOM     67  C   UNL A   1      44.414  28.797  34.976  1.00  0.00     0.049 A 
ATOM     68  H   UNL A   1      44.657  28.114  33.022  1.00  0.00     0.167 HD
ATOM     69  C   UNL A   1      44.937  26.422  29.003  1.00  0.00     0.034 A 
ATOM     70  C   UNL A   1      45.562  28.534  35.635  1.00  0.00     0.034 A 
ATOM     71  C   UNL A   1      46.240  26.229  29.577  1.00  0.00     0.049 A 
ATOM     72  C   UNL A   1      46.695  27.855  34.904  1.00  0.00     0.074 A 
ATOM     73  C   UNL A   1      47.364  25.675  28.990  1.00  0.00     0.029 A 
ATOM     74  N   UNL A   1      46.590  26.568  30.874  1.00  0.00    -0.354 N 
ATOM     75  N   UNL A   1      46.762  27.480  33.649  1.00  0.00    -0.248 NA
ATOM     76  C   UNL A   1      47.921  27.587  35.672  1.00  0.00     0.031 C 
ATOM     77  C   UNL A   1      48.391  25.667  29.938  1.00  0.00     0.029 A 
ATOM     78  C   UNL A   1      47.912  26.232  31.109  1.00  0.00     0.049 A 
ATOM     79  H   UNL A   1      45.988  26.987  31.530  1.00  0.00     0.167 HD
ATOM     80  C   UNL A   1      48.045  26.971  33.469  1.00  0.00     0.074 A 
ATOM     81  C   UNL A   1      48.728  27.100  34.739  1.00  0.00     0.031 C 
ATOM     82  C   UNL A   1      48.602  26.429  32.358  1.00  0.00     0.034 A 
BRANCH  69  83
ATOM     83  C   UNL A   1      44.707  25.974  27.586  1.00  0.00     0.023 A 
ATOM     84  C   UNL A   1      45.062  26.831  26.524  1.00  0.00     0.012 A 
ATOM     85  C   UNL A   1      44.184  24.698  27.305  1.00  0.00     0.148 A 
ATOM     86  C   UNL A   1      44.872  26.435  25.202  1.00  0.00     0.002 A 
ATOM     87  C   UNL A   1      44.034  24.296  25.984  1.00  0.00     0.091 A 
ATOM     88  F   UNL A   1      43.828  23.912  28.331  1.00  0.00    -0.205 F 
ATOM     89  C   UNL A   1      44.368  25.165  24.932  1.00  0.00     0.022 A 
BRANCH  87  90
ATOM     90  S   UNL A   1      43.459  22.655  25.535  1.00  0.00     0.127 S 
ATOM     91  O   UNL A   1      42.201  22.571  26.274  1.00  0.00    -0.237 OA
ATOM     92  O   UNL A   1      43.306  22.767  24.083  1.00  0.00    -0.237 OA
ATOM     93  O   UNL A   1      44.503  21.734  25.964  1.00  0.00    -0.744 OA
ENDBRANCH  87  90
ENDBRANCH  69  83
BRANCH  70  94
ATOM     94  C   UNL A   1      45.721  28.942  37.061  1.00  0.00     0.023 A 
ATOM     95  C   UNL A   1      46.019  30.285  37.370  1.00  0.00     0.012 A 
ATOM     96  C   UNL A   1      45.578  28.015  38.111  1.00  0.00     0.148 A 
ATOM     97  C   UNL A   1      46.202  30.688  38.693  1.00  0.00     0.002 A 
ATOM     98  C   UNL A   1      45.702  28.436  39.430  1.00  0.00     0.091 A 
ATOM     99  F   UNL A   1      45.322  26.736  37.799  1.00  0.00    -0.205 F 
ATOM    100  C   UNL A   1      46.033  29.768  39.724  1.00  0.00     0.022 A 
BRANCH  98 101
ATOM    101  S   UNL A   1      45.352  27.351  40.818  1.00  0.00     0.127 S 
ATOM    102  O   UNL A   1      44.058  26.789  40.441  1.00  0.00    -0.237 OA
ATOM    103  O   UNL A   1      46.476  26.414  40.760  1.00  0.00    -0.237 OA
ATOM    104  O   UNL A   1      45.360  28.213  41.994  1.00  0.00    -0.744 OA
ENDBRANCH  98 101
ENDBRANCH  70  94
BRANCH  82 105
ATOM    105  C   UNL A   1      50.034  25.971  32.434  1.00  0.00     0.023 A 
ATOM    106  C   UNL A   1      51.077  26.893  32.223  1.00  0.00     0.012 A 
ATOM    107  C   UNL A   1      50.347  24.648  32.809  1.00  0.00     0.148 A 
ATOM    108  C   UNL A   1      52.408  26.501  32.359  1.00  0.00     0.002 A 
ATOM    109  C   UNL A   1      51.675  24.276  32.987  1.00  0.00     0.091 A 
ATOM    110  F   UNL A   1      49.341  23.778  32.987  1.00  0.00    -0.205 F 
ATOM    111  C   UNL A   1      52.707  25.198  32.753  1.00  0.00     0.022 A 
BRANCH 109 112
ATOM    112  S   UNL A   1      52.143  22.647  33.586  1.00  0.00     0.127 S 
ATOM    113  O   UNL A   1      53.592  22.668  33.402  1.00  0.00    -0.237 OA
ATOM    114  O   UNL A   1      51.704  22.689  34.982  1.00  0.00    -0.237 OA
ATOM    115  O   UNL A   1      51.418  21.695  32.756  1.00  0.00    -0.744 OA
ENDBRANCH 109 112
ENDBRANCH  82 105
ENDBRANCH  56  57
ENDBRANCH  49  51
ENDBRANCH  48  49
ENDBRANCH  47  48
ENDBRANCH  46  47
ENDBRANCH  45  46
ENDBRANCH  44  45
ENDBRANCH  43  44
ENDBRANCH   1  43
TORSDOF 29
ENDMDL
MODEL 2
REMARK VINA RESULT:      -6.8      5.483     12.829
REMARK SMILES CC(=O)c1ccc(N2CCN(c3ccc(C(=O)OCCOCCOCCOCCOC(=O)c4ccc(-c5c6nc(c(-c7cccc(S(=O)(=O)[O-])c7F)c7ccc([nH]7)c(-c7cccc(S(=O)(=O)[O-])c7F)c7nc(c(-c8cccc(S(=O)(=O)[O-])c8F)c8ccc5[nH]8)C=C7)C=C6)cc4)cc3NS(=O)(=O)c3ccc(C)cc3)CC2)cc1
REMARK SMILES IDX 24 1 23 2 22 3 21 4 20 5 19 6 18 7 16 8 17 9 15 10 12 11
REMARK SMILES IDX 13 12 97 13 14 14 96 15 11 16 8 17 9 18 110 19 10 20 109 21
REMARK SMILES IDX 7 22 4 23 5 24 112 25 6 26 111 27 2 28 1 29 3 30 98 31 99 33
REMARK SMILES IDX 100 34 101 35 102 36 103 37 108 38 104 39 107 40 105 41
REMARK SMILES IDX 106 42 25 43 26 44 27 45 28 46 29 47 30 48 31 49 32 50 33 51
REMARK SMILES IDX 34 52 95 53 35 54 94 55 36 56 37 57 38 58 88 59 39 60 93 61
REMARK SMILES IDX 87 62 89 63 40 64 92 65 86 66 85 67 41 69 73 70 53 71 72 72
REMARK SMILES IDX 54 73 57 74 71 75 90 76 55 77 56 78 70 80 91 81 58 82 42 83
REMARK SMILES IDX 43 84 51 85 44 86 46 87 52 88 45 89 47 90 48 91 49 92 50 93
REMARK SMILES IDX 74 94 75 95 83 96 76 97 78 98 84 99 77 100 79 101 80 102
REMARK SMILES IDX 81 103 82 104 59 105 60 106 68 107 61 108 63 109 69 110
REMARK SMILES IDX 62 111 64 112 65 113 66 114 67 115
REMARK H PARENT 98 32 89 68 57 79
REMARK Flexibility Score: inf
ROOT
ATOM      1  O   UNL A   1      40.413  27.948  28.444  1.00  0.00    -0.377 OA
ENDROOT
BRANCH   1   2
ATOM      2  C   UNL A   1      39.322  28.564  29.114  1.00  0.00     0.188 C 
BRANCH   2   3
ATOM      3  C   UNL A   1      38.740  29.861  28.535  1.00  0.00     0.188 C 
BRANCH   3   4
ATOM      4  O   UNL A   1      37.325  30.045  28.559  1.00  0.00    -0.376 OA
BRANCH   4   5
ATOM      5  C   UNL A   1      36.756  31.320  28.275  1.00  0.00     0.202 C 
BRANCH   5   6
ATOM      6  C   UNL A   1      35.257  31.488  28.488  1.00  0.00     0.261 C 
BRANCH   6   7
ATOM      7  O   UNL A   1      34.618  31.757  27.232  1.00  0.00    -0.460 OA
BRANCH   7   8
ATOM      8  C   UNL A   1      33.283  31.546  27.200  1.00  0.00     0.338 C 
ATOM      9  O   UNL A   1      32.402  32.376  27.328  1.00  0.00    -0.246 OA
BRANCH   8  10
ATOM     10  C   UNL A   1      33.034  30.158  26.762  1.00  0.00     0.062 A 
ATOM     11  C   UNL A   1      32.602  27.483  26.087  1.00  0.00     0.061 A 
ATOM     12  C   UNL A   1      33.291  27.803  27.258  1.00  0.00     0.029 A 
ATOM     13  C   UNL A   1      32.062  28.528  25.287  1.00  0.00     0.073 A 
ATOM     14  C   UNL A   1      33.498  29.137  27.600  1.00  0.00     0.018 A 
ATOM     15  C   UNL A   1      32.312  29.861  25.600  1.00  0.00     0.044 A 
BRANCH  11  16
ATOM     16  N   UNL A   1      32.504  26.170  25.604  1.00  0.00    -0.366 N 
ATOM     17  N   UNL A   1      32.753  23.393  25.058  1.00  0.00    -0.368 N 
ATOM     18  C   UNL A   1      31.414  23.967  25.274  1.00  0.00     0.138 C 
ATOM     19  C   UNL A   1      33.738  24.322  24.475  1.00  0.00     0.138 C 
ATOM     20  C   UNL A   1      31.523  25.228  26.170  1.00  0.00     0.138 C 
ATOM     21  C   UNL A   1      33.847  25.581  25.351  1.00  0.00     0.138 C 
BRANCH  17  22
ATOM     22  C   UNL A   1      32.934  22.046  24.827  1.00  0.00     0.037 A 
ATOM     23  C   UNL A   1      33.333  19.278  24.514  1.00  0.00     0.017 A 
ATOM     24  C   UNL A   1      32.274  19.914  23.862  1.00  0.00     0.014 A 
ATOM     25  C   UNL A   1      34.223  20.025  25.286  1.00  0.00     0.014 A 
ATOM     26  C   UNL A   1      32.070  21.288  24.034  1.00  0.00     0.026 A 
ATOM     27  C   UNL A   1      34.025  21.399  25.425  1.00  0.00     0.026 A 
BRANCH  23  28
ATOM     28  C   UNL A   1      33.469  17.805  24.394  1.00  0.00     0.159 C 
ATOM     29  C   UNL A   1      34.735  17.263  23.783  1.00  0.00     0.093 C 
ATOM     30  O   UNL A   1      32.594  17.066  24.840  1.00  0.00    -0.295 OA
ENDBRANCH  23  28
ENDBRANCH  17  22
ENDBRANCH  11  16
BRANCH  13  31
ATOM     31  N   UNL A   1      31.099  28.086  24.327  1.00  0.00    -0.277 N 
ATOM     32  H   UNL A   1      30.403  27.476  24.662  1.00  0.00     0.180 HD
BRANCH  31  33
ATOM     33  S   UNL A   1      31.012  28.478  22.714  1.00  0.00     0.261 S 
ATOM     34  O   UNL A   1      32.312  29.017  22.340  1.00  0.00    -0.201 OA
ATOM     35  O   UNL A   1      30.460  27.316  22.072  1.00  0.00    -0.201 OA
BRANCH  33  36
ATOM     36  C   UNL A   1      29.815  29.780  22.609  1.00  0.00     0.087 A 
ATOM     37  C   UNL A   1      29.448  30.243  21.344  1.00  0.00     0.022 A 
ATOM     38  C   UNL A   1      29.387  30.449  23.754  1.00  0.00     0.022 A 
ATOM     39  C   UNL A   1      28.769  31.456  21.222  1.00  0.00     0.005 A 
ATOM     40  C   UNL A   1      28.732  31.671  23.618  1.00  0.00     0.005 A 
ATOM     41  C   UNL A   1      28.486  32.221  22.358  1.00  0.00    -0.051 A 
ATOM     42  C   UNL A   1      27.925  33.604  22.241  1.00  0.00     0.044 C 
ENDBRANCH  33  36
ENDBRANCH  31  33
ENDBRANCH  13  31
ENDBRANCH   8  10
ENDBRANCH   7   8
ENDBRANCH   6   7
ENDBRANCH   5   6
ENDBRANCH   4   5
ENDBRANCH   3   4
ENDBRANCH   2   3
ENDBRANCH   1   2
BRANCH   1  43
ATOM     43  C   UNL A   1      40.348  27.884  27.027  1.00  0.00     0.188 C 
BRANCH  43  44
ATOM     44  C   UNL A   1      41.605  28.437  26.352  1.00  0.00     0.188 C 
BRANCH  44  45
ATOM     45  O   UNL A   1      42.400  27.403  25.781  1.00  0.00    -0.376 OA
BRANCH  45  46
ATOM     46  C   UNL A   1      42.850  26.398  26.684  1.00  0.00     0.202 C 
BRANCH  46  47
ATOM     47  C   UNL A   1      43.189  25.012  26.106  1.00  0.00     0.261 C 
BRANCH  47  48
ATOM     48  O   UNL A   1      44.011  24.145  26.908  1.00  0.00    -0.460 OA
BRANCH  48  49
ATOM     49  C   UNL A   1      43.425  23.364  27.837  1.00  0.00     0.338 C 
ATOM     50  O   UNL A   1      42.669  22.428  27.641  1.00  0.00    -0.246 OA
BRANCH  49  51
ATOM     51  C   UNL A   1      43.983  23.725  29.162  1.00  0.00     0.060 A 
ATOM     52  C   UNL A   1      43.389  23.197  30.317  1.00  0.00     0.016 A 
ATOM     53  C   UNL A   1      45.074  24.591  29.268  1.00  0.00     0.016 A 
ATOM     54  C   UNL A   1      43.854  23.580  31.581  1.00  0.00     0.010 A 
ATOM     55  C   UNL A   1      45.529  24.983  30.532  1.00  0.00     0.010 A 
ATOM     56  C   UNL A   1      44.894  24.513  31.695  1.00  0.00    -0.014 A 
BRANCH  56  57
ATOM     57  C   UNL A   1      45.174  25.165  33.002  1.00  0.00     0.031 A 
ATOM     58  C   UNL A   1      45.908  24.370  34.048  1.00  0.00     0.074 A 
ATOM     59  C   UNL A   1      44.777  26.421  33.275  1.00  0.00     0.049 A 
ATOM     60  N   UNL A   1      46.238  24.708  35.266  1.00  0.00    -0.248 NA
ATOM     61  C   UNL A   1      46.319  23.007  33.668  1.00  0.00     0.031 C 
ATOM     62  C   UNL A   1      44.050  27.289  32.358  1.00  0.00     0.029 A 
ATOM     63  N   UNL A   1      44.910  27.173  34.417  1.00  0.00    -0.354 N 
ATOM     64  C   UNL A   1      46.871  23.596  35.807  1.00  0.00     0.074 A 
ATOM     65  C   UNL A   1      46.871  22.569  34.789  1.00  0.00     0.031 C 
ATOM     66  C   UNL A   1      43.783  28.455  32.975  1.00  0.00     0.029 A 
ATOM     67  C   UNL A   1      44.295  28.402  34.344  1.00  0.00     0.049 A 
ATOM     68  H   UNL A   1      45.399  26.863  35.213  1.00  0.00     0.167 HD
ATOM     69  C   UNL A   1      47.418  23.443  37.035  1.00  0.00     0.034 A 
ATOM     70  C   UNL A   1      44.145  29.363  35.280  1.00  0.00     0.034 A 
ATOM     71  C   UNL A   1      47.433  24.462  38.047  1.00  0.00     0.049 A 
ATOM     72  C   UNL A   1      44.744  29.159  36.651  1.00  0.00     0.074 A 
ATOM     73  C   UNL A   1      47.998  24.412  39.309  1.00  0.00     0.029 A 
ATOM     74  N   UNL A   1      46.844  25.710  37.920  1.00  0.00    -0.354 N 
ATOM     75  N   UNL A   1      45.454  28.152  37.101  1.00  0.00    -0.248 NA
ATOM     76  C   UNL A   1      44.546  30.235  37.634  1.00  0.00     0.031 C 
ATOM     77  C   UNL A   1      47.737  25.627  39.951  1.00  0.00     0.029 A 
ATOM     78  C   UNL A   1      47.027  26.439  39.082  1.00  0.00     0.049 A 
ATOM     79  H   UNL A   1      46.368  26.032  37.120  1.00  0.00     0.167 HD
ATOM     80  C   UNL A   1      45.819  28.491  38.402  1.00  0.00     0.074 A 
ATOM     81  C   UNL A   1      45.266  29.803  38.662  1.00  0.00     0.031 C 
ATOM     82  C   UNL A   1      46.531  27.773  39.304  1.00  0.00     0.034 A 
BRANCH  69  83
ATOM     83  C   UNL A   1      48.080  22.127  37.337  1.00  0.00     0.023 A 
ATOM     84  C   UNL A   1      47.479  21.247  38.260  1.00  0.00     0.012 A 
ATOM     85  C   UNL A   1      49.266  21.744  36.683  1.00  0.00     0.148 A 
ATOM     86  C   UNL A   1      48.065  20.016  38.548  1.00  0.00     0.002 A 
ATOM     87  C   UNL A   1      49.823  20.499  36.946  1.00  0.00     0.091 A 
ATOM     88  F   UNL A   1      49.834  22.609  35.831  1.00  0.00    -0.205 F 
ATOM     89  C   UNL A   1      49.230  19.638  37.884  1.00  0.00     0.022 A 
BRANCH  87  90
ATOM     90  S   UNL A   1      51.281  19.894  36.091  1.00  0.00     0.127 S 
ATOM     91  O   UNL A   1      52.321  20.774  36.623  1.00  0.00    -0.237 OA
ATOM     92  O   UNL A   1      51.360  18.509  36.556  1.00  0.00    -0.237 OA
ATOM     93  O   UNL A   1      51.001  20.041  34.670  1.00  0.00    -0.744 OA
ENDBRANCH  87  90
ENDBRANCH  69  83
BRANCH  70  94
ATOM     94  C   UNL A   1      43.426  30.628  34.952  1.00  0.00     0.023 A 
ATOM     95  C   UNL A   1      42.039  30.720  35.190  1.00  0.00     0.012 A 
ATOM     96  C   UNL A   1      44.101  31.738  34.411  1.00  0.00     0.148 A 
ATOM     97  C   UNL A   1      41.336  31.880  34.866  1.00  0.00     0.002 A 
ATOM     98  C   UNL A   1      43.405  32.912  34.147  1.00  0.00     0.091 A 
ATOM     99  F   UNL A   1      45.414  31.625  34.165  1.00  0.00    -0.205 F 
ATOM    100  C   UNL A   1      42.019  32.980  34.355  1.00  0.00     0.022 A 
BRANCH  98 101
ATOM    101  S   UNL A   1      44.233  34.420  33.629  1.00  0.00     0.127 S 
ATOM    102  O   UNL A   1      45.170  34.639  34.728  1.00  0.00    -0.237 OA
ATOM    103  O   UNL A   1      44.846  34.010  32.365  1.00  0.00    -0.237 OA
ATOM    104  O   UNL A   1      43.175  35.411  33.480  1.00  0.00    -0.744 OA
ENDBRANCH  98 101
ENDBRANCH  70  94
BRANCH  82 105
ATOM    105  C   UNL A   1      46.802  28.395  40.649  1.00  0.00     0.023 A 
ATOM    106  C   UNL A   1      47.912  29.247  40.815  1.00  0.00     0.012 A 
ATOM    107  C   UNL A   1      45.905  28.210  41.720  1.00  0.00     0.148 A 
ATOM    108  C   UNL A   1      48.137  29.886  42.034  1.00  0.00     0.002 A 
ATOM    109  C   UNL A   1      46.112  28.887  42.917  1.00  0.00     0.091 A 
ATOM    110  F   UNL A   1      44.865  27.380  41.549  1.00  0.00    -0.205 F 
ATOM    111  C   UNL A   1      47.233  29.717  43.080  1.00  0.00     0.022 A 
BRANCH 109 112
ATOM    112  S   UNL A   1      44.944  28.801  44.282  1.00  0.00     0.127 S 
ATOM    113  O   UNL A   1      45.403  29.895  45.135  1.00  0.00    -0.237 OA
ATOM    114  O   UNL A   1      43.665  29.043  43.613  1.00  0.00    -0.237 OA
ATOM    115  O   UNL A   1      45.086  27.464  44.843  1.00  0.00    -0.744 OA
ENDBRANCH 109 112
ENDBRANCH  82 105
ENDBRANCH  56  57
ENDBRANCH  49  51
ENDBRANCH  48  49
ENDBRANCH  47  48
ENDBRANCH  46  47
ENDBRANCH  45  46
ENDBRANCH  44  45
ENDBRANCH  43  44
ENDBRANCH   1  43
TORSDOF 29
ENDMDL
MODEL 3
REMARK VINA RESULT:      -6.3      5.155     12.513
REMARK SMILES CC(=O)c1ccc(N2CCN(c3ccc(C(=O)OCCOCCOCCOCCOC(=O)c4ccc(-c5c6nc(c(-c7cccc(S(=O)(=O)[O-])c7F)c7ccc([nH]7)c(-c7cccc(S(=O)(=O)[O-])c7F)c7nc(c(-c8cccc(S(=O)(=O)[O-])c8F)c8ccc5[nH]8)C=C7)C=C6)cc4)cc3NS(=O)(=O)c3ccc(C)cc3)CC2)cc1
REMARK SMILES IDX 24 1 23 2 22 3 21 4 20 5 19 6 18 7 16 8 17 9 15 10 12 11
REMARK SMILES IDX 13 12 97 13 14 14 96 15 11 16 8 17 9 18 110 19 10 20 109 21
REMARK SMILES IDX 7 22 4 23 5 24 112 25 6 26 111 27 2 28 1 29 3 30 98 31 99 33
REMARK SMILES IDX 100 34 101 35 102 36 103 37 108 38 104 39 107 40 105 41
REMARK SMILES IDX 106 42 25 43 26 44 27 45 28 46 29 47 30 48 31 49 32 50 33 51
REMARK SMILES IDX 34 52 95 53 35 54 94 55 36 56 37 57 38 58 88 59 39 60 93 61
REMARK SMILES IDX 87 62 89 63 40 64 92 65 86 66 85 67 41 69 73 70 53 71 72 72
REMARK SMILES IDX 54 73 57 74 71 75 90 76 55 77 56 78 70 80 91 81 58 82 42 83
REMARK SMILES IDX 43 84 51 85 44 86 46 87 52 88 45 89 47 90 48 91 49 92 50 93
REMARK SMILES IDX 74 94 75 95 83 96 76 97 78 98 84 99 77 100 79 101 80 102
REMARK SMILES IDX 81 103 82 104 59 105 60 106 68 107 61 108 63 109 69 110
REMARK SMILES IDX 62 111 64 112 65 113 66 114 67 115
REMARK H PARENT 98 32 89 68 57 79
REMARK Flexibility Score: inf
ROOT
ATOM      1  O   UNL A   1      40.447  28.014  28.400  1.00  0.00    -0.377 OA
ENDROOT
BRANCH   1   2
ATOM      2  C   UNL A   1      39.460  28.710  29.150  1.00  0.00     0.188 C 
BRANCH   2   3
ATOM      3  C   UNL A   1      38.962  30.066  28.632  1.00  0.00     0.188 C 
BRANCH   3   4
ATOM      4  O   UNL A   1      37.566  30.351  28.699  1.00  0.00    -0.376 OA
BRANCH   4   5
ATOM      5  C   UNL A   1      37.080  31.661  28.420  1.00  0.00     0.202 C 
BRANCH   5   6
ATOM      6  C   UNL A   1      35.602  31.935  28.669  1.00  0.00     0.261 C 
BRANCH   6   7
ATOM      7  O   UNL A   1      34.947  32.218  27.424  1.00  0.00    -0.460 OA
BRANCH   7   8
ATOM      8  C   UNL A   1      33.614  31.996  27.403  1.00  0.00     0.338 C 
ATOM      9  O   UNL A   1      32.726  32.824  27.506  1.00  0.00    -0.246 OA
BRANCH   8  10
ATOM     10  C   UNL A   1      33.375  30.592  27.013  1.00  0.00     0.062 A 
ATOM     11  C   UNL A   1      32.957  27.893  26.432  1.00  0.00     0.061 A 
ATOM     12  C   UNL A   1      33.619  28.258  27.606  1.00  0.00     0.029 A 
ATOM     13  C   UNL A   1      32.437  28.906  25.580  1.00  0.00     0.073 A 
ATOM     14  C   UNL A   1      33.819  29.604  27.901  1.00  0.00     0.018 A 
ATOM     15  C   UNL A   1      32.680  30.251  25.847  1.00  0.00     0.044 A 
BRANCH  11  16
ATOM     16  N   UNL A   1      32.870  26.563  25.998  1.00  0.00    -0.366 N 
ATOM     17  N   UNL A   1      33.172  23.778  25.523  1.00  0.00    -0.368 N 
ATOM     18  C   UNL A   1      31.833  24.317  25.813  1.00  0.00     0.138 C 
ATOM     19  C   UNL A   1      34.085  24.716  24.845  1.00  0.00     0.138 C 
ATOM     20  C   UNL A   1      31.961  25.610  26.660  1.00  0.00     0.138 C 
ATOM     21  C   UNL A   1      34.211  26.006  25.671  1.00  0.00     0.138 C 
BRANCH  17  22
ATOM     22  C   UNL A   1      33.381  22.430  25.322  1.00  0.00     0.037 A 
ATOM     23  C   UNL A   1      33.685  19.680  24.807  1.00  0.00     0.017 A 
ATOM     24  C   UNL A   1      34.807  20.511  24.877  1.00  0.00     0.014 A 
ATOM     25  C   UNL A   1      32.415  20.207  25.039  1.00  0.00     0.014 A 
ATOM     26  C   UNL A   1      34.649  21.880  25.117  1.00  0.00     0.026 A 
ATOM     27  C   UNL A   1      32.275  21.569  25.306  1.00  0.00     0.026 A 
BRANCH  23  28
ATOM     28  C   UNL A   1      33.872  18.250  24.453  1.00  0.00     0.159 C 
ATOM     29  C   UNL A   1      35.254  17.667  24.596  1.00  0.00     0.093 C 
ATOM     30  O   UNL A   1      32.909  17.567  24.116  1.00  0.00    -0.295 OA
ENDBRANCH  23  28
ENDBRANCH  17  22
ENDBRANCH  11  16
BRANCH  13  31
ATOM     31  N   UNL A   1      31.496  28.427  24.616  1.00  0.00    -0.277 N 
ATOM     32  H   UNL A   1      30.703  27.969  24.976  1.00  0.00     0.180 HD
BRANCH  31  33
ATOM     33  S   UNL A   1      31.580  28.550  22.960  1.00  0.00     0.261 S 
ATOM     34  O   UNL A   1      30.307  29.097  22.512  1.00  0.00    -0.201 OA
ATOM     35  O   UNL A   1      32.826  29.217  22.693  1.00  0.00    -0.201 OA
BRANCH  33  36
ATOM     36  C   UNL A   1      31.714  26.886  22.370  1.00  0.00     0.087 A 
ATOM     37  C   UNL A   1      30.857  25.921  22.904  1.00  0.00     0.022 A 
ATOM     38  C   UNL A   1      32.762  26.508  21.533  1.00  0.00     0.022 A 
ATOM     39  C   UNL A   1      31.136  24.567  22.712  1.00  0.00     0.005 A 
ATOM     40  C   UNL A   1      33.044  25.153  21.369  1.00  0.00     0.005 A 
ATOM     41  C   UNL A   1      32.284  24.177  22.017  1.00  0.00    -0.051 A 
ATOM     42  C   UNL A   1      32.701  22.740  21.954  1.00  0.00     0.044 C 
ENDBRANCH  33  36
ENDBRANCH  31  33
ENDBRANCH  13  31
ENDBRANCH   8  10
ENDBRANCH   7   8
ENDBRANCH   6   7
ENDBRANCH   5   6
ENDBRANCH   4   5
ENDBRANCH   3   4
ENDBRANCH   2   3
ENDBRANCH   1   2
BRANCH   1  43
ATOM     43  C   UNL A   1      40.264  27.954  26.993  1.00  0.00     0.188 C 
BRANCH  43  44
ATOM     44  C   UNL A   1      41.467  28.493  26.217  1.00  0.00     0.188 C 
BRANCH  44  45
ATOM     45  O   UNL A   1      42.249  27.445  25.654  1.00  0.00    -0.376 OA
BRANCH  45  46
ATOM     46  C   UNL A   1      42.820  26.530  26.584  1.00  0.00     0.202 C 
BRANCH  46  47
ATOM     47  C   UNL A   1      43.271  25.156  26.057  1.00  0.00     0.261 C 
BRANCH  47  48
ATOM     48  O   UNL A   1      44.221  24.423  26.852  1.00  0.00    -0.460 OA
BRANCH  48  49
ATOM     49  C   UNL A   1      43.766  23.581  27.802  1.00  0.00     0.338 C 
ATOM     50  O   UNL A   1      43.156  22.540  27.630  1.00  0.00    -0.246 OA
BRANCH  49  51
ATOM     51  C   UNL A   1      44.276  24.044  29.113  1.00  0.00     0.060 A 
ATOM     52  C   UNL A   1      43.828  23.410  30.281  1.00  0.00     0.016 A 
ATOM     53  C   UNL A   1      45.179  25.109  29.195  1.00  0.00     0.016 A 
ATOM     54  C   UNL A   1      44.242  23.878  31.533  1.00  0.00     0.010 A 
ATOM     55  C   UNL A   1      45.580  25.583  30.449  1.00  0.00     0.010 A 
ATOM     56  C   UNL A   1      45.081  24.998  31.626  1.00  0.00    -0.014 A 
BRANCH  56  57
ATOM     57  C   UNL A   1      45.261  25.692  32.928  1.00  0.00     0.031 A 
ATOM     58  C   UNL A   1      44.393  26.886  33.222  1.00  0.00     0.074 A 
ATOM     59  C   UNL A   1      46.179  25.297  33.828  1.00  0.00     0.049 A 
ATOM     60  N   UNL A   1      44.386  27.668  34.268  1.00  0.00    -0.248 NA
ATOM     61  C   UNL A   1      43.405  27.247  32.191  1.00  0.00     0.031 C 
ATOM     62  C   UNL A   1      47.088  24.170  33.662  1.00  0.00     0.029 A 
ATOM     63  N   UNL A   1      46.515  25.820  35.054  1.00  0.00    -0.354 N 
ATOM     64  C   UNL A   1      43.415  28.628  34.014  1.00  0.00     0.074 A 
ATOM     65  C   UNL A   1      42.860  28.337  32.710  1.00  0.00     0.031 C 
ATOM     66  C   UNL A   1      47.893  24.091  34.737  1.00  0.00     0.029 A 
ATOM     67  C   UNL A   1      47.576  25.183  35.656  1.00  0.00     0.049 A 
ATOM     68  H   UNL A   1      46.041  26.580  35.464  1.00  0.00     0.167 HD
ATOM     69  C   UNL A   1      43.007  29.653  34.797  1.00  0.00     0.034 A 
ATOM     70  C   UNL A   1      48.227  25.464  36.804  1.00  0.00     0.034 A 
ATOM     71  C   UNL A   1      43.544  29.941  36.097  1.00  0.00     0.049 A 
ATOM     72  C   UNL A   1      47.768  26.627  37.650  1.00  0.00     0.074 A 
ATOM     73  C   UNL A   1      43.168  30.936  36.982  1.00  0.00     0.029 A 
ATOM     74  N   UNL A   1      44.583  29.245  36.694  1.00  0.00    -0.354 N 
ATOM     75  N   UNL A   1      46.761  27.444  37.454  1.00  0.00    -0.248 NA
ATOM     76  C   UNL A   1      48.518  26.891  38.888  1.00  0.00     0.031 C 
ATOM     77  C   UNL A   1      43.990  30.851  38.109  1.00  0.00     0.029 A 
ATOM     78  C   UNL A   1      44.866  29.791  37.934  1.00  0.00     0.049 A 
ATOM     79  H   UNL A   1      45.050  28.475  36.296  1.00  0.00     0.167 HD
ATOM     80  C   UNL A   1      46.733  28.290  38.560  1.00  0.00     0.074 A 
ATOM     81  C   UNL A   1      47.813  27.876  39.430  1.00  0.00     0.031 C 
ATOM     82  C   UNL A   1      45.900  29.326  38.823  1.00  0.00     0.034 A 
BRANCH  69  83
ATOM     83  C   UNL A   1      41.895  30.520  34.276  1.00  0.00     0.023 A 
ATOM     84  C   UNL A   1      40.556  30.143  34.509  1.00  0.00     0.012 A 
ATOM     85  C   UNL A   1      42.170  31.722  33.597  1.00  0.00     0.148 A 
ATOM     86  C   UNL A   1      39.507  30.937  34.048  1.00  0.00     0.002 A 
ATOM     87  C   UNL A   1      41.119  32.527  33.175  1.00  0.00     0.091 A 
ATOM     88  F   UNL A   1      43.449  32.045  33.363  1.00  0.00    -0.205 F 
ATOM     89  C   UNL A   1      39.788  32.132  33.391  1.00  0.00     0.022 A 
BRANCH  87  90
ATOM     90  S   UNL A   1      41.379  34.117  32.383  1.00  0.00     0.127 S 
ATOM     91  O   UNL A   1      42.014  33.720  31.127  1.00  0.00    -0.237 OA
ATOM     92  O   UNL A   1      40.012  34.620  32.242  1.00  0.00    -0.237 OA
ATOM     93  O   UNL A   1      42.216  34.885  33.294  1.00  0.00    -0.744 OA
ENDBRANCH  87  90
ENDBRANCH  69  83
BRANCH  70  94
ATOM     94  C   UNL A   1      49.367  24.610  37.250  1.00  0.00     0.023 A 
ATOM     95  C   UNL A   1      49.132  23.557  38.157  1.00  0.00     0.012 A 
ATOM     96  C   UNL A   1      50.676  24.830  36.783  1.00  0.00     0.148 A 
ATOM     97  C   UNL A   1      50.184  22.762  38.614  1.00  0.00     0.002 A 
ATOM     98  C   UNL A   1      51.709  23.996  37.194  1.00  0.00     0.091 A 
ATOM     99  F   UNL A   1      50.888  25.853  35.942  1.00  0.00    -0.205 F 
ATOM    100  C   UNL A   1      51.470  22.973  38.125  1.00  0.00     0.022 A 
BRANCH  98 101
ATOM    101  S   UNL A   1      53.362  24.105  36.500  1.00  0.00     0.127 S 
ATOM    102  O   UNL A   1      54.024  22.961  37.121  1.00  0.00    -0.237 OA
ATOM    103  O   UNL A   1      53.098  23.965  35.067  1.00  0.00    -0.237 OA
ATOM    104  O   UNL A   1      53.858  25.420  36.885  1.00  0.00    -0.744 OA
ENDBRANCH  98 101
ENDBRANCH  70  94
BRANCH  82 105
ATOM    105  C   UNL A   1      46.079  30.068  40.121  1.00  0.00     0.023 A 
ATOM    106  C   UNL A   1      46.813  31.271  40.144  1.00  0.00     0.012 A 
ATOM    107  C   UNL A   1      45.442  29.624  41.297  1.00  0.00     0.148 A 
ATOM    108  C   UNL A   1      46.929  32.006  41.323  1.00  0.00     0.002 A 
ATOM    109  C   UNL A   1      45.525  30.387  42.457  1.00  0.00     0.091 A 
ATOM    110  F   UNL A   1      44.764  28.467  41.260  1.00  0.00    -0.205 F 
ATOM    111  C   UNL A   1      46.276  31.572  42.475  1.00  0.00     0.022 A 
BRANCH 109 112
ATOM    112  S   UNL A   1      44.635  29.951  43.957  1.00  0.00     0.127 S 
ATOM    113  O   UNL A   1      43.249  29.957  43.494  1.00  0.00    -0.237 OA
ATOM    114  O   UNL A   1      45.171  28.623  44.263  1.00  0.00    -0.237 OA
ATOM    115  O   UNL A   1      44.976  30.976  44.934  1.00  0.00    -0.744 OA
ENDBRANCH 109 112
ENDBRANCH  82 105
ENDBRANCH  56  57
ENDBRANCH  49  51
ENDBRANCH  48  49
ENDBRANCH  47  48
ENDBRANCH  46  47
ENDBRANCH  45  46
ENDBRANCH  44  45
ENDBRANCH  43  44
ENDBRANCH   1  43
TORSDOF 29
ENDMDL
