MODEL 1
REMARK VINA RESULT:      -8.3      0.000      0.000
REMARK SMILES COc1cc(OC(F)(F)F)cc2c1O[C@@H](C(F)(F)F)C(C(=O)OCCOCCOCCOCCOC(=O)c1ccc(-c3c4nc(c(-c5cccc(S(=O)(=O)[O-])c5F)c5ccc([nH]5)c(-c5cccc(S(=O)(=O)[O-])c5F)c5nc(c(-c6cccc(S(=O)(=O)[O-])c6F)c6ccc3[nH]6)C=C5)C=C4)cc1)=C2
REMARK SMILES IDX 30 1 29 2 28 3 27 4 26 5 25 6 24 7 23 8 21 9 22 10 20 11
REMARK SMILES IDX 3 12 4 13 13 14 5 15 12 16 14 17 11 18 101 19 15 20 2 21
REMARK SMILES IDX 1 22 6 23 7 24 8 25 9 26 10 27 16 28 17 29 18 30 19 31 31 32
REMARK SMILES IDX 32 33 33 34 34 35 35 36 36 37 37 38 38 39 39 40 100 41 40 42
REMARK SMILES IDX 99 43 41 44 42 45 43 46 93 47 44 48 98 49 92 50 94 51 45 52
REMARK SMILES IDX 97 53 91 54 90 55 46 57 78 58 58 59 77 60 59 61 62 62 76 63
REMARK SMILES IDX 95 64 60 65 61 66 75 68 96 69 63 70 47 71 48 72 56 73 49 74
REMARK SMILES IDX 51 75 57 76 50 77 52 78 53 79 54 80 55 81 79 82 80 83 88 84
REMARK SMILES IDX 81 85 83 86 89 87 82 88 84 89 85 90 86 91 87 92 64 93 65 94
REMARK SMILES IDX 73 95 66 96 68 97 74 98 67 99 69 100 70 101 71 102 72 103
REMARK H PARENT 94 56 62 67
REMARK Flexibility Score: inf
ROOT
ATOM      1  C   UNL A   1      36.318  23.467  26.336  1.00  0.00     0.188 C 
ENDROOT
BRANCH   1   2
ATOM      2  O   UNL A   1      34.997  22.938  26.378  1.00  0.00    -0.377 OA
BRANCH   2   3
ATOM      3  C   UNL A   1      33.898  23.775  26.070  1.00  0.00     0.188 C 
BRANCH   3   4
ATOM      4  C   UNL A   1      32.558  23.556  26.798  1.00  0.00     0.188 C 
BRANCH   4   5
ATOM      5  O   UNL A   1      31.448  24.229  26.225  1.00  0.00    -0.376 OA
BRANCH   5   6
ATOM      6  C   UNL A   1      30.695  23.531  25.245  1.00  0.00     0.202 C 
BRANCH   6   7
ATOM      7  C   UNL A   1      31.030  23.850  23.782  1.00  0.00     0.261 C 
BRANCH   7   8
ATOM      8  O   UNL A   1      30.487  25.087  23.298  1.00  0.00    -0.460 OA
BRANCH   8   9
ATOM      9  C   UNL A   1      31.362  26.012  22.846  1.00  0.00     0.338 C 
ATOM     10  O   UNL A   1      31.810  26.091  21.717  1.00  0.00    -0.246 OA
BRANCH   9  11
ATOM     11  C   UNL A   1      31.559  27.043  23.884  1.00  0.00     0.087 C 
ATOM     12  C   UNL A   1      32.199  30.364  26.331  1.00  0.00     0.165 A 
ATOM     13  C   UNL A   1      33.319  30.417  27.161  1.00  0.00     0.097 A 
ATOM     14  C   UNL A   1      31.982  29.249  25.517  1.00  0.00     0.170 A 
ATOM     15  C   UNL A   1      34.203  29.337  27.219  1.00  0.00     0.134 A 
ATOM     16  C   UNL A   1      32.868  28.163  25.558  1.00  0.00     0.025 A 
ATOM     17  O   UNL A   1      30.956  29.296  24.610  1.00  0.00    -0.471 OA
ATOM     18  C   UNL A   1      33.958  28.200  26.435  1.00  0.00     0.059 A 
ATOM     19  C   UNL A   1      32.705  27.078  24.589  1.00  0.00     0.027 C 
ATOM     20  C   UNL A   1      30.438  28.000  24.218  1.00  0.00     0.316 C 
BRANCH  12  21
ATOM     21  O   UNL A   1      31.418  31.491  26.289  1.00  0.00    -0.493 OA
ATOM     22  C   UNL A   1      31.971  32.564  27.051  1.00  0.00     0.278 C 
ENDBRANCH  12  21
BRANCH  15  23
ATOM     23  O   UNL A   1      35.338  29.275  27.980  1.00  0.00    -0.406 OA
BRANCH  23  24
ATOM     24  C   UNL A   1      35.925  30.505  28.373  1.00  0.00     0.573 C 
ATOM     25  F   UNL A   1      36.342  31.218  27.303  1.00  0.00    -0.132 F 
ATOM     26  F   UNL A   1      35.051  31.249  29.088  1.00  0.00    -0.132 F 
ATOM     27  F   UNL A   1      36.997  30.257  29.156  1.00  0.00    -0.132 F 
ENDBRANCH  23  24
ENDBRANCH  15  23
BRANCH  20  28
ATOM     28  C   UNL A   1      29.310  28.241  23.201  1.00  0.00     0.430 C 
ATOM     29  F   UNL A   1      28.393  27.248  23.210  1.00  0.00    -0.167 F 
ATOM     30  F   UNL A   1      28.621  29.368  23.544  1.00  0.00    -0.167 F 
ATOM     31  F   UNL A   1      29.749  28.418  21.940  1.00  0.00    -0.167 F 
ENDBRANCH  20  28
ENDBRANCH   9  11
ENDBRANCH   8   9
ENDBRANCH   7   8
ENDBRANCH   6   7
ENDBRANCH   5   6
ENDBRANCH   4   5
ENDBRANCH   3   4
ENDBRANCH   2   3
ENDBRANCH   1   2
BRANCH   1  32
ATOM     32  C   UNL A   1      37.403  22.829  25.438  1.00  0.00     0.188 C 
BRANCH  32  33
ATOM     33  O   UNL A   1      38.333  21.998  26.120  1.00  0.00    -0.376 OA
BRANCH  33  34
ATOM     34  C   UNL A   1      39.704  22.188  25.814  1.00  0.00     0.202 C 
BRANCH  34  35
ATOM     35  C   UNL A   1      40.626  21.004  26.131  1.00  0.00     0.261 C 
BRANCH  35  36
ATOM     36  O   UNL A   1      41.948  21.343  26.574  1.00  0.00    -0.460 OA
BRANCH  36  37
ATOM     37  C   UNL A   1      42.585  22.353  25.942  1.00  0.00     0.338 C 
ATOM     38  O   UNL A   1      42.869  22.420  24.758  1.00  0.00    -0.246 OA
BRANCH  37  39
ATOM     39  C   UNL A   1      42.702  23.462  26.909  1.00  0.00     0.060 A 
ATOM     40  C   UNL A   1      43.314  24.662  26.515  1.00  0.00     0.016 A 
ATOM     41  C   UNL A   1      42.160  23.326  28.188  1.00  0.00     0.016 A 
ATOM     42  C   UNL A   1      43.400  25.726  27.414  1.00  0.00     0.010 A 
ATOM     43  C   UNL A   1      42.268  24.382  29.092  1.00  0.00     0.010 A 
ATOM     44  C   UNL A   1      42.913  25.574  28.718  1.00  0.00    -0.014 A 
BRANCH  44  45
ATOM     45  C   UNL A   1      43.247  26.566  29.766  1.00  0.00     0.031 A 
ATOM     46  C   UNL A   1      44.373  26.243  30.706  1.00  0.00     0.074 A 
ATOM     47  C   UNL A   1      42.533  27.695  29.919  1.00  0.00     0.049 A 
ATOM     48  N   UNL A   1      44.777  26.884  31.770  1.00  0.00    -0.248 NA
ATOM     49  C   UNL A   1      45.137  25.019  30.412  1.00  0.00     0.031 C 
ATOM     50  C   UNL A   1      41.418  28.113  29.073  1.00  0.00     0.029 A 
ATOM     51  N   UNL A   1      42.617  28.672  30.881  1.00  0.00    -0.354 N 
ATOM     52  C   UNL A   1      45.817  26.125  32.292  1.00  0.00     0.074 A 
ATOM     53  C   UNL A   1      45.976  24.971  31.435  1.00  0.00     0.031 C 
ATOM     54  C   UNL A   1      40.888  29.240  29.581  1.00  0.00     0.029 A 
ATOM     55  C   UNL A   1      41.606  29.601  30.803  1.00  0.00     0.049 A 
ATOM     56  H   UNL A   1      43.331  28.705  31.558  1.00  0.00     0.167 HD
ATOM     57  C   UNL A   1      46.578  26.370  33.384  1.00  0.00     0.034 A 
ATOM     58  C   UNL A   1      41.276  30.600  31.647  1.00  0.00     0.034 A 
ATOM     59  C   UNL A   1      46.417  27.517  34.233  1.00  0.00     0.049 A 
ATOM     60  C   UNL A   1      42.120  30.842  32.872  1.00  0.00     0.074 A 
ATOM     61  C   UNL A   1      47.167  27.883  35.335  1.00  0.00     0.029 A 
ATOM     62  N   UNL A   1      45.425  28.474  34.087  1.00  0.00    -0.354 N 
ATOM     63  N   UNL A   1      43.177  30.188  33.291  1.00  0.00    -0.248 NA
ATOM     64  C   UNL A   1      41.747  31.981  33.726  1.00  0.00     0.031 C 
ATOM     65  C   UNL A   1      46.604  29.043  35.878  1.00  0.00     0.029 A 
ATOM     66  C   UNL A   1      45.531  29.424  35.087  1.00  0.00     0.049 A 
ATOM     67  H   UNL A   1      44.744  28.478  33.376  1.00  0.00     0.167 HD
ATOM     68  C   UNL A   1      43.616  30.854  34.430  1.00  0.00     0.074 A 
ATOM     69  C   UNL A   1      42.719  31.974  34.629  1.00  0.00     0.031 C 
ATOM     70  C   UNL A   1      44.662  30.562  35.244  1.00  0.00     0.034 A 
BRANCH  57  71
ATOM     71  C   UNL A   1      47.656  25.372  33.713  1.00  0.00     0.023 A 
ATOM     72  C   UNL A   1      47.373  24.293  34.577  1.00  0.00     0.012 A 
ATOM     73  C   UNL A   1      48.942  25.489  33.152  1.00  0.00     0.148 A 
ATOM     74  C   UNL A   1      48.365  23.372  34.909  1.00  0.00     0.002 A 
ATOM     75  C   UNL A   1      49.911  24.537  33.448  1.00  0.00     0.091 A 
ATOM     76  F   UNL A   1      49.200  26.535  32.355  1.00  0.00    -0.205 F 
ATOM     77  C   UNL A   1      49.629  23.487  34.337  1.00  0.00     0.022 A 
BRANCH  75  78
ATOM     78  S   UNL A   1      51.542  24.556  32.699  1.00  0.00     0.127 S 
ATOM     79  O   UNL A   1      52.244  25.521  33.545  1.00  0.00    -0.237 OA
ATOM     80  O   UNL A   1      51.974  23.168  32.868  1.00  0.00    -0.237 OA
ATOM     81  O   UNL A   1      51.343  24.965  31.315  1.00  0.00    -0.744 OA
ENDBRANCH  75  78
ENDBRANCH  57  71
BRANCH  58  82
ATOM     82  C   UNL A   1      40.091  31.456  31.352  1.00  0.00     0.023 A 
ATOM     83  C   UNL A   1      40.186  32.476  30.387  1.00  0.00     0.012 A 
ATOM     84  C   UNL A   1      38.862  31.243  32.010  1.00  0.00     0.148 A 
ATOM     85  C   UNL A   1      39.087  33.288  30.100  1.00  0.00     0.002 A 
ATOM     86  C   UNL A   1      37.757  32.017  31.678  1.00  0.00     0.091 A 
ATOM     87  F   UNL A   1      38.797  30.279  32.937  1.00  0.00    -0.205 F 
ATOM     88  C   UNL A   1      37.871  33.052  30.737  1.00  0.00     0.022 A 
BRANCH  86  89
ATOM     89  S   UNL A   1      36.120  31.698  32.346  1.00  0.00     0.127 S 
ATOM     90  O   UNL A   1      36.308  32.007  33.761  1.00  0.00    -0.237 OA
ATOM     91  O   UNL A   1      35.303  32.662  31.607  1.00  0.00    -0.237 OA
ATOM     92  O   UNL A   1      35.831  30.304  32.037  1.00  0.00    -0.744 OA
ENDBRANCH  86  89
ENDBRANCH  58  82
BRANCH  70  93
ATOM     93  C   UNL A   1      44.938  31.489  36.400  1.00  0.00     0.023 A 
ATOM     94  C   UNL A   1      45.744  32.629  36.217  1.00  0.00     0.012 A 
ATOM     95  C   UNL A   1      44.319  31.273  37.648  1.00  0.00     0.148 A 
ATOM     96  C   UNL A   1      45.953  33.525  37.267  1.00  0.00     0.002 A 
ATOM     97  C   UNL A   1      44.489  32.196  38.673  1.00  0.00     0.091 A 
ATOM     98  F   UNL A   1      43.568  30.174  37.807  1.00  0.00    -0.205 F 
ATOM     99  C   UNL A   1      45.316  33.315  38.488  1.00  0.00     0.022 A 
BRANCH  97 100
ATOM    100  S   UNL A   1      43.629  32.062  40.244  1.00  0.00     0.127 S 
ATOM    101  O   UNL A   1      42.248  31.852  39.810  1.00  0.00    -0.237 OA
ATOM    102  O   UNL A   1      44.264  30.890  40.846  1.00  0.00    -0.237 OA
ATOM    103  O   UNL A   1      43.876  33.314  40.948  1.00  0.00    -0.744 OA
ENDBRANCH  97 100
ENDBRANCH  70  93
ENDBRANCH  44  45
ENDBRANCH  37  39
ENDBRANCH  36  37
ENDBRANCH  35  36
ENDBRANCH  34  35
ENDBRANCH  33  34
ENDBRANCH  32  33
ENDBRANCH   1  32
TORSDOF 27
ENDMDL
MODEL 2
REMARK VINA RESULT:      -8.2      2.801      4.153
REMARK SMILES COc1cc(OC(F)(F)F)cc2c1O[C@@H](C(F)(F)F)C(C(=O)OCCOCCOCCOCCOC(=O)c1ccc(-c3c4nc(c(-c5cccc(S(=O)(=O)[O-])c5F)c5ccc([nH]5)c(-c5cccc(S(=O)(=O)[O-])c5F)c5nc(c(-c6cccc(S(=O)(=O)[O-])c6F)c6ccc3[nH]6)C=C5)C=C4)cc1)=C2
REMARK SMILES IDX 30 1 29 2 28 3 27 4 26 5 25 6 24 7 23 8 21 9 22 10 20 11
REMARK SMILES IDX 3 12 4 13 13 14 5 15 12 16 14 17 11 18 101 19 15 20 2 21
REMARK SMILES IDX 1 22 6 23 7 24 8 25 9 26 10 27 16 28 17 29 18 30 19 31 31 32
REMARK SMILES IDX 32 33 33 34 34 35 35 36 36 37 37 38 38 39 39 40 100 41 40 42
REMARK SMILES IDX 99 43 41 44 42 45 43 46 93 47 44 48 98 49 92 50 94 51 45 52
REMARK SMILES IDX 97 53 91 54 90 55 46 57 78 58 58 59 77 60 59 61 62 62 76 63
REMARK SMILES IDX 95 64 60 65 61 66 75 68 96 69 63 70 47 71 48 72 56 73 49 74
REMARK SMILES IDX 51 75 57 76 50 77 52 78 53 79 54 80 55 81 79 82 80 83 88 84
REMARK SMILES IDX 81 85 83 86 89 87 82 88 84 89 85 90 86 91 87 92 64 93 65 94
REMARK SMILES IDX 73 95 66 96 68 97 74 98 67 99 69 100 70 101 71 102 72 103
REMARK H PARENT 94 56 62 67
REMARK Flexibility Score: inf
ROOT
ATOM      1  C   UNL A   1      36.871  22.536  25.786  1.00  0.00     0.188 C 
ENDROOT
BRANCH   1   2
ATOM      2  O   UNL A   1      35.633  21.925  25.440  1.00  0.00    -0.377 OA
BRANCH   2   3
ATOM      3  C   UNL A   1      34.775  21.452  26.461  1.00  0.00     0.188 C 
BRANCH   3   4
ATOM      4  C   UNL A   1      33.470  20.730  26.076  1.00  0.00     0.188 C 
BRANCH   4   5
ATOM      5  O   UNL A   1      32.369  21.583  25.812  1.00  0.00    -0.376 OA
BRANCH   5   6
ATOM      6  C   UNL A   1      31.773  21.503  24.526  1.00  0.00     0.202 C 
BRANCH   6   7
ATOM      7  C   UNL A   1      32.547  22.165  23.379  1.00  0.00     0.261 C 
BRANCH   7   8
ATOM      8  O   UNL A   1      31.971  23.386  22.892  1.00  0.00    -0.460 OA
BRANCH   8   9
ATOM      9  C   UNL A   1      32.808  24.285  22.331  1.00  0.00     0.338 C 
ATOM     10  O   UNL A   1      33.587  24.074  21.418  1.00  0.00    -0.246 OA
BRANCH   9  11
ATOM     11  C   UNL A   1      32.508  25.629  22.863  1.00  0.00     0.087 C 
ATOM     12  C   UNL A   1      31.406  29.120  24.867  1.00  0.00     0.165 A 
ATOM     13  C   UNL A   1      30.441  29.966  24.320  1.00  0.00     0.097 A 
ATOM     14  C   UNL A   1      31.779  27.955  24.192  1.00  0.00     0.170 A 
ATOM     15  C   UNL A   1      29.878  29.679  23.075  1.00  0.00     0.134 A 
ATOM     16  C   UNL A   1      31.213  27.650  22.946  1.00  0.00     0.025 A 
ATOM     17  O   UNL A   1      32.618  27.077  24.827  1.00  0.00    -0.471 OA
ATOM     18  C   UNL A   1      30.287  28.533  22.379  1.00  0.00     0.059 A 
ATOM     19  C   UNL A   1      31.505  26.353  22.334  1.00  0.00     0.027 C 
ATOM     20  C   UNL A   1      33.385  26.227  23.938  1.00  0.00     0.316 C 
BRANCH  12  21
ATOM     21  O   UNL A   1      31.861  29.445  26.120  1.00  0.00    -0.493 OA
ATOM     22  C   UNL A   1      32.563  30.687  26.139  1.00  0.00     0.278 C 
ENDBRANCH  12  21
BRANCH  15  23
ATOM     23  O   UNL A   1      28.918  30.421  22.443  1.00  0.00    -0.406 OA
BRANCH  23  24
ATOM     24  C   UNL A   1      28.137  31.293  23.245  1.00  0.00     0.573 C 
ATOM     25  F   UNL A   1      27.561  32.265  22.502  1.00  0.00    -0.132 F 
ATOM     26  F   UNL A   1      27.174  30.608  23.903  1.00  0.00    -0.132 F 
ATOM     27  F   UNL A   1      28.930  31.882  24.166  1.00  0.00    -0.132 F 
ENDBRANCH  23  24
ENDBRANCH  15  23
BRANCH  20  28
ATOM     28  C   UNL A   1      34.256  25.310  24.813  1.00  0.00     0.430 C 
ATOM     29  F   UNL A   1      33.538  24.321  25.390  1.00  0.00    -0.167 F 
ATOM     30  F   UNL A   1      35.176  24.674  24.032  1.00  0.00    -0.167 F 
ATOM     31  F   UNL A   1      34.940  25.967  25.768  1.00  0.00    -0.167 F 
ENDBRANCH  20  28
ENDBRANCH   9  11
ENDBRANCH   8   9
ENDBRANCH   7   8
ENDBRANCH   6   7
ENDBRANCH   5   6
ENDBRANCH   4   5
ENDBRANCH   3   4
ENDBRANCH   2   3
ENDBRANCH   1   2
BRANCH   1  32
ATOM     32  C   UNL A   1      38.204  22.031  25.185  1.00  0.00     0.188 C 
BRANCH  32  33
ATOM     33  O   UNL A   1      39.140  21.537  26.134  1.00  0.00    -0.376 OA
BRANCH  33  34
ATOM     34  C   UNL A   1      40.126  22.447  26.593  1.00  0.00     0.202 C 
BRANCH  34  35
ATOM     35  C   UNL A   1      41.547  22.208  26.071  1.00  0.00     0.261 C 
BRANCH  35  36
ATOM     36  O   UNL A   1      42.578  22.999  26.678  1.00  0.00    -0.460 OA
BRANCH  36  37
ATOM     37  C   UNL A   1      42.798  24.236  26.180  1.00  0.00     0.338 C 
ATOM     38  O   UNL A   1      42.771  24.576  25.010  1.00  0.00    -0.246 OA
BRANCH  37  39
ATOM     39  C   UNL A   1      42.882  25.156  27.332  1.00  0.00     0.060 A 
ATOM     40  C   UNL A   1      42.014  24.983  28.420  1.00  0.00     0.016 A 
ATOM     41  C   UNL A   1      43.856  26.156  27.350  1.00  0.00     0.016 A 
ATOM     42  C   UNL A   1      42.109  25.829  29.526  1.00  0.00     0.010 A 
ATOM     43  C   UNL A   1      43.933  27.014  28.445  1.00  0.00     0.010 A 
ATOM     44  C   UNL A   1      43.043  26.872  29.524  1.00  0.00    -0.014 A 
BRANCH  44  45
ATOM     45  C   UNL A   1      42.971  27.948  30.540  1.00  0.00     0.031 A 
ATOM     46  C   UNL A   1      43.756  27.769  31.809  1.00  0.00     0.074 A 
ATOM     47  C   UNL A   1      42.183  29.024  30.372  1.00  0.00     0.049 A 
ATOM     48  N   UNL A   1      43.765  28.501  32.890  1.00  0.00    -0.248 NA
ATOM     49  C   UNL A   1      44.641  26.593  31.867  1.00  0.00     0.031 C 
ATOM     50  C   UNL A   1      41.373  29.303  29.188  1.00  0.00     0.029 A 
ATOM     51  N   UNL A   1      41.903  30.059  31.229  1.00  0.00    -0.354 N 
ATOM     52  C   UNL A   1      44.626  27.858  33.770  1.00  0.00     0.074 A 
ATOM     53  C   UNL A   1      45.112  26.672  33.102  1.00  0.00     0.031 C 
ATOM     54  C   UNL A   1      40.648  30.413  29.412  1.00  0.00     0.029 A 
ATOM     55  C   UNL A   1      40.919  30.900  30.765  1.00  0.00     0.049 A 
ATOM     56  H   UNL A   1      42.362  30.188  32.091  1.00  0.00     0.167 HD
ATOM     57  C   UNL A   1      44.985  28.225  35.022  1.00  0.00     0.034 A 
ATOM     58  C   UNL A   1      40.283  31.918  31.380  1.00  0.00     0.034 A 
ATOM     59  C   UNL A   1      44.500  29.404  35.683  1.00  0.00     0.049 A 
ATOM     60  C   UNL A   1      40.679  32.297  32.783  1.00  0.00     0.074 A 
ATOM     61  C   UNL A   1      44.839  29.892  36.932  1.00  0.00     0.029 A 
ATOM     62  N   UNL A   1      43.553  30.270  35.158  1.00  0.00    -0.354 N 
ATOM     63  N   UNL A   1      41.583  31.753  33.563  1.00  0.00    -0.248 NA
ATOM     64  C   UNL A   1      39.992  33.451  33.384  1.00  0.00     0.031 C 
ATOM     65  C   UNL A   1      44.069  31.033  37.176  1.00  0.00     0.029 A 
ATOM     66  C   UNL A   1      43.284  31.282  36.061  1.00  0.00     0.049 A 
ATOM     67  H   UNL A   1      43.135  30.178  34.271  1.00  0.00     0.167 HD
ATOM     68  C   UNL A   1      41.600  32.518  34.726  1.00  0.00     0.074 A 
ATOM     69  C   UNL A   1      40.625  33.573  34.543  1.00  0.00     0.031 C 
ATOM     70  C   UNL A   1      42.348  32.356  35.846  1.00  0.00     0.034 A 
BRANCH  57  71
ATOM     71  C   UNL A   1      45.957  27.335  35.751  1.00  0.00     0.023 A 
ATOM     72  C   UNL A   1      47.344  27.560  35.626  1.00  0.00     0.012 A 
ATOM     73  C   UNL A   1      45.498  26.292  36.577  1.00  0.00     0.148 A 
ATOM     74  C   UNL A   1      48.258  26.733  36.278  1.00  0.00     0.002 A 
ATOM     75  C   UNL A   1      46.414  25.504  37.264  1.00  0.00     0.091 A 
ATOM     76  F   UNL A   1      44.177  26.077  36.663  1.00  0.00    -0.205 F 
ATOM     77  C   UNL A   1      47.794  25.714  37.104  1.00  0.00     0.022 A 
BRANCH  75  78
ATOM     78  S   UNL A   1      45.912  24.219  38.412  1.00  0.00     0.127 S 
ATOM     79  O   UNL A   1      45.569  23.127  37.501  1.00  0.00    -0.237 OA
ATOM     80  O   UNL A   1      47.134  24.005  39.188  1.00  0.00    -0.237 OA
ATOM     81  O   UNL A   1      44.800  24.772  39.172  1.00  0.00    -0.744 OA
ENDBRANCH  75  78
ENDBRANCH  57  71
BRANCH  58  82
ATOM     82  C   UNL A   1      39.207  32.660  30.662  1.00  0.00     0.023 A 
ATOM     83  C   UNL A   1      39.537  33.763  29.852  1.00  0.00     0.012 A 
ATOM     84  C   UNL A   1      37.860  32.257  30.760  1.00  0.00     0.148 A 
ATOM     85  C   UNL A   1      38.542  34.471  29.175  1.00  0.00     0.002 A 
ATOM     86  C   UNL A   1      36.881  32.930  30.037  1.00  0.00     0.091 A 
ATOM     87  F   UNL A   1      37.564  31.215  31.548  1.00  0.00    -0.205 F 
ATOM     88  C   UNL A   1      37.217  34.048  29.258  1.00  0.00     0.022 A 
BRANCH  86  89
ATOM     89  S   UNL A   1      35.174  32.376  29.975  1.00  0.00     0.127 S 
ATOM     90  O   UNL A   1      34.456  33.636  29.800  1.00  0.00    -0.237 OA
ATOM     91  O   UNL A   1      35.186  31.503  28.801  1.00  0.00    -0.237 OA
ATOM     92  O   UNL A   1      34.936  31.684  31.235  1.00  0.00    -0.744 OA
ENDBRANCH  86  89
ENDBRANCH  58  82
BRANCH  70  93
ATOM     93  C   UNL A   1      42.190  33.368  36.953  1.00  0.00     0.023 A 
ATOM     94  C   UNL A   1      43.096  34.440  37.066  1.00  0.00     0.012 A 
ATOM     95  C   UNL A   1      41.085  33.302  37.824  1.00  0.00     0.148 A 
ATOM     96  C   UNL A   1      42.921  35.415  38.049  1.00  0.00     0.002 A 
ATOM     97  C   UNL A   1      40.887  34.304  38.767  1.00  0.00     0.091 A 
ATOM     98  F   UNL A   1      40.242  32.266  37.710  1.00  0.00    -0.205 F 
ATOM     99  C   UNL A   1      41.811  35.354  38.889  1.00  0.00     0.022 A 
BRANCH  97 100
ATOM    100  S   UNL A   1      39.434  34.363  39.822  1.00  0.00     0.127 S 
ATOM    101  O   UNL A   1      39.049  35.770  39.721  1.00  0.00    -0.237 OA
ATOM    102  O   UNL A   1      38.527  33.432  39.151  1.00  0.00    -0.237 OA
ATOM    103  O   UNL A   1      39.876  33.932  41.142  1.00  0.00    -0.744 OA
ENDBRANCH  97 100
ENDBRANCH  70  93
ENDBRANCH  44  45
ENDBRANCH  37  39
ENDBRANCH  36  37
ENDBRANCH  35  36
ENDBRANCH  34  35
ENDBRANCH  33  34
ENDBRANCH  32  33
ENDBRANCH   1  32
TORSDOF 27
ENDMDL
MODEL 3
REMARK VINA RESULT:      -7.2      5.965     10.730
REMARK SMILES COc1cc(OC(F)(F)F)cc2c1O[C@@H](C(F)(F)F)C(C(=O)OCCOCCOCCOCCOC(=O)c1ccc(-c3c4nc(c(-c5cccc(S(=O)(=O)[O-])c5F)c5ccc([nH]5)c(-c5cccc(S(=O)(=O)[O-])c5F)c5nc(c(-c6cccc(S(=O)(=O)[O-])c6F)c6ccc3[nH]6)C=C5)C=C4)cc1)=C2
REMARK SMILES IDX 30 1 29 2 28 3 27 4 26 5 25 6 24 7 23 8 21 9 22 10 20 11
REMARK SMILES IDX 3 12 4 13 13 14 5 15 12 16 14 17 11 18 101 19 15 20 2 21
REMARK SMILES IDX 1 22 6 23 7 24 8 25 9 26 10 27 16 28 17 29 18 30 19 31 31 32
REMARK SMILES IDX 32 33 33 34 34 35 35 36 36 37 37 38 38 39 39 40 100 41 40 42
REMARK SMILES IDX 99 43 41 44 42 45 43 46 93 47 44 48 98 49 92 50 94 51 45 52
REMARK SMILES IDX 97 53 91 54 90 55 46 57 78 58 58 59 77 60 59 61 62 62 76 63
REMARK SMILES IDX 95 64 60 65 61 66 75 68 96 69 63 70 47 71 48 72 56 73 49 74
REMARK SMILES IDX 51 75 57 76 50 77 52 78 53 79 54 80 55 81 79 82 80 83 88 84
REMARK SMILES IDX 81 85 83 86 89 87 82 88 84 89 85 90 86 91 87 92 64 93 65 94
REMARK SMILES IDX 73 95 66 96 68 97 74 98 67 99 69 100 70 101 71 102 72 103
REMARK H PARENT 94 56 62 67
REMARK Flexibility Score: inf
ROOT
ATOM      1  C   UNL A   1      52.785  29.057  22.924  1.00  0.00     0.188 C 
ENDROOT
BRANCH   1   2
ATOM      2  O   UNL A   1      51.950  28.102  23.570  1.00  0.00    -0.377 OA
BRANCH   2   3
ATOM      3  C   UNL A   1      50.544  28.205  23.449  1.00  0.00     0.188 C 
BRANCH   3   4
ATOM      4  C   UNL A   1      49.655  27.071  23.992  1.00  0.00     0.188 C 
BRANCH   4   5
ATOM      5  O   UNL A   1      48.259  27.299  23.887  1.00  0.00    -0.376 OA
BRANCH   5   6
ATOM      6  C   UNL A   1      47.423  26.700  24.863  1.00  0.00     0.202 C 
BRANCH   6   7
ATOM      7  C   UNL A   1      47.975  25.442  25.547  1.00  0.00     0.261 C 
BRANCH   7   8
ATOM      8  O   UNL A   1      46.976  24.503  25.973  1.00  0.00    -0.460 OA
BRANCH   8   9
ATOM      9  C   UNL A   1      46.161  23.994  25.025  1.00  0.00     0.338 C 
ATOM     10  O   UNL A   1      46.501  23.551  23.943  1.00  0.00    -0.246 OA
BRANCH   9  11
ATOM     11  C   UNL A   1      44.794  23.874  25.571  1.00  0.00     0.087 C 
ATOM     12  C   UNL A   1      40.748  23.460  26.507  1.00  0.00     0.165 A 
ATOM     13  C   UNL A   1      40.044  24.530  27.059  1.00  0.00     0.097 A 
ATOM     14  C   UNL A   1      42.104  23.598  26.200  1.00  0.00     0.170 A 
ATOM     15  C   UNL A   1      40.700  25.728  27.352  1.00  0.00     0.134 A 
ATOM     16  C   UNL A   1      42.772  24.798  26.480  1.00  0.00     0.025 A 
ATOM     17  O   UNL A   1      42.724  22.579  25.525  1.00  0.00    -0.471 OA
ATOM     18  C   UNL A   1      42.072  25.848  27.085  1.00  0.00     0.059 A 
ATOM     19  C   UNL A   1      44.148  24.970  26.010  1.00  0.00     0.027 C 
ATOM     20  C   UNL A   1      44.159  22.512  25.721  1.00  0.00     0.316 C 
BRANCH  12  21
ATOM     21  O   UNL A   1      40.013  22.345  26.194  1.00  0.00    -0.493 OA
ATOM     22  C   UNL A   1      40.171  21.302  27.155  1.00  0.00     0.278 C 
ENDBRANCH  12  21
BRANCH  15  23
ATOM     23  O   UNL A   1      40.119  26.848  27.881  1.00  0.00    -0.406 OA
BRANCH  23  24
ATOM     24  C   UNL A   1      40.595  28.104  27.426  1.00  0.00     0.573 C 
ATOM     25  F   UNL A   1      40.479  28.220  26.084  1.00  0.00    -0.132 F 
ATOM     26  F   UNL A   1      39.922  29.117  28.018  1.00  0.00    -0.132 F 
ATOM     27  F   UNL A   1      41.900  28.230  27.747  1.00  0.00    -0.132 F 
ENDBRANCH  23  24
ENDBRANCH  15  23
BRANCH  20  28
ATOM     28  C   UNL A   1      44.683  21.327  24.892  1.00  0.00     0.430 C 
ATOM     29  F   UNL A   1      45.955  21.000  25.216  1.00  0.00    -0.167 F 
ATOM     30  F   UNL A   1      43.946  20.214  25.171  1.00  0.00    -0.167 F 
ATOM     31  F   UNL A   1      44.609  21.524  23.562  1.00  0.00    -0.167 F 
ENDBRANCH  20  28
ENDBRANCH   9  11
ENDBRANCH   8   9
ENDBRANCH   7   8
ENDBRANCH   6   7
ENDBRANCH   5   6
ENDBRANCH   4   5
ENDBRANCH   3   4
ENDBRANCH   2   3
ENDBRANCH   1   2
BRANCH   1  32
ATOM     32  C   UNL A   1      53.664  30.030  23.744  1.00  0.00     0.188 C 
BRANCH  32  33
ATOM     33  O   UNL A   1      53.040  31.262  24.082  1.00  0.00    -0.376 OA
BRANCH  33  34
ATOM     34  C   UNL A   1      53.831  32.210  24.779  1.00  0.00     0.202 C 
BRANCH  34  35
ATOM     35  C   UNL A   1      53.136  32.932  25.939  1.00  0.00     0.261 C 
BRANCH  35  36
ATOM     36  O   UNL A   1      53.402  32.410  27.249  1.00  0.00    -0.460 OA
BRANCH  36  37
ATOM     37  C   UNL A   1      53.090  31.117  27.487  1.00  0.00     0.338 C 
ATOM     38  O   UNL A   1      53.847  30.161  27.476  1.00  0.00    -0.246 OA
BRANCH  37  39
ATOM     39  C   UNL A   1      51.693  31.091  27.961  1.00  0.00     0.060 A 
ATOM     40  C   UNL A   1      50.668  30.724  27.076  1.00  0.00     0.016 A 
ATOM     41  C   UNL A   1      51.409  31.382  29.297  1.00  0.00     0.016 A 
ATOM     42  C   UNL A   1      49.348  30.666  27.526  1.00  0.00     0.010 A 
ATOM     43  C   UNL A   1      50.087  31.346  29.738  1.00  0.00     0.010 A 
ATOM     44  C   UNL A   1      49.049  31.017  28.848  1.00  0.00    -0.014 A 
BRANCH  44  45
ATOM     45  C   UNL A   1      47.647  31.243  29.268  1.00  0.00     0.031 A 
ATOM     46  C   UNL A   1      46.838  30.049  29.688  1.00  0.00     0.074 A 
ATOM     47  C   UNL A   1      47.086  32.463  29.218  1.00  0.00     0.049 A 
ATOM     48  N   UNL A   1      45.568  29.967  29.980  1.00  0.00    -0.248 NA
ATOM     49  C   UNL A   1      47.562  28.769  29.775  1.00  0.00     0.031 C 
ATOM     50  C   UNL A   1      47.768  33.693  28.823  1.00  0.00     0.029 A 
ATOM     51  N   UNL A   1      45.792  32.853  29.459  1.00  0.00    -0.354 N 
ATOM     52  C   UNL A   1      45.332  28.625  30.251  1.00  0.00     0.074 A 
ATOM     53  C   UNL A   1      46.587  27.928  30.079  1.00  0.00     0.031 C 
ATOM     54  C   UNL A   1      46.874  34.697  28.801  1.00  0.00     0.029 A 
ATOM     55  C   UNL A   1      45.553  34.172  29.149  1.00  0.00     0.049 A 
ATOM     56  H   UNL A   1      45.102  32.249  29.819  1.00  0.00     0.167 HD
ATOM     57  C   UNL A   1      44.175  28.027  30.618  1.00  0.00     0.034 A 
ATOM     58  C   UNL A   1      44.394  34.861  29.111  1.00  0.00     0.034 A 
ATOM     59  C   UNL A   1      42.930  28.723  30.788  1.00  0.00     0.049 A 
ATOM     60  C   UNL A   1      43.111  34.171  29.498  1.00  0.00     0.074 A 
ATOM     61  C   UNL A   1      41.712  28.219  31.203  1.00  0.00     0.029 A 
ATOM     62  N   UNL A   1      42.739  30.072  30.529  1.00  0.00    -0.354 N 
ATOM     63  N   UNL A   1      42.920  32.928  29.870  1.00  0.00    -0.248 NA
ATOM     64  C   UNL A   1      41.886  34.986  29.493  1.00  0.00     0.031 C 
ATOM     65  C   UNL A   1      40.775  29.256  31.161  1.00  0.00     0.029 A 
ATOM     66  C   UNL A   1      41.419  30.416  30.762  1.00  0.00     0.049 A 
ATOM     67  H   UNL A   1      43.439  30.693  30.225  1.00  0.00     0.167 HD
ATOM     68  C   UNL A   1      41.567  32.821  30.178  1.00  0.00     0.074 A 
ATOM     69  C   UNL A   1      40.988  34.131  29.963  1.00  0.00     0.031 C 
ATOM     70  C   UNL A   1      40.866  31.736  30.593  1.00  0.00     0.034 A 
BRANCH  57  71
ATOM     71  C   UNL A   1      44.212  26.542  30.863  1.00  0.00     0.023 A 
ATOM     72  C   UNL A   1      44.068  25.648  29.780  1.00  0.00     0.012 A 
ATOM     73  C   UNL A   1      44.410  26.030  32.159  1.00  0.00     0.148 A 
ATOM     74  C   UNL A   1      44.079  24.270  29.992  1.00  0.00     0.002 A 
ATOM     75  C   UNL A   1      44.471  24.655  32.355  1.00  0.00     0.091 A 
ATOM     76  F   UNL A   1      44.519  26.894  33.179  1.00  0.00    -0.205 F 
ATOM     77  C   UNL A   1      44.291  23.775  31.275  1.00  0.00     0.022 A 
BRANCH  75  78
ATOM     78  S   UNL A   1      44.819  23.922  33.956  1.00  0.00     0.127 S 
ATOM     79  O   UNL A   1      44.317  24.951  34.866  1.00  0.00    -0.237 OA
ATOM     80  O   UNL A   1      44.017  22.699  33.915  1.00  0.00    -0.237 OA
ATOM     81  O   UNL A   1      46.258  23.703  33.992  1.00  0.00    -0.744 OA
ENDBRANCH  75  78
ENDBRANCH  57  71
BRANCH  58  82
ATOM     82  C   UNL A   1      44.398  36.293  28.697  1.00  0.00     0.023 A 
ATOM     83  C   UNL A   1      44.170  36.634  27.351  1.00  0.00     0.012 A 
ATOM     84  C   UNL A   1      44.603  37.320  29.642  1.00  0.00     0.148 A 
ATOM     85  C   UNL A   1      44.173  37.970  26.945  1.00  0.00     0.002 A 
ATOM     86  C   UNL A   1      44.547  38.650  29.242  1.00  0.00     0.091 A 
ATOM     87  F   UNL A   1      44.835  36.974  30.915  1.00  0.00    -0.205 F 
ATOM     88  C   UNL A   1      44.350  38.977  27.892  1.00  0.00     0.022 A 
BRANCH  86  89
ATOM     89  S   UNL A   1      44.629  40.012  30.408  1.00  0.00     0.127 S 
ATOM     90  O   UNL A   1      43.517  39.707  31.305  1.00  0.00    -0.237 OA
ATOM     91  O   UNL A   1      45.959  39.828  30.990  1.00  0.00    -0.237 OA
ATOM     92  O   UNL A   1      44.484  41.224  29.613  1.00  0.00    -0.744 OA
ENDBRANCH  86  89
ENDBRANCH  58  82
BRANCH  70  93
ATOM     93  C   UNL A   1      39.400  31.915  30.897  1.00  0.00     0.023 A 
ATOM     94  C   UNL A   1      38.432  31.600  29.925  1.00  0.00     0.012 A 
ATOM     95  C   UNL A   1      38.986  32.312  32.184  1.00  0.00     0.148 A 
ATOM     96  C   UNL A   1      37.072  31.703  30.221  1.00  0.00     0.002 A 
ATOM     97  C   UNL A   1      37.630  32.364  32.488  1.00  0.00     0.091 A 
ATOM     98  F   UNL A   1      39.923  32.624  33.091  1.00  0.00    -0.205 F 
ATOM     99  C   UNL A   1      36.673  32.072  31.504  1.00  0.00     0.022 A 
BRANCH  97 100
ATOM    100  S   UNL A   1      37.025  32.729  34.139  1.00  0.00     0.127 S 
ATOM    101  O   UNL A   1      37.610  34.047  34.385  1.00  0.00    -0.237 OA
ATOM    102  O   UNL A   1      35.575  32.733  33.943  1.00  0.00    -0.237 OA
ATOM    103  O   UNL A   1      37.517  31.659  34.996  1.00  0.00    -0.744 OA
ENDBRANCH  97 100
ENDBRANCH  70  93
ENDBRANCH  44  45
ENDBRANCH  37  39
ENDBRANCH  36  37
ENDBRANCH  35  36
ENDBRANCH  34  35
ENDBRANCH  33  34
ENDBRANCH  32  33
ENDBRANCH   1  32
TORSDOF 27
ENDMDL
