MODEL 1
REMARK VINA RESULT:      -8.8      0.000      0.000
REMARK SMILES O=C(CNc1nc(-c2ccccc2)c(-c2ccccc2)s1)OCCOCCOCCOCCOC(=O)c1ccc(-c2c3nc(c(-c4cccc(S(=O)(=O)[O-])c4F)c4ccc([nH]4)c(-c4cccc(S(=O)(=O)[O-])c4F)c4nc(c(-c5cccc(S(=O)(=O)[O-])c5F)c5ccc2[nH]5)C=C4)C=C3)cc1
REMARK SMILES IDX 28 1 27 2 26 3 25 4 24 5 23 6 22 7 2 8 1 9 3 10 4 11 5 13
REMARK SMILES IDX 6 14 21 15 7 16 14 17 8 18 9 19 13 20 10 21 12 22 11 23
REMARK SMILES IDX 15 24 16 25 20 26 17 27 19 28 18 29 29 30 30 31 31 32 32 33
REMARK SMILES IDX 33 34 34 35 35 36 36 37 37 38 38 39 99 40 39 41 98 42 40 43
REMARK SMILES IDX 41 44 42 45 92 46 43 47 97 48 91 49 93 50 44 51 96 52 90 53
REMARK SMILES IDX 89 54 45 56 77 57 57 58 76 59 58 60 61 61 75 62 94 63 59 64
REMARK SMILES IDX 60 65 74 67 95 68 62 69 46 70 47 71 55 72 48 73 50 74 56 75
REMARK SMILES IDX 49 76 51 77 52 78 53 79 54 80 78 81 79 82 87 83 80 84 82 85
REMARK SMILES IDX 88 86 81 87 83 88 84 89 85 90 86 91 63 92 64 93 72 94 65 95
REMARK SMILES IDX 67 96 73 97 66 98 68 99 69 100 70 101 71 102
REMARK H PARENT 4 12 93 55 61 66
REMARK Flexibility Score: inf
ROOT
ATOM      1  O   UNL A   1      37.478  23.267  25.175  1.00  0.00    -0.377 OA
ENDROOT
BRANCH   1   2
ATOM      2  C   UNL A   1      36.738  23.253  23.967  1.00  0.00     0.188 C 
BRANCH   2   3
ATOM      3  C   UNL A   1      35.261  23.641  24.050  1.00  0.00     0.188 C 
BRANCH   3   4
ATOM      4  O   UNL A   1      34.538  24.013  22.895  1.00  0.00    -0.376 OA
BRANCH   4   5
ATOM      5  C   UNL A   1      33.401  23.377  22.354  1.00  0.00     0.202 C 
BRANCH   5   6
ATOM      6  C   UNL A   1      32.278  22.807  23.206  1.00  0.00     0.261 C 
BRANCH   6   7
ATOM      7  O   UNL A   1      32.614  22.104  24.409  1.00  0.00    -0.462 OA
BRANCH   7   8
ATOM      8  C   UNL A   1      32.219  22.377  25.670  1.00  0.00     0.325 C 
ATOM      9  O   UNL A   1      33.066  22.715  26.498  1.00  0.00    -0.250 OA
BRANCH   8  10
ATOM     10  C   UNL A   1      30.759  22.201  26.076  1.00  0.00     0.238 C 
BRANCH  10  11
ATOM     11  N   UNL A   1      30.174  23.437  26.550  1.00  0.00    -0.351 N 
ATOM     12  H   UNL A   1      29.439  23.402  27.204  1.00  0.00     0.163 HD
BRANCH  11  13
ATOM     13  C   UNL A   1      30.612  24.632  26.116  1.00  0.00     0.184 A 
ATOM     14  N   UNL A   1      31.375  25.481  26.769  1.00  0.00    -0.220 NA
ATOM     15  S   UNL A   1      30.041  25.180  24.595  1.00  0.00    -0.096 S 
ATOM     16  C   UNL A   1      31.441  26.693  26.083  1.00  0.00     0.091 A 
ATOM     17  C   UNL A   1      30.726  26.719  24.893  1.00  0.00     0.064 A 
BRANCH  16  18
ATOM     18  C   UNL A   1      32.283  27.805  26.520  1.00  0.00     0.002 A 
ATOM     19  C   UNL A   1      31.731  28.982  27.050  1.00  0.00     0.010 A 
ATOM     20  C   UNL A   1      33.660  27.758  26.271  1.00  0.00     0.010 A 
ATOM     21  C   UNL A   1      32.525  30.118  27.239  1.00  0.00     0.001 A 
ATOM     22  C   UNL A   1      34.453  28.894  26.460  1.00  0.00     0.001 A 
ATOM     23  C   UNL A   1      33.882  30.079  26.923  1.00  0.00     0.000 A 
ENDBRANCH  16  18
BRANCH  17  24
ATOM     24  C   UNL A   1      30.583  27.740  23.867  1.00  0.00    -0.006 A 
ATOM     25  C   UNL A   1      31.709  28.329  23.278  1.00  0.00     0.009 A 
ATOM     26  C   UNL A   1      29.303  28.162  23.493  1.00  0.00     0.009 A 
ATOM     27  C   UNL A   1      31.551  29.354  22.345  1.00  0.00     0.001 A 
ATOM     28  C   UNL A   1      29.148  29.187  22.564  1.00  0.00     0.001 A 
ATOM     29  C   UNL A   1      30.272  29.788  21.998  1.00  0.00     0.000 A 
ENDBRANCH  17  24
ENDBRANCH  11  13
ENDBRANCH  10  11
ENDBRANCH   8  10
ENDBRANCH   7   8
ENDBRANCH   6   7
ENDBRANCH   5   6
ENDBRANCH   4   5
ENDBRANCH   3   4
ENDBRANCH   2   3
ENDBRANCH   1   2
BRANCH   1  30
ATOM     30  C   UNL A   1      37.455  22.047  25.889  1.00  0.00     0.188 C 
BRANCH  30  31
ATOM     31  C   UNL A   1      38.713  21.179  25.678  1.00  0.00     0.188 C 
BRANCH  31  32
ATOM     32  O   UNL A   1      40.004  21.675  25.986  1.00  0.00    -0.376 OA
BRANCH  32  33
ATOM     33  C   UNL A   1      40.206  22.680  26.963  1.00  0.00     0.202 C 
BRANCH  33  34
ATOM     34  C   UNL A   1      41.224  23.834  26.851  1.00  0.00     0.261 C 
BRANCH  34  35
ATOM     35  O   UNL A   1      40.857  25.107  27.385  1.00  0.00    -0.460 OA
BRANCH  35  36
ATOM     36  C   UNL A   1      41.187  26.175  26.632  1.00  0.00     0.338 C 
ATOM     37  O   UNL A   1      41.216  26.234  25.411  1.00  0.00    -0.246 OA
BRANCH  36  38
ATOM     38  C   UNL A   1      41.284  27.356  27.514  1.00  0.00     0.060 A 
ATOM     39  C   UNL A   1      40.671  28.542  27.083  1.00  0.00     0.016 A 
ATOM     40  C   UNL A   1      41.943  27.304  28.746  1.00  0.00     0.016 A 
ATOM     41  C   UNL A   1      40.771  29.697  27.846  1.00  0.00     0.010 A 
ATOM     42  C   UNL A   1      42.077  28.477  29.495  1.00  0.00     0.010 A 
ATOM     43  C   UNL A   1      41.543  29.686  29.012  1.00  0.00    -0.014 A 
BRANCH  43  44
ATOM     44  C   UNL A   1      42.040  30.986  29.515  1.00  0.00     0.031 A 
ATOM     45  C   UNL A   1      41.307  31.606  30.675  1.00  0.00     0.074 A 
ATOM     46  C   UNL A   1      43.152  31.558  29.022  1.00  0.00     0.049 A 
ATOM     47  N   UNL A   1      41.574  32.698  31.338  1.00  0.00    -0.248 NA
ATOM     48  C   UNL A   1      40.110  30.891  31.155  1.00  0.00     0.031 C 
ATOM     49  C   UNL A   1      43.963  31.032  27.926  1.00  0.00     0.029 A 
ATOM     50  N   UNL A   1      43.786  32.717  29.388  1.00  0.00    -0.354 N 
ATOM     51  C   UNL A   1      40.563  32.820  32.285  1.00  0.00     0.074 A 
ATOM     52  C   UNL A   1      39.670  31.699  32.105  1.00  0.00     0.031 C 
ATOM     53  C   UNL A   1      44.981  31.879  27.696  1.00  0.00     0.029 A 
ATOM     54  C   UNL A   1      44.880  33.014  28.613  1.00  0.00     0.049 A 
ATOM     55  H   UNL A   1      43.483  33.284  30.134  1.00  0.00     0.167 HD
ATOM     56  C   UNL A   1      40.397  33.774  33.229  1.00  0.00     0.034 A 
ATOM     57  C   UNL A   1      45.695  34.087  28.639  1.00  0.00     0.034 A 
ATOM     58  C   UNL A   1      41.296  34.878  33.415  1.00  0.00     0.049 A 
ATOM     59  C   UNL A   1      45.469  35.153  29.683  1.00  0.00     0.074 A 
ATOM     60  C   UNL A   1      41.243  35.878  34.368  1.00  0.00     0.029 A 
ATOM     61  N   UNL A   1      42.399  35.140  32.617  1.00  0.00    -0.354 N 
ATOM     62  N   UNL A   1      44.571  35.202  30.637  1.00  0.00    -0.248 NA
ATOM     63  C   UNL A   1      46.397  36.294  29.674  1.00  0.00     0.031 C 
ATOM     64  C   UNL A   1      42.289  36.771  34.117  1.00  0.00     0.029 A 
ATOM     65  C   UNL A   1      43.027  36.296  33.044  1.00  0.00     0.049 A 
ATOM     66  H   UNL A   1      42.692  34.586  31.859  1.00  0.00     0.167 HD
ATOM     67  C   UNL A   1      44.856  36.349  31.372  1.00  0.00     0.074 A 
ATOM     68  C   UNL A   1      46.020  36.956  30.759  1.00  0.00     0.031 C 
ATOM     69  C   UNL A   1      44.214  36.857  32.454  1.00  0.00     0.034 A 
BRANCH  56  70
ATOM     70  C   UNL A   1      39.189  33.668  34.123  1.00  0.00     0.023 A 
ATOM     71  C   UNL A   1      37.991  34.328  33.779  1.00  0.00     0.012 A 
ATOM     72  C   UNL A   1      39.236  32.883  35.290  1.00  0.00     0.148 A 
ATOM     73  C   UNL A   1      36.871  34.237  34.605  1.00  0.00     0.002 A 
ATOM     74  C   UNL A   1      38.101  32.754  36.079  1.00  0.00     0.091 A 
ATOM     75  F   UNL A   1      40.393  32.288  35.614  1.00  0.00    -0.205 F 
ATOM     76  C   UNL A   1      36.923  33.441  35.746  1.00  0.00     0.022 A 
BRANCH  74  77
ATOM     77  S   UNL A   1      38.043  31.685  37.520  1.00  0.00     0.127 S 
ATOM     78  O   UNL A   1      38.183  30.363  36.912  1.00  0.00    -0.237 OA
ATOM     79  O   UNL A   1      39.210  32.134  38.280  1.00  0.00    -0.237 OA
ATOM     80  O   UNL A   1      36.762  31.943  38.164  1.00  0.00    -0.744 OA
ENDBRANCH  74  77
ENDBRANCH  56  70
BRANCH  57  81
ATOM     81  C   UNL A   1      46.823  34.197  27.673  1.00  0.00     0.023 A 
ATOM     82  C   UNL A   1      46.635  34.874  26.452  1.00  0.00     0.012 A 
ATOM     83  C   UNL A   1      48.079  33.627  27.954  1.00  0.00     0.148 A 
ATOM     84  C   UNL A   1      47.665  34.948  25.512  1.00  0.00     0.002 A 
ATOM     85  C   UNL A   1      49.118  33.753  27.040  1.00  0.00     0.091 A 
ATOM     86  F   UNL A   1      48.234  32.975  29.116  1.00  0.00    -0.205 F 
ATOM     87  C   UNL A   1      48.908  34.395  25.810  1.00  0.00     0.022 A 
BRANCH  85  88
ATOM     88  S   UNL A   1      50.785  33.182  27.388  1.00  0.00     0.127 S 
ATOM     89  O   UNL A   1      50.596  31.737  27.464  1.00  0.00    -0.237 OA
ATOM     90  O   UNL A   1      51.511  33.649  26.206  1.00  0.00    -0.237 OA
ATOM     91  O   UNL A   1      51.174  33.833  28.630  1.00  0.00    -0.744 OA
ENDBRANCH  85  88
ENDBRANCH  57  81
BRANCH  69  92
ATOM     92  C   UNL A   1      44.790  38.095  33.093  1.00  0.00     0.023 A 
ATOM     93  C   UNL A   1      45.841  37.995  34.026  1.00  0.00     0.012 A 
ATOM     94  C   UNL A   1      44.319  39.370  32.719  1.00  0.00     0.148 A 
ATOM     95  C   UNL A   1      46.380  39.141  34.612  1.00  0.00     0.002 A 
ATOM     96  C   UNL A   1      44.901  40.509  33.261  1.00  0.00     0.091 A 
ATOM     97  F   UNL A   1      43.308  39.447  31.841  1.00  0.00    -0.205 F 
ATOM     98  C   UNL A   1      45.919  40.396  34.221  1.00  0.00     0.022 A 
BRANCH  96  99
ATOM     99  S   UNL A   1      44.441  42.164  32.738  1.00  0.00     0.127 S 
ATOM    100  O   UNL A   1      43.086  42.280  33.272  1.00  0.00    -0.237 OA
ATOM    101  O   UNL A   1      45.438  42.992  33.418  1.00  0.00    -0.237 OA
ATOM    102  O   UNL A   1      44.543  42.169  31.285  1.00  0.00    -0.744 OA
ENDBRANCH  96  99
ENDBRANCH  69  92
ENDBRANCH  43  44
ENDBRANCH  36  38
ENDBRANCH  35  36
ENDBRANCH  34  35
ENDBRANCH  33  34
ENDBRANCH  32  33
ENDBRANCH  31  32
ENDBRANCH  30  31
ENDBRANCH   1  30
TORSDOF 27
ENDMDL
MODEL 2
REMARK VINA RESULT:      -8.7      2.816      7.605
REMARK SMILES O=C(CNc1nc(-c2ccccc2)c(-c2ccccc2)s1)OCCOCCOCCOCCOC(=O)c1ccc(-c2c3nc(c(-c4cccc(S(=O)(=O)[O-])c4F)c4ccc([nH]4)c(-c4cccc(S(=O)(=O)[O-])c4F)c4nc(c(-c5cccc(S(=O)(=O)[O-])c5F)c5ccc2[nH]5)C=C4)C=C3)cc1
REMARK SMILES IDX 28 1 27 2 26 3 25 4 24 5 23 6 22 7 2 8 1 9 3 10 4 11 5 13
REMARK SMILES IDX 6 14 21 15 7 16 14 17 8 18 9 19 13 20 10 21 12 22 11 23
REMARK SMILES IDX 15 24 16 25 20 26 17 27 19 28 18 29 29 30 30 31 31 32 32 33
REMARK SMILES IDX 33 34 34 35 35 36 36 37 37 38 38 39 99 40 39 41 98 42 40 43
REMARK SMILES IDX 41 44 42 45 92 46 43 47 97 48 91 49 93 50 44 51 96 52 90 53
REMARK SMILES IDX 89 54 45 56 77 57 57 58 76 59 58 60 61 61 75 62 94 63 59 64
REMARK SMILES IDX 60 65 74 67 95 68 62 69 46 70 47 71 55 72 48 73 50 74 56 75
REMARK SMILES IDX 49 76 51 77 52 78 53 79 54 80 78 81 79 82 87 83 80 84 82 85
REMARK SMILES IDX 88 86 81 87 83 88 84 89 85 90 86 91 63 92 64 93 72 94 65 95
REMARK SMILES IDX 67 96 73 97 66 98 68 99 69 100 70 101 71 102
REMARK H PARENT 4 12 93 55 61 66
REMARK Flexibility Score: inf
ROOT
ATOM      1  O   UNL A   1      38.291  22.067  26.358  1.00  0.00    -0.377 OA
ENDROOT
BRANCH   1   2
ATOM      2  C   UNL A   1      37.938  23.187  25.566  1.00  0.00     0.188 C 
BRANCH   2   3
ATOM      3  C   UNL A   1      36.633  23.905  25.916  1.00  0.00     0.188 C 
BRANCH   3   4
ATOM      4  O   UNL A   1      35.530  23.886  25.032  1.00  0.00    -0.376 OA
BRANCH   4   5
ATOM      5  C   UNL A   1      35.264  22.944  24.016  1.00  0.00     0.202 C 
BRANCH   5   6
ATOM      6  C   UNL A   1      33.950  22.188  23.901  1.00  0.00     0.261 C 
BRANCH   6   7
ATOM      7  O   UNL A   1      33.378  21.617  25.084  1.00  0.00    -0.462 OA
BRANCH   7   8
ATOM      8  C   UNL A   1      32.148  21.081  25.239  1.00  0.00     0.325 C 
ATOM      9  O   UNL A   1      32.018  19.860  25.154  1.00  0.00    -0.250 OA
BRANCH   8  10
ATOM     10  C   UNL A   1      30.935  21.983  25.446  1.00  0.00     0.238 C 
BRANCH  10  11
ATOM     11  N   UNL A   1      31.187  23.017  26.427  1.00  0.00    -0.351 N 
ATOM     12  H   UNL A   1      31.208  22.780  27.382  1.00  0.00     0.163 HD
BRANCH  11  13
ATOM     13  C   UNL A   1      31.392  24.295  26.061  1.00  0.00     0.184 A 
ATOM     14  N   UNL A   1      32.006  25.229  26.755  1.00  0.00    -0.220 NA
ATOM     15  S   UNL A   1      30.693  24.818  24.586  1.00  0.00    -0.096 S 
ATOM     16  C   UNL A   1      31.835  26.470  26.143  1.00  0.00     0.091 A 
ATOM     17  C   UNL A   1      31.098  26.436  24.968  1.00  0.00     0.064 A 
BRANCH  16  18
ATOM     18  C   UNL A   1      32.474  27.689  26.637  1.00  0.00     0.002 A 
ATOM     19  C   UNL A   1      31.721  28.790  27.074  1.00  0.00     0.010 A 
ATOM     20  C   UNL A   1      33.865  27.820  26.535  1.00  0.00     0.010 A 
ATOM     21  C   UNL A   1      32.336  30.023  27.315  1.00  0.00     0.001 A 
ATOM     22  C   UNL A   1      34.479  29.053  26.776  1.00  0.00     0.001 A 
ATOM     23  C   UNL A   1      33.713  30.158  27.144  1.00  0.00     0.000 A 
ENDBRANCH  16  18
BRANCH  17  24
ATOM     24  C   UNL A   1      30.747  27.471  24.009  1.00  0.00    -0.006 A 
ATOM     25  C   UNL A   1      29.408  27.738  23.698  1.00  0.00     0.009 A 
ATOM     26  C   UNL A   1      31.765  28.182  23.364  1.00  0.00     0.009 A 
ATOM     27  C   UNL A   1      29.095  28.688  22.726  1.00  0.00     0.001 A 
ATOM     28  C   UNL A   1      31.449  29.128  22.392  1.00  0.00     0.001 A 
ATOM     29  C   UNL A   1      30.115  29.373  22.068  1.00  0.00     0.000 A 
ENDBRANCH  17  24
ENDBRANCH  11  13
ENDBRANCH  10  11
ENDBRANCH   8  10
ENDBRANCH   7   8
ENDBRANCH   6   7
ENDBRANCH   5   6
ENDBRANCH   4   5
ENDBRANCH   3   4
ENDBRANCH   2   3
ENDBRANCH   1   2
BRANCH   1  30
ATOM     30  C   UNL A   1      39.233  21.201  25.758  1.00  0.00     0.188 C 
BRANCH  30  31
ATOM     31  C   UNL A   1      40.645  21.294  26.374  1.00  0.00     0.188 C 
BRANCH  31  32
ATOM     32  O   UNL A   1      41.466  22.426  26.152  1.00  0.00    -0.376 OA
BRANCH  32  33
ATOM     33  C   UNL A   1      42.727  22.322  25.516  1.00  0.00     0.202 C 
BRANCH  33  34
ATOM     34  C   UNL A   1      43.558  23.515  24.996  1.00  0.00     0.261 C 
BRANCH  34  35
ATOM     35  O   UNL A   1      44.819  23.773  25.615  1.00  0.00    -0.460 OA
BRANCH  35  36
ATOM     36  C   UNL A   1      45.375  24.968  25.332  1.00  0.00     0.338 C 
ATOM     37  O   UNL A   1      46.067  25.248  24.364  1.00  0.00    -0.246 OA
BRANCH  36  38
ATOM     38  C   UNL A   1      44.823  25.973  26.264  1.00  0.00     0.060 A 
ATOM     39  C   UNL A   1      44.331  27.166  25.716  1.00  0.00     0.016 A 
ATOM     40  C   UNL A   1      44.767  25.747  27.643  1.00  0.00     0.016 A 
ATOM     41  C   UNL A   1      43.845  28.167  26.546  1.00  0.00     0.010 A 
ATOM     42  C   UNL A   1      44.313  26.771  28.481  1.00  0.00     0.010 A 
ATOM     43  C   UNL A   1      43.912  28.003  27.934  1.00  0.00    -0.014 A 
BRANCH  43  44
ATOM     44  C   UNL A   1      43.871  29.224  28.769  1.00  0.00     0.031 A 
ATOM     45  C   UNL A   1      45.130  30.046  28.856  1.00  0.00     0.074 A 
ATOM     46  C   UNL A   1      42.738  29.641  29.358  1.00  0.00     0.049 A 
ATOM     47  N   UNL A   1      45.339  31.182  29.463  1.00  0.00    -0.248 NA
ATOM     48  C   UNL A   1      46.314  29.511  28.158  1.00  0.00     0.031 C 
ATOM     49  C   UNL A   1      41.452  28.948  29.313  1.00  0.00     0.029 A 
ATOM     50  N   UNL A   1      42.496  30.757  30.117  1.00  0.00    -0.354 N 
ATOM     51  C   UNL A   1      46.681  31.480  29.252  1.00  0.00     0.074 A 
ATOM     52  C   UNL A   1      47.242  30.402  28.472  1.00  0.00     0.031 C 
ATOM     53  C   UNL A   1      40.557  29.648  30.031  1.00  0.00     0.029 A 
ATOM     54  C   UNL A   1      41.212  30.824  30.602  1.00  0.00     0.049 A 
ATOM     55  H   UNL A   1      43.178  31.443  30.298  1.00  0.00     0.167 HD
ATOM     56  C   UNL A   1      47.383  32.561  29.660  1.00  0.00     0.034 A 
ATOM     57  C   UNL A   1      40.643  31.729  31.423  1.00  0.00     0.034 A 
ATOM     58  C   UNL A   1      46.819  33.638  30.423  1.00  0.00     0.049 A 
ATOM     59  C   UNL A   1      41.458  32.909  31.891  1.00  0.00     0.074 A 
ATOM     60  C   UNL A   1      47.432  34.801  30.853  1.00  0.00     0.029 A 
ATOM     61  N   UNL A   1      45.513  33.676  30.887  1.00  0.00    -0.354 N 
ATOM     62  N   UNL A   1      42.695  33.230  31.598  1.00  0.00    -0.248 NA
ATOM     63  C   UNL A   1      40.781  33.873  32.772  1.00  0.00     0.031 C 
ATOM     64  C   UNL A   1      46.509  35.520  31.617  1.00  0.00     0.029 A 
ATOM     65  C   UNL A   1      45.304  34.834  31.615  1.00  0.00     0.049 A 
ATOM     66  H   UNL A   1      44.835  32.982  30.723  1.00  0.00     0.167 HD
ATOM     67  C   UNL A   1      42.929  34.456  32.216  1.00  0.00     0.074 A 
ATOM     68  C   UNL A   1      41.699  34.823  32.887  1.00  0.00     0.031 C 
ATOM     69  C   UNL A   1      44.058  35.208  32.232  1.00  0.00     0.034 A 
BRANCH  56  70
ATOM     70  C   UNL A   1      48.845  32.619  29.301  1.00  0.00     0.023 A 
ATOM     71  C   UNL A   1      49.808  32.022  30.140  1.00  0.00     0.012 A 
ATOM     72  C   UNL A   1      49.258  33.241  28.108  1.00  0.00     0.148 A 
ATOM     73  C   UNL A   1      51.163  32.077  29.814  1.00  0.00     0.002 A 
ATOM     74  C   UNL A   1      50.603  33.246  27.763  1.00  0.00     0.091 A 
ATOM     75  F   UNL A   1      48.330  33.829  27.339  1.00  0.00    -0.205 F 
ATOM     76  C   UNL A   1      51.558  32.677  28.622  1.00  0.00     0.022 A 
BRANCH  74  77
ATOM     77  S   UNL A   1      51.200  33.918  26.209  1.00  0.00     0.127 S 
ATOM     78  O   UNL A   1      52.613  33.541  26.248  1.00  0.00    -0.237 OA
ATOM     79  O   UNL A   1      50.399  33.181  25.231  1.00  0.00    -0.237 OA
ATOM     80  O   UNL A   1      50.935  35.348  26.259  1.00  0.00    -0.744 OA
ENDBRANCH  74  77
ENDBRANCH  56  70
BRANCH  57  81
ATOM     81  C   UNL A   1      39.218  31.580  31.831  1.00  0.00     0.023 A 
ATOM     82  C   UNL A   1      38.893  30.828  32.977  1.00  0.00     0.012 A 
ATOM     83  C   UNL A   1      38.183  32.175  31.084  1.00  0.00     0.148 A 
ATOM     84  C   UNL A   1      37.561  30.637  33.349  1.00  0.00     0.002 A 
ATOM     85  C   UNL A   1      36.862  32.029  31.493  1.00  0.00     0.091 A 
ATOM     86  F   UNL A   1      38.512  32.875  29.990  1.00  0.00    -0.205 F 
ATOM     87  C   UNL A   1      36.548  31.245  32.613  1.00  0.00     0.022 A 
BRANCH  85  88
ATOM     88  S   UNL A   1      35.502  32.875  30.680  1.00  0.00     0.127 S 
ATOM     89  O   UNL A   1      35.449  32.188  29.393  1.00  0.00    -0.237 OA
ATOM     90  O   UNL A   1      34.389  32.581  31.584  1.00  0.00    -0.237 OA
ATOM     91  O   UNL A   1      35.883  34.279  30.631  1.00  0.00    -0.744 OA
ENDBRANCH  85  88
ENDBRANCH  57  81
BRANCH  69  92
ATOM     92  C   UNL A   1      44.004  36.539  32.937  1.00  0.00     0.023 A 
ATOM     93  C   UNL A   1      43.643  37.706  32.236  1.00  0.00     0.012 A 
ATOM     94  C   UNL A   1      44.258  36.617  34.322  1.00  0.00     0.148 A 
ATOM     95  C   UNL A   1      43.584  38.937  32.890  1.00  0.00     0.002 A 
ATOM     96  C   UNL A   1      44.139  37.835  34.979  1.00  0.00     0.091 A 
ATOM     97  F   UNL A   1      44.614  35.499  34.972  1.00  0.00    -0.205 F 
ATOM     98  C   UNL A   1      43.820  38.999  34.263  1.00  0.00     0.022 A 
BRANCH  96  99
ATOM     99  S   UNL A   1      44.322  37.988  36.759  1.00  0.00     0.127 S 
ATOM    100  O   UNL A   1      44.171  39.429  36.952  1.00  0.00    -0.237 OA
ATOM    101  O   UNL A   1      43.203  37.185  37.255  1.00  0.00    -0.237 OA
ATOM    102  O   UNL A   1      45.638  37.449  37.076  1.00  0.00    -0.744 OA
ENDBRANCH  96  99
ENDBRANCH  69  92
ENDBRANCH  43  44
ENDBRANCH  36  38
ENDBRANCH  35  36
ENDBRANCH  34  35
ENDBRANCH  33  34
ENDBRANCH  32  33
ENDBRANCH  31  32
ENDBRANCH  30  31
ENDBRANCH   1  30
TORSDOF 27
ENDMDL
MODEL 3
REMARK VINA RESULT:      -8.2      3.940      5.495
REMARK SMILES O=C(CNc1nc(-c2ccccc2)c(-c2ccccc2)s1)OCCOCCOCCOCCOC(=O)c1ccc(-c2c3nc(c(-c4cccc(S(=O)(=O)[O-])c4F)c4ccc([nH]4)c(-c4cccc(S(=O)(=O)[O-])c4F)c4nc(c(-c5cccc(S(=O)(=O)[O-])c5F)c5ccc2[nH]5)C=C4)C=C3)cc1
REMARK SMILES IDX 28 1 27 2 26 3 25 4 24 5 23 6 22 7 2 8 1 9 3 10 4 11 5 13
REMARK SMILES IDX 6 14 21 15 7 16 14 17 8 18 9 19 13 20 10 21 12 22 11 23
REMARK SMILES IDX 15 24 16 25 20 26 17 27 19 28 18 29 29 30 30 31 31 32 32 33
REMARK SMILES IDX 33 34 34 35 35 36 36 37 37 38 38 39 99 40 39 41 98 42 40 43
REMARK SMILES IDX 41 44 42 45 92 46 43 47 97 48 91 49 93 50 44 51 96 52 90 53
REMARK SMILES IDX 89 54 45 56 77 57 57 58 76 59 58 60 61 61 75 62 94 63 59 64
REMARK SMILES IDX 60 65 74 67 95 68 62 69 46 70 47 71 55 72 48 73 50 74 56 75
REMARK SMILES IDX 49 76 51 77 52 78 53 79 54 80 78 81 79 82 87 83 80 84 82 85
REMARK SMILES IDX 88 86 81 87 83 88 84 89 85 90 86 91 63 92 64 93 72 94 65 95
REMARK SMILES IDX 67 96 73 97 66 98 68 99 69 100 70 101 71 102
REMARK H PARENT 4 12 93 55 61 66
REMARK Flexibility Score: inf
ROOT
ATOM      1  O   UNL A   1      38.215  21.952  26.350  1.00  0.00    -0.377 OA
ENDROOT
BRANCH   1   2
ATOM      2  C   UNL A   1      37.897  23.149  25.663  1.00  0.00     0.188 C 
BRANCH   2   3
ATOM      3  C   UNL A   1      36.533  23.777  25.952  1.00  0.00     0.188 C 
BRANCH   3   4
ATOM      4  O   UNL A   1      35.590  23.981  24.919  1.00  0.00    -0.376 OA
BRANCH   4   5
ATOM      5  C   UNL A   1      35.573  23.378  23.644  1.00  0.00     0.202 C 
BRANCH   5   6
ATOM      6  C   UNL A   1      34.302  22.899  22.962  1.00  0.00     0.261 C 
BRANCH   6   7
ATOM      7  O   UNL A   1      33.456  21.973  23.653  1.00  0.00    -0.462 OA
BRANCH   7   8
ATOM      8  C   UNL A   1      32.187  21.620  23.354  1.00  0.00     0.325 C 
ATOM      9  O   UNL A   1      31.994  20.842  22.419  1.00  0.00    -0.250 OA
BRANCH   8  10
ATOM     10  C   UNL A   1      31.016  22.230  24.116  1.00  0.00     0.238 C 
BRANCH  10  11
ATOM     11  N   UNL A   1      31.456  23.153  25.141  1.00  0.00    -0.351 N 
ATOM     12  H   UNL A   1      31.747  22.802  26.013  1.00  0.00     0.163 HD
BRANCH  11  13
ATOM     13  C   UNL A   1      31.476  24.482  24.926  1.00  0.00     0.184 A 
ATOM     14  N   UNL A   1      32.124  25.387  25.626  1.00  0.00    -0.220 NA
ATOM     15  S   UNL A   1      30.471  25.097  23.682  1.00  0.00    -0.096 S 
ATOM     16  C   UNL A   1      31.734  26.666  25.232  1.00  0.00     0.091 A 
ATOM     17  C   UNL A   1      30.796  26.692  24.210  1.00  0.00     0.064 A 
BRANCH  16  18
ATOM     18  C   UNL A   1      32.344  27.880  25.772  1.00  0.00     0.002 A 
ATOM     19  C   UNL A   1      33.639  28.280  25.405  1.00  0.00     0.010 A 
ATOM     20  C   UNL A   1      31.684  28.582  26.789  1.00  0.00     0.010 A 
ATOM     21  C   UNL A   1      34.293  29.300  26.103  1.00  0.00     0.001 A 
ATOM     22  C   UNL A   1      32.340  29.602  27.486  1.00  0.00     0.001 A 
ATOM     23  C   UNL A   1      33.650  29.945  27.158  1.00  0.00     0.000 A 
ENDBRANCH  16  18
BRANCH  17  24
ATOM     24  C   UNL A   1      30.183  27.790  23.480  1.00  0.00    -0.006 A 
ATOM     25  C   UNL A   1      28.793  27.967  23.482  1.00  0.00     0.009 A 
ATOM     26  C   UNL A   1      30.991  28.657  22.736  1.00  0.00     0.009 A 
ATOM     27  C   UNL A   1      28.219  28.985  22.721  1.00  0.00     0.001 A 
ATOM     28  C   UNL A   1      30.415  29.670  21.975  1.00  0.00     0.001 A 
ATOM     29  C   UNL A   1      29.030  29.828  21.961  1.00  0.00     0.000 A 
ENDBRANCH  17  24
ENDBRANCH  11  13
ENDBRANCH  10  11
ENDBRANCH   8  10
ENDBRANCH   7   8
ENDBRANCH   6   7
ENDBRANCH   5   6
ENDBRANCH   4   5
ENDBRANCH   3   4
ENDBRANCH   2   3
ENDBRANCH   1   2
BRANCH   1  30
ATOM     30  C   UNL A   1      39.187  21.150  25.709  1.00  0.00     0.188 C 
BRANCH  30  31
ATOM     31  C   UNL A   1      40.600  21.281  26.316  1.00  0.00     0.188 C 
BRANCH  31  32
ATOM     32  O   UNL A   1      41.363  22.461  26.143  1.00  0.00    -0.376 OA
BRANCH  32  33
ATOM     33  C   UNL A   1      42.644  22.442  25.539  1.00  0.00     0.202 C 
BRANCH  33  34
ATOM     34  C   UNL A   1      43.469  23.694  25.169  1.00  0.00     0.261 C 
BRANCH  34  35
ATOM     35  O   UNL A   1      44.760  23.844  25.760  1.00  0.00    -0.460 OA
BRANCH  35  36
ATOM     36  C   UNL A   1      45.535  24.815  25.235  1.00  0.00     0.338 C 
ATOM     37  O   UNL A   1      46.230  24.740  24.231  1.00  0.00    -0.246 OA
BRANCH  36  38
ATOM     38  C   UNL A   1      45.233  26.081  25.932  1.00  0.00     0.060 A 
ATOM     39  C   UNL A   1      46.267  26.684  26.662  1.00  0.00     0.016 A 
ATOM     40  C   UNL A   1      43.971  26.680  25.860  1.00  0.00     0.016 A 
ATOM     41  C   UNL A   1      46.030  27.849  27.378  1.00  0.00     0.010 A 
ATOM     42  C   UNL A   1      43.722  27.832  26.612  1.00  0.00     0.010 A 
ATOM     43  C   UNL A   1      44.736  28.379  27.420  1.00  0.00    -0.014 A 
BRANCH  43  44
ATOM     44  C   UNL A   1      44.403  29.280  28.546  1.00  0.00     0.031 A 
ATOM     45  C   UNL A   1      44.324  28.670  29.921  1.00  0.00     0.074 A 
ATOM     46  C   UNL A   1      44.261  30.605  28.374  1.00  0.00     0.049 A 
ATOM     47  N   UNL A   1      44.115  29.246  31.073  1.00  0.00    -0.248 NA
ATOM     48  C   UNL A   1      44.513  27.210  30.005  1.00  0.00     0.031 C 
ATOM     49  C   UNL A   1      44.351  31.310  27.098  1.00  0.00     0.029 A 
ATOM     50  N   UNL A   1      44.005  31.592  29.291  1.00  0.00    -0.354 N 
ATOM     51  C   UNL A   1      44.110  28.219  32.011  1.00  0.00     0.074 A 
ATOM     52  C   UNL A   1      44.326  26.984  31.295  1.00  0.00     0.031 C 
ATOM     53  C   UNL A   1      44.136  32.620  27.310  1.00  0.00     0.029 A 
ATOM     54  C   UNL A   1      43.873  32.840  28.732  1.00  0.00     0.049 A 
ATOM     55  H   UNL A   1      43.924  31.422  30.257  1.00  0.00     0.167 HD
ATOM     56  C   UNL A   1      43.952  28.297  33.352  1.00  0.00     0.034 A 
ATOM     57  C   UNL A   1      43.561  34.018  29.308  1.00  0.00     0.034 A 
ATOM     58  C   UNL A   1      43.753  29.529  34.062  1.00  0.00     0.049 A 
ATOM     59  C   UNL A   1      43.359  34.073  30.802  1.00  0.00     0.074 A 
ATOM     60  C   UNL A   1      43.623  29.724  35.425  1.00  0.00     0.029 A 
ATOM     61  N   UNL A   1      43.633  30.774  33.463  1.00  0.00    -0.354 N 
ATOM     62  N   UNL A   1      43.460  33.111  31.688  1.00  0.00    -0.248 NA
ATOM     63  C   UNL A   1      43.037  35.386  31.379  1.00  0.00     0.031 C 
ATOM     64  C   UNL A   1      43.378  31.083  35.646  1.00  0.00     0.029 A 
ATOM     65  C   UNL A   1      43.414  31.742  34.427  1.00  0.00     0.049 A 
ATOM     66  H   UNL A   1      43.696  30.944  32.496  1.00  0.00     0.167 HD
ATOM     67  C   UNL A   1      43.265  33.711  32.929  1.00  0.00     0.074 A 
ATOM     68  C   UNL A   1      43.053  35.122  32.678  1.00  0.00     0.031 C 
ATOM     69  C   UNL A   1      43.257  33.149  34.163  1.00  0.00     0.034 A 
BRANCH  56  70
ATOM     70  C   UNL A   1      43.974  27.010  34.133  1.00  0.00     0.023 A 
ATOM     71  C   UNL A   1      42.769  26.349  34.449  1.00  0.00     0.012 A 
ATOM     72  C   UNL A   1      45.199  26.438  34.524  1.00  0.00     0.148 A 
ATOM     73  C   UNL A   1      42.783  25.159  35.175  1.00  0.00     0.002 A 
ATOM     74  C   UNL A   1      45.208  25.225  35.201  1.00  0.00     0.091 A 
ATOM     75  F   UNL A   1      46.332  27.096  34.240  1.00  0.00    -0.205 F 
ATOM     76  C   UNL A   1      44.002  24.592  35.540  1.00  0.00     0.022 A 
BRANCH  74  77
ATOM     77  S   UNL A   1      46.727  24.374  35.637  1.00  0.00     0.127 S 
ATOM     78  O   UNL A   1      47.424  24.336  34.352  1.00  0.00    -0.237 OA
ATOM     79  O   UNL A   1      47.314  25.283  36.622  1.00  0.00    -0.237 OA
ATOM     80  O   UNL A   1      46.327  23.078  36.168  1.00  0.00    -0.744 OA
ENDBRANCH  74  77
ENDBRANCH  56  70
BRANCH  57  81
ATOM     81  C   UNL A   1      43.456  35.253  28.482  1.00  0.00     0.023 A 
ATOM     82  C   UNL A   1      42.208  35.636  27.952  1.00  0.00     0.012 A 
ATOM     83  C   UNL A   1      44.588  36.046  28.213  1.00  0.00     0.148 A 
ATOM     84  C   UNL A   1      42.097  36.764  27.136  1.00  0.00     0.002 A 
ATOM     85  C   UNL A   1      44.461  37.199  27.448  1.00  0.00     0.091 A 
ATOM     86  F   UNL A   1      45.769  35.657  28.715  1.00  0.00    -0.205 F 
ATOM     87  C   UNL A   1      43.221  37.549  26.892  1.00  0.00     0.022 A 
BRANCH  85  88
ATOM     88  S   UNL A   1      45.824  38.337  27.182  1.00  0.00     0.127 S 
ATOM     89  O   UNL A   1      46.015  38.891  28.520  1.00  0.00    -0.237 OA
ATOM     90  O   UNL A   1      46.883  37.432  26.732  1.00  0.00    -0.237 OA
ATOM     91  O   UNL A   1      45.364  39.276  26.171  1.00  0.00    -0.744 OA
ENDBRANCH  85  88
ENDBRANCH  57  81
BRANCH  69  92
ATOM     92  C   UNL A   1      43.083  34.063  35.349  1.00  0.00     0.023 A 
ATOM     93  C   UNL A   1      44.205  34.556  36.043  1.00  0.00     0.012 A 
ATOM     94  C   UNL A   1      41.794  34.479  35.739  1.00  0.00     0.148 A 
ATOM     95  C   UNL A   1      44.045  35.410  37.135  1.00  0.00     0.002 A 
ATOM     96  C   UNL A   1      41.644  35.375  36.790  1.00  0.00     0.091 A 
ATOM     97  F   UNL A   1      40.735  33.988  35.077  1.00  0.00    -0.205 F 
ATOM     98  C   UNL A   1      42.767  35.828  37.500  1.00  0.00     0.022 A 
BRANCH  96  99
ATOM     99  S   UNL A   1      40.047  36.047  37.259  1.00  0.00     0.127 S 
ATOM    100  O   UNL A   1      40.410  36.945  38.353  1.00  0.00    -0.237 OA
ATOM    101  O   UNL A   1      39.622  36.722  36.032  1.00  0.00    -0.237 OA
ATOM    102  O   UNL A   1      39.224  34.905  37.633  1.00  0.00    -0.744 OA
ENDBRANCH  96  99
ENDBRANCH  69  92
ENDBRANCH  43  44
ENDBRANCH  36  38
ENDBRANCH  35  36
ENDBRANCH  34  35
ENDBRANCH  33  34
ENDBRANCH  32  33
ENDBRANCH  31  32
ENDBRANCH  30  31
ENDBRANCH   1  30
TORSDOF 27
ENDMDL
