MODEL 1
REMARK VINA RESULT:     -10.2      0.000      0.000
REMARK SMILES O=C(OCCOCCOCCOCCOC(=O)c1ccc(-c2c3nc(c(-c4cccc(S(=O)(=O)[O-])c4F)c4ccc([nH]4)c(-c4cccc(S(=O)(=O)[O-])c4F)c4nc(c(-c5cccc(S(=O)(=O)[O-])c5F)c5ccc2[nH]5)C=C4)C=C3)cc1)C1=Cc2cc(S(F)(F)(F)(F)F)ccc2O[C@@H]1C(F)(F)F
REMARK SMILES IDX 10 1 9 2 8 3 7 4 6 5 5 6 4 7 3 8 2 9 1 10 81 11 82 12 96 13
REMARK SMILES IDX 83 14 95 15 84 16 94 17 85 18 93 19 92 20 97 21 98 22 99 23
REMARK SMILES IDX 100 24 86 25 87 26 88 27 89 28 90 29 91 30 11 31 12 32 13 33
REMARK SMILES IDX 14 34 15 35 16 36 17 37 18 38 19 39 80 40 20 41 79 42 21 43
REMARK SMILES IDX 22 44 23 45 73 46 24 47 78 48 72 49 74 50 25 51 77 52 71 53
REMARK SMILES IDX 70 54 26 56 58 57 38 58 57 59 39 60 42 61 56 62 75 63 40 64
REMARK SMILES IDX 41 65 55 67 76 68 43 69 27 70 28 71 36 72 29 73 31 74 37 75
REMARK SMILES IDX 30 76 32 77 33 78 34 79 35 80 59 81 60 82 68 83 61 84 63 85
REMARK SMILES IDX 69 86 62 87 64 88 65 89 66 90 67 91 44 92 45 93 53 94 46 95
REMARK SMILES IDX 48 96 54 97 47 98 49 99 50 100 51 101 52 102
REMARK H PARENT 74 55 42 66
REMARK Flexibility Score: inf
ROOT
ATOM      1  C   UNL A   1      34.043  33.685  29.379  1.00  0.00     0.188 C 
ENDROOT
BRANCH   1   2
ATOM      2  O   UNL A   1      35.305  33.308  28.848  1.00  0.00    -0.377 OA
BRANCH   2   3
ATOM      3  C   UNL A   1      35.123  32.294  27.871  1.00  0.00     0.188 C 
BRANCH   3   4
ATOM      4  C   UNL A   1      36.258  31.288  27.967  1.00  0.00     0.188 C 
BRANCH   4   5
ATOM      5  O   UNL A   1      35.721  29.975  28.047  1.00  0.00    -0.376 OA
BRANCH   5   6
ATOM      6  C   UNL A   1      34.403  29.970  27.520  1.00  0.00     0.202 C 
BRANCH   6   7
ATOM      7  C   UNL A   1      34.220  28.755  26.626  1.00  0.00     0.261 C 
BRANCH   7   8
ATOM      8  O   UNL A   1      33.267  27.878  27.208  1.00  0.00    -0.460 OA
BRANCH   8   9
ATOM      9  C   UNL A   1      32.014  27.672  26.576  1.00  0.00     0.338 C 
ATOM     10  O   UNL A   1      30.967  27.509  27.279  1.00  0.00    -0.246 OA
BRANCH   9  11
ATOM     11  C   UNL A   1      31.922  27.645  25.060  1.00  0.00     0.087 C 
ATOM     12  C   UNL A   1      32.463  26.609  24.364  1.00  0.00     0.027 C 
ATOM     13  C   UNL A   1      31.225  28.775  24.320  1.00  0.00     0.316 C 
ATOM     14  C   UNL A   1      33.159  25.478  25.103  1.00  0.00     0.019 A 
ATOM     15  O   UNL A   1      31.444  25.605  26.744  1.00  0.00    -0.475 OA
ATOM     16  C   UNL A   1      34.355  24.973  24.619  1.00  0.00     0.036 A 
ATOM     17  C   UNL A   1      32.581  24.964  26.182  1.00  0.00     0.128 A 
ATOM     18  C   UNL A   1      34.720  23.726  25.179  1.00  0.00     0.107 A 
ATOM     19  C   UNL A   1      33.072  23.818  26.760  1.00  0.00     0.048 A 
ATOM     20  C   UNL A   1      34.216  23.232  26.296  1.00  0.00     0.028 A 
BRANCH  13  21
ATOM     21  C   UNL A   1      30.056  28.217  23.525  1.00  0.00     0.430 C 
ATOM     22  F   UNL A   1      29.528  27.185  24.179  1.00  0.00    -0.167 F 
ATOM     23  F   UNL A   1      29.134  29.162  23.369  1.00  0.00    -0.167 F 
ATOM     24  F   UNL A   1      30.484  27.814  22.332  1.00  0.00    -0.167 F 
ENDBRANCH  13  21
BRANCH  18  25
ATOM     25  S   UNL A   1      35.961  22.741  24.307  1.00  0.00     0.310 S 
ATOM     26  F   UNL A   1      36.519  22.130  25.660  1.00  0.00    -0.094 F 
ATOM     27  F   UNL A   1      36.988  23.921  24.496  1.00  0.00    -0.094 F 
ATOM     28  F   UNL A   1      37.029  21.896  23.556  1.00  0.00    -0.094 F 
ATOM     29  F   UNL A   1      34.965  21.518  24.250  1.00  0.00    -0.094 F 
ATOM     30  F   UNL A   1      34.904  23.544  25.165  1.00  0.00    -0.094 F 
ENDBRANCH  18  25
ENDBRANCH   9  11
ENDBRANCH   8   9
ENDBRANCH   7   8
ENDBRANCH   6   7
ENDBRANCH   5   6
ENDBRANCH   4   5
ENDBRANCH   3   4
ENDBRANCH   2   3
ENDBRANCH   1   2
BRANCH   1  31
ATOM     31  C   UNL A   1      34.245  34.695  30.498  1.00  0.00     0.188 C 
BRANCH  31  32
ATOM     32  O   UNL A   1      35.275  34.242  31.364  1.00  0.00    -0.376 OA
BRANCH  32  33
ATOM     33  C   UNL A   1      34.740  33.301  32.283  1.00  0.00     0.202 C 
BRANCH  33  34
ATOM     34  C   UNL A   1      35.644  32.079  32.340  1.00  0.00     0.261 C 
BRANCH  34  35
ATOM     35  O   UNL A   1      36.556  32.215  33.420  1.00  0.00    -0.460 OA
BRANCH  35  36
ATOM     36  C   UNL A   1      37.722  33.012  33.268  1.00  0.00     0.338 C 
ATOM     37  O   UNL A   1      37.808  34.132  33.864  1.00  0.00    -0.246 OA
BRANCH  36  38
ATOM     38  C   UNL A   1      38.866  32.526  32.394  1.00  0.00     0.060 A 
ATOM     39  C   UNL A   1      38.942  32.932  31.071  1.00  0.00     0.016 A 
ATOM     40  C   UNL A   1      39.735  31.658  32.899  1.00  0.00     0.016 A 
ATOM     41  C   UNL A   1      39.803  32.140  30.277  1.00  0.00     0.010 A 
ATOM     42  C   UNL A   1      40.640  31.021  32.085  1.00  0.00     0.010 A 
ATOM     43  C   UNL A   1      40.731  31.331  30.757  1.00  0.00    -0.014 A 
BRANCH  43  44
ATOM     44  C   UNL A   1      41.839  30.772  29.878  1.00  0.00     0.031 A 
ATOM     45  C   UNL A   1      43.015  31.514  29.769  1.00  0.00     0.074 A 
ATOM     46  C   UNL A   1      41.641  29.541  29.277  1.00  0.00     0.049 A 
ATOM     47  N   UNL A   1      44.133  31.177  29.122  1.00  0.00    -0.248 NA
ATOM     48  C   UNL A   1      43.215  32.837  30.378  1.00  0.00     0.031 C 
ATOM     49  C   UNL A   1      40.460  28.781  29.389  1.00  0.00     0.029 A 
ATOM     50  N   UNL A   1      42.519  28.838  28.481  1.00  0.00    -0.354 N 
ATOM     51  C   UNL A   1      45.051  32.137  29.258  1.00  0.00     0.074 A 
ATOM     52  C   UNL A   1      44.471  33.221  30.064  1.00  0.00     0.031 C 
ATOM     53  C   UNL A   1      40.619  27.644  28.662  1.00  0.00     0.029 A 
ATOM     54  C   UNL A   1      41.902  27.672  28.084  1.00  0.00     0.049 A 
ATOM     55  H   UNL A   1      43.430  29.121  28.238  1.00  0.00     0.167 HD
ATOM     56  C   UNL A   1      46.349  32.148  28.746  1.00  0.00     0.034 A 
ATOM     57  C   UNL A   1      42.412  26.680  27.263  1.00  0.00     0.034 A 
ATOM     58  C   UNL A   1      46.874  31.134  27.961  1.00  0.00     0.049 A 
ATOM     59  C   UNL A   1      43.691  26.718  26.702  1.00  0.00     0.074 A 
ATOM     60  C   UNL A   1      48.183  31.127  27.442  1.00  0.00     0.029 A 
ATOM     61  N   UNL A   1      46.249  29.981  27.544  1.00  0.00    -0.354 N 
ATOM     62  N   UNL A   1      44.622  27.658  26.871  1.00  0.00    -0.248 NA
ATOM     63  C   UNL A   1      44.230  25.687  25.804  1.00  0.00     0.031 C 
ATOM     64  C   UNL A   1      48.342  29.990  26.715  1.00  0.00     0.029 A 
ATOM     65  C   UNL A   1      47.135  29.267  26.767  1.00  0.00     0.049 A 
ATOM     66  H   UNL A   1      45.328  29.711  27.764  1.00  0.00     0.167 HD
ATOM     67  C   UNL A   1      45.724  27.340  26.190  1.00  0.00     0.074 A 
ATOM     68  C   UNL A   1      45.486  26.072  25.488  1.00  0.00     0.031 C 
ATOM     69  C   UNL A   1      46.922  28.056  26.129  1.00  0.00     0.034 A 
BRANCH  56  70
ATOM     70  C   UNL A   1      47.236  33.340  29.066  1.00  0.00     0.023 A 
ATOM     71  C   UNL A   1      47.272  34.411  28.188  1.00  0.00     0.012 A 
ATOM     72  C   UNL A   1      47.983  33.324  30.164  1.00  0.00     0.148 A 
ATOM     73  C   UNL A   1      48.352  35.298  28.410  1.00  0.00     0.002 A 
ATOM     74  C   UNL A   1      48.927  34.299  30.382  1.00  0.00     0.091 A 
ATOM     75  F   UNL A   1      47.817  32.356  31.061  1.00  0.00    -0.205 F 
ATOM     76  C   UNL A   1      49.058  35.355  29.524  1.00  0.00     0.022 A 
BRANCH  74  77
ATOM     77  S   UNL A   1      50.013  34.181  31.825  1.00  0.00     0.127 S 
ATOM     78  O   UNL A   1      50.778  32.855  31.782  1.00  0.00    -0.237 OA
ATOM     79  O   UNL A   1      51.009  35.344  31.809  1.00  0.00    -0.237 OA
ATOM     80  O   UNL A   1      49.075  34.253  33.252  1.00  0.00    -0.744 OA
ENDBRANCH  74  77
ENDBRANCH  56  70
BRANCH  57  81
ATOM     81  C   UNL A   1      41.531  25.479  26.957  1.00  0.00     0.023 A 
ATOM     82  C   UNL A   1      40.262  25.715  26.456  1.00  0.00     0.012 A 
ATOM     83  C   UNL A   1      41.974  24.243  27.159  1.00  0.00     0.148 A 
ATOM     84  C   UNL A   1      39.420  24.578  26.470  1.00  0.00     0.002 A 
ATOM     85  C   UNL A   1      41.130  23.168  27.023  1.00  0.00     0.091 A 
ATOM     86  F   UNL A   1      43.245  24.046  27.497  1.00  0.00    -0.205 F 
ATOM     87  C   UNL A   1      39.845  23.333  26.589  1.00  0.00     0.022 A 
BRANCH  85  88
ATOM     88  S   UNL A   1      41.729  21.507  27.424  1.00  0.00     0.127 S 
ATOM     89  O   UNL A   1      40.544  20.611  27.789  1.00  0.00    -0.237 OA
ATOM     90  O   UNL A   1      42.458  20.921  26.213  1.00  0.00    -0.237 OA
ATOM     91  O   UNL A   1      42.807  21.594  28.750  1.00  0.00    -0.744 OA
ENDBRANCH  85  88
ENDBRANCH  57  81
BRANCH  69  92
ATOM     92  C   UNL A   1      48.062  27.469  25.312  1.00  0.00     0.023 A 
ATOM     93  C   UNL A   1      49.085  26.790  25.951  1.00  0.00     0.012 A 
ATOM     94  C   UNL A   1      48.075  27.656  23.997  1.00  0.00     0.148 A 
ATOM     95  C   UNL A   1      50.234  26.595  25.148  1.00  0.00     0.002 A 
ATOM     96  C   UNL A   1      49.180  27.318  23.253  1.00  0.00     0.091 A 
ATOM     97  F   UNL A   1      47.011  28.177  23.394  1.00  0.00    -0.205 F 
ATOM     98  C   UNL A   1      50.253  26.696  23.831  1.00  0.00     0.022 A 
BRANCH  96  99
ATOM     99  S   UNL A   1      49.215  27.697  21.484  1.00  0.00     0.127 S 
ATOM    100  O   UNL A   1      48.045  26.997  20.789  1.00  0.00    -0.237 OA
ATOM    101  O   UNL A   1      49.097  29.210  21.284  1.00  0.00    -0.237 OA
ATOM    102  O   UNL A   1      50.689  27.147  20.813  1.00  0.00    -0.744 OA
ENDBRANCH  96  99
ENDBRANCH  69  92
ENDBRANCH  43  44
ENDBRANCH  36  38
ENDBRANCH  35  36
ENDBRANCH  34  35
ENDBRANCH  33  34
ENDBRANCH  32  33
ENDBRANCH  31  32
ENDBRANCH   1  31
TORSDOF 25
ENDMDL
MODEL 2
REMARK VINA RESULT:     -10.0      3.710      9.100
REMARK SMILES O=C(OCCOCCOCCOCCOC(=O)c1ccc(-c2c3nc(c(-c4cccc(S(=O)(=O)[O-])c4F)c4ccc([nH]4)c(-c4cccc(S(=O)(=O)[O-])c4F)c4nc(c(-c5cccc(S(=O)(=O)[O-])c5F)c5ccc2[nH]5)C=C4)C=C3)cc1)C1=Cc2cc(S(F)(F)(F)(F)F)ccc2O[C@@H]1C(F)(F)F
REMARK SMILES IDX 10 1 9 2 8 3 7 4 6 5 5 6 4 7 3 8 2 9 1 10 81 11 82 12 96 13
REMARK SMILES IDX 83 14 95 15 84 16 94 17 85 18 93 19 92 20 97 21 98 22 99 23
REMARK SMILES IDX 100 24 86 25 87 26 88 27 89 28 90 29 91 30 11 31 12 32 13 33
REMARK SMILES IDX 14 34 15 35 16 36 17 37 18 38 19 39 80 40 20 41 79 42 21 43
REMARK SMILES IDX 22 44 23 45 73 46 24 47 78 48 72 49 74 50 25 51 77 52 71 53
REMARK SMILES IDX 70 54 26 56 58 57 38 58 57 59 39 60 42 61 56 62 75 63 40 64
REMARK SMILES IDX 41 65 55 67 76 68 43 69 27 70 28 71 36 72 29 73 31 74 37 75
REMARK SMILES IDX 30 76 32 77 33 78 34 79 35 80 59 81 60 82 68 83 61 84 63 85
REMARK SMILES IDX 69 86 62 87 64 88 65 89 66 90 67 91 44 92 45 93 53 94 46 95
REMARK SMILES IDX 48 96 54 97 47 98 49 99 50 100 51 101 52 102
REMARK H PARENT 74 55 42 66
REMARK Flexibility Score: inf
ROOT
ATOM      1  C   UNL A   1      42.237  19.880  27.073  1.00  0.00     0.188 C 
ENDROOT
BRANCH   1   2
ATOM      2  O   UNL A   1      42.008  21.032  26.275  1.00  0.00    -0.377 OA
BRANCH   2   3
ATOM      3  C   UNL A   1      40.627  21.359  26.301  1.00  0.00     0.188 C 
BRANCH   3   4
ATOM      4  C   UNL A   1      40.456  22.801  26.749  1.00  0.00     0.188 C 
BRANCH   4   5
ATOM      5  O   UNL A   1      39.098  23.033  27.094  1.00  0.00    -0.376 OA
BRANCH   5   6
ATOM      6  C   UNL A   1      38.453  23.725  26.036  1.00  0.00     0.202 C 
BRANCH   6   7
ATOM      7  C   UNL A   1      37.013  23.251  25.925  1.00  0.00     0.261 C 
BRANCH   7   8
ATOM      8  O   UNL A   1      36.408  23.838  24.782  1.00  0.00    -0.460 OA
BRANCH   8   9
ATOM      9  C   UNL A   1      35.510  23.079  23.987  1.00  0.00     0.338 C 
ATOM     10  O   UNL A   1      35.727  22.939  22.743  1.00  0.00    -0.246 OA
BRANCH   9  11
ATOM     11  C   UNL A   1      34.289  22.435  24.622  1.00  0.00     0.087 C 
ATOM     12  C   UNL A   1      33.301  23.214  25.140  1.00  0.00     0.027 C 
ATOM     13  C   UNL A   1      34.171  20.921  24.679  1.00  0.00     0.316 C 
ATOM     14  C   UNL A   1      33.418  24.728  25.084  1.00  0.00     0.019 A 
ATOM     15  O   UNL A   1      34.315  24.495  22.895  1.00  0.00    -0.475 OA
ATOM     16  C   UNL A   1      33.070  25.487  26.190  1.00  0.00     0.036 A 
ATOM     17  C   UNL A   1      33.813  25.300  23.953  1.00  0.00     0.128 A 
ATOM     18  C   UNL A   1      32.894  26.862  25.908  1.00  0.00     0.107 A 
ATOM     19  C   UNL A   1      33.742  26.663  23.795  1.00  0.00     0.048 A 
ATOM     20  C   UNL A   1      33.350  27.470  24.827  1.00  0.00     0.028 A 
BRANCH  13  21
ATOM     21  C   UNL A   1      32.925  20.480  23.927  1.00  0.00     0.430 C 
ATOM     22  F   UNL A   1      32.828  21.165  22.791  1.00  0.00    -0.167 F 
ATOM     23  F   UNL A   1      33.006  19.181  23.657  1.00  0.00    -0.167 F 
ATOM     24  F   UNL A   1      31.852  20.711  24.678  1.00  0.00    -0.167 F 
ENDBRANCH  13  21
BRANCH  18  25
ATOM     25  S   UNL A   1      31.984  27.858  27.113  1.00  0.00     0.310 S 
ATOM     26  F   UNL A   1      31.908  29.097  26.126  1.00  0.00    -0.094 F 
ATOM     27  F   UNL A   1      33.355  28.439  27.627  1.00  0.00    -0.094 F 
ATOM     28  F   UNL A   1      31.201  28.714  28.150  1.00  0.00    -0.094 F 
ATOM     29  F   UNL A   1      30.615  27.373  26.493  1.00  0.00    -0.094 F 
ATOM     30  F   UNL A   1      32.758  27.070  25.983  1.00  0.00    -0.094 F 
ENDBRANCH  18  25
ENDBRANCH   9  11
ENDBRANCH   8   9
ENDBRANCH   7   8
ENDBRANCH   6   7
ENDBRANCH   5   6
ENDBRANCH   4   5
ENDBRANCH   3   4
ENDBRANCH   2   3
ENDBRANCH   1   2
BRANCH   1  31
ATOM     31  C   UNL A   1      42.526  18.689  26.173  1.00  0.00     0.188 C 
BRANCH  31  32
ATOM     32  O   UNL A   1      43.483  19.059  25.191  1.00  0.00    -0.376 OA
BRANCH  32  33
ATOM     33  C   UNL A   1      44.749  18.516  25.536  1.00  0.00     0.202 C 
BRANCH  33  34
ATOM     34  C   UNL A   1      45.845  19.490  25.134  1.00  0.00     0.261 C 
BRANCH  34  35
ATOM     35  O   UNL A   1      45.612  20.747  25.753  1.00  0.00    -0.460 OA
BRANCH  35  36
ATOM     36  C   UNL A   1      45.140  21.842  24.981  1.00  0.00     0.338 C 
ATOM     37  O   UNL A   1      44.819  21.669  23.762  1.00  0.00    -0.246 OA
BRANCH  36  38
ATOM     38  C   UNL A   1      45.018  23.219  25.612  1.00  0.00     0.060 A 
ATOM     39  C   UNL A   1      44.596  24.293  24.845  1.00  0.00     0.016 A 
ATOM     40  C   UNL A   1      45.392  23.380  26.876  1.00  0.00     0.016 A 
ATOM     41  C   UNL A   1      44.879  25.554  25.420  1.00  0.00     0.010 A 
ATOM     42  C   UNL A   1      45.516  24.639  27.414  1.00  0.00     0.010 A 
ATOM     43  C   UNL A   1      45.172  25.748  26.693  1.00  0.00    -0.014 A 
BRANCH  43  44
ATOM     44  C   UNL A   1      45.132  27.131  27.323  1.00  0.00     0.031 A 
ATOM     45  C   UNL A   1      46.328  27.847  27.391  1.00  0.00     0.074 A 
ATOM     46  C   UNL A   1      43.910  27.623  27.748  1.00  0.00     0.049 A 
ATOM     47  N   UNL A   1      46.505  29.095  27.827  1.00  0.00    -0.248 NA
ATOM     48  C   UNL A   1      47.633  27.314  26.973  1.00  0.00     0.031 C 
ATOM     49  C   UNL A   1      42.697  26.910  27.674  1.00  0.00     0.029 A 
ATOM     50  N   UNL A   1      43.641  28.854  28.304  1.00  0.00    -0.354 N 
ATOM     51  C   UNL A   1      47.790  29.442  27.722  1.00  0.00     0.074 A 
ATOM     52  C   UNL A   1      48.534  28.299  27.176  1.00  0.00     0.031 C 
ATOM     53  C   UNL A   1      41.714  27.695  28.190  1.00  0.00     0.029 A 
ATOM     54  C   UNL A   1      42.295  28.912  28.594  1.00  0.00     0.049 A 
ATOM     55  H   UNL A   1      44.298  29.569  28.468  1.00  0.00     0.167 HD
ATOM     56  C   UNL A   1      48.368  30.667  28.056  1.00  0.00     0.034 A 
ATOM     57  C   UNL A   1      41.598  29.957  29.178  1.00  0.00     0.034 A 
ATOM     58  C   UNL A   1      47.661  31.728  28.600  1.00  0.00     0.049 A 
ATOM     59  C   UNL A   1      42.188  31.162  29.566  1.00  0.00     0.074 A 
ATOM     60  C   UNL A   1      48.228  32.972  28.937  1.00  0.00     0.029 A 
ATOM     61  N   UNL A   1      46.321  31.777  28.912  1.00  0.00    -0.354 N 
ATOM     62  N   UNL A   1      43.464  31.523  29.425  1.00  0.00    -0.248 NA
ATOM     63  C   UNL A   1      41.463  32.263  30.216  1.00  0.00     0.031 C 
ATOM     64  C   UNL A   1      47.245  33.757  29.453  1.00  0.00     0.029 A 
ATOM     65  C   UNL A   1      46.048  33.016  29.448  1.00  0.00     0.049 A 
ATOM     66  H   UNL A   1      45.670  31.052  28.775  1.00  0.00     0.167 HD
ATOM     67  C   UNL A   1      43.648  32.756  29.899  1.00  0.00     0.074 A 
ATOM     68  C   UNL A   1      42.365  33.247  30.421  1.00  0.00     0.031 C 
ATOM     69  C   UNL A   1      44.833  33.494  29.913  1.00  0.00     0.034 A 
BRANCH  56  70
ATOM     70  C   UNL A   1      49.857  30.848  27.811  1.00  0.00     0.023 A 
ATOM     71  C   UNL A   1      50.280  31.488  26.657  1.00  0.00     0.012 A 
ATOM     72  C   UNL A   1      50.729  30.366  28.689  1.00  0.00     0.148 A 
ATOM     73  C   UNL A   1      51.655  31.313  26.375  1.00  0.00     0.002 A 
ATOM     74  C   UNL A   1      52.073  30.351  28.405  1.00  0.00     0.091 A 
ATOM     75  F   UNL A   1      50.297  29.893  29.855  1.00  0.00    -0.205 F 
ATOM     76  C   UNL A   1      52.554  30.912  27.255  1.00  0.00     0.022 A 
BRANCH  74  77
ATOM     77  S   UNL A   1      53.222  29.575  29.568  1.00  0.00     0.127 S 
ATOM     78  O   UNL A   1      53.986  30.660  30.331  1.00  0.00    -0.237 OA
ATOM     79  O   UNL A   1      52.437  28.711  30.559  1.00  0.00    -0.237 OA
ATOM     80  O   UNL A   1      54.328  28.595  28.709  1.00  0.00    -0.744 OA
ENDBRANCH  74  77
ENDBRANCH  56  70
BRANCH  57  81
ATOM     81  C   UNL A   1      40.105  29.782  29.407  1.00  0.00     0.023 A 
ATOM     82  C   UNL A   1      39.274  29.766  28.299  1.00  0.00     0.012 A 
ATOM     83  C   UNL A   1      39.618  29.644  30.635  1.00  0.00     0.148 A 
ATOM     84  C   UNL A   1      37.900  29.887  28.611  1.00  0.00     0.002 A 
ATOM     85  C   UNL A   1      38.262  29.635  30.852  1.00  0.00     0.091 A 
ATOM     86  F   UNL A   1      40.452  29.514  31.663  1.00  0.00    -0.205 F 
ATOM     87  C   UNL A   1      37.382  29.675  29.808  1.00  0.00     0.022 A 
BRANCH  85  88
ATOM     88  S   UNL A   1      37.630  29.568  32.548  1.00  0.00     0.127 S 
ATOM     89  O   UNL A   1      37.462  28.108  32.973  1.00  0.00    -0.237 OA
ATOM     90  O   UNL A   1      38.617  30.263  33.488  1.00  0.00    -0.237 OA
ATOM     91  O   UNL A   1      36.117  30.361  32.624  1.00  0.00    -0.744 OA
ENDBRANCH  85  88
ENDBRANCH  57  81
BRANCH  69  92
ATOM     92  C   UNL A   1      44.788  34.905  30.474  1.00  0.00     0.023 A 
ATOM     93  C   UNL A   1      44.917  35.106  31.838  1.00  0.00     0.012 A 
ATOM     94  C   UNL A   1      44.584  35.922  29.644  1.00  0.00     0.148 A 
ATOM     95  C   UNL A   1      44.523  36.396  32.267  1.00  0.00     0.002 A 
ATOM     96  C   UNL A   1      44.339  37.184  30.130  1.00  0.00     0.091 A 
ATOM     97  F   UNL A   1      44.616  35.718  28.330  1.00  0.00    -0.205 F 
ATOM     98  C   UNL A   1      44.391  37.442  31.472  1.00  0.00     0.022 A 
BRANCH  96  99
ATOM     99  S   UNL A   1      43.944  38.523  28.978  1.00  0.00     0.127 S 
ATOM    100  O   UNL A   1      42.446  38.501  28.666  1.00  0.00    -0.237 OA
ATOM    101  O   UNL A   1      44.314  39.867  29.612  1.00  0.00    -0.237 OA
ATOM    102  O   UNL A   1      44.832  38.311  27.533  1.00  0.00    -0.744 OA
ENDBRANCH  96  99
ENDBRANCH  69  92
ENDBRANCH  43  44
ENDBRANCH  36  38
ENDBRANCH  35  36
ENDBRANCH  34  35
ENDBRANCH  33  34
ENDBRANCH  32  33
ENDBRANCH  31  32
ENDBRANCH   1  31
TORSDOF 25
ENDMDL
MODEL 3
REMARK VINA RESULT:      -9.8      5.278     10.935
REMARK SMILES O=C(OCCOCCOCCOCCOC(=O)c1ccc(-c2c3nc(c(-c4cccc(S(=O)(=O)[O-])c4F)c4ccc([nH]4)c(-c4cccc(S(=O)(=O)[O-])c4F)c4nc(c(-c5cccc(S(=O)(=O)[O-])c5F)c5ccc2[nH]5)C=C4)C=C3)cc1)C1=Cc2cc(S(F)(F)(F)(F)F)ccc2O[C@@H]1C(F)(F)F
REMARK SMILES IDX 10 1 9 2 8 3 7 4 6 5 5 6 4 7 3 8 2 9 1 10 81 11 82 12 96 13
REMARK SMILES IDX 83 14 95 15 84 16 94 17 85 18 93 19 92 20 97 21 98 22 99 23
REMARK SMILES IDX 100 24 86 25 87 26 88 27 89 28 90 29 91 30 11 31 12 32 13 33
REMARK SMILES IDX 14 34 15 35 16 36 17 37 18 38 19 39 80 40 20 41 79 42 21 43
REMARK SMILES IDX 22 44 23 45 73 46 24 47 78 48 72 49 74 50 25 51 77 52 71 53
REMARK SMILES IDX 70 54 26 56 58 57 38 58 57 59 39 60 42 61 56 62 75 63 40 64
REMARK SMILES IDX 41 65 55 67 76 68 43 69 27 70 28 71 36 72 29 73 31 74 37 75
REMARK SMILES IDX 30 76 32 77 33 78 34 79 35 80 59 81 60 82 68 83 61 84 63 85
REMARK SMILES IDX 69 86 62 87 64 88 65 89 66 90 67 91 44 92 45 93 53 94 46 95
REMARK SMILES IDX 48 96 54 97 47 98 49 99 50 100 51 101 52 102
REMARK H PARENT 74 55 42 66
REMARK Flexibility Score: inf
ROOT
ATOM      1  C   UNL A   1      44.183  22.806  26.482  1.00  0.00     0.188 C 
ENDROOT
BRANCH   1   2
ATOM      2  O   UNL A   1      42.887  22.281  26.231  1.00  0.00    -0.377 OA
BRANCH   2   3
ATOM      3  C   UNL A   1      42.049  22.535  27.349  1.00  0.00     0.188 C 
BRANCH   3   4
ATOM      4  C   UNL A   1      40.795  23.260  26.887  1.00  0.00     0.188 C 
BRANCH   4   5
ATOM      5  O   UNL A   1      41.036  24.659  26.869  1.00  0.00    -0.376 OA
BRANCH   5   6
ATOM      6  C   UNL A   1      40.093  25.313  27.704  1.00  0.00     0.202 C 
BRANCH   6   7
ATOM      7  C   UNL A   1      40.415  26.797  27.768  1.00  0.00     0.261 C 
BRANCH   7   8
ATOM      8  O   UNL A   1      39.636  27.408  28.785  1.00  0.00    -0.460 OA
BRANCH   8   9
ATOM      9  C   UNL A   1      39.708  28.811  28.987  1.00  0.00     0.338 C 
ATOM     10  O   UNL A   1      39.893  29.586  27.996  1.00  0.00    -0.246 OA
BRANCH   9  11
ATOM     11  C   UNL A   1      39.563  29.387  30.385  1.00  0.00     0.087 C 
ATOM     12  C   UNL A   1      38.536  30.233  30.669  1.00  0.00     0.027 C 
ATOM     13  C   UNL A   1      40.564  29.019  31.467  1.00  0.00     0.316 C 
ATOM     14  C   UNL A   1      37.533  30.601  29.588  1.00  0.00     0.019 A 
ATOM     15  O   UNL A   1      37.613  28.340  28.858  1.00  0.00    -0.475 OA
ATOM     16  C   UNL A   1      37.111  31.915  29.459  1.00  0.00     0.036 A 
ATOM     17  C   UNL A   1      37.045  29.642  28.810  1.00  0.00     0.128 A 
ATOM     18  C   UNL A   1      35.949  32.068  28.667  1.00  0.00     0.107 A 
ATOM     19  C   UNL A   1      35.996  29.896  27.960  1.00  0.00     0.048 A 
ATOM     20  C   UNL A   1      35.490  31.159  27.825  1.00  0.00     0.028 A 
BRANCH  13  21
ATOM     21  C   UNL A   1      39.841  28.343  32.620  1.00  0.00     0.430 C 
ATOM     22  F   UNL A   1      38.869  27.571  32.141  1.00  0.00    -0.167 F 
ATOM     23  F   UNL A   1      40.701  27.598  33.308  1.00  0.00    -0.167 F 
ATOM     24  F   UNL A   1      39.319  29.269  33.419  1.00  0.00    -0.167 F 
ENDBRANCH  13  21
BRANCH  18  25
ATOM     25  S   UNL A   1      35.027  33.617  28.816  1.00  0.00     0.310 S 
ATOM     26  F   UNL A   1      33.810  33.049  27.975  1.00  0.00    -0.094 F 
ATOM     27  F   UNL A   1      35.659  34.092  27.453  1.00  0.00    -0.094 F 
ATOM     28  F   UNL A   1      34.236  34.951  28.944  1.00  0.00    -0.094 F 
ATOM     29  F   UNL A   1      34.298  33.071  30.105  1.00  0.00    -0.094 F 
ATOM     30  F   UNL A   1      35.737  32.217  28.641  1.00  0.00    -0.094 F 
ENDBRANCH  18  25
ENDBRANCH   9  11
ENDBRANCH   8   9
ENDBRANCH   7   8
ENDBRANCH   6   7
ENDBRANCH   5   6
ENDBRANCH   4   5
ENDBRANCH   3   4
ENDBRANCH   2   3
ENDBRANCH   1   2
BRANCH   1  31
ATOM     31  C   UNL A   1      45.215  22.000  25.711  1.00  0.00     0.188 C 
BRANCH  31  32
ATOM     32  O   UNL A   1      45.942  22.863  24.849  1.00  0.00    -0.376 OA
BRANCH  32  33
ATOM     33  C   UNL A   1      45.598  24.212  25.129  1.00  0.00     0.202 C 
BRANCH  33  34
ATOM     34  C   UNL A   1      46.856  24.997  25.461  1.00  0.00     0.261 C 
BRANCH  34  35
ATOM     35  O   UNL A   1      47.232  25.785  24.341  1.00  0.00    -0.460 OA
BRANCH  35  36
ATOM     36  C   UNL A   1      46.940  27.176  24.321  1.00  0.00     0.338 C 
ATOM     37  O   UNL A   1      47.143  27.853  23.264  1.00  0.00    -0.246 OA
BRANCH  36  38
ATOM     38  C   UNL A   1      46.386  27.853  25.564  1.00  0.00     0.060 A 
ATOM     39  C   UNL A   1      47.252  28.419  26.485  1.00  0.00     0.016 A 
ATOM     40  C   UNL A   1      45.075  27.824  25.779  1.00  0.00     0.016 A 
ATOM     41  C   UNL A   1      46.663  28.673  27.745  1.00  0.00     0.010 A 
ATOM     42  C   UNL A   1      44.556  28.217  26.989  1.00  0.00     0.010 A 
ATOM     43  C   UNL A   1      45.362  28.731  27.965  1.00  0.00    -0.014 A 
BRANCH  43  44
ATOM     44  C   UNL A   1      44.792  29.335  29.239  1.00  0.00     0.031 A 
ATOM     45  C   UNL A   1      44.380  30.667  29.196  1.00  0.00     0.074 A 
ATOM     46  C   UNL A   1      44.667  28.521  30.352  1.00  0.00     0.049 A 
ATOM     47  N   UNL A   1      43.784  31.366  30.164  1.00  0.00    -0.248 NA
ATOM     48  C   UNL A   1      44.543  31.543  28.026  1.00  0.00     0.031 C 
ATOM     49  C   UNL A   1      45.072  27.173  30.401  1.00  0.00     0.029 A 
ATOM     50  N   UNL A   1      44.145  28.849  31.584  1.00  0.00    -0.354 N 
ATOM     51  C   UNL A   1      43.525  32.606  29.743  1.00  0.00     0.074 A 
ATOM     52  C   UNL A   1      44.014  32.739  28.364  1.00  0.00     0.031 C 
ATOM     53  C   UNL A   1      44.810  26.698  31.647  1.00  0.00     0.029 A 
ATOM     54  C   UNL A   1      44.235  27.741  32.399  1.00  0.00     0.049 A 
ATOM     55  H   UNL A   1      43.772  29.724  31.838  1.00  0.00     0.167 HD
ATOM     56  C   UNL A   1      42.896  33.630  30.454  1.00  0.00     0.034 A 
ATOM     57  C   UNL A   1      43.845  27.629  33.723  1.00  0.00     0.034 A 
ATOM     58  C   UNL A   1      42.467  33.503  31.766  1.00  0.00     0.049 A 
ATOM     59  C   UNL A   1      43.269  28.671  34.454  1.00  0.00     0.074 A 
ATOM     60  C   UNL A   1      41.826  34.522  32.495  1.00  0.00     0.029 A 
ATOM     61  N   UNL A   1      42.579  32.404  32.587  1.00  0.00    -0.354 N 
ATOM     62  N   UNL A   1      42.974  29.897  34.021  1.00  0.00    -0.248 NA
ATOM     63  C   UNL A   1      42.883  28.572  35.868  1.00  0.00     0.031 C 
ATOM     64  C   UNL A   1      41.563  34.048  33.742  1.00  0.00     0.029 A 
ATOM     65  C   UNL A   1      42.037  32.724  33.812  1.00  0.00     0.049 A 
ATOM     66  H   UNL A   1      42.978  31.538  32.342  1.00  0.00     0.167 HD
ATOM     67  C   UNL A   1      42.416  30.609  35.002  1.00  0.00     0.074 A 
ATOM     68  C   UNL A   1      42.356  29.769  36.206  1.00  0.00     0.031 C 
ATOM     69  C   UNL A   1      41.951  31.924  34.941  1.00  0.00     0.034 A 
BRANCH  56  70
ATOM     70  C   UNL A   1      42.670  34.958  29.751  1.00  0.00     0.023 A 
ATOM     71  C   UNL A   1      41.499  35.155  29.038  1.00  0.00     0.012 A 
ATOM     72  C   UNL A   1      43.609  35.895  29.805  1.00  0.00     0.148 A 
ATOM     73  C   UNL A   1      41.537  36.273  28.171  1.00  0.00     0.002 A 
ATOM     74  C   UNL A   1      43.514  37.027  29.031  1.00  0.00     0.091 A 
ATOM     75  F   UNL A   1      44.651  35.738  30.617  1.00  0.00    -0.205 F 
ATOM     76  C   UNL A   1      42.411  37.258  28.256  1.00  0.00     0.022 A 
BRANCH  74  77
ATOM     77  S   UNL A   1      44.869  38.227  29.036  1.00  0.00     0.127 S 
ATOM     78  O   UNL A   1      44.490  39.429  28.167  1.00  0.00    -0.237 OA
ATOM     79  O   UNL A   1      45.129  38.696  30.469  1.00  0.00    -0.237 OA
ATOM     80  O   UNL A   1      46.282  37.494  28.411  1.00  0.00    -0.744 OA
ENDBRANCH  74  77
ENDBRANCH  56  70
BRANCH  57  81
ATOM     81  C   UNL A   1      44.055  26.294  34.422  1.00  0.00     0.023 A 
ATOM     82  C   UNL A   1      43.010  25.386  34.416  1.00  0.00     0.012 A 
ATOM     83  C   UNL A   1      45.211  26.012  35.012  1.00  0.00     0.148 A 
ATOM     84  C   UNL A   1      43.182  24.309  35.316  1.00  0.00     0.002 A 
ATOM     85  C   UNL A   1      45.349  24.872  35.767  1.00  0.00     0.091 A 
ATOM     86  F   UNL A   1      46.242  26.840  34.872  1.00  0.00    -0.205 F 
ATOM     87  C   UNL A   1      44.337  23.958  35.853  1.00  0.00     0.022 A 
BRANCH  85  88
ATOM     88  S   UNL A   1      46.896  24.576  36.659  1.00  0.00     0.127 S 
ATOM     89  O   UNL A   1      48.038  24.392  35.656  1.00  0.00    -0.237 OA
ATOM     90  O   UNL A   1      47.200  25.771  37.565  1.00  0.00    -0.237 OA
ATOM     91  O   UNL A   1      46.743  23.163  37.612  1.00  0.00    -0.744 OA
ENDBRANCH  85  88
ENDBRANCH  57  81
BRANCH  69  92
ATOM     92  C   UNL A   1      41.312  32.513  36.187  1.00  0.00     0.023 A 
ATOM     93  C   UNL A   1      42.098  33.182  37.110  1.00  0.00     0.012 A 
ATOM     94  C   UNL A   1      40.010  32.339  36.387  1.00  0.00     0.148 A 
ATOM     95  C   UNL A   1      41.469  33.379  38.363  1.00  0.00     0.002 A 
ATOM     96  C   UNL A   1      39.436  32.680  37.589  1.00  0.00     0.091 A 
ATOM     97  F   UNL A   1      39.256  31.829  35.419  1.00  0.00    -0.205 F 
ATOM     98  C   UNL A   1      40.167  33.291  38.570  1.00  0.00     0.022 A 
BRANCH  96  99
ATOM     99  S   UNL A   1      37.686  32.318  37.876  1.00  0.00     0.127 S 
ATOM    100  O   UNL A   1      37.297  32.768  39.286  1.00  0.00    -0.237 OA
ATOM    101  O   UNL A   1      36.834  33.068  36.848  1.00  0.00    -0.237 OA
ATOM    102  O   UNL A   1      37.419  30.637  37.719  1.00  0.00    -0.744 OA
ENDBRANCH  96  99
ENDBRANCH  69  92
ENDBRANCH  43  44
ENDBRANCH  36  38
ENDBRANCH  35  36
ENDBRANCH  34  35
ENDBRANCH  33  34
ENDBRANCH  32  33
ENDBRANCH  31  32
ENDBRANCH   1  31
TORSDOF 25
ENDMDL
