MODEL 1
REMARK VINA RESULT:      -9.4      0.000      0.000
REMARK SMILES N#Cc1ccc2c(c1)C=C(C(=O)OCCOCCOCCOCCOC(=O)c1ccc(-c3c4nc(c(-c5cccc(S(=O)(=O)[O-])c5F)c5ccc([nH]5)c(-c5cccc(S(=O)(=O)[O-])c5F)c5nc(c(-c6cccc(S(=O)(=O)[O-])c6F)c6ccc3[nH]6)C=C5)C=C4)cc1)[C@@H](C(F)(F)F)O2
REMARK SMILES IDX 20 1 19 2 18 3 17 4 16 5 15 6 14 7 13 8 11 9 12 10 10 11
REMARK SMILES IDX 3 12 4 13 8 14 5 15 7 16 6 17 9 18 96 19 91 20 2 21 1 22
REMARK SMILES IDX 92 23 93 24 94 25 95 26 21 27 22 28 23 29 24 30 25 31 26 32
REMARK SMILES IDX 27 33 28 34 29 35 90 36 30 37 89 38 31 39 32 40 33 41 83 42
REMARK SMILES IDX 34 43 88 44 82 45 84 46 35 47 87 48 81 49 80 50 36 52 68 53
REMARK SMILES IDX 48 54 67 55 49 56 52 57 66 58 85 59 50 60 51 61 65 63 86 64
REMARK SMILES IDX 53 65 37 66 38 67 46 68 39 69 41 70 47 71 40 72 42 73 43 74
REMARK SMILES IDX 44 75 45 76 69 77 70 78 78 79 71 80 73 81 79 82 72 83 74 84
REMARK SMILES IDX 75 85 76 86 77 87 54 88 55 89 63 90 56 91 58 92 64 93 57 94
REMARK SMILES IDX 59 95 60 96 61 97 62 98
REMARK H PARENT 84 51 52 62
REMARK Flexibility Score: inf
ROOT
ATOM      1  C   UNL A   1      34.788  32.406  28.660  1.00  0.00     0.188 C 
ENDROOT
BRANCH   1   2
ATOM      2  O   UNL A   1      35.727  31.734  27.820  1.00  0.00    -0.377 OA
BRANCH   2   3
ATOM      3  C   UNL A   1      35.916  30.341  27.968  1.00  0.00     0.188 C 
BRANCH   3   4
ATOM      4  C   UNL A   1      35.082  29.443  27.031  1.00  0.00     0.188 C 
BRANCH   4   5
ATOM      5  O   UNL A   1      33.677  29.551  27.115  1.00  0.00    -0.376 OA
BRANCH   5   6
ATOM      6  C   UNL A   1      32.814  28.464  27.397  1.00  0.00     0.202 C 
BRANCH   6   7
ATOM      7  C   UNL A   1      31.422  28.212  26.790  1.00  0.00     0.261 C 
BRANCH   7   8
ATOM      8  O   UNL A   1      31.237  27.013  26.044  1.00  0.00    -0.460 OA
BRANCH   8   9
ATOM      9  C   UNL A   1      32.091  26.810  25.025  1.00  0.00     0.338 C 
ATOM     10  O   UNL A   1      32.549  27.647  24.269  1.00  0.00    -0.246 OA
BRANCH   9  11
ATOM     11  C   UNL A   1      32.547  25.405  25.089  1.00  0.00     0.087 C 
ATOM     12  C   UNL A   1      36.192  22.305  25.483  1.00  0.00     0.053 A 
ATOM     13  C   UNL A   1      35.332  21.262  25.129  1.00  0.00     0.023 A 
ATOM     14  C   UNL A   1      35.686  23.599  25.642  1.00  0.00     0.031 A 
ATOM     15  C   UNL A   1      33.966  21.507  24.963  1.00  0.00     0.048 A 
ATOM     16  C   UNL A   1      34.329  23.852  25.412  1.00  0.00     0.019 A 
ATOM     17  C   UNL A   1      33.464  22.801  25.104  1.00  0.00     0.128 A 
ATOM     18  C   UNL A   1      33.834  25.214  25.402  1.00  0.00     0.027 C 
ATOM     19  O   UNL A   1      32.124  22.951  24.905  1.00  0.00    -0.475 OA
ATOM     20  C   UNL A   1      31.558  24.293  24.855  1.00  0.00     0.316 C 
BRANCH  12  21
ATOM     21  C   UNL A   1      37.599  22.064  25.641  1.00  0.00     0.099 C 
ATOM     22  N   UNL A   1      38.731  21.862  25.758  1.00  0.00    -0.192 NA
ENDBRANCH  12  21
BRANCH  20  23
ATOM     23  C   UNL A   1      30.826  24.457  23.515  1.00  0.00     0.430 C 
ATOM     24  F   UNL A   1      29.732  25.244  23.643  1.00  0.00    -0.167 F 
ATOM     25  F   UNL A   1      31.612  25.022  22.573  1.00  0.00    -0.167 F 
ATOM     26  F   UNL A   1      30.410  23.261  23.034  1.00  0.00    -0.167 F 
ENDBRANCH  20  23
ENDBRANCH   9  11
ENDBRANCH   8   9
ENDBRANCH   7   8
ENDBRANCH   6   7
ENDBRANCH   5   6
ENDBRANCH   4   5
ENDBRANCH   3   4
ENDBRANCH   2   3
ENDBRANCH   1   2
BRANCH   1  27
ATOM     27  C   UNL A   1      33.688  33.353  28.110  1.00  0.00     0.188 C 
BRANCH  27  28
ATOM     28  O   UNL A   1      34.125  34.660  27.796  1.00  0.00    -0.376 OA
BRANCH  28  29
ATOM     29  C   UNL A   1      34.006  35.718  28.720  1.00  0.00     0.202 C 
BRANCH  29  30
ATOM     30  C   UNL A   1      32.657  36.040  29.377  1.00  0.00     0.261 C 
BRANCH  30  31
ATOM     31  O   UNL A   1      32.328  35.331  30.572  1.00  0.00    -0.460 OA
BRANCH  31  32
ATOM     32  C   UNL A   1      32.787  35.833  31.744  1.00  0.00     0.338 C 
ATOM     33  O   UNL A   1      32.253  36.680  32.432  1.00  0.00    -0.246 OA
BRANCH  32  34
ATOM     34  C   UNL A   1      33.957  35.007  32.123  1.00  0.00     0.060 A 
ATOM     35  C   UNL A   1      35.246  35.499  31.913  1.00  0.00     0.016 A 
ATOM     36  C   UNL A   1      33.765  33.707  32.609  1.00  0.00     0.016 A 
ATOM     37  C   UNL A   1      36.345  34.694  32.214  1.00  0.00     0.010 A 
ATOM     38  C   UNL A   1      34.869  32.897  32.898  1.00  0.00     0.010 A 
ATOM     39  C   UNL A   1      36.167  33.394  32.724  1.00  0.00    -0.014 A 
BRANCH  39  40
ATOM     40  C   UNL A   1      37.341  32.654  33.251  1.00  0.00     0.031 A 
ATOM     41  C   UNL A   1      37.987  31.524  32.509  1.00  0.00     0.074 A 
ATOM     42  C   UNL A   1      37.825  33.032  34.452  1.00  0.00     0.049 A 
ATOM     43  N   UNL A   1      39.079  30.871  32.816  1.00  0.00    -0.248 NA
ATOM     44  C   UNL A   1      37.337  31.063  31.273  1.00  0.00     0.031 C 
ATOM     45  C   UNL A   1      37.242  34.081  35.293  1.00  0.00     0.029 A 
ATOM     46  N   UNL A   1      38.907  32.593  35.168  1.00  0.00    -0.354 N 
ATOM     47  C   UNL A   1      39.250  29.918  31.820  1.00  0.00     0.074 A 
ATOM     48  C   UNL A   1      38.137  30.066  30.905  1.00  0.00     0.031 C 
ATOM     49  C   UNL A   1      37.990  34.223  36.396  1.00  0.00     0.029 A 
ATOM     50  C   UNL A   1      39.085  33.260  36.356  1.00  0.00     0.049 A 
ATOM     51  H   UNL A   1      39.500  31.869  34.861  1.00  0.00     0.167 HD
ATOM     52  C   UNL A   1      40.253  29.020  31.677  1.00  0.00     0.034 A 
ATOM     53  C   UNL A   1      40.023  33.121  37.312  1.00  0.00     0.034 A 
ATOM     54  C   UNL A   1      41.361  28.880  32.589  1.00  0.00     0.049 A 
ATOM     55  C   UNL A   1      41.121  32.116  37.130  1.00  0.00     0.074 A 
ATOM     56  C   UNL A   1      42.454  28.037  32.482  1.00  0.00     0.029 A 
ATOM     57  N   UNL A   1      41.507  29.575  33.779  1.00  0.00    -0.354 N 
ATOM     58  N   UNL A   1      41.336  31.316  36.115  1.00  0.00    -0.248 NA
ATOM     59  C   UNL A   1      42.117  32.011  38.205  1.00  0.00     0.031 C 
ATOM     60  C   UNL A   1      43.242  28.195  33.624  1.00  0.00     0.029 A 
ATOM     61  C   UNL A   1      42.662  29.167  34.424  1.00  0.00     0.049 A 
ATOM     62  H   UNL A   1      40.884  30.258  34.114  1.00  0.00     0.167 HD
ATOM     63  C   UNL A   1      42.501  30.625  36.418  1.00  0.00     0.074 A 
ATOM     64  C   UNL A   1      42.954  31.109  37.705  1.00  0.00     0.031 C 
ATOM     65  C   UNL A   1      43.129  29.671  35.690  1.00  0.00     0.034 A 
BRANCH  52  66
ATOM     66  C   UNL A   1      40.249  28.128  30.465  1.00  0.00     0.023 A 
ATOM     67  C   UNL A   1      39.291  27.100  30.370  1.00  0.00     0.012 A 
ATOM     68  C   UNL A   1      41.094  28.393  29.369  1.00  0.00     0.148 A 
ATOM     69  C   UNL A   1      39.176  26.343  29.204  1.00  0.00     0.002 A 
ATOM     70  C   UNL A   1      40.958  27.651  28.201  1.00  0.00     0.091 A 
ATOM     71  F   UNL A   1      41.996  29.378  29.484  1.00  0.00    -0.205 F 
ATOM     72  C   UNL A   1      40.002  26.626  28.117  1.00  0.00     0.022 A 
BRANCH  70  73
ATOM     73  S   UNL A   1      41.950  27.954  26.734  1.00  0.00     0.127 S 
ATOM     74  O   UNL A   1      43.182  27.236  27.061  1.00  0.00    -0.237 OA
ATOM     75  O   UNL A   1      41.142  27.333  25.685  1.00  0.00    -0.237 OA
ATOM     76  O   UNL A   1      42.088  29.399  26.629  1.00  0.00    -0.744 OA
ENDBRANCH  70  73
ENDBRANCH  52  66
BRANCH  53  77
ATOM     77  C   UNL A   1      39.973  34.013  38.499  1.00  0.00     0.023 A 
ATOM     78  C   UNL A   1      40.642  35.251  38.464  1.00  0.00     0.012 A 
ATOM     79  C   UNL A   1      39.186  33.679  39.618  1.00  0.00     0.148 A 
ATOM     80  C   UNL A   1      40.525  36.145  39.529  1.00  0.00     0.002 A 
ATOM     81  C   UNL A   1      39.049  34.587  40.659  1.00  0.00     0.091 A 
ATOM     82  F   UNL A   1      38.553  32.498  39.614  1.00  0.00    -0.205 F 
ATOM     83  C   UNL A   1      39.722  35.819  40.619  1.00  0.00     0.022 A 
BRANCH  81  84
ATOM     84  S   UNL A   1      37.977  34.289  42.068  1.00  0.00     0.127 S 
ATOM     85  O   UNL A   1      38.232  35.471  42.889  1.00  0.00    -0.237 OA
ATOM     86  O   UNL A   1      36.658  34.251  41.435  1.00  0.00    -0.237 OA
ATOM     87  O   UNL A   1      38.414  33.026  42.643  1.00  0.00    -0.744 OA
ENDBRANCH  81  84
ENDBRANCH  53  77
BRANCH  65  88
ATOM     88  C   UNL A   1      44.395  29.073  36.240  1.00  0.00     0.023 A 
ATOM     89  C   UNL A   1      45.630  29.697  35.983  1.00  0.00     0.012 A 
ATOM     90  C   UNL A   1      44.341  27.976  37.123  1.00  0.00     0.148 A 
ATOM     91  C   UNL A   1      46.795  29.238  36.597  1.00  0.00     0.002 A 
ATOM     92  C   UNL A   1      45.500  27.543  37.756  1.00  0.00     0.091 A 
ATOM     93  F   UNL A   1      43.151  27.400  37.349  1.00  0.00    -0.205 F 
ATOM     94  C   UNL A   1      46.728  28.172  37.492  1.00  0.00     0.022 A 
BRANCH  92  95
ATOM     95  S   UNL A   1      45.509  26.211  38.961  1.00  0.00     0.127 S 
ATOM     96  O   UNL A   1      45.175  25.056  38.130  1.00  0.00    -0.237 OA
ATOM     97  O   UNL A   1      46.890  26.240  39.442  1.00  0.00    -0.237 OA
ATOM     98  O   UNL A   1      44.507  26.560  39.960  1.00  0.00    -0.744 OA
ENDBRANCH  92  95
ENDBRANCH  65  88
ENDBRANCH  39  40
ENDBRANCH  32  34
ENDBRANCH  31  32
ENDBRANCH  30  31
ENDBRANCH  29  30
ENDBRANCH  28  29
ENDBRANCH  27  28
ENDBRANCH   1  27
TORSDOF 25
ENDMDL
MODEL 2
REMARK VINA RESULT:      -9.2      5.183      6.849
REMARK SMILES N#Cc1ccc2c(c1)C=C(C(=O)OCCOCCOCCOCCOC(=O)c1ccc(-c3c4nc(c(-c5cccc(S(=O)(=O)[O-])c5F)c5ccc([nH]5)c(-c5cccc(S(=O)(=O)[O-])c5F)c5nc(c(-c6cccc(S(=O)(=O)[O-])c6F)c6ccc3[nH]6)C=C5)C=C4)cc1)[C@@H](C(F)(F)F)O2
REMARK SMILES IDX 20 1 19 2 18 3 17 4 16 5 15 6 14 7 13 8 11 9 12 10 10 11
REMARK SMILES IDX 3 12 4 13 8 14 5 15 7 16 6 17 9 18 96 19 91 20 2 21 1 22
REMARK SMILES IDX 92 23 93 24 94 25 95 26 21 27 22 28 23 29 24 30 25 31 26 32
REMARK SMILES IDX 27 33 28 34 29 35 90 36 30 37 89 38 31 39 32 40 33 41 83 42
REMARK SMILES IDX 34 43 88 44 82 45 84 46 35 47 87 48 81 49 80 50 36 52 68 53
REMARK SMILES IDX 48 54 67 55 49 56 52 57 66 58 85 59 50 60 51 61 65 63 86 64
REMARK SMILES IDX 53 65 37 66 38 67 46 68 39 69 41 70 47 71 40 72 42 73 43 74
REMARK SMILES IDX 44 75 45 76 69 77 70 78 78 79 71 80 73 81 79 82 72 83 74 84
REMARK SMILES IDX 75 85 76 86 77 87 54 88 55 89 63 90 56 91 58 92 64 93 57 94
REMARK SMILES IDX 59 95 60 96 61 97 62 98
REMARK H PARENT 84 51 52 62
REMARK Flexibility Score: inf
ROOT
ATOM      1  C   UNL A   1      34.633  34.683  28.329  1.00  0.00     0.188 C 
ENDROOT
BRANCH   1   2
ATOM      2  O   UNL A   1      35.464  33.818  27.555  1.00  0.00    -0.377 OA
BRANCH   2   3
ATOM      3  C   UNL A   1      35.748  32.519  28.035  1.00  0.00     0.188 C 
BRANCH   3   4
ATOM      4  C   UNL A   1      34.653  31.458  27.800  1.00  0.00     0.188 C 
BRANCH   4   5
ATOM      5  O   UNL A   1      35.068  30.196  27.322  1.00  0.00    -0.376 OA
BRANCH   5   6
ATOM      6  C   UNL A   1      34.249  29.327  26.562  1.00  0.00     0.202 C 
BRANCH   6   7
ATOM      7  C   UNL A   1      34.042  27.819  26.793  1.00  0.00     0.261 C 
BRANCH   7   8
ATOM      8  O   UNL A   1      33.259  27.108  25.840  1.00  0.00    -0.460 OA
BRANCH   8   9
ATOM      9  C   UNL A   1      31.937  27.053  26.079  1.00  0.00     0.338 C 
ATOM     10  O   UNL A   1      31.389  26.743  27.122  1.00  0.00    -0.246 OA
BRANCH   9  11
ATOM     11  C   UNL A   1      31.239  27.629  24.910  1.00  0.00     0.087 C 
ATOM     12  C   UNL A   1      29.107  31.422  22.882  1.00  0.00     0.053 A 
ATOM     13  C   UNL A   1      28.616  30.594  21.868  1.00  0.00     0.023 A 
ATOM     14  C   UNL A   1      29.960  30.896  23.856  1.00  0.00     0.031 A 
ATOM     15  C   UNL A   1      29.000  29.251  21.815  1.00  0.00     0.048 A 
ATOM     16  C   UNL A   1      30.291  29.536  23.836  1.00  0.00     0.019 A 
ATOM     17  C   UNL A   1      29.837  28.722  22.798  1.00  0.00     0.128 A 
ATOM     18  C   UNL A   1      31.027  28.950  24.938  1.00  0.00     0.027 C 
ATOM     19  O   UNL A   1      30.143  27.399  22.678  1.00  0.00    -0.475 OA
ATOM     20  C   UNL A   1      30.859  26.734  23.759  1.00  0.00     0.316 C 
BRANCH  12  21
ATOM     21  C   UNL A   1      28.705  32.799  22.952  1.00  0.00     0.099 C 
ATOM     22  N   UNL A   1      28.371  33.904  23.016  1.00  0.00    -0.192 NA
ENDBRANCH  12  21
BRANCH  20  23
ATOM     23  C   UNL A   1      30.021  25.535  24.225  1.00  0.00     0.430 C 
ATOM     24  F   UNL A   1      30.753  24.684  24.981  1.00  0.00    -0.167 F 
ATOM     25  F   UNL A   1      28.960  25.916  24.971  1.00  0.00    -0.167 F 
ATOM     26  F   UNL A   1      29.544  24.831  23.171  1.00  0.00    -0.167 F 
ENDBRANCH  20  23
ENDBRANCH   9  11
ENDBRANCH   8   9
ENDBRANCH   7   8
ENDBRANCH   6   7
ENDBRANCH   5   6
ENDBRANCH   4   5
ENDBRANCH   3   4
ENDBRANCH   2   3
ENDBRANCH   1   2
BRANCH   1  27
ATOM     27  C   UNL A   1      33.441  34.172  29.181  1.00  0.00     0.188 C 
BRANCH  27  28
ATOM     28  O   UNL A   1      32.605  35.182  29.709  1.00  0.00    -0.376 OA
BRANCH  28  29
ATOM     29  C   UNL A   1      33.045  36.038  30.740  1.00  0.00     0.202 C 
BRANCH  29  30
ATOM     30  C   UNL A   1      32.819  35.673  32.213  1.00  0.00     0.261 C 
BRANCH  30  31
ATOM     31  O   UNL A   1      33.940  35.166  32.939  1.00  0.00    -0.460 OA
BRANCH  31  32
ATOM     32  C   UNL A   1      34.066  33.821  33.035  1.00  0.00     0.338 C 
ATOM     33  O   UNL A   1      33.171  33.016  33.202  1.00  0.00    -0.246 OA
BRANCH  32  34
ATOM     34  C   UNL A   1      35.473  33.507  32.693  1.00  0.00     0.060 A 
ATOM     35  C   UNL A   1      36.074  34.134  31.599  1.00  0.00     0.016 A 
ATOM     36  C   UNL A   1      36.163  32.524  33.414  1.00  0.00     0.016 A 
ATOM     37  C   UNL A   1      37.378  33.790  31.243  1.00  0.00     0.010 A 
ATOM     38  C   UNL A   1      37.467  32.172  33.047  1.00  0.00     0.010 A 
ATOM     39  C   UNL A   1      38.091  32.820  31.973  1.00  0.00    -0.014 A 
BRANCH  39  40
ATOM     40  C   UNL A   1      39.544  32.645  31.721  1.00  0.00     0.031 A 
ATOM     41  C   UNL A   1      40.084  31.619  30.772  1.00  0.00     0.074 A 
ATOM     42  C   UNL A   1      40.391  33.453  32.388  1.00  0.00     0.049 A 
ATOM     43  N   UNL A   1      41.322  31.439  30.389  1.00  0.00    -0.248 NA
ATOM     44  C   UNL A   1      39.127  30.673  30.177  1.00  0.00     0.031 C 
ATOM     45  C   UNL A   1      39.984  34.451  33.381  1.00  0.00     0.029 A 
ATOM     46  N   UNL A   1      41.755  33.574  32.334  1.00  0.00    -0.354 N 
ATOM     47  C   UNL A   1      41.302  30.362  29.513  1.00  0.00     0.074 A 
ATOM     48  C   UNL A   1      39.927  29.914  29.434  1.00  0.00     0.031 C 
ATOM     49  C   UNL A   1      41.071  35.100  33.820  1.00  0.00     0.029 A 
ATOM     50  C   UNL A   1      42.252  34.549  33.165  1.00  0.00     0.049 A 
ATOM     51  H   UNL A   1      42.324  33.015  31.755  1.00  0.00     0.167 HD
ATOM     52  C   UNL A   1      42.334  29.814  28.828  1.00  0.00     0.034 A 
ATOM     53  C   UNL A   1      43.516  34.962  33.381  1.00  0.00     0.034 A 
ATOM     54  C   UNL A   1      43.700  30.267  28.907  1.00  0.00     0.049 A 
ATOM     55  C   UNL A   1      44.639  34.336  32.611  1.00  0.00     0.074 A 
ATOM     56  C   UNL A   1      44.795  29.808  28.196  1.00  0.00     0.029 A 
ATOM     57  N   UNL A   1      44.163  31.259  29.757  1.00  0.00    -0.354 N 
ATOM     58  N   UNL A   1      44.580  33.407  31.689  1.00  0.00    -0.248 NA
ATOM     59  C   UNL A   1      45.996  34.828  32.886  1.00  0.00     0.031 C 
ATOM     60  C   UNL A   1      45.927  30.495  28.642  1.00  0.00     0.029 A 
ATOM     61  C   UNL A   1      45.531  31.411  29.602  1.00  0.00     0.049 A 
ATOM     62  H   UNL A   1      43.604  31.778  30.378  1.00  0.00     0.167 HD
ATOM     63  C   UNL A   1      45.887  33.214  31.260  1.00  0.00     0.074 A 
ATOM     64  C   UNL A   1      46.715  34.133  32.013  1.00  0.00     0.031 C 
ATOM     65  C   UNL A   1      46.350  32.347  30.328  1.00  0.00     0.034 A 
BRANCH  52  66
ATOM     66  C   UNL A   1      42.044  28.682  27.880  1.00  0.00     0.023 A 
ATOM     67  C   UNL A   1      41.607  28.972  26.573  1.00  0.00     0.012 A 
ATOM     68  C   UNL A   1      42.333  27.349  28.235  1.00  0.00     0.148 A 
ATOM     69  C   UNL A   1      41.457  27.953  25.632  1.00  0.00     0.002 A 
ATOM     70  C   UNL A   1      42.204  26.341  27.287  1.00  0.00     0.091 A 
ATOM     71  F   UNL A   1      42.748  27.099  29.485  1.00  0.00    -0.205 F 
ATOM     72  C   UNL A   1      41.765  26.641  25.986  1.00  0.00     0.022 A 
BRANCH  70  73
ATOM     73  S   UNL A   1      42.604  24.624  27.629  1.00  0.00     0.127 S 
ATOM     74  O   UNL A   1      41.596  24.284  28.636  1.00  0.00    -0.237 OA
ATOM     75  O   UNL A   1      42.399  23.995  26.325  1.00  0.00    -0.237 OA
ATOM     76  O   UNL A   1      43.978  24.615  28.108  1.00  0.00    -0.744 OA
ENDBRANCH  70  73
ENDBRANCH  52  66
BRANCH  53  77
ATOM     77  C   UNL A   1      43.752  36.072  34.340  1.00  0.00     0.023 A 
ATOM     78  C   UNL A   1      44.145  35.777  35.658  1.00  0.00     0.012 A 
ATOM     79  C   UNL A   1      43.682  37.413  33.918  1.00  0.00     0.148 A 
ATOM     80  C   UNL A   1      44.468  36.805  36.544  1.00  0.00     0.002 A 
ATOM     81  C   UNL A   1      44.035  38.430  34.795  1.00  0.00     0.091 A 
ATOM     82  F   UNL A   1      43.315  37.659  32.653  1.00  0.00    -0.205 F 
ATOM     83  C   UNL A   1      44.425  38.128  36.111  1.00  0.00     0.022 A 
BRANCH  81  84
ATOM     84  S   UNL A   1      44.083  40.156  34.307  1.00  0.00     0.127 S 
ATOM     85  O   UNL A   1      44.427  40.812  35.568  1.00  0.00    -0.237 OA
ATOM     86  O   UNL A   1      45.149  40.152  33.304  1.00  0.00    -0.237 OA
ATOM     87  O   UNL A   1      42.758  40.462  33.788  1.00  0.00    -0.744 OA
ENDBRANCH  81  84
ENDBRANCH  53  77
BRANCH  65  88
ATOM     88  C   UNL A   1      47.826  32.336  30.036  1.00  0.00     0.023 A 
ATOM     89  C   UNL A   1      48.684  31.539  30.816  1.00  0.00     0.012 A 
ATOM     90  C   UNL A   1      48.334  33.006  28.906  1.00  0.00     0.148 A 
ATOM     91  C   UNL A   1      50.030  31.408  30.475  1.00  0.00     0.002 A 
ATOM     92  C   UNL A   1      49.669  32.848  28.554  1.00  0.00     0.091 A 
ATOM     93  F   UNL A   1      47.494  33.760  28.182  1.00  0.00    -0.205 F 
ATOM     94  C   UNL A   1      50.518  32.049  29.338  1.00  0.00     0.022 A 
BRANCH  92  95
ATOM     95  S   UNL A   1      50.380  33.592  27.083  1.00  0.00     0.127 S 
ATOM     96  O   UNL A   1      51.783  33.198  27.199  1.00  0.00    -0.237 OA
ATOM     97  O   UNL A   1      49.643  32.923  26.011  1.00  0.00    -0.237 OA
ATOM     98  O   UNL A   1      50.133  35.024  27.191  1.00  0.00    -0.744 OA
ENDBRANCH  92  95
ENDBRANCH  65  88
ENDBRANCH  39  40
ENDBRANCH  32  34
ENDBRANCH  31  32
ENDBRANCH  30  31
ENDBRANCH  29  30
ENDBRANCH  28  29
ENDBRANCH  27  28
ENDBRANCH   1  27
TORSDOF 25
ENDMDL
MODEL 3
REMARK VINA RESULT:      -8.9      1.548      7.630
REMARK SMILES N#Cc1ccc2c(c1)C=C(C(=O)OCCOCCOCCOCCOC(=O)c1ccc(-c3c4nc(c(-c5cccc(S(=O)(=O)[O-])c5F)c5ccc([nH]5)c(-c5cccc(S(=O)(=O)[O-])c5F)c5nc(c(-c6cccc(S(=O)(=O)[O-])c6F)c6ccc3[nH]6)C=C5)C=C4)cc1)[C@@H](C(F)(F)F)O2
REMARK SMILES IDX 20 1 19 2 18 3 17 4 16 5 15 6 14 7 13 8 11 9 12 10 10 11
REMARK SMILES IDX 3 12 4 13 8 14 5 15 7 16 6 17 9 18 96 19 91 20 2 21 1 22
REMARK SMILES IDX 92 23 93 24 94 25 95 26 21 27 22 28 23 29 24 30 25 31 26 32
REMARK SMILES IDX 27 33 28 34 29 35 90 36 30 37 89 38 31 39 32 40 33 41 83 42
REMARK SMILES IDX 34 43 88 44 82 45 84 46 35 47 87 48 81 49 80 50 36 52 68 53
REMARK SMILES IDX 48 54 67 55 49 56 52 57 66 58 85 59 50 60 51 61 65 63 86 64
REMARK SMILES IDX 53 65 37 66 38 67 46 68 39 69 41 70 47 71 40 72 42 73 43 74
REMARK SMILES IDX 44 75 45 76 69 77 70 78 78 79 71 80 73 81 79 82 72 83 74 84
REMARK SMILES IDX 75 85 76 86 77 87 54 88 55 89 63 90 56 91 58 92 64 93 57 94
REMARK SMILES IDX 59 95 60 96 61 97 62 98
REMARK H PARENT 84 51 52 62
REMARK Flexibility Score: inf
ROOT
ATOM      1  C   UNL A   1      35.200  32.653  29.505  1.00  0.00     0.188 C 
ENDROOT
BRANCH   1   2
ATOM      2  O   UNL A   1      36.023  32.269  28.402  1.00  0.00    -0.377 OA
BRANCH   2   3
ATOM      3  C   UNL A   1      36.248  30.897  28.151  1.00  0.00     0.188 C 
BRANCH   3   4
ATOM      4  C   UNL A   1      35.218  30.200  27.237  1.00  0.00     0.188 C 
BRANCH   4   5
ATOM      5  O   UNL A   1      33.945  29.930  27.786  1.00  0.00    -0.376 OA
BRANCH   5   6
ATOM      6  C   UNL A   1      33.183  28.774  27.489  1.00  0.00     0.202 C 
BRANCH   6   7
ATOM      7  C   UNL A   1      31.808  28.731  26.799  1.00  0.00     0.261 C 
BRANCH   7   8
ATOM      8  O   UNL A   1      31.654  27.849  25.692  1.00  0.00    -0.460 OA
BRANCH   8   9
ATOM      9  C   UNL A   1      32.580  27.946  24.721  1.00  0.00     0.338 C 
ATOM     10  O   UNL A   1      33.095  28.964  24.293  1.00  0.00    -0.246 OA
BRANCH   9  11
ATOM     11  C   UNL A   1      33.029  26.580  24.383  1.00  0.00     0.087 C 
ATOM     12  C   UNL A   1      36.314  23.113  24.879  1.00  0.00     0.053 A 
ATOM     13  C   UNL A   1      35.721  22.412  23.826  1.00  0.00     0.023 A 
ATOM     14  C   UNL A   1      35.733  24.300  25.338  1.00  0.00     0.031 A 
ATOM     15  C   UNL A   1      34.537  22.881  23.252  1.00  0.00     0.048 A 
ATOM     16  C   UNL A   1      34.582  24.800  24.718  1.00  0.00     0.019 A 
ATOM     17  C   UNL A   1      33.967  24.075  23.697  1.00  0.00     0.128 A 
ATOM     18  C   UNL A   1      34.079  26.113  25.069  1.00  0.00     0.027 C 
ATOM     19  O   UNL A   1      32.824  24.467  23.067  1.00  0.00    -0.475 OA
ATOM     20  C   UNL A   1      32.273  25.786  23.349  1.00  0.00     0.316 C 
BRANCH  12  21
ATOM     21  C   UNL A   1      37.539  22.646  25.464  1.00  0.00     0.099 C 
ATOM     22  N   UNL A   1      38.520  22.271  25.948  1.00  0.00    -0.192 NA
ENDBRANCH  12  21
BRANCH  20  23
ATOM     23  C   UNL A   1      32.152  26.550  22.023  1.00  0.00     0.430 C 
ATOM     24  F   UNL A   1      31.327  27.617  22.141  1.00  0.00    -0.167 F 
ATOM     25  F   UNL A   1      33.345  27.018  21.596  1.00  0.00    -0.167 F 
ATOM     26  F   UNL A   1      31.652  25.759  21.044  1.00  0.00    -0.167 F 
ENDBRANCH  20  23
ENDBRANCH   9  11
ENDBRANCH   8   9
ENDBRANCH   7   8
ENDBRANCH   6   7
ENDBRANCH   5   6
ENDBRANCH   4   5
ENDBRANCH   3   4
ENDBRANCH   2   3
ENDBRANCH   1   2
BRANCH   1  27
ATOM     27  C   UNL A   1      33.942  33.548  29.349  1.00  0.00     0.188 C 
BRANCH  27  28
ATOM     28  O   UNL A   1      34.138  34.731  28.600  1.00  0.00    -0.376 OA
BRANCH  28  29
ATOM     29  C   UNL A   1      33.784  35.996  29.114  1.00  0.00     0.202 C 
BRANCH  29  30
ATOM     30  C   UNL A   1      32.583  36.152  30.056  1.00  0.00     0.261 C 
BRANCH  30  31
ATOM     31  O   UNL A   1      32.546  35.313  31.211  1.00  0.00    -0.460 OA
BRANCH  31  32
ATOM     32  C   UNL A   1      33.017  35.826  32.372  1.00  0.00     0.338 C 
ATOM     33  O   UNL A   1      32.461  36.634  33.091  1.00  0.00    -0.246 OA
BRANCH  32  34
ATOM     34  C   UNL A   1      34.244  35.063  32.699  1.00  0.00     0.060 A 
ATOM     35  C   UNL A   1      35.486  35.538  32.275  1.00  0.00     0.016 A 
ATOM     36  C   UNL A   1      34.144  33.829  33.356  1.00  0.00     0.016 A 
ATOM     37  C   UNL A   1      36.633  34.786  32.531  1.00  0.00     0.010 A 
ATOM     38  C   UNL A   1      35.294  33.071  33.601  1.00  0.00     0.010 A 
ATOM     39  C   UNL A   1      36.549  33.555  33.210  1.00  0.00    -0.014 A 
BRANCH  39  40
ATOM     40  C   UNL A   1      37.796  32.895  33.672  1.00  0.00     0.031 A 
ATOM     41  C   UNL A   1      38.530  33.322  34.907  1.00  0.00     0.074 A 
ATOM     42  C   UNL A   1      38.269  31.874  32.931  1.00  0.00     0.049 A 
ATOM     43  N   UNL A   1      39.568  32.759  35.470  1.00  0.00    -0.248 NA
ATOM     44  C   UNL A   1      38.050  34.527  35.600  1.00  0.00     0.031 C 
ATOM     45  C   UNL A   1      37.670  31.407  31.677  1.00  0.00     0.029 A 
ATOM     46  N   UNL A   1      39.343  31.044  33.117  1.00  0.00    -0.354 N 
ATOM     47  C   UNL A   1      39.874  33.536  36.579  1.00  0.00     0.074 A 
ATOM     48  C   UNL A   1      38.919  34.626  36.602  1.00  0.00     0.031 C 
ATOM     49  C   UNL A   1      38.369  30.357  31.223  1.00  0.00     0.029 A 
ATOM     50  C   UNL A   1      39.478  30.093  32.134  1.00  0.00     0.049 A 
ATOM     51  H   UNL A   1      39.958  31.121  33.882  1.00  0.00     0.167 HD
ATOM     52  C   UNL A   1      40.849  33.344  37.500  1.00  0.00     0.034 A 
ATOM     53  C   UNL A   1      40.388  29.113  31.976  1.00  0.00     0.034 A 
ATOM     54  C   UNL A   1      41.793  32.256  37.475  1.00  0.00     0.049 A 
ATOM     55  C   UNL A   1      41.458  28.925  33.009  1.00  0.00     0.074 A 
ATOM     56  C   UNL A   1      42.772  31.952  38.405  1.00  0.00     0.029 A 
ATOM     57  N   UNL A   1      41.896  31.312  36.465  1.00  0.00    -0.354 N 
ATOM     58  N   UNL A   1      41.648  29.592  34.120  1.00  0.00    -0.248 NA
ATOM     59  C   UNL A   1      42.421  27.838  32.784  1.00  0.00     0.031 C 
ATOM     60  C   UNL A   1      43.491  30.848  37.942  1.00  0.00     0.029 A 
ATOM     61  C   UNL A   1      42.934  30.438  36.741  1.00  0.00     0.049 A 
ATOM     62  H   UNL A   1      41.317  31.269  35.671  1.00  0.00     0.167 HD
ATOM     63  C   UNL A   1      42.739  28.996  34.738  1.00  0.00     0.074 A 
ATOM     64  C   UNL A   1      43.162  27.905  33.885  1.00  0.00     0.031 C 
ATOM     65  C   UNL A   1      43.334  29.334  35.907  1.00  0.00     0.034 A 
BRANCH  52  66
ATOM     66  C   UNL A   1      40.937  34.299  38.659  1.00  0.00     0.023 A 
ATOM     67  C   UNL A   1      41.829  35.387  38.588  1.00  0.00     0.012 A 
ATOM     68  C   UNL A   1      40.047  34.201  39.747  1.00  0.00     0.148 A 
ATOM     69  C   UNL A   1      41.839  36.362  39.587  1.00  0.00     0.002 A 
ATOM     70  C   UNL A   1      40.046  35.188  40.726  1.00  0.00     0.091 A 
ATOM     71  F   UNL A   1      39.207  33.157  39.791  1.00  0.00    -0.205 F 
ATOM     72  C   UNL A   1      40.942  36.267  40.648  1.00  0.00     0.022 A 
BRANCH  70  73
ATOM     73  S   UNL A   1      38.910  35.179  42.118  1.00  0.00     0.127 S 
ATOM     74  O   UNL A   1      39.342  33.981  42.839  1.00  0.00    -0.237 OA
ATOM     75  O   UNL A   1      39.231  36.440  42.784  1.00  0.00    -0.237 OA
ATOM     76  O   UNL A   1      37.572  35.106  41.549  1.00  0.00    -0.744 OA
ENDBRANCH  70  73
ENDBRANCH  52  66
BRANCH  53  77
ATOM     77  C   UNL A   1      40.268  28.207  30.805  1.00  0.00     0.023 A 
ATOM     78  C   UNL A   1      39.248  27.238  30.779  1.00  0.00     0.012 A 
ATOM     79  C   UNL A   1      41.100  28.371  29.680  1.00  0.00     0.148 A 
ATOM     80  C   UNL A   1      39.057  26.446  29.647  1.00  0.00     0.002 A 
ATOM     81  C   UNL A   1      40.884  27.601  28.545  1.00  0.00     0.091 A 
ATOM     82  F   UNL A   1      42.054  29.310  29.733  1.00  0.00    -0.205 F 
ATOM     83  C   UNL A   1      39.865  26.634  28.528  1.00  0.00     0.022 A 
BRANCH  81  84
ATOM     84  S   UNL A   1      41.822  27.823  27.032  1.00  0.00     0.127 S 
ATOM     85  O   UNL A   1      41.567  29.230  26.728  1.00  0.00    -0.237 OA
ATOM     86  O   UNL A   1      43.182  27.525  27.479  1.00  0.00    -0.237 OA
ATOM     87  O   UNL A   1      41.272  26.872  26.077  1.00  0.00    -0.744 OA
ENDBRANCH  81  84
ENDBRANCH  53  77
BRANCH  65  88
ATOM     88  C   UNL A   1      44.511  28.518  36.369  1.00  0.00     0.023 A 
ATOM     89  C   UNL A   1      44.297  27.366  37.148  1.00  0.00     0.012 A 
ATOM     90  C   UNL A   1      45.810  28.819  35.913  1.00  0.00     0.148 A 
ATOM     91  C   UNL A   1      45.361  26.523  37.469  1.00  0.00     0.002 A 
ATOM     92  C   UNL A   1      46.860  27.959  36.210  1.00  0.00     0.091 A 
ATOM     93  F   UNL A   1      45.985  29.923  35.173  1.00  0.00    -0.205 F 
ATOM     94  C   UNL A   1      46.637  26.811  36.989  1.00  0.00     0.022 A 
BRANCH  92  95
ATOM     95  S   UNL A   1      48.529  28.216  35.598  1.00  0.00     0.127 S 
ATOM     96  O   UNL A   1      48.438  27.663  34.247  1.00  0.00    -0.237 OA
ATOM     97  O   UNL A   1      48.657  29.672  35.655  1.00  0.00    -0.237 OA
ATOM     98  O   UNL A   1      49.410  27.489  36.502  1.00  0.00    -0.744 OA
ENDBRANCH  92  95
ENDBRANCH  65  88
ENDBRANCH  39  40
ENDBRANCH  32  34
ENDBRANCH  31  32
ENDBRANCH  30  31
ENDBRANCH  29  30
ENDBRANCH  28  29
ENDBRANCH  27  28
ENDBRANCH   1  27
TORSDOF 25
ENDMDL
