MODEL 1
REMARK VINA RESULT:      -9.9      0.000      0.000
REMARK SMILES C=CCn1nc(C(=O)OCCOCCOCCOCCOC(=O)c2ccc(-c3c4nc(c(-c5cccc(S(=O)(=O)[O-])c5F)c5ccc([nH]5)c(-c5cccc(S(=O)(=O)[O-])c5F)c5nc(c(-c6cccc(S(=O)(=O)[O-])c6F)c6ccc3[nH]6)C=C5)C=C4)cc2)c2c1CC[C@@H]([NH+]1CCC(C(C)(C)O)CC1)C2
REMARK SMILES IDX 15 1 14 2 13 3 12 4 11 5 10 6 9 7 7 8 8 9 6 10 4 11 5 12
REMARK SMILES IDX 88 13 87 14 89 15 102 16 90 17 91 18 3 19 2 20 1 21 92 22
REMARK SMILES IDX 93 23 101 24 94 26 100 27 95 28 96 29 97 30 98 31 99 32
REMARK SMILES IDX 16 34 17 35 18 36 19 37 20 38 21 39 22 40 23 41 24 42 25 43
REMARK SMILES IDX 86 44 26 45 85 46 27 47 28 48 29 49 79 50 30 51 84 52 78 53
REMARK SMILES IDX 80 54 31 55 83 56 77 57 76 58 32 60 64 61 44 62 63 63 45 64
REMARK SMILES IDX 48 65 62 66 81 67 46 68 47 69 61 71 82 72 49 73 33 74 34 75
REMARK SMILES IDX 42 76 35 77 37 78 43 79 36 80 38 81 39 82 40 83 41 84 65 85
REMARK SMILES IDX 66 86 74 87 67 88 69 89 75 90 68 91 70 92 71 93 72 94 73 95
REMARK SMILES IDX 50 96 51 97 59 98 52 99 54 100 60 101 53 102 55 103 56 104
REMARK SMILES IDX 57 105 58 106
REMARK H PARENT 92 25 99 33 80 59 48 70
REMARK Flexibility Score: inf
ROOT
ATOM      1  O   UNL A   1      43.136  19.459  25.481  1.00  0.00    -0.377 OA
ENDROOT
BRANCH   1   2
ATOM      2  C   UNL A   1      41.971  19.098  26.193  1.00  0.00     0.188 C 
BRANCH   2   3
ATOM      3  C   UNL A   1      40.648  19.880  26.042  1.00  0.00     0.188 C 
BRANCH   3   4
ATOM      4  O   UNL A   1      39.511  19.166  25.620  1.00  0.00    -0.376 OA
BRANCH   4   5
ATOM      5  C   UNL A   1      38.393  19.701  24.960  1.00  0.00     0.202 C 
BRANCH   5   6
ATOM      6  C   UNL A   1      37.727  21.037  25.284  1.00  0.00     0.261 C 
BRANCH   6   7
ATOM      7  O   UNL A   1      36.353  21.151  24.974  1.00  0.00    -0.458 OA
BRANCH   7   8
ATOM      8  C   UNL A   1      36.011  22.059  24.018  1.00  0.00     0.359 C 
ATOM      9  O   UNL A   1      36.765  22.444  23.134  1.00  0.00    -0.244 OA
BRANCH   8  10
ATOM     10  C   UNL A   1      34.608  22.451  24.177  1.00  0.00     0.174 A 
ATOM     11  N   UNL A   1      32.504  22.318  24.509  1.00  0.00    -0.265 N 
ATOM     12  N   UNL A   1      33.647  21.595  24.595  1.00  0.00    -0.165 NA
ATOM     13  C   UNL A   1      32.713  23.485  23.834  1.00  0.00     0.043 A 
ATOM     14  C   UNL A   1      34.056  23.738  23.942  1.00  0.00     0.014 A 
ATOM     15  C   UNL A   1      31.730  24.363  23.181  1.00  0.00     0.062 C 
ATOM     16  C   UNL A   1      34.661  25.073  23.646  1.00  0.00     0.105 C 
ATOM     17  C   UNL A   1      32.424  25.607  22.609  1.00  0.00     0.072 C 
ATOM     18  C   UNL A   1      33.573  26.191  23.471  1.00  0.00     0.189 C 
BRANCH  11  19
ATOM     19  C   UNL A   1      31.353  21.955  25.339  1.00  0.00     0.171 C 
BRANCH  19  20
ATOM     20  C   UNL A   1      31.177  22.797  26.569  1.00  0.00    -0.011 C 
ATOM     21  C   UNL A   1      30.168  23.652  26.774  1.00  0.00     0.006 C 
ENDBRANCH  19  20
ENDBRANCH  11  19
BRANCH  18  22
ATOM     22  N   UNL A   1      33.269  26.953  24.700  1.00  0.00    -0.332 N 
ATOM     23  C   UNL A   1      32.029  26.780  25.431  1.00  0.00     0.262 C 
ATOM     24  C   UNL A   1      33.657  28.359  24.717  1.00  0.00     0.262 C 
ATOM     25  H   UNL A   1      33.926  26.389  25.239  1.00  0.00     0.348 HD
ATOM     26  C   UNL A   1      30.856  27.657  24.981  1.00  0.00     0.068 C 
ATOM     27  C   UNL A   1      32.662  29.277  24.020  1.00  0.00     0.068 C 
ATOM     28  C   UNL A   1      31.172  29.051  24.371  1.00  0.00     0.031 C 
BRANCH  28  29
ATOM     29  C   UNL A   1      30.233  29.465  23.170  1.00  0.00     0.062 C 
ATOM     30  C   UNL A   1      29.320  28.334  22.684  1.00  0.00     0.042 C 
ATOM     31  C   UNL A   1      29.374  30.684  23.533  1.00  0.00     0.042 C 
BRANCH  29  32
ATOM     32  O   UNL A   1      31.017  29.863  22.039  1.00  0.00    -0.390 OA
ATOM     33  H   UNL A   1      31.774  29.263  21.944  1.00  0.00     0.211 HD
ENDBRANCH  29  32
ENDBRANCH  28  29
ENDBRANCH  18  22
ENDBRANCH   8  10
ENDBRANCH   7   8
ENDBRANCH   6   7
ENDBRANCH   5   6
ENDBRANCH   4   5
ENDBRANCH   3   4
ENDBRANCH   2   3
ENDBRANCH   1   2
BRANCH   1  34
ATOM     34  C   UNL A   1      44.297  18.648  25.485  1.00  0.00     0.188 C 
BRANCH  34  35
ATOM     35  C   UNL A   1      45.707  19.156  25.091  1.00  0.00     0.188 C 
BRANCH  35  36
ATOM     36  O   UNL A   1      45.769  20.294  24.257  1.00  0.00    -0.376 OA
BRANCH  36  37
ATOM     37  C   UNL A   1      45.690  21.633  24.693  1.00  0.00     0.202 C 
BRANCH  37  38
ATOM     38  C   UNL A   1      44.868  22.687  23.968  1.00  0.00     0.261 C 
BRANCH  38  39
ATOM     39  O   UNL A   1      44.789  23.922  24.635  1.00  0.00    -0.460 OA
BRANCH  39  40
ATOM     40  C   UNL A   1      43.545  24.210  25.064  1.00  0.00     0.338 C 
ATOM     41  O   UNL A   1      42.618  23.437  25.210  1.00  0.00    -0.246 OA
BRANCH  40  42
ATOM     42  C   UNL A   1      43.453  25.660  25.210  1.00  0.00     0.060 A 
ATOM     43  C   UNL A   1      44.554  26.260  25.815  1.00  0.00     0.016 A 
ATOM     44  C   UNL A   1      42.175  26.244  25.180  1.00  0.00     0.016 A 
ATOM     45  C   UNL A   1      44.299  27.294  26.673  1.00  0.00     0.010 A 
ATOM     46  C   UNL A   1      41.921  27.265  26.051  1.00  0.00     0.010 A 
ATOM     47  C   UNL A   1      42.967  27.688  26.860  1.00  0.00    -0.014 A 
BRANCH  47  48
ATOM     48  C   UNL A   1      42.715  28.642  27.905  1.00  0.00     0.031 A 
ATOM     49  C   UNL A   1      43.605  29.809  27.788  1.00  0.00     0.074 A 
ATOM     50  C   UNL A   1      41.758  28.458  28.830  1.00  0.00     0.049 A 
ATOM     51  N   UNL A   1      44.610  30.094  28.542  1.00  0.00    -0.248 NA
ATOM     52  C   UNL A   1      43.516  30.611  26.558  1.00  0.00     0.031 C 
ATOM     53  C   UNL A   1      40.673  27.475  28.843  1.00  0.00     0.029 A 
ATOM     54  N   UNL A   1      41.478  29.239  29.902  1.00  0.00    -0.354 N 
ATOM     55  C   UNL A   1      45.120  31.273  28.019  1.00  0.00     0.074 A 
ATOM     56  C   UNL A   1      44.580  31.402  26.693  1.00  0.00     0.031 C 
ATOM     57  C   UNL A   1      39.714  27.899  29.699  1.00  0.00     0.029 A 
ATOM     58  C   UNL A   1      40.178  29.102  30.370  1.00  0.00     0.049 A 
ATOM     59  H   UNL A   1      42.136  29.846  30.312  1.00  0.00     0.167 HD
ATOM     60  C   UNL A   1      45.690  32.198  28.833  1.00  0.00     0.034 A 
ATOM     61  C   UNL A   1      39.521  30.002  31.144  1.00  0.00     0.034 A 
ATOM     62  C   UNL A   1      46.072  31.626  30.100  1.00  0.00     0.049 A 
ATOM     63  C   UNL A   1      40.551  30.860  31.791  1.00  0.00     0.074 A 
ATOM     64  C   UNL A   1      46.875  30.568  30.477  1.00  0.00     0.029 A 
ATOM     65  N   UNL A   1      45.260  31.887  31.179  1.00  0.00    -0.354 N 
ATOM     66  N   UNL A   1      41.407  30.412  32.667  1.00  0.00    -0.248 NA
ATOM     67  C   UNL A   1      40.942  32.083  31.103  1.00  0.00     0.031 C 
ATOM     68  C   UNL A   1      46.176  29.940  31.549  1.00  0.00     0.029 A 
ATOM     69  C   UNL A   1      45.032  30.694  31.817  1.00  0.00     0.049 A 
ATOM     70  H   UNL A   1      44.907  32.767  31.445  1.00  0.00     0.167 HD
ATOM     71  C   UNL A   1      42.612  31.006  32.309  1.00  0.00     0.074 A 
ATOM     72  C   UNL A   1      42.244  32.094  31.401  1.00  0.00     0.031 C 
ATOM     73  C   UNL A   1      43.808  30.382  32.525  1.00  0.00     0.034 A 
BRANCH  60  74
ATOM     74  C   UNL A   1      45.534  33.680  28.630  1.00  0.00     0.023 A 
ATOM     75  C   UNL A   1      46.683  34.479  28.787  1.00  0.00     0.012 A 
ATOM     76  C   UNL A   1      44.288  34.349  28.556  1.00  0.00     0.148 A 
ATOM     77  C   UNL A   1      46.591  35.870  28.900  1.00  0.00     0.002 A 
ATOM     78  C   UNL A   1      44.211  35.733  28.574  1.00  0.00     0.091 A 
ATOM     79  F   UNL A   1      43.146  33.658  28.613  1.00  0.00    -0.205 F 
ATOM     80  C   UNL A   1      45.358  36.499  28.781  1.00  0.00     0.022 A 
BRANCH  78  81
ATOM     81  S   UNL A   1      42.643  36.587  28.363  1.00  0.00     0.127 S 
ATOM     82  O   UNL A   1      42.896  37.841  29.065  1.00  0.00    -0.237 OA
ATOM     83  O   UNL A   1      42.557  36.694  26.907  1.00  0.00    -0.237 OA
ATOM     84  O   UNL A   1      41.639  35.711  28.955  1.00  0.00    -0.744 OA
ENDBRANCH  78  81
ENDBRANCH  60  74
BRANCH  61  85
ATOM     85  C   UNL A   1      38.089  30.390  31.086  1.00  0.00     0.023 A 
ATOM     86  C   UNL A   1      37.343  30.497  32.277  1.00  0.00     0.012 A 
ATOM     87  C   UNL A   1      37.519  30.911  29.902  1.00  0.00     0.148 A 
ATOM     88  C   UNL A   1      36.086  31.116  32.291  1.00  0.00     0.002 A 
ATOM     89  C   UNL A   1      36.263  31.510  29.916  1.00  0.00     0.091 A 
ATOM     90  F   UNL A   1      38.244  30.910  28.776  1.00  0.00    -0.205 F 
ATOM     91  C   UNL A   1      35.547  31.625  31.112  1.00  0.00     0.022 A 
BRANCH  89  92
ATOM     92  S   UNL A   1      35.518  32.194  28.427  1.00  0.00     0.127 S 
ATOM     93  O   UNL A   1      35.524  31.042  27.526  1.00  0.00    -0.237 OA
ATOM     94  O   UNL A   1      34.196  32.592  28.903  1.00  0.00    -0.237 OA
ATOM     95  O   UNL A   1      36.393  33.283  28.007  1.00  0.00    -0.744 OA
ENDBRANCH  89  92
ENDBRANCH  61  85
BRANCH  73  96
ATOM     96  C   UNL A   1      43.826  29.124  33.358  1.00  0.00     0.023 A 
ATOM     97  C   UNL A   1      43.696  27.836  32.794  1.00  0.00     0.012 A 
ATOM     98  C   UNL A   1      44.181  29.233  34.713  1.00  0.00     0.148 A 
ATOM     99  C   UNL A   1      43.895  26.689  33.568  1.00  0.00     0.002 A 
ATOM    100  C   UNL A   1      44.426  28.092  35.468  1.00  0.00     0.091 A 
ATOM    101  F   UNL A   1      44.308  30.462  35.236  1.00  0.00    -0.205 F 
ATOM    102  C   UNL A   1      44.276  26.816  34.902  1.00  0.00     0.022 A 
BRANCH 100 103
ATOM    103  S   UNL A   1      45.042  28.196  37.150  1.00  0.00     0.127 S 
ATOM    104  O   UNL A   1      45.242  29.634  37.312  1.00  0.00    -0.237 OA
ATOM    105  O   UNL A   1      43.933  27.641  37.926  1.00  0.00    -0.237 OA
ATOM    106  O   UNL A   1      46.254  27.385  37.184  1.00  0.00    -0.744 OA
ENDBRANCH 100 103
ENDBRANCH  73  96
ENDBRANCH  47  48
ENDBRANCH  40  42
ENDBRANCH  39  40
ENDBRANCH  38  39
ENDBRANCH  37  38
ENDBRANCH  36  37
ENDBRANCH  35  36
ENDBRANCH  34  35
ENDBRANCH   1  34
TORSDOF 28
ENDMDL
MODEL 2
REMARK VINA RESULT:      -9.4      3.039      8.314
REMARK SMILES C=CCn1nc(C(=O)OCCOCCOCCOCCOC(=O)c2ccc(-c3c4nc(c(-c5cccc(S(=O)(=O)[O-])c5F)c5ccc([nH]5)c(-c5cccc(S(=O)(=O)[O-])c5F)c5nc(c(-c6cccc(S(=O)(=O)[O-])c6F)c6ccc3[nH]6)C=C5)C=C4)cc2)c2c1CC[C@@H]([NH+]1CCC(C(C)(C)O)CC1)C2
REMARK SMILES IDX 15 1 14 2 13 3 12 4 11 5 10 6 9 7 7 8 8 9 6 10 4 11 5 12
REMARK SMILES IDX 88 13 87 14 89 15 102 16 90 17 91 18 3 19 2 20 1 21 92 22
REMARK SMILES IDX 93 23 101 24 94 26 100 27 95 28 96 29 97 30 98 31 99 32
REMARK SMILES IDX 16 34 17 35 18 36 19 37 20 38 21 39 22 40 23 41 24 42 25 43
REMARK SMILES IDX 86 44 26 45 85 46 27 47 28 48 29 49 79 50 30 51 84 52 78 53
REMARK SMILES IDX 80 54 31 55 83 56 77 57 76 58 32 60 64 61 44 62 63 63 45 64
REMARK SMILES IDX 48 65 62 66 81 67 46 68 47 69 61 71 82 72 49 73 33 74 34 75
REMARK SMILES IDX 42 76 35 77 37 78 43 79 36 80 38 81 39 82 40 83 41 84 65 85
REMARK SMILES IDX 66 86 74 87 67 88 69 89 75 90 68 91 70 92 71 93 72 94 73 95
REMARK SMILES IDX 50 96 51 97 59 98 52 99 54 100 60 101 53 102 55 103 56 104
REMARK SMILES IDX 57 105 58 106
REMARK H PARENT 92 25 99 33 80 59 48 70
REMARK Flexibility Score: inf
ROOT
ATOM      1  O   UNL A   1      38.226  27.756  29.707  1.00  0.00    -0.377 OA
ENDROOT
BRANCH   1   2
ATOM      2  C   UNL A   1      38.907  27.501  28.497  1.00  0.00     0.188 C 
BRANCH   2   3
ATOM      3  C   UNL A   1      39.716  26.205  28.274  1.00  0.00     0.188 C 
BRANCH   3   4
ATOM      4  O   UNL A   1      39.006  25.045  27.912  1.00  0.00    -0.376 OA
BRANCH   4   5
ATOM      5  C   UNL A   1      38.982  24.449  26.640  1.00  0.00     0.202 C 
BRANCH   5   6
ATOM      6  C   UNL A   1      38.516  23.028  26.335  1.00  0.00     0.261 C 
BRANCH   6   7
ATOM      7  O   UNL A   1      37.242  22.894  25.738  1.00  0.00    -0.458 OA
BRANCH   7   8
ATOM      8  C   UNL A   1      37.004  21.746  25.046  1.00  0.00     0.359 C 
ATOM      9  O   UNL A   1      37.874  20.952  24.709  1.00  0.00    -0.244 OA
BRANCH   8  10
ATOM     10  C   UNL A   1      35.565  21.583  24.822  1.00  0.00     0.174 A 
ATOM     11  N   UNL A   1      33.658  20.661  24.561  1.00  0.00    -0.265 N 
ATOM     12  N   UNL A   1      34.931  20.394  24.940  1.00  0.00    -0.165 NA
ATOM     13  C   UNL A   1      33.566  21.900  23.996  1.00  0.00     0.043 A 
ATOM     14  C   UNL A   1      34.641  22.604  24.476  1.00  0.00     0.014 A 
ATOM     15  C   UNL A   1      32.516  22.440  23.120  1.00  0.00     0.062 C 
ATOM     16  C   UNL A   1      34.745  24.093  24.388  1.00  0.00     0.105 C 
ATOM     17  C   UNL A   1      32.802  23.912  22.790  1.00  0.00     0.072 C 
ATOM     18  C   UNL A   1      33.393  24.757  23.947  1.00  0.00     0.189 C 
BRANCH  11  19
ATOM     19  C   UNL A   1      32.566  19.807  25.034  1.00  0.00     0.171 C 
BRANCH  19  20
ATOM     20  C   UNL A   1      32.679  18.366  24.631  1.00  0.00    -0.011 C 
ATOM     21  C   UNL A   1      32.574  17.326  25.467  1.00  0.00     0.006 C 
ENDBRANCH  19  20
ENDBRANCH  11  19
BRANCH  18  22
ATOM     22  N   UNL A   1      32.530  25.198  25.063  1.00  0.00    -0.332 N 
ATOM     23  C   UNL A   1      31.086  25.074  25.021  1.00  0.00     0.262 C 
ATOM     24  C   UNL A   1      32.896  26.443  25.728  1.00  0.00     0.262 C 
ATOM     25  H   UNL A   1      32.806  24.393  25.624  1.00  0.00     0.348 HD
ATOM     26  C   UNL A   1      30.328  26.249  24.395  1.00  0.00     0.068 C 
ATOM     27  C   UNL A   1      32.419  27.691  24.997  1.00  0.00     0.068 C 
ATOM     28  C   UNL A   1      30.950  27.668  24.509  1.00  0.00     0.031 C 
BRANCH  28  29
ATOM     29  C   UNL A   1      30.761  28.568  23.224  1.00  0.00     0.062 C 
ATOM     30  C   UNL A   1      29.829  29.765  23.442  1.00  0.00     0.042 C 
ATOM     31  C   UNL A   1      32.112  29.072  22.696  1.00  0.00     0.042 C 
BRANCH  29  32
ATOM     32  O   UNL A   1      30.187  27.800  22.159  1.00  0.00    -0.390 OA
ATOM     33  H   UNL A   1      29.242  27.666  22.331  1.00  0.00     0.211 HD
ENDBRANCH  29  32
ENDBRANCH  28  29
ENDBRANCH  18  22
ENDBRANCH   8  10
ENDBRANCH   7   8
ENDBRANCH   6   7
ENDBRANCH   5   6
ENDBRANCH   4   5
ENDBRANCH   3   4
ENDBRANCH   2   3
ENDBRANCH   1   2
BRANCH   1  34
ATOM     34  C   UNL A   1      38.789  27.434  30.966  1.00  0.00     0.188 C 
BRANCH  34  35
ATOM     35  C   UNL A   1      38.273  27.999  32.314  1.00  0.00     0.188 C 
BRANCH  35  36
ATOM     36  O   UNL A   1      37.572  29.224  32.270  1.00  0.00    -0.376 OA
BRANCH  36  37
ATOM     37  C   UNL A   1      37.798  30.327  33.119  1.00  0.00     0.202 C 
BRANCH  37  38
ATOM     38  C   UNL A   1      37.350  31.738  32.772  1.00  0.00     0.261 C 
BRANCH  38  39
ATOM     39  O   UNL A   1      37.147  31.963  31.399  1.00  0.00    -0.460 OA
BRANCH  39  40
ATOM     40  C   UNL A   1      37.781  33.061  30.946  1.00  0.00     0.338 C 
ATOM     41  O   UNL A   1      37.386  34.210  30.987  1.00  0.00    -0.246 OA
BRANCH  40  42
ATOM     42  C   UNL A   1      38.997  32.620  30.267  1.00  0.00     0.060 A 
ATOM     43  C   UNL A   1      38.911  31.371  29.660  1.00  0.00     0.016 A 
ATOM     44  C   UNL A   1      40.214  33.210  30.649  1.00  0.00     0.016 A 
ATOM     45  C   UNL A   1      40.017  30.571  29.734  1.00  0.00     0.010 A 
ATOM     46  C   UNL A   1      41.313  32.403  30.738  1.00  0.00     0.010 A 
ATOM     47  C   UNL A   1      41.154  31.069  30.384  1.00  0.00    -0.014 A 
BRANCH  47  48
ATOM     48  C   UNL A   1      42.228  30.143  30.612  1.00  0.00     0.031 A 
ATOM     49  C   UNL A   1      42.598  30.095  32.036  1.00  0.00     0.074 A 
ATOM     50  C   UNL A   1      42.772  29.415  29.622  1.00  0.00     0.049 A 
ATOM     51  N   UNL A   1      43.659  30.588  32.577  1.00  0.00    -0.248 NA
ATOM     52  C   UNL A   1      41.564  29.670  32.993  1.00  0.00     0.031 C 
ATOM     53  C   UNL A   1      42.280  29.209  28.258  1.00  0.00     0.029 A 
ATOM     54  N   UNL A   1      43.833  28.574  29.696  1.00  0.00    -0.354 N 
ATOM     55  C   UNL A   1      43.536  30.293  33.927  1.00  0.00     0.074 A 
ATOM     56  C   UNL A   1      42.154  29.963  34.151  1.00  0.00     0.031 C 
ATOM     57  C   UNL A   1      42.869  28.103  27.746  1.00  0.00     0.029 A 
ATOM     58  C   UNL A   1      43.854  27.611  28.696  1.00  0.00     0.049 A 
ATOM     59  H   UNL A   1      44.524  28.640  30.393  1.00  0.00     0.167 HD
ATOM     60  C   UNL A   1      44.637  30.041  34.679  1.00  0.00     0.034 A 
ATOM     61  C   UNL A   1      44.543  26.443  28.741  1.00  0.00     0.034 A 
ATOM     62  C   UNL A   1      45.835  30.538  34.051  1.00  0.00     0.049 A 
ATOM     63  C   UNL A   1      45.613  26.604  29.761  1.00  0.00     0.074 A 
ATOM     64  C   UNL A   1      46.239  31.776  33.591  1.00  0.00     0.029 A 
ATOM     65  N   UNL A   1      46.647  29.620  33.428  1.00  0.00    -0.354 N 
ATOM     66  N   UNL A   1      46.612  27.434  29.626  1.00  0.00    -0.248 NA
ATOM     67  C   UNL A   1      45.308  26.211  31.130  1.00  0.00     0.031 C 
ATOM     68  C   UNL A   1      46.918  31.509  32.367  1.00  0.00     0.029 A 
ATOM     69  C   UNL A   1      46.960  30.125  32.191  1.00  0.00     0.049 A 
ATOM     70  H   UNL A   1      46.948  28.760  33.799  1.00  0.00     0.167 HD
ATOM     71  C   UNL A   1      46.747  28.019  30.880  1.00  0.00     0.074 A 
ATOM     72  C   UNL A   1      45.983  27.161  31.786  1.00  0.00     0.031 C 
ATOM     73  C   UNL A   1      47.197  29.302  31.024  1.00  0.00     0.034 A 
BRANCH  60  74
ATOM     74  C   UNL A   1      44.667  29.005  35.771  1.00  0.00     0.023 A 
ATOM     75  C   UNL A   1      45.214  29.388  37.011  1.00  0.00     0.012 A 
ATOM     76  C   UNL A   1      44.434  27.623  35.567  1.00  0.00     0.148 A 
ATOM     77  C   UNL A   1      45.546  28.440  37.983  1.00  0.00     0.002 A 
ATOM     78  C   UNL A   1      44.677  26.697  36.569  1.00  0.00     0.091 A 
ATOM     79  F   UNL A   1      44.112  27.164  34.354  1.00  0.00    -0.205 F 
ATOM     80  C   UNL A   1      45.266  27.095  37.769  1.00  0.00     0.022 A 
BRANCH  78  81
ATOM     81  S   UNL A   1      44.275  24.959  36.355  1.00  0.00     0.127 S 
ATOM     82  O   UNL A   1      44.475  24.442  37.706  1.00  0.00    -0.237 OA
ATOM     83  O   UNL A   1      42.881  25.028  35.915  1.00  0.00    -0.237 OA
ATOM     84  O   UNL A   1      45.196  24.466  35.337  1.00  0.00    -0.744 OA
ENDBRANCH  78  81
ENDBRANCH  60  74
BRANCH  61  85
ATOM     85  C   UNL A   1      44.126  25.112  28.232  1.00  0.00     0.023 A 
ATOM     86  C   UNL A   1      42.918  24.539  28.675  1.00  0.00     0.012 A 
ATOM     87  C   UNL A   1      44.769  24.519  27.121  1.00  0.00     0.148 A 
ATOM     88  C   UNL A   1      42.360  23.429  28.025  1.00  0.00     0.002 A 
ATOM     89  C   UNL A   1      44.223  23.406  26.488  1.00  0.00     0.091 A 
ATOM     90  F   UNL A   1      45.866  25.099  26.619  1.00  0.00    -0.205 F 
ATOM     91  C   UNL A   1      43.011  22.865  26.930  1.00  0.00     0.022 A 
BRANCH  89  92
ATOM     92  S   UNL A   1      45.011  22.640  25.064  1.00  0.00     0.127 S 
ATOM     93  O   UNL A   1      46.156  21.964  25.676  1.00  0.00    -0.237 OA
ATOM     94  O   UNL A   1      43.961  21.747  24.579  1.00  0.00    -0.237 OA
ATOM     95  O   UNL A   1      45.373  23.733  24.170  1.00  0.00    -0.744 OA
ENDBRANCH  89  92
ENDBRANCH  61  85
BRANCH  73  96
ATOM     96  C   UNL A   1      47.755  30.012  29.815  1.00  0.00     0.023 A 
ATOM     97  C   UNL A   1      49.077  29.814  29.359  1.00  0.00     0.012 A 
ATOM     98  C   UNL A   1      46.867  30.742  29.008  1.00  0.00     0.148 A 
ATOM     99  C   UNL A   1      49.504  30.347  28.139  1.00  0.00     0.002 A 
ATOM    100  C   UNL A   1      47.280  31.229  27.773  1.00  0.00     0.091 A 
ATOM    101  F   UNL A   1      45.612  30.918  29.449  1.00  0.00    -0.205 F 
ATOM    102  C   UNL A   1      48.601  31.042  27.338  1.00  0.00     0.022 A 
BRANCH 100 103
ATOM    103  S   UNL A   1      46.129  32.018  26.645  1.00  0.00     0.127 S 
ATOM    104  O   UNL A   1      45.778  30.919  25.750  1.00  0.00    -0.237 OA
ATOM    105  O   UNL A   1      45.054  32.445  27.541  1.00  0.00    -0.237 OA
ATOM    106  O   UNL A   1      46.861  33.120  26.031  1.00  0.00    -0.744 OA
ENDBRANCH 100 103
ENDBRANCH  73  96
ENDBRANCH  47  48
ENDBRANCH  40  42
ENDBRANCH  39  40
ENDBRANCH  38  39
ENDBRANCH  37  38
ENDBRANCH  36  37
ENDBRANCH  35  36
ENDBRANCH  34  35
ENDBRANCH   1  34
TORSDOF 28
ENDMDL
MODEL 3
REMARK VINA RESULT:      -9.3      2.904      7.372
REMARK SMILES C=CCn1nc(C(=O)OCCOCCOCCOCCOC(=O)c2ccc(-c3c4nc(c(-c5cccc(S(=O)(=O)[O-])c5F)c5ccc([nH]5)c(-c5cccc(S(=O)(=O)[O-])c5F)c5nc(c(-c6cccc(S(=O)(=O)[O-])c6F)c6ccc3[nH]6)C=C5)C=C4)cc2)c2c1CC[C@@H]([NH+]1CCC(C(C)(C)O)CC1)C2
REMARK SMILES IDX 15 1 14 2 13 3 12 4 11 5 10 6 9 7 7 8 8 9 6 10 4 11 5 12
REMARK SMILES IDX 88 13 87 14 89 15 102 16 90 17 91 18 3 19 2 20 1 21 92 22
REMARK SMILES IDX 93 23 101 24 94 26 100 27 95 28 96 29 97 30 98 31 99 32
REMARK SMILES IDX 16 34 17 35 18 36 19 37 20 38 21 39 22 40 23 41 24 42 25 43
REMARK SMILES IDX 86 44 26 45 85 46 27 47 28 48 29 49 79 50 30 51 84 52 78 53
REMARK SMILES IDX 80 54 31 55 83 56 77 57 76 58 32 60 64 61 44 62 63 63 45 64
REMARK SMILES IDX 48 65 62 66 81 67 46 68 47 69 61 71 82 72 49 73 33 74 34 75
REMARK SMILES IDX 42 76 35 77 37 78 43 79 36 80 38 81 39 82 40 83 41 84 65 85
REMARK SMILES IDX 66 86 74 87 67 88 69 89 75 90 68 91 70 92 71 93 72 94 73 95
REMARK SMILES IDX 50 96 51 97 59 98 52 99 54 100 60 101 53 102 55 103 56 104
REMARK SMILES IDX 57 105 58 106
REMARK H PARENT 92 25 99 33 80 59 48 70
REMARK Flexibility Score: inf
ROOT
ATOM      1  O   UNL A   1      37.814  21.773  25.106  1.00  0.00    -0.377 OA
ENDROOT
BRANCH   1   2
ATOM      2  C   UNL A   1      36.826  22.550  25.749  1.00  0.00     0.188 C 
BRANCH   2   3
ATOM      3  C   UNL A   1      35.327  22.190  25.671  1.00  0.00     0.188 C 
BRANCH   3   4
ATOM      4  O   UNL A   1      34.967  20.844  25.873  1.00  0.00    -0.376 OA
BRANCH   4   5
ATOM      5  C   UNL A   1      33.951  20.147  25.197  1.00  0.00     0.202 C 
BRANCH   5   6
ATOM      6  C   UNL A   1      32.760  20.785  24.485  1.00  0.00     0.261 C 
BRANCH   6   7
ATOM      7  O   UNL A   1      31.553  20.861  25.216  1.00  0.00    -0.458 OA
BRANCH   7   8
ATOM      8  C   UNL A   1      31.007  22.099  25.372  1.00  0.00     0.359 C 
ATOM      9  O   UNL A   1      30.068  22.348  26.118  1.00  0.00    -0.244 OA
BRANCH   8  10
ATOM     10  C   UNL A   1      31.743  23.078  24.568  1.00  0.00     0.174 A 
ATOM     11  N   UNL A   1      32.741  23.985  22.913  1.00  0.00    -0.265 N 
ATOM     12  N   UNL A   1      31.953  22.932  23.240  1.00  0.00    -0.165 NA
ATOM     13  C   UNL A   1      33.202  24.615  24.032  1.00  0.00     0.043 A 
ATOM     14  C   UNL A   1      32.316  24.293  25.029  1.00  0.00     0.014 A 
ATOM     15  C   UNL A   1      34.350  25.522  24.175  1.00  0.00     0.062 C 
ATOM     16  C   UNL A   1      32.243  25.033  26.326  1.00  0.00     0.105 C 
ATOM     17  C   UNL A   1      34.440  26.048  25.614  1.00  0.00     0.072 C 
ATOM     18  C   UNL A   1      33.085  26.358  26.301  1.00  0.00     0.189 C 
BRANCH  11  19
ATOM     19  C   UNL A   1      32.759  24.477  21.534  1.00  0.00     0.171 C 
BRANCH  19  20
ATOM     20  C   UNL A   1      31.914  25.694  21.293  1.00  0.00    -0.011 C 
ATOM     21  C   UNL A   1      31.341  26.431  22.252  1.00  0.00     0.006 C 
ENDBRANCH  19  20
ENDBRANCH  11  19
BRANCH  18  22
ATOM     22  N   UNL A   1      32.321  27.567  25.930  1.00  0.00    -0.332 N 
ATOM     23  C   UNL A   1      32.793  28.504  24.930  1.00  0.00     0.262 C 
ATOM     24  C   UNL A   1      31.668  28.294  27.014  1.00  0.00     0.262 C 
ATOM     25  H   UNL A   1      31.645  27.008  25.410  1.00  0.00     0.348 HD
ATOM     26  C   UNL A   1      33.704  29.626  25.436  1.00  0.00     0.068 C 
ATOM     27  C   UNL A   1      32.599  29.233  27.768  1.00  0.00     0.068 C 
ATOM     28  C   UNL A   1      33.510  30.129  26.893  1.00  0.00     0.031 C 
BRANCH  28  29
ATOM     29  C   UNL A   1      34.852  30.485  27.645  1.00  0.00     0.062 C 
ATOM     30  C   UNL A   1      34.868  31.898  28.242  1.00  0.00     0.042 C 
ATOM     31  C   UNL A   1      35.155  29.467  28.754  1.00  0.00     0.042 C 
BRANCH  29  32
ATOM     32  O   UNL A   1      35.962  30.418  26.741  1.00  0.00    -0.390 OA
ATOM     33  H   UNL A   1      35.674  30.693  25.856  1.00  0.00     0.211 HD
ENDBRANCH  29  32
ENDBRANCH  28  29
ENDBRANCH  18  22
ENDBRANCH   8  10
ENDBRANCH   7   8
ENDBRANCH   6   7
ENDBRANCH   5   6
ENDBRANCH   4   5
ENDBRANCH   3   4
ENDBRANCH   2   3
ENDBRANCH   1   2
BRANCH   1  34
ATOM     34  C   UNL A   1      38.920  21.235  25.809  1.00  0.00     0.188 C 
BRANCH  34  35
ATOM     35  C   UNL A   1      39.840  22.066  26.738  1.00  0.00     0.188 C 
BRANCH  35  36
ATOM     36  O   UNL A   1      40.861  22.822  26.122  1.00  0.00    -0.376 OA
BRANCH  36  37
ATOM     37  C   UNL A   1      42.183  22.949  26.595  1.00  0.00     0.202 C 
BRANCH  37  38
ATOM     38  C   UNL A   1      43.055  24.157  26.287  1.00  0.00     0.261 C 
BRANCH  38  39
ATOM     39  O   UNL A   1      42.655  25.341  26.931  1.00  0.00    -0.460 OA
BRANCH  39  40
ATOM     40  C   UNL A   1      41.673  25.990  26.277  1.00  0.00     0.338 C 
ATOM     41  O   UNL A   1      41.491  26.035  25.076  1.00  0.00    -0.246 OA
BRANCH  40  42
ATOM     42  C   UNL A   1      40.916  26.755  27.265  1.00  0.00     0.060 A 
ATOM     43  C   UNL A   1      40.525  28.025  26.850  1.00  0.00     0.016 A 
ATOM     44  C   UNL A   1      41.039  26.389  28.616  1.00  0.00     0.016 A 
ATOM     45  C   UNL A   1      40.575  29.022  27.784  1.00  0.00     0.010 A 
ATOM     46  C   UNL A   1      41.105  27.389  29.544  1.00  0.00     0.010 A 
ATOM     47  C   UNL A   1      40.984  28.694  29.084  1.00  0.00    -0.014 A 
BRANCH  47  48
ATOM     48  C   UNL A   1      41.209  29.788  29.988  1.00  0.00     0.031 A 
ATOM     49  C   UNL A   1      39.937  30.365  30.454  1.00  0.00     0.074 A 
ATOM     50  C   UNL A   1      42.442  30.177  30.352  1.00  0.00     0.049 A 
ATOM     51  N   UNL A   1      39.427  31.496  30.103  1.00  0.00    -0.248 NA
ATOM     52  C   UNL A   1      39.022  29.485  31.196  1.00  0.00     0.031 C 
ATOM     53  C   UNL A   1      43.718  29.487  30.151  1.00  0.00     0.029 A 
ATOM     54  N   UNL A   1      42.784  31.235  31.128  1.00  0.00    -0.354 N 
ATOM     55  C   UNL A   1      38.232  31.574  30.803  1.00  0.00     0.074 A 
ATOM     56  C   UNL A   1      37.927  30.241  31.247  1.00  0.00     0.031 C 
ATOM     57  C   UNL A   1      44.626  29.991  31.020  1.00  0.00     0.029 A 
ATOM     58  C   UNL A   1      44.026  31.105  31.736  1.00  0.00     0.049 A 
ATOM     59  H   UNL A   1      42.207  32.023  31.248  1.00  0.00     0.167 HD
ATOM     60  C   UNL A   1      37.759  32.774  31.225  1.00  0.00     0.034 A 
ATOM     61  C   UNL A   1      44.443  31.790  32.830  1.00  0.00     0.034 A 
ATOM     62  C   UNL A   1      38.366  33.867  30.507  1.00  0.00     0.049 A 
ATOM     63  C   UNL A   1      43.585  33.001  32.942  1.00  0.00     0.074 A 
ATOM     64  C   UNL A   1      38.472  34.201  29.171  1.00  0.00     0.029 A 
ATOM     65  N   UNL A   1      39.352  34.575  31.153  1.00  0.00    -0.354 N 
ATOM     66  N   UNL A   1      43.598  33.970  32.068  1.00  0.00    -0.248 NA
ATOM     67  C   UNL A   1      42.377  32.902  33.749  1.00  0.00     0.031 C 
ATOM     68  C   UNL A   1      39.803  34.689  29.020  1.00  0.00     0.029 A 
ATOM     69  C   UNL A   1      40.402  34.701  30.281  1.00  0.00     0.049 A 
ATOM     70  H   UNL A   1      39.311  34.927  32.072  1.00  0.00     0.167 HD
ATOM     71  C   UNL A   1      42.257  34.291  31.890  1.00  0.00     0.074 A 
ATOM     72  C   UNL A   1      41.563  33.669  33.018  1.00  0.00     0.031 C 
ATOM     73  C   UNL A   1      41.788  34.761  30.695  1.00  0.00     0.034 A 
BRANCH  60  74
ATOM     74  C   UNL A   1      37.057  32.964  32.543  1.00  0.00     0.023 A 
ATOM     75  C   UNL A   1      35.856  33.698  32.536  1.00  0.00     0.012 A 
ATOM     76  C   UNL A   1      37.641  32.693  33.805  1.00  0.00     0.148 A 
ATOM     77  C   UNL A   1      35.284  34.169  33.722  1.00  0.00     0.002 A 
ATOM     78  C   UNL A   1      37.022  33.080  34.983  1.00  0.00     0.091 A 
ATOM     79  F   UNL A   1      38.874  32.185  33.883  1.00  0.00    -0.205 F 
ATOM     80  C   UNL A   1      35.859  33.849  34.947  1.00  0.00     0.022 A 
BRANCH  78  81
ATOM     81  S   UNL A   1      37.700  32.637  36.587  1.00  0.00     0.127 S 
ATOM     82  O   UNL A   1      36.668  33.137  37.490  1.00  0.00    -0.237 OA
ATOM     83  O   UNL A   1      37.783  31.180  36.482  1.00  0.00    -0.237 OA
ATOM     84  O   UNL A   1      38.995  33.302  36.661  1.00  0.00    -0.744 OA
ENDBRANCH  78  81
ENDBRANCH  60  74
BRANCH  61  85
ATOM     85  C   UNL A   1      45.274  31.300  33.959  1.00  0.00     0.023 A 
ATOM     86  C   UNL A   1      46.505  31.923  34.244  1.00  0.00     0.012 A 
ATOM     87  C   UNL A   1      44.751  30.403  34.918  1.00  0.00     0.148 A 
ATOM     88  C   UNL A   1      47.180  31.676  35.448  1.00  0.00     0.002 A 
ATOM     89  C   UNL A   1      45.431  30.147  36.105  1.00  0.00     0.091 A 
ATOM     90  F   UNL A   1      43.538  29.872  34.717  1.00  0.00    -0.205 F 
ATOM     91  C   UNL A   1      46.642  30.790  36.379  1.00  0.00     0.022 A 
BRANCH  89  92
ATOM     92  S   UNL A   1      44.783  29.021  37.349  1.00  0.00     0.127 S 
ATOM     93  O   UNL A   1      43.392  29.462  37.465  1.00  0.00    -0.237 OA
ATOM     94  O   UNL A   1      44.961  27.721  36.707  1.00  0.00    -0.237 OA
ATOM     95  O   UNL A   1      45.581  29.248  38.548  1.00  0.00    -0.744 OA
ENDBRANCH  89  92
ENDBRANCH  61  85
BRANCH  73  96
ATOM     96  C   UNL A   1      42.785  35.135  29.625  1.00  0.00     0.023 A 
ATOM     97  C   UNL A   1      43.366  36.418  29.542  1.00  0.00     0.012 A 
ATOM     98  C   UNL A   1      43.292  34.111  28.807  1.00  0.00     0.148 A 
ATOM     99  C   UNL A   1      44.413  36.677  28.652  1.00  0.00     0.002 A 
ATOM    100  C   UNL A   1      44.366  34.358  27.959  1.00  0.00     0.091 A 
ATOM    101  F   UNL A   1      42.736  32.893  28.899  1.00  0.00    -0.205 F 
ATOM    102  C   UNL A   1      44.924  35.643  27.871  1.00  0.00     0.022 A 
BRANCH 100 103
ATOM    103  S   UNL A   1      45.146  33.038  27.027  1.00  0.00     0.127 S 
ATOM    104  O   UNL A   1      44.078  32.638  26.114  1.00  0.00    -0.237 OA
ATOM    105  O   UNL A   1      46.270  33.725  26.391  1.00  0.00    -0.237 OA
ATOM    106  O   UNL A   1      45.543  32.035  28.009  1.00  0.00    -0.744 OA
ENDBRANCH 100 103
ENDBRANCH  73  96
ENDBRANCH  47  48
ENDBRANCH  40  42
ENDBRANCH  39  40
ENDBRANCH  38  39
ENDBRANCH  37  38
ENDBRANCH  36  37
ENDBRANCH  35  36
ENDBRANCH  34  35
ENDBRANCH   1  34
TORSDOF 28
ENDMDL
