MODEL 1
REMARK VINA RESULT:      -8.9      0.000      0.000
REMARK SMILES CCc1ncc(C[N@H+]2CCC[C@@H](c3cccc(C(=O)OCCOCCOCCOCCOC(=O)c4ccc(-c5c6nc(c(-c7cccc(S(=O)(=O)[O-])c7F)c7ccc([nH]7)c(-c7cccc(S(=O)(=O)[O-])c7F)c7nc(c(-c8cccc(S(=O)(=O)[O-])c8F)c8ccc5[nH]8)C=C7)C=C6)cc4)c3)C2)cn1
REMARK SMILES IDX 25 1 24 2 23 3 22 4 21 5 20 6 18 7 19 8 17 9 13 10 14 11
REMARK SMILES IDX 98 12 15 13 16 14 12 15 8 16 9 17 99 18 10 20 11 21 7 22
REMARK SMILES IDX 6 23 3 24 4 25 101 26 5 27 100 28 2 29 1 30 26 31 27 32
REMARK SMILES IDX 28 33 29 34 30 35 31 36 32 37 33 38 34 39 35 40 36 41 97 42
REMARK SMILES IDX 37 43 96 44 38 45 39 46 40 47 90 48 41 49 95 50 89 51 91 52
REMARK SMILES IDX 42 53 94 54 88 55 87 56 43 58 75 59 55 60 74 61 56 62 59 63
REMARK SMILES IDX 73 64 92 65 57 66 58 67 72 69 93 70 60 71 44 72 45 73 53 74
REMARK SMILES IDX 46 75 48 76 54 77 47 78 49 79 50 80 51 81 52 82 76 83 77 84
REMARK SMILES IDX 85 85 78 86 80 87 86 88 79 89 81 90 82 91 83 92 84 93 61 94
REMARK SMILES IDX 62 95 70 96 63 97 65 98 71 99 64 100 66 101 67 102 68 103
REMARK SMILES IDX 69 104
REMARK H PARENT 8 19 91 57 59 68
REMARK Flexibility Score: inf
ROOT
ATOM      1  C   UNL A   1      39.380  24.205  27.473  1.00  0.00     0.188 C 
ENDROOT
BRANCH   1   2
ATOM      2  C   UNL A   1      40.379  23.119  27.019  1.00  0.00     0.188 C 
BRANCH   2   3
ATOM      3  O   UNL A   1      39.767  21.950  26.508  1.00  0.00    -0.376 OA
BRANCH   3   4
ATOM      4  C   UNL A   1      38.582  22.052  25.741  1.00  0.00     0.202 C 
BRANCH   4   5
ATOM      5  C   UNL A   1      37.746  20.805  25.408  1.00  0.00     0.261 C 
BRANCH   5   6
ATOM      6  O   UNL A   1      36.498  21.036  24.754  1.00  0.00    -0.460 OA
BRANCH   6   7
ATOM      7  C   UNL A   1      35.420  21.289  25.526  1.00  0.00     0.338 C 
ATOM      8  O   UNL A   1      35.419  21.637  26.693  1.00  0.00    -0.246 OA
BRANCH   7   9
ATOM      9  C   UNL A   1      34.243  21.336  24.624  1.00  0.00     0.060 A 
ATOM     10  C   UNL A   1      32.514  22.573  23.436  1.00  0.00    -0.038 A 
ATOM     11  C   UNL A   1      31.882  21.351  23.145  1.00  0.00     0.004 A 
ATOM     12  C   UNL A   1      33.695  22.554  24.198  1.00  0.00     0.020 A 
ATOM     13  C   UNL A   1      32.425  20.139  23.577  1.00  0.00     0.001 A 
ATOM     14  C   UNL A   1      33.614  20.129  24.300  1.00  0.00     0.016 A 
BRANCH  10  15
ATOM     15  C   UNL A   1      32.071  23.882  22.788  1.00  0.00     0.074 C 
ATOM     16  N   UNL A   1      31.125  26.110  23.560  1.00  0.00    -0.331 N 
ATOM     17  C   UNL A   1      32.196  26.820  22.858  1.00  0.00     0.262 C 
ATOM     18  C   UNL A   1      31.519  24.751  23.935  1.00  0.00     0.270 C 
ATOM     19  H   UNL A   1      30.366  26.034  22.884  1.00  0.00     0.348 HD
ATOM     20  C   UNL A   1      32.675  26.036  21.630  1.00  0.00     0.062 C 
ATOM     21  C   UNL A   1      33.163  24.638  22.016  1.00  0.00     0.020 C 
BRANCH  16  22
ATOM     22  C   UNL A   1      30.561  26.857  24.702  1.00  0.00     0.302 C 
BRANCH  22  23
ATOM     23  C   UNL A   1      31.516  27.743  25.455  1.00  0.00     0.043 A 
ATOM     24  C   UNL A   1      33.398  29.301  26.652  1.00  0.00     0.127 A 
ATOM     25  N   UNL A   1      32.565  29.889  25.771  1.00  0.00    -0.241 NA
ATOM     26  N   UNL A   1      33.331  28.010  27.022  1.00  0.00    -0.241 NA
ATOM     27  C   UNL A   1      31.638  29.091  25.199  1.00  0.00     0.124 A 
ATOM     28  C   UNL A   1      32.383  27.265  26.420  1.00  0.00     0.124 A 
BRANCH  24  29
ATOM     29  C   UNL A   1      34.512  30.129  27.227  1.00  0.00     0.074 C 
ATOM     30  C   UNL A   1      33.997  31.442  27.800  1.00  0.00     0.012 C 
ENDBRANCH  24  29
ENDBRANCH  22  23
ENDBRANCH  16  22
ENDBRANCH  10  15
ENDBRANCH   7   9
ENDBRANCH   6   7
ENDBRANCH   5   6
ENDBRANCH   4   5
ENDBRANCH   3   4
ENDBRANCH   2   3
ENDBRANCH   1   2
BRANCH   1  31
ATOM     31  O   UNL A   1      39.405  25.466  26.828  1.00  0.00    -0.377 OA
BRANCH  31  32
ATOM     32  C   UNL A   1      40.418  26.414  27.150  1.00  0.00     0.188 C 
BRANCH  32  33
ATOM     33  C   UNL A   1      40.142  27.631  28.068  1.00  0.00     0.188 C 
BRANCH  33  34
ATOM     34  O   UNL A   1      38.800  28.089  28.078  1.00  0.00    -0.376 OA
BRANCH  34  35
ATOM     35  C   UNL A   1      38.223  28.419  29.327  1.00  0.00     0.202 C 
BRANCH  35  36
ATOM     36  C   UNL A   1      37.476  29.756  29.426  1.00  0.00     0.261 C 
BRANCH  36  37
ATOM     37  O   UNL A   1      37.733  30.538  30.600  1.00  0.00    -0.460 OA
BRANCH  37  38
ATOM     38  C   UNL A   1      37.579  29.923  31.796  1.00  0.00     0.338 C 
ATOM     39  O   UNL A   1      36.539  29.690  32.372  1.00  0.00    -0.246 OA
BRANCH  38  40
ATOM     40  C   UNL A   1      38.906  29.404  32.195  1.00  0.00     0.060 A 
ATOM     41  C   UNL A   1      40.017  30.257  32.136  1.00  0.00     0.016 A 
ATOM     42  C   UNL A   1      39.045  28.087  32.638  1.00  0.00     0.016 A 
ATOM     43  C   UNL A   1      41.280  29.780  32.487  1.00  0.00     0.010 A 
ATOM     44  C   UNL A   1      40.313  27.605  32.968  1.00  0.00     0.010 A 
ATOM     45  C   UNL A   1      41.441  28.439  32.858  1.00  0.00    -0.014 A 
BRANCH  45  46
ATOM     46  C   UNL A   1      42.802  27.858  32.941  1.00  0.00     0.031 A 
ATOM     47  C   UNL A   1      43.409  27.655  34.303  1.00  0.00     0.074 A 
ATOM     48  C   UNL A   1      43.488  27.518  31.836  1.00  0.00     0.049 A 
ATOM     49  N   UNL A   1      44.590  27.199  34.625  1.00  0.00    -0.248 NA
ATOM     50  C   UNL A   1      42.568  28.019  35.457  1.00  0.00     0.031 C 
ATOM     51  C   UNL A   1      43.006  27.659  30.463  1.00  0.00     0.029 A 
ATOM     52  N   UNL A   1      44.754  27.005  31.699  1.00  0.00    -0.354 N 
ATOM     53  C   UNL A   1      44.650  27.253  36.013  1.00  0.00     0.074 A 
ATOM     54  C   UNL A   1      43.390  27.796  36.471  1.00  0.00     0.031 C 
ATOM     55  C   UNL A   1      43.978  27.269  29.620  1.00  0.00     0.029 A 
ATOM     56  C   UNL A   1      45.159  26.881  30.391  1.00  0.00     0.049 A 
ATOM     57  H   UNL A   1      45.319  26.750  32.464  1.00  0.00     0.167 HD
ATOM     58  C   UNL A   1      45.657  26.875  36.834  1.00  0.00     0.034 A 
ATOM     59  C   UNL A   1      46.353  26.522  29.878  1.00  0.00     0.034 A 
ATOM     60  C   UNL A   1      46.905  26.329  36.376  1.00  0.00     0.049 A 
ATOM     61  C   UNL A   1      47.470  26.135  30.814  1.00  0.00     0.074 A 
ATOM     62  C   UNL A   1      47.970  25.871  37.131  1.00  0.00     0.029 A 
ATOM     63  N   UNL A   1      47.265  26.185  35.046  1.00  0.00    -0.354 N 
ATOM     64  N   UNL A   1      47.474  26.083  32.124  1.00  0.00    -0.248 NA
ATOM     65  C   UNL A   1      48.741  25.724  30.197  1.00  0.00     0.031 C 
ATOM     66  C   UNL A   1      48.992  25.491  36.256  1.00  0.00     0.029 A 
ATOM     67  C   UNL A   1      48.544  25.663  34.956  1.00  0.00     0.049 A 
ATOM     68  H   UNL A   1      46.695  26.419  34.278  1.00  0.00     0.167 HD
ATOM     69  C   UNL A   1      48.726  25.597  32.485  1.00  0.00     0.074 A 
ATOM     70  C   UNL A   1      49.449  25.352  31.255  1.00  0.00     0.031 C 
ATOM     71  C   UNL A   1      49.236  25.380  33.724  1.00  0.00     0.034 A 
BRANCH  58  72
ATOM     72  C   UNL A   1      45.449  27.042  38.316  1.00  0.00     0.023 A 
ATOM     73  C   UNL A   1      44.890  25.991  39.072  1.00  0.00     0.012 A 
ATOM     74  C   UNL A   1      45.852  28.224  38.968  1.00  0.00     0.148 A 
ATOM     75  C   UNL A   1      44.703  26.127  40.447  1.00  0.00     0.002 A 
ATOM     76  C   UNL A   1      45.709  28.332  40.346  1.00  0.00     0.091 A 
ATOM     77  F   UNL A   1      46.359  29.220  38.228  1.00  0.00    -0.205 F 
ATOM     78  C   UNL A   1      45.122  27.292  41.085  1.00  0.00     0.022 A 
BRANCH  76  79
ATOM     79  S   UNL A   1      46.293  29.757  41.270  1.00  0.00     0.127 S 
ATOM     80  O   UNL A   1      45.931  29.388  42.639  1.00  0.00    -0.237 OA
ATOM     81  O   UNL A   1      47.729  29.733  40.992  1.00  0.00    -0.237 OA
ATOM     82  O   UNL A   1      45.586  30.908  40.728  1.00  0.00    -0.744 OA
ENDBRANCH  76  79
ENDBRANCH  58  72
BRANCH  59  83
ATOM     83  C   UNL A   1      46.554  26.493  28.401  1.00  0.00     0.023 A 
ATOM     84  C   UNL A   1      47.133  27.601  27.753  1.00  0.00     0.012 A 
ATOM     85  C   UNL A   1      46.173  25.373  27.637  1.00  0.00     0.148 A 
ATOM     86  C   UNL A   1      47.297  27.607  26.366  1.00  0.00     0.002 A 
ATOM     87  C   UNL A   1      46.392  25.362  26.266  1.00  0.00     0.091 A 
ATOM     88  F   UNL A   1      45.609  24.335  28.272  1.00  0.00    -0.205 F 
ATOM     89  C   UNL A   1      46.936  26.486  25.625  1.00  0.00     0.022 A 
BRANCH  87  90
ATOM     90  S   UNL A   1      46.076  23.917  25.248  1.00  0.00     0.127 S 
ATOM     91  O   UNL A   1      46.869  24.211  24.057  1.00  0.00    -0.237 OA
ATOM     92  O   UNL A   1      46.600  22.840  26.087  1.00  0.00    -0.237 OA
ATOM     93  O   UNL A   1      44.634  23.881  25.049  1.00  0.00    -0.744 OA
ENDBRANCH  87  90
ENDBRANCH  59  83
BRANCH  71  94
ATOM     94  C   UNL A   1      50.624  24.800  33.822  1.00  0.00     0.023 A 
ATOM     95  C   UNL A   1      51.724  25.632  34.110  1.00  0.00     0.012 A 
ATOM     96  C   UNL A   1      50.827  23.411  33.693  1.00  0.00     0.148 A 
ATOM     97  C   UNL A   1      53.007  25.098  34.228  1.00  0.00     0.002 A 
ATOM     98  C   UNL A   1      52.099  22.878  33.867  1.00  0.00     0.091 A 
ATOM     99  F   UNL A   1      49.772  22.634  33.405  1.00  0.00    -0.205 F 
ATOM    100  C   UNL A   1      53.193  23.721  34.117  1.00  0.00     0.022 A 
BRANCH  98 101
ATOM    101  S   UNL A   1      52.416  21.110  33.844  1.00  0.00     0.127 S 
ATOM    102  O   UNL A   1      51.884  20.730  32.536  1.00  0.00    -0.237 OA
ATOM    103  O   UNL A   1      53.874  21.056  33.948  1.00  0.00    -0.237 OA
ATOM    104  O   UNL A   1      51.707  20.558  34.990  1.00  0.00    -0.744 OA
ENDBRANCH  98 101
ENDBRANCH  71  94
ENDBRANCH  45  46
ENDBRANCH  38  40
ENDBRANCH  37  38
ENDBRANCH  36  37
ENDBRANCH  35  36
ENDBRANCH  34  35
ENDBRANCH  33  34
ENDBRANCH  32  33
ENDBRANCH  31  32
ENDBRANCH   1  31
TORSDOF 27
ENDMDL
MODEL 2
REMARK VINA RESULT:      -8.2      7.356     13.024
REMARK SMILES CCc1ncc(C[N@H+]2CCC[C@@H](c3cccc(C(=O)OCCOCCOCCOCCOC(=O)c4ccc(-c5c6nc(c(-c7cccc(S(=O)(=O)[O-])c7F)c7ccc([nH]7)c(-c7cccc(S(=O)(=O)[O-])c7F)c7nc(c(-c8cccc(S(=O)(=O)[O-])c8F)c8ccc5[nH]8)C=C7)C=C6)cc4)c3)C2)cn1
REMARK SMILES IDX 25 1 24 2 23 3 22 4 21 5 20 6 18 7 19 8 17 9 13 10 14 11
REMARK SMILES IDX 98 12 15 13 16 14 12 15 8 16 9 17 99 18 10 20 11 21 7 22
REMARK SMILES IDX 6 23 3 24 4 25 101 26 5 27 100 28 2 29 1 30 26 31 27 32
REMARK SMILES IDX 28 33 29 34 30 35 31 36 32 37 33 38 34 39 35 40 36 41 97 42
REMARK SMILES IDX 37 43 96 44 38 45 39 46 40 47 90 48 41 49 95 50 89 51 91 52
REMARK SMILES IDX 42 53 94 54 88 55 87 56 43 58 75 59 55 60 74 61 56 62 59 63
REMARK SMILES IDX 73 64 92 65 57 66 58 67 72 69 93 70 60 71 44 72 45 73 53 74
REMARK SMILES IDX 46 75 48 76 54 77 47 78 49 79 50 80 51 81 52 82 76 83 77 84
REMARK SMILES IDX 85 85 78 86 80 87 86 88 79 89 81 90 82 91 83 92 84 93 61 94
REMARK SMILES IDX 62 95 70 96 63 97 65 98 71 99 64 100 66 101 67 102 68 103
REMARK SMILES IDX 69 104
REMARK H PARENT 8 19 91 57 59 68
REMARK Flexibility Score: inf
ROOT
ATOM      1  C   UNL A   1      45.805  27.784  26.540  1.00  0.00     0.188 C 
ENDROOT
BRANCH   1   2
ATOM      2  C   UNL A   1      45.075  27.085  25.373  1.00  0.00     0.188 C 
BRANCH   2   3
ATOM      3  O   UNL A   1      45.881  26.174  24.652  1.00  0.00    -0.376 OA
BRANCH   3   4
ATOM      4  C   UNL A   1      46.485  25.082  25.320  1.00  0.00     0.202 C 
BRANCH   4   5
ATOM      5  C   UNL A   1      46.398  23.658  24.748  1.00  0.00     0.261 C 
BRANCH   5   6
ATOM      6  O   UNL A   1      45.520  22.758  25.425  1.00  0.00    -0.460 OA
BRANCH   6   7
ATOM      7  C   UNL A   1      45.595  21.448  25.108  1.00  0.00     0.338 C 
ATOM      8  O   UNL A   1      46.597  20.820  24.813  1.00  0.00    -0.246 OA
BRANCH   7   9
ATOM      9  C   UNL A   1      44.284  20.843  25.450  1.00  0.00     0.060 A 
ATOM     10  C   UNL A   1      42.094  20.957  26.510  1.00  0.00    -0.038 A 
ATOM     11  C   UNL A   1      41.951  19.575  26.292  1.00  0.00     0.004 A 
ATOM     12  C   UNL A   1      43.283  21.582  26.097  1.00  0.00     0.020 A 
ATOM     13  C   UNL A   1      42.952  18.839  25.655  1.00  0.00     0.001 A 
ATOM     14  C   UNL A   1      44.110  19.474  25.217  1.00  0.00     0.016 A 
BRANCH  10  15
ATOM     15  C   UNL A   1      40.932  21.820  26.992  1.00  0.00     0.074 C 
ATOM     16  N   UNL A   1      40.586  24.228  27.728  1.00  0.00    -0.331 N 
ATOM     17  C   UNL A   1      39.511  24.384  26.745  1.00  0.00     0.262 C 
ATOM     18  C   UNL A   1      41.544  23.193  27.335  1.00  0.00     0.270 C 
ATOM     19  H   UNL A   1      40.125  23.912  28.580  1.00  0.00     0.348 HD
ATOM     20  C   UNL A   1      38.795  23.054  26.483  1.00  0.00     0.062 C 
ATOM     21  C   UNL A   1      39.772  21.980  25.999  1.00  0.00     0.020 C 
BRANCH  16  22
ATOM     22  C   UNL A   1      41.256  25.493  28.088  1.00  0.00     0.302 C 
BRANCH  22  23
ATOM     23  C   UNL A   1      40.381  26.715  28.156  1.00  0.00     0.043 A 
ATOM     24  C   UNL A   1      38.971  29.029  28.395  1.00  0.00     0.127 A 
ATOM     25  N   UNL A   1      39.742  28.876  27.302  1.00  0.00    -0.241 NA
ATOM     26  N   UNL A   1      38.806  28.098  29.351  1.00  0.00    -0.241 NA
ATOM     27  C   UNL A   1      40.425  27.714  27.208  1.00  0.00     0.124 A 
ATOM     28  C   UNL A   1      39.510  26.958  29.201  1.00  0.00     0.124 A 
BRANCH  24  29
ATOM     29  C   UNL A   1      38.283  30.351  28.591  1.00  0.00     0.074 C 
ATOM     30  C   UNL A   1      36.866  30.332  28.035  1.00  0.00     0.012 C 
ENDBRANCH  24  29
ENDBRANCH  22  23
ENDBRANCH  16  22
ENDBRANCH  10  15
ENDBRANCH   7   9
ENDBRANCH   6   7
ENDBRANCH   5   6
ENDBRANCH   4   5
ENDBRANCH   3   4
ENDBRANCH   2   3
ENDBRANCH   1   2
BRANCH   1  31
ATOM     31  O   UNL A   1      46.447  29.024  26.298  1.00  0.00    -0.377 OA
BRANCH  31  32
ATOM     32  C   UNL A   1      45.731  30.244  26.466  1.00  0.00     0.188 C 
BRANCH  32  33
ATOM     33  C   UNL A   1      46.449  31.582  26.773  1.00  0.00     0.188 C 
BRANCH  33  34
ATOM     34  O   UNL A   1      45.603  32.638  27.198  1.00  0.00    -0.376 OA
BRANCH  34  35
ATOM     35  C   UNL A   1      44.981  33.428  26.204  1.00  0.00     0.202 C 
BRANCH  35  36
ATOM     36  C   UNL A   1      44.680  34.892  26.555  1.00  0.00     0.261 C 
BRANCH  36  37
ATOM     37  O   UNL A   1      45.444  35.455  27.629  1.00  0.00    -0.460 OA
BRANCH  37  38
ATOM     38  C   UNL A   1      45.080  36.682  28.068  1.00  0.00     0.338 C 
ATOM     39  O   UNL A   1      44.936  37.686  27.403  1.00  0.00    -0.246 OA
BRANCH  38  40
ATOM     40  C   UNL A   1      44.694  36.542  29.490  1.00  0.00     0.060 A 
ATOM     41  C   UNL A   1      45.060  35.381  30.183  1.00  0.00     0.016 A 
ATOM     42  C   UNL A   1      43.988  37.561  30.133  1.00  0.00     0.016 A 
ATOM     43  C   UNL A   1      44.686  35.220  31.518  1.00  0.00     0.010 A 
ATOM     44  C   UNL A   1      43.596  37.389  31.462  1.00  0.00     0.010 A 
ATOM     45  C   UNL A   1      43.911  36.202  32.148  1.00  0.00    -0.014 A 
BRANCH  45  46
ATOM     46  C   UNL A   1      43.268  35.905  33.450  1.00  0.00     0.031 A 
ATOM     47  C   UNL A   1      42.016  35.070  33.452  1.00  0.00     0.074 A 
ATOM     48  C   UNL A   1      43.778  36.364  34.606  1.00  0.00     0.049 A 
ATOM     49  N   UNL A   1      41.261  34.709  34.455  1.00  0.00    -0.248 NA
ATOM     50  C   UNL A   1      41.553  34.578  32.142  1.00  0.00     0.031 C 
ATOM     51  C   UNL A   1      44.987  37.175  34.735  1.00  0.00     0.029 A 
ATOM     52  N   UNL A   1      43.321  36.230  35.894  1.00  0.00    -0.354 N 
ATOM     53  C   UNL A   1      40.217  33.979  33.899  1.00  0.00     0.074 A 
ATOM     54  C   UNL A   1      40.430  33.957  32.468  1.00  0.00     0.031 C 
ATOM     55  C   UNL A   1      45.161  37.492  36.030  1.00  0.00     0.029 A 
ATOM     56  C   UNL A   1      44.061  36.933  36.815  1.00  0.00     0.049 A 
ATOM     57  H   UNL A   1      42.539  35.683  36.135  1.00  0.00     0.167 HD
ATOM     58  C   UNL A   1      39.181  33.373  34.521  1.00  0.00     0.034 A 
ATOM     59  C   UNL A   1      43.856  37.124  38.134  1.00  0.00     0.034 A 
ATOM     60  C   UNL A   1      38.975  33.389  35.944  1.00  0.00     0.049 A 
ATOM     61  C   UNL A   1      42.676  36.463  38.800  1.00  0.00     0.074 A 
ATOM     62  C   UNL A   1      37.982  32.765  36.676  1.00  0.00     0.029 A 
ATOM     63  N   UNL A   1      39.765  34.082  36.848  1.00  0.00    -0.354 N 
ATOM     64  N   UNL A   1      41.761  35.682  38.279  1.00  0.00    -0.248 NA
ATOM     65  C   UNL A   1      42.520  36.684  40.246  1.00  0.00     0.031 C 
ATOM     66  C   UNL A   1      38.145  33.116  38.020  1.00  0.00     0.029 A 
ATOM     67  C   UNL A   1      39.270  33.916  38.131  1.00  0.00     0.049 A 
ATOM     68  H   UNL A   1      40.560  34.613  36.614  1.00  0.00     0.167 HD
ATOM     69  C   UNL A   1      40.947  35.286  39.336  1.00  0.00     0.074 A 
ATOM     70  C   UNL A   1      41.489  35.898  40.531  1.00  0.00     0.031 C 
ATOM     71  C   UNL A   1      39.846  34.494  39.319  1.00  0.00     0.034 A 
BRANCH  58  72
ATOM     72  C   UNL A   1      38.185  32.637  33.664  1.00  0.00     0.023 A 
ATOM     73  C   UNL A   1      38.348  31.258  33.418  1.00  0.00     0.012 A 
ATOM     74  C   UNL A   1      37.059  33.304  33.140  1.00  0.00     0.148 A 
ATOM     75  C   UNL A   1      37.427  30.562  32.635  1.00  0.00     0.002 A 
ATOM     76  C   UNL A   1      36.120  32.593  32.403  1.00  0.00     0.091 A 
ATOM     77  F   UNL A   1      36.935  34.619  33.365  1.00  0.00    -0.205 F 
ATOM     78  C   UNL A   1      36.309  31.226  32.138  1.00  0.00     0.022 A 
BRANCH  76  79
ATOM     79  S   UNL A   1      34.605  33.338  31.790  1.00  0.00     0.127 S 
ATOM     80  O   UNL A   1      35.073  34.663  31.384  1.00  0.00    -0.237 OA
ATOM     81  O   UNL A   1      34.254  32.449  30.683  1.00  0.00    -0.237 OA
ATOM     82  O   UNL A   1      33.668  33.324  32.905  1.00  0.00    -0.744 OA
ENDBRANCH  76  79
ENDBRANCH  58  72
BRANCH  59  83
ATOM     83  C   UNL A   1      44.800  37.967  38.922  1.00  0.00     0.023 A 
ATOM     84  C   UNL A   1      46.020  37.422  39.367  1.00  0.00     0.012 A 
ATOM     85  C   UNL A   1      44.492  39.307  39.232  1.00  0.00     0.148 A 
ATOM     86  C   UNL A   1      46.900  38.186  40.136  1.00  0.00     0.002 A 
ATOM     87  C   UNL A   1      45.399  40.078  39.948  1.00  0.00     0.091 A 
ATOM     88  F   UNL A   1      43.319  39.801  38.813  1.00  0.00    -0.205 F 
ATOM     89  C   UNL A   1      46.596  39.514  40.418  1.00  0.00     0.022 A 
BRANCH  87  90
ATOM     90  S   UNL A   1      45.150  41.830  40.251  1.00  0.00     0.127 S 
ATOM     91  O   UNL A   1      46.299  42.155  41.091  1.00  0.00    -0.237 OA
ATOM     92  O   UNL A   1      45.201  42.378  38.895  1.00  0.00    -0.237 OA
ATOM     93  O   UNL A   1      43.848  41.939  40.896  1.00  0.00    -0.744 OA
ENDBRANCH  87  90
ENDBRANCH  59  83
BRANCH  71  94
ATOM     94  C   UNL A   1      39.175  34.193  40.636  1.00  0.00     0.023 A 
ATOM     95  C   UNL A   1      38.237  35.093  41.178  1.00  0.00     0.012 A 
ATOM     96  C   UNL A   1      39.429  32.977  41.303  1.00  0.00     0.148 A 
ATOM     97  C   UNL A   1      37.593  34.809  42.382  1.00  0.00     0.002 A 
ATOM     98  C   UNL A   1      38.744  32.674  42.474  1.00  0.00     0.091 A 
ATOM     99  F   UNL A   1      40.335  32.138  40.781  1.00  0.00    -0.205 F 
ATOM    100  C   UNL A   1      37.838  33.596  43.024  1.00  0.00     0.022 A 
BRANCH  98 101
ATOM    101  S   UNL A   1      38.918  31.096  43.313  1.00  0.00     0.127 S 
ATOM    102  O   UNL A   1      39.973  31.389  44.282  1.00  0.00    -0.237 OA
ATOM    103  O   UNL A   1      37.589  30.908  43.896  1.00  0.00    -0.237 OA
ATOM    104  O   UNL A   1      39.269  30.128  42.283  1.00  0.00    -0.744 OA
ENDBRANCH  98 101
ENDBRANCH  71  94
ENDBRANCH  45  46
ENDBRANCH  38  40
ENDBRANCH  37  38
ENDBRANCH  36  37
ENDBRANCH  35  36
ENDBRANCH  34  35
ENDBRANCH  33  34
ENDBRANCH  32  33
ENDBRANCH  31  32
ENDBRANCH   1  31
TORSDOF 27
ENDMDL
MODEL 3
REMARK VINA RESULT:      -8.1      3.787      9.061
REMARK SMILES CCc1ncc(C[N@H+]2CCC[C@@H](c3cccc(C(=O)OCCOCCOCCOCCOC(=O)c4ccc(-c5c6nc(c(-c7cccc(S(=O)(=O)[O-])c7F)c7ccc([nH]7)c(-c7cccc(S(=O)(=O)[O-])c7F)c7nc(c(-c8cccc(S(=O)(=O)[O-])c8F)c8ccc5[nH]8)C=C7)C=C6)cc4)c3)C2)cn1
REMARK SMILES IDX 25 1 24 2 23 3 22 4 21 5 20 6 18 7 19 8 17 9 13 10 14 11
REMARK SMILES IDX 98 12 15 13 16 14 12 15 8 16 9 17 99 18 10 20 11 21 7 22
REMARK SMILES IDX 6 23 3 24 4 25 101 26 5 27 100 28 2 29 1 30 26 31 27 32
REMARK SMILES IDX 28 33 29 34 30 35 31 36 32 37 33 38 34 39 35 40 36 41 97 42
REMARK SMILES IDX 37 43 96 44 38 45 39 46 40 47 90 48 41 49 95 50 89 51 91 52
REMARK SMILES IDX 42 53 94 54 88 55 87 56 43 58 75 59 55 60 74 61 56 62 59 63
REMARK SMILES IDX 73 64 92 65 57 66 58 67 72 69 93 70 60 71 44 72 45 73 53 74
REMARK SMILES IDX 46 75 48 76 54 77 47 78 49 79 50 80 51 81 52 82 76 83 77 84
REMARK SMILES IDX 85 85 78 86 80 87 86 88 79 89 81 90 82 91 83 92 84 93 61 94
REMARK SMILES IDX 62 95 70 96 63 97 65 98 71 99 64 100 66 101 67 102 68 103
REMARK SMILES IDX 69 104
REMARK H PARENT 8 19 91 57 59 68
REMARK Flexibility Score: inf
ROOT
ATOM      1  C   UNL A   1      35.629  32.492  32.857  1.00  0.00     0.188 C 
ENDROOT
BRANCH   1   2
ATOM      2  C   UNL A   1      34.285  32.636  32.111  1.00  0.00     0.188 C 
BRANCH   2   3
ATOM      3  O   UNL A   1      34.413  32.731  30.706  1.00  0.00    -0.376 OA
BRANCH   3   4
ATOM      4  C   UNL A   1      34.468  34.002  30.085  1.00  0.00     0.202 C 
BRANCH   4   5
ATOM      5  C   UNL A   1      34.173  34.163  28.585  1.00  0.00     0.261 C 
BRANCH   5   6
ATOM      6  O   UNL A   1      34.191  32.967  27.805  1.00  0.00    -0.460 OA
BRANCH   6   7
ATOM      7  C   UNL A   1      33.009  32.374  27.534  1.00  0.00     0.338 C 
ATOM      8  O   UNL A   1      31.939  32.924  27.340  1.00  0.00    -0.246 OA
BRANCH   7   9
ATOM      9  C   UNL A   1      33.297  30.948  27.240  1.00  0.00     0.060 A 
ATOM     10  C   UNL A   1      32.565  28.650  26.902  1.00  0.00    -0.038 A 
ATOM     11  C   UNL A   1      33.911  28.247  26.948  1.00  0.00     0.004 A 
ATOM     12  C   UNL A   1      32.266  30.014  27.069  1.00  0.00     0.020 A 
ATOM     13  C   UNL A   1      34.936  29.178  27.128  1.00  0.00     0.001 A 
ATOM     14  C   UNL A   1      34.632  30.530  27.255  1.00  0.00     0.016 A 
BRANCH  10  15
ATOM     15  C   UNL A   1      31.452  27.694  26.483  1.00  0.00     0.074 C 
ATOM     16  N   UNL A   1      30.278  27.040  24.327  1.00  0.00    -0.331 N 
ATOM     17  C   UNL A   1      30.578  25.629  24.579  1.00  0.00     0.262 C 
ATOM     18  C   UNL A   1      31.241  27.932  24.975  1.00  0.00     0.270 C 
ATOM     19  H   UNL A   1      29.370  27.203  24.759  1.00  0.00     0.348 HD
ATOM     20  C   UNL A   1      30.662  25.336  26.082  1.00  0.00     0.062 C 
ATOM     21  C   UNL A   1      31.719  26.207  26.762  1.00  0.00     0.020 C 
BRANCH  16  22
ATOM     22  C   UNL A   1      30.098  27.367  22.898  1.00  0.00     0.302 C 
BRANCH  22  23
ATOM     23  C   UNL A   1      29.506  28.715  22.593  1.00  0.00     0.043 A 
ATOM     24  C   UNL A   1      28.354  31.063  21.842  1.00  0.00     0.127 A 
ATOM     25  N   UNL A   1      27.618  30.213  22.585  1.00  0.00    -0.241 NA
ATOM     26  N   UNL A   1      29.635  30.858  21.490  1.00  0.00    -0.241 NA
ATOM     27  C   UNL A   1      28.220  29.059  22.947  1.00  0.00     0.124 A 
ATOM     28  C   UNL A   1      30.182  29.690  21.884  1.00  0.00     0.124 A 
BRANCH  24  29
ATOM     29  C   UNL A   1      27.685  32.306  21.326  1.00  0.00     0.074 C 
ATOM     30  C   UNL A   1      27.995  32.540  19.854  1.00  0.00     0.012 C 
ENDBRANCH  24  29
ENDBRANCH  22  23
ENDBRANCH  16  22
ENDBRANCH  10  15
ENDBRANCH   7   9
ENDBRANCH   6   7
ENDBRANCH   5   6
ENDBRANCH   4   5
ENDBRANCH   3   4
ENDBRANCH   2   3
ENDBRANCH   1   2
BRANCH   1  31
ATOM     31  O   UNL A   1      35.739  33.014  34.170  1.00  0.00    -0.377 OA
BRANCH  31  32
ATOM     32  C   UNL A   1      36.417  34.246  34.395  1.00  0.00     0.188 C 
BRANCH  32  33
ATOM     33  C   UNL A   1      37.962  34.355  34.342  1.00  0.00     0.188 C 
BRANCH  33  34
ATOM     34  O   UNL A   1      38.651  33.122  34.226  1.00  0.00    -0.376 OA
BRANCH  34  35
ATOM     35  C   UNL A   1      38.741  32.303  35.376  1.00  0.00     0.202 C 
BRANCH  35  36
ATOM     36  C   UNL A   1      39.006  30.807  35.156  1.00  0.00     0.261 C 
BRANCH  36  37
ATOM     37  O   UNL A   1      38.390  30.219  34.003  1.00  0.00    -0.460 OA
BRANCH  37  38
ATOM     38  C   UNL A   1      39.084  30.266  32.842  1.00  0.00     0.338 C 
ATOM     39  O   UNL A   1      38.746  30.799  31.807  1.00  0.00    -0.246 OA
BRANCH  38  40
ATOM     40  C   UNL A   1      40.430  29.714  33.114  1.00  0.00     0.060 A 
ATOM     41  C   UNL A   1      41.535  30.577  33.102  1.00  0.00     0.016 A 
ATOM     42  C   UNL A   1      40.593  28.356  33.392  1.00  0.00     0.016 A 
ATOM     43  C   UNL A   1      42.814  30.072  33.333  1.00  0.00     0.010 A 
ATOM     44  C   UNL A   1      41.877  27.848  33.601  1.00  0.00     0.010 A 
ATOM     45  C   UNL A   1      42.996  28.698  33.536  1.00  0.00    -0.014 A 
BRANCH  45  46
ATOM     46  C   UNL A   1      44.361  28.122  33.484  1.00  0.00     0.031 A 
ATOM     47  C   UNL A   1      44.892  27.667  32.152  1.00  0.00     0.074 A 
ATOM     48  C   UNL A   1      45.116  28.006  34.591  1.00  0.00     0.049 A 
ATOM     49  N   UNL A   1      46.035  27.104  31.863  1.00  0.00    -0.248 NA
ATOM     50  C   UNL A   1      44.010  27.872  30.989  1.00  0.00     0.031 C 
ATOM     51  C   UNL A   1      44.717  28.417  35.935  1.00  0.00     0.029 A 
ATOM     52  N   UNL A   1      46.373  27.478  34.756  1.00  0.00    -0.354 N 
ATOM     53  C   UNL A   1      45.999  26.856  30.496  1.00  0.00     0.074 A 
ATOM     54  C   UNL A   1      44.716  27.320  30.014  1.00  0.00     0.031 C 
ATOM     55  C   UNL A   1      45.700  28.099  36.795  1.00  0.00     0.029 A 
ATOM     56  C   UNL A   1      46.782  27.435  36.069  1.00  0.00     0.049 A 
ATOM     57  H   UNL A   1      46.928  27.160  34.008  1.00  0.00     0.167 HD
ATOM     58  C   UNL A   1      46.950  26.302  29.709  1.00  0.00     0.034 A 
ATOM     59  C   UNL A   1      47.889  26.898  36.619  1.00  0.00     0.034 A 
ATOM     60  C   UNL A   1      48.227  25.850  30.188  1.00  0.00     0.049 A 
ATOM     61  C   UNL A   1      48.920  26.258  35.725  1.00  0.00     0.074 A 
ATOM     62  C   UNL A   1      49.278  25.318  29.463  1.00  0.00     0.029 A 
ATOM     63  N   UNL A   1      48.620  25.855  31.518  1.00  0.00    -0.354 N 
ATOM     64  N   UNL A   1      48.923  26.133  34.420  1.00  0.00    -0.248 NA
ATOM     65  C   UNL A   1      50.121  25.714  36.378  1.00  0.00     0.031 C 
ATOM     66  C   UNL A   1      50.290  24.962  30.359  1.00  0.00     0.029 A 
ATOM     67  C   UNL A   1      49.891  25.319  31.637  1.00  0.00     0.049 A 
ATOM     68  H   UNL A   1      48.076  26.191  32.266  1.00  0.00     0.167 HD
ATOM     69  C   UNL A   1      50.136  25.536  34.093  1.00  0.00     0.074 A 
ATOM     70  C   UNL A   1      50.852  25.342  35.336  1.00  0.00     0.031 C 
ATOM     71  C   UNL A   1      50.613  25.173  32.876  1.00  0.00     0.034 A 
BRANCH  58  72
ATOM     72  C   UNL A   1      46.644  26.155  28.242  1.00  0.00     0.023 A 
ATOM     73  C   UNL A   1      45.849  25.080  27.792  1.00  0.00     0.012 A 
ATOM     74  C   UNL A   1      47.105  27.109  27.313  1.00  0.00     0.148 A 
ATOM     75  C   UNL A   1      45.547  24.938  26.438  1.00  0.00     0.002 A 
ATOM     76  C   UNL A   1      46.759  26.988  25.973  1.00  0.00     0.091 A 
ATOM     77  F   UNL A   1      47.880  28.109  27.758  1.00  0.00    -0.205 F 
ATOM     78  C   UNL A   1      45.993  25.897  25.531  1.00  0.00     0.022 A 
BRANCH  76  79
ATOM     79  S   UNL A   1      47.214  28.214  24.742  1.00  0.00     0.127 S 
ATOM     80  O   UNL A   1      46.714  27.597  23.514  1.00  0.00    -0.237 OA
ATOM     81  O   UNL A   1      46.460  29.387  25.186  1.00  0.00    -0.237 OA
ATOM     82  O   UNL A   1      48.661  28.353  24.825  1.00  0.00    -0.744 OA
ENDBRANCH  76  79
ENDBRANCH  58  72
BRANCH  59  83
ATOM     83  C   UNL A   1      48.092  26.954  38.095  1.00  0.00     0.023 A 
ATOM     84  C   UNL A   1      47.613  25.908  38.907  1.00  0.00     0.012 A 
ATOM     85  C   UNL A   1      48.758  28.040  38.696  1.00  0.00     0.148 A 
ATOM     86  C   UNL A   1      47.762  25.960  40.294  1.00  0.00     0.002 A 
ATOM     87  C   UNL A   1      48.955  28.057  40.071  1.00  0.00     0.091 A 
ATOM     88  F   UNL A   1      49.193  29.033  37.906  1.00  0.00    -0.205 F 
ATOM     89  C   UNL A   1      48.441  27.028  40.875  1.00  0.00     0.022 A 
BRANCH  87  90
ATOM     90  S   UNL A   1      49.925  29.326  40.893  1.00  0.00     0.127 S 
ATOM     91  O   UNL A   1      49.123  30.521  40.649  1.00  0.00    -0.237 OA
ATOM     92  O   UNL A   1      49.923  28.853  42.277  1.00  0.00    -0.237 OA
ATOM     93  O   UNL A   1      51.231  29.303  40.249  1.00  0.00    -0.744 OA
ENDBRANCH  87  90
ENDBRANCH  59  83
BRANCH  71  94
ATOM     94  C   UNL A   1      51.996  24.577  32.810  1.00  0.00     0.023 A 
ATOM     95  C   UNL A   1      52.180  23.189  32.968  1.00  0.00     0.012 A 
ATOM     96  C   UNL A   1      53.110  25.391  32.524  1.00  0.00     0.148 A 
ATOM     97  C   UNL A   1      53.453  22.627  32.882  1.00  0.00     0.002 A 
ATOM     98  C   UNL A   1      54.369  24.818  32.385  1.00  0.00     0.091 A 
ATOM     99  F   UNL A   1      52.920  26.712  32.391  1.00  0.00    -0.205 F 
ATOM    100  C   UNL A   1      54.545  23.439  32.580  1.00  0.00     0.022 A 
BRANCH  98 101
ATOM    101  S   UNL A   1      55.813  25.769  31.898  1.00  0.00     0.127 S 
ATOM    102  O   UNL A   1      55.387  26.318  30.612  1.00  0.00    -0.237 OA
ATOM    103  O   UNL A   1      55.915  26.751  32.978  1.00  0.00    -0.237 OA
ATOM    104  O   UNL A   1      56.917  24.821  31.837  1.00  0.00    -0.744 OA
ENDBRANCH  98 101
ENDBRANCH  71  94
ENDBRANCH  45  46
ENDBRANCH  38  40
ENDBRANCH  37  38
ENDBRANCH  36  37
ENDBRANCH  35  36
ENDBRANCH  34  35
ENDBRANCH  33  34
ENDBRANCH  32  33
ENDBRANCH  31  32
ENDBRANCH   1  31
TORSDOF 27
ENDMDL
