MODEL 1
REMARK VINA RESULT:     -10.0      0.000      0.000
REMARK SMILES CC(=O)c1ccccc1S(=O)(=O)N1CCC(C(=O)OCCOCCOCCOCCOC(=O)c2ccc(-c3c4nc(c(-c5cccc(S(=O)(=O)[O-])c5F)c5ccc([nH]5)c(-c5cccc(S(=O)(=O)[O-])c5F)c5nc(c(-c6cccc(S(=O)(=O)[O-])c6F)c6ccc3[nH]6)C=C5)C=C4)cc2)CC1
REMARK SMILES IDX 25 1 24 2 23 3 22 4 21 5 20 6 19 7 17 8 18 9 16 10 13 11
REMARK SMILES IDX 14 12 98 13 15 14 97 15 10 16 11 17 12 18 9 19 4 20 5 21
REMARK SMILES IDX 6 22 8 23 7 24 2 25 1 26 3 27 26 28 27 29 28 30 29 31 30 32
REMARK SMILES IDX 31 33 32 34 33 35 34 36 35 37 96 38 36 39 95 40 37 41 38 42
REMARK SMILES IDX 39 43 89 44 40 45 94 46 88 47 90 48 41 49 93 50 87 51 86 52
REMARK SMILES IDX 42 54 74 55 54 56 73 57 55 58 58 59 72 60 91 61 56 62 57 63
REMARK SMILES IDX 71 65 92 66 59 67 43 68 44 69 52 70 45 71 47 72 53 73 46 74
REMARK SMILES IDX 48 75 49 76 50 77 51 78 75 79 76 80 84 81 77 82 79 83 85 84
REMARK SMILES IDX 78 85 80 86 81 87 82 88 83 89 60 90 61 91 69 92 62 93 64 94
REMARK SMILES IDX 70 95 63 96 65 97 66 98 67 99 68 100
REMARK H PARENT 90 53 58 64
REMARK Flexibility Score: inf
ROOT
ATOM      1  O   UNL A   1      30.856  29.372  24.369  1.00  0.00    -0.377 OA
ENDROOT
BRANCH   1   2
ATOM      2  C   UNL A   1      30.095  30.420  23.795  1.00  0.00     0.188 C 
BRANCH   2   3
ATOM      3  C   UNL A   1      28.855  30.073  22.960  1.00  0.00     0.188 C 
BRANCH   3   4
ATOM      4  O   UNL A   1      28.728  28.699  22.670  1.00  0.00    -0.376 OA
BRANCH   4   5
ATOM      5  C   UNL A   1      27.894  27.829  23.417  1.00  0.00     0.202 C 
BRANCH   5   6
ATOM      6  C   UNL A   1      28.349  26.561  24.167  1.00  0.00     0.261 C 
BRANCH   6   7
ATOM      7  O   UNL A   1      29.751  26.385  24.339  1.00  0.00    -0.463 OA
BRANCH   7   8
ATOM      8  C   UNL A   1      30.148  25.654  25.409  1.00  0.00     0.309 C 
ATOM      9  O   UNL A   1      29.515  25.546  26.453  1.00  0.00    -0.252 OA
BRANCH   8  10
ATOM     10  C   UNL A   1      31.432  24.889  25.139  1.00  0.00     0.102 C 
ATOM     11  N   UNL A   1      33.956  23.879  24.632  1.00  0.00    -0.198 NA
ATOM     12  C   UNL A   1      33.507  24.875  23.632  1.00  0.00     0.103 C 
ATOM     13  C   UNL A   1      33.707  24.320  26.040  1.00  0.00     0.103 C 
ATOM     14  C   UNL A   1      31.989  24.978  23.710  1.00  0.00     0.032 C 
ATOM     15  C   UNL A   1      32.509  25.272  26.141  1.00  0.00     0.032 C 
BRANCH  11  16
ATOM     16  S   UNL A   1      35.458  23.159  24.310  1.00  0.00     0.243 S 
ATOM     17  O   UNL A   1      36.388  23.606  25.326  1.00  0.00    -0.207 OA
ATOM     18  O   UNL A   1      35.756  23.302  22.902  1.00  0.00    -0.207 OA
BRANCH  16  19
ATOM     19  C   UNL A   1      35.257  21.413  24.536  1.00  0.00     0.093 A 
ATOM     20  C   UNL A   1      34.046  20.734  24.423  1.00  0.00     0.037 A 
ATOM     21  C   UNL A   1      34.008  19.339  24.597  1.00  0.00     0.013 A 
ATOM     22  C   UNL A   1      35.182  18.622  24.820  1.00  0.00     0.001 A 
ATOM     23  C   UNL A   1      36.436  20.682  24.765  1.00  0.00     0.022 A 
ATOM     24  C   UNL A   1      36.399  19.293  24.889  1.00  0.00     0.001 A 
BRANCH  20  25
ATOM     25  C   UNL A   1      32.760  21.341  24.047  1.00  0.00     0.161 C 
ATOM     26  C   UNL A   1      32.474  21.480  22.577  1.00  0.00     0.093 C 
ATOM     27  O   UNL A   1      31.917  21.531  24.919  1.00  0.00    -0.294 OA
ENDBRANCH  20  25
ENDBRANCH  16  19
ENDBRANCH  11  16
ENDBRANCH   8  10
ENDBRANCH   7   8
ENDBRANCH   6   7
ENDBRANCH   5   6
ENDBRANCH   4   5
ENDBRANCH   3   4
ENDBRANCH   2   3
ENDBRANCH   1   2
BRANCH   1  28
ATOM     28  C   UNL A   1      32.093  29.677  25.004  1.00  0.00     0.188 C 
BRANCH  28  29
ATOM     29  C   UNL A   1      32.154  30.373  26.387  1.00  0.00     0.188 C 
BRANCH  29  30
ATOM     30  O   UNL A   1      31.116  31.293  26.683  1.00  0.00    -0.376 OA
BRANCH  30  31
ATOM     31  C   UNL A   1      31.419  32.675  26.529  1.00  0.00     0.202 C 
BRANCH  31  32
ATOM     32  C   UNL A   1      32.711  33.167  27.205  1.00  0.00     0.261 C 
BRANCH  32  33
ATOM     33  O   UNL A   1      32.508  33.990  28.362  1.00  0.00    -0.460 OA
BRANCH  33  34
ATOM     34  C   UNL A   1      33.560  34.745  28.745  1.00  0.00     0.338 C 
ATOM     35  O   UNL A   1      33.559  35.939  28.991  1.00  0.00    -0.246 OA
BRANCH  34  36
ATOM     36  C   UNL A   1      34.688  33.841  29.025  1.00  0.00     0.060 A 
ATOM     37  C   UNL A   1      34.447  32.697  29.795  1.00  0.00     0.016 A 
ATOM     38  C   UNL A   1      35.967  34.119  28.535  1.00  0.00     0.016 A 
ATOM     39  C   UNL A   1      35.499  31.844  30.115  1.00  0.00     0.010 A 
ATOM     40  C   UNL A   1      37.025  33.274  28.878  1.00  0.00     0.010 A 
ATOM     41  C   UNL A   1      36.799  32.158  29.701  1.00  0.00    -0.014 A 
BRANCH  41  42
ATOM     42  C   UNL A   1      37.937  31.438  30.316  1.00  0.00     0.031 A 
ATOM     43  C   UNL A   1      38.292  31.758  31.742  1.00  0.00     0.074 A 
ATOM     44  C   UNL A   1      38.616  30.497  29.641  1.00  0.00     0.049 A 
ATOM     45  N   UNL A   1      39.208  31.227  32.507  1.00  0.00    -0.248 NA
ATOM     46  C   UNL A   1      37.505  32.821  32.389  1.00  0.00     0.031 C 
ATOM     47  C   UNL A   1      38.355  30.090  28.262  1.00  0.00     0.029 A 
ATOM     48  N   UNL A   1      39.676  29.719  30.030  1.00  0.00    -0.354 N 
ATOM     49  C   UNL A   1      39.124  31.903  33.718  1.00  0.00     0.074 A 
ATOM     50  C   UNL A   1      38.082  32.897  33.578  1.00  0.00     0.031 C 
ATOM     51  C   UNL A   1      39.241  29.142  27.915  1.00  0.00     0.029 A 
ATOM     52  C   UNL A   1      40.144  28.891  29.039  1.00  0.00     0.049 A 
ATOM     53  H   UNL A   1      40.065  29.751  30.934  1.00  0.00     0.167 HD
ATOM     54  C   UNL A   1      39.839  31.707  34.851  1.00  0.00     0.034 A 
ATOM     55  C   UNL A   1      41.185  28.038  29.040  1.00  0.00     0.034 A 
ATOM     56  C   UNL A   1      40.876  30.723  34.986  1.00  0.00     0.049 A 
ATOM     57  C   UNL A   1      41.999  27.869  30.297  1.00  0.00     0.074 A 
ATOM     58  C   UNL A   1      41.632  30.414  36.102  1.00  0.00     0.029 A 
ATOM     59  N   UNL A   1      41.325  29.903  33.961  1.00  0.00    -0.354 N 
ATOM     60  N   UNL A   1      41.833  28.427  31.473  1.00  0.00    -0.248 NA
ATOM     61  C   UNL A   1      43.128  26.929  30.235  1.00  0.00     0.031 C 
ATOM     62  C   UNL A   1      42.567  29.437  35.740  1.00  0.00     0.029 A 
ATOM     63  C   UNL A   1      42.364  29.105  34.410  1.00  0.00     0.049 A 
ATOM     64  H   UNL A   1      40.959  29.890  33.047  1.00  0.00     0.167 HD
ATOM     65  C   UNL A   1      42.809  27.879  32.299  1.00  0.00     0.074 A 
ATOM     66  C   UNL A   1      43.551  26.931  31.493  1.00  0.00     0.031 C 
ATOM     67  C   UNL A   1      43.073  28.140  33.605  1.00  0.00     0.034 A 
BRANCH  54  68
ATOM     68  C   UNL A   1      39.510  32.587  36.030  1.00  0.00     0.023 A 
ATOM     69  C   UNL A   1      40.113  33.858  36.150  1.00  0.00     0.012 A 
ATOM     70  C   UNL A   1      38.605  32.158  37.020  1.00  0.00     0.148 A 
ATOM     71  C   UNL A   1      39.862  34.662  37.260  1.00  0.00     0.002 A 
ATOM     72  C   UNL A   1      38.321  32.987  38.098  1.00  0.00     0.091 A 
ATOM     73  F   UNL A   1      38.062  30.938  36.905  1.00  0.00    -0.205 F 
ATOM     74  C   UNL A   1      38.960  34.230  38.229  1.00  0.00     0.022 A 
BRANCH  72  75
ATOM     75  S   UNL A   1      37.114  32.552  39.354  1.00  0.00     0.127 S 
ATOM     76  O   UNL A   1      37.472  31.163  39.639  1.00  0.00    -0.237 OA
ATOM     77  O   UNL A   1      37.432  33.495  40.427  1.00  0.00    -0.237 OA
ATOM     78  O   UNL A   1      35.809  32.752  38.740  1.00  0.00    -0.744 OA
ENDBRANCH  72  75
ENDBRANCH  54  68
BRANCH  55  79
ATOM     79  C   UNL A   1      41.485  27.233  27.822  1.00  0.00     0.023 A 
ATOM     80  C   UNL A   1      42.082  27.856  26.709  1.00  0.00     0.012 A 
ATOM     81  C   UNL A   1      41.213  25.851  27.774  1.00  0.00     0.148 A 
ATOM     82  C   UNL A   1      42.383  27.122  25.561  1.00  0.00     0.002 A 
ATOM     83  C   UNL A   1      41.565  25.117  26.648  1.00  0.00     0.091 A 
ATOM     84  F   UNL A   1      40.635  25.283  28.841  1.00  0.00    -0.205 F 
ATOM     85  C   UNL A   1      42.134  25.753  25.535  1.00  0.00     0.022 A 
BRANCH  83  86
ATOM     86  S   UNL A   1      41.398  23.330  26.567  1.00  0.00     0.127 S 
ATOM     87  O   UNL A   1      39.965  23.174  26.332  1.00  0.00    -0.237 OA
ATOM     88  O   UNL A   1      42.250  23.006  25.422  1.00  0.00    -0.237 OA
ATOM     89  O   UNL A   1      41.883  22.827  27.844  1.00  0.00    -0.744 OA
ENDBRANCH  83  86
ENDBRANCH  55  79
BRANCH  67  90
ATOM     90  C   UNL A   1      44.193  27.369  34.260  1.00  0.00     0.023 A 
ATOM     91  C   UNL A   1      43.930  26.129  34.876  1.00  0.00     0.012 A 
ATOM     92  C   UNL A   1      45.518  27.847  34.212  1.00  0.00     0.148 A 
ATOM     93  C   UNL A   1      44.958  25.398  35.469  1.00  0.00     0.002 A 
ATOM     94  C   UNL A   1      46.546  27.087  34.758  1.00  0.00     0.091 A 
ATOM     95  F   UNL A   1      45.750  29.036  33.637  1.00  0.00    -0.205 F 
ATOM     96  C   UNL A   1      46.267  25.871  35.401  1.00  0.00     0.022 A 
BRANCH  94  97
ATOM     97  S   UNL A   1      48.273  27.569  34.630  1.00  0.00     0.127 S 
ATOM     98  O   UNL A   1      48.408  27.816  33.195  1.00  0.00    -0.237 OA
ATOM     99  O   UNL A   1      48.322  28.772  35.462  1.00  0.00    -0.237 OA
ATOM    100  O   UNL A   1      49.043  26.445  35.147  1.00  0.00    -0.744 OA
ENDBRANCH  94  97
ENDBRANCH  67  90
ENDBRANCH  41  42
ENDBRANCH  34  36
ENDBRANCH  33  34
ENDBRANCH  32  33
ENDBRANCH  31  32
ENDBRANCH  30  31
ENDBRANCH  29  30
ENDBRANCH  28  29
ENDBRANCH   1  28
TORSDOF 26
ENDMDL
MODEL 2
REMARK VINA RESULT:      -9.1      1.461      7.386
REMARK SMILES CC(=O)c1ccccc1S(=O)(=O)N1CCC(C(=O)OCCOCCOCCOCCOC(=O)c2ccc(-c3c4nc(c(-c5cccc(S(=O)(=O)[O-])c5F)c5ccc([nH]5)c(-c5cccc(S(=O)(=O)[O-])c5F)c5nc(c(-c6cccc(S(=O)(=O)[O-])c6F)c6ccc3[nH]6)C=C5)C=C4)cc2)CC1
REMARK SMILES IDX 25 1 24 2 23 3 22 4 21 5 20 6 19 7 17 8 18 9 16 10 13 11
REMARK SMILES IDX 14 12 98 13 15 14 97 15 10 16 11 17 12 18 9 19 4 20 5 21
REMARK SMILES IDX 6 22 8 23 7 24 2 25 1 26 3 27 26 28 27 29 28 30 29 31 30 32
REMARK SMILES IDX 31 33 32 34 33 35 34 36 35 37 96 38 36 39 95 40 37 41 38 42
REMARK SMILES IDX 39 43 89 44 40 45 94 46 88 47 90 48 41 49 93 50 87 51 86 52
REMARK SMILES IDX 42 54 74 55 54 56 73 57 55 58 58 59 72 60 91 61 56 62 57 63
REMARK SMILES IDX 71 65 92 66 59 67 43 68 44 69 52 70 45 71 47 72 53 73 46 74
REMARK SMILES IDX 48 75 49 76 50 77 51 78 75 79 76 80 84 81 77 82 79 83 85 84
REMARK SMILES IDX 78 85 80 86 81 87 82 88 83 89 60 90 61 91 69 92 62 93 64 94
REMARK SMILES IDX 70 95 63 96 65 97 66 98 67 99 68 100
REMARK H PARENT 90 53 58 64
REMARK Flexibility Score: inf
ROOT
ATOM      1  O   UNL A   1      30.740  29.469  24.503  1.00  0.00    -0.377 OA
ENDROOT
BRANCH   1   2
ATOM      2  C   UNL A   1      29.984  30.475  23.853  1.00  0.00     0.188 C 
BRANCH   2   3
ATOM      3  C   UNL A   1      28.645  30.100  23.202  1.00  0.00     0.188 C 
BRANCH   3   4
ATOM      4  O   UNL A   1      28.618  28.798  22.662  1.00  0.00    -0.376 OA
BRANCH   4   5
ATOM      5  C   UNL A   1      27.737  27.789  23.129  1.00  0.00     0.202 C 
BRANCH   5   6
ATOM      6  C   UNL A   1      28.118  26.607  24.041  1.00  0.00     0.261 C 
BRANCH   6   7
ATOM      7  O   UNL A   1      29.507  26.392  24.269  1.00  0.00    -0.463 OA
BRANCH   7   8
ATOM      8  C   UNL A   1      29.844  25.703  25.386  1.00  0.00     0.309 C 
ATOM      9  O   UNL A   1      29.163  25.650  26.405  1.00  0.00    -0.252 OA
BRANCH   8  10
ATOM     10  C   UNL A   1      31.124  24.906  25.208  1.00  0.00     0.102 C 
ATOM     11  N   UNL A   1      33.644  23.835  24.814  1.00  0.00    -0.198 NA
ATOM     12  C   UNL A   1      33.186  24.692  23.696  1.00  0.00     0.103 C 
ATOM     13  C   UNL A   1      33.407  24.457  26.155  1.00  0.00     0.103 C 
ATOM     14  C   UNL A   1      31.669  24.807  23.774  1.00  0.00     0.032 C 
ATOM     15  C   UNL A   1      32.211  25.415  26.141  1.00  0.00     0.032 C 
BRANCH  11  16
ATOM     16  S   UNL A   1      35.142  23.076  24.576  1.00  0.00     0.243 S 
ATOM     17  O   UNL A   1      35.963  23.345  25.739  1.00  0.00    -0.207 OA
ATOM     18  O   UNL A   1      35.612  23.371  23.240  1.00  0.00    -0.207 OA
BRANCH  16  19
ATOM     19  C   UNL A   1      34.844  21.330  24.556  1.00  0.00     0.093 A 
ATOM     20  C   UNL A   1      35.838  20.356  24.628  1.00  0.00     0.037 A 
ATOM     21  C   UNL A   1      35.484  18.996  24.632  1.00  0.00     0.013 A 
ATOM     22  C   UNL A   1      34.143  18.613  24.626  1.00  0.00     0.001 A 
ATOM     23  C   UNL A   1      33.494  20.935  24.547  1.00  0.00     0.022 A 
ATOM     24  C   UNL A   1      33.148  19.585  24.598  1.00  0.00     0.001 A 
BRANCH  20  25
ATOM     25  C   UNL A   1      37.277  20.617  24.788  1.00  0.00     0.161 C 
ATOM     26  C   UNL A   1      38.131  19.472  25.258  1.00  0.00     0.093 C 
ATOM     27  O   UNL A   1      37.738  21.672  24.363  1.00  0.00    -0.294 OA
ENDBRANCH  20  25
ENDBRANCH  16  19
ENDBRANCH  11  16
ENDBRANCH   8  10
ENDBRANCH   7   8
ENDBRANCH   6   7
ENDBRANCH   5   6
ENDBRANCH   4   5
ENDBRANCH   3   4
ENDBRANCH   2   3
ENDBRANCH   1   2
BRANCH   1  28
ATOM     28  C   UNL A   1      31.933  29.831  25.191  1.00  0.00     0.188 C 
BRANCH  28  29
ATOM     29  C   UNL A   1      31.903  30.649  26.507  1.00  0.00     0.188 C 
BRANCH  29  30
ATOM     30  O   UNL A   1      31.027  31.765  26.542  1.00  0.00    -0.376 OA
BRANCH  30  31
ATOM     31  C   UNL A   1      31.628  33.054  26.541  1.00  0.00     0.202 C 
BRANCH  31  32
ATOM     32  C   UNL A   1      32.766  33.275  27.553  1.00  0.00     0.261 C 
BRANCH  32  33
ATOM     33  O   UNL A   1      32.527  34.319  28.507  1.00  0.00    -0.460 OA
BRANCH  33  34
ATOM     34  C   UNL A   1      33.587  35.101  28.809  1.00  0.00     0.338 C 
ATOM     35  O   UNL A   1      33.609  36.318  28.873  1.00  0.00    -0.246 OA
BRANCH  34  36
ATOM     36  C   UNL A   1      34.681  34.225  29.261  1.00  0.00     0.060 A 
ATOM     37  C   UNL A   1      34.386  33.218  30.187  1.00  0.00     0.016 A 
ATOM     38  C   UNL A   1      35.981  34.396  28.777  1.00  0.00     0.016 A 
ATOM     39  C   UNL A   1      35.405  32.400  30.667  1.00  0.00     0.010 A 
ATOM     40  C   UNL A   1      37.005  33.591  29.279  1.00  0.00     0.010 A 
ATOM     41  C   UNL A   1      36.725  32.619  30.254  1.00  0.00    -0.014 A 
BRANCH  41  42
ATOM     42  C   UNL A   1      37.824  31.976  31.009  1.00  0.00     0.031 A 
ATOM     43  C   UNL A   1      38.605  30.884  30.332  1.00  0.00     0.074 A 
ATOM     44  C   UNL A   1      38.147  32.375  32.249  1.00  0.00     0.049 A 
ATOM     45  N   UNL A   1      39.638  30.211  30.767  1.00  0.00    -0.248 NA
ATOM     46  C   UNL A   1      38.160  30.501  28.982  1.00  0.00     0.031 C 
ATOM     47  C   UNL A   1      37.473  33.431  33.001  1.00  0.00     0.029 A 
ATOM     48  N   UNL A   1      39.125  31.923  33.098  1.00  0.00    -0.354 N 
ATOM     49  C   UNL A   1      39.953  29.312  29.755  1.00  0.00     0.074 A 
ATOM     50  C   UNL A   1      38.990  29.511  28.695  1.00  0.00     0.031 C 
ATOM     51  C   UNL A   1      38.053  33.540  34.209  1.00  0.00     0.029 A 
ATOM     52  C   UNL A   1      39.123  32.548  34.321  1.00  0.00     0.049 A 
ATOM     53  H   UNL A   1      39.768  31.218  32.854  1.00  0.00     0.167 HD
ATOM     54  C   UNL A   1      40.963  28.411  29.705  1.00  0.00     0.034 A 
ATOM     55  C   UNL A   1      39.890  32.335  35.407  1.00  0.00     0.034 A 
ATOM     56  C   UNL A   1      41.915  28.212  30.762  1.00  0.00     0.049 A 
ATOM     57  C   UNL A   1      40.978  31.292  35.348  1.00  0.00     0.074 A 
ATOM     58  C   UNL A   1      43.000  27.356  30.795  1.00  0.00     0.029 A 
ATOM     59  N   UNL A   1      41.881  28.861  31.988  1.00  0.00    -0.354 N 
ATOM     60  N   UNL A   1      41.344  30.533  34.342  1.00  0.00    -0.248 NA
ATOM     61  C   UNL A   1      41.779  31.100  36.566  1.00  0.00     0.031 C 
ATOM     62  C   UNL A   1      43.597  27.456  32.058  1.00  0.00     0.029 A 
ATOM     63  C   UNL A   1      42.910  28.408  32.795  1.00  0.00     0.049 A 
ATOM     64  H   UNL A   1      41.221  29.544  32.247  1.00  0.00     0.167 HD
ATOM     65  C   UNL A   1      42.438  29.801  34.793  1.00  0.00     0.074 A 
ATOM     66  C   UNL A   1      42.686  30.223  36.156  1.00  0.00     0.031 C 
ATOM     67  C   UNL A   1      43.168  28.860  34.141  1.00  0.00     0.034 A 
BRANCH  54  68
ATOM     68  C   UNL A   1      41.073  27.575  28.456  1.00  0.00     0.023 A 
ATOM     69  C   UNL A   1      41.754  28.081  27.328  1.00  0.00     0.012 A 
ATOM     70  C   UNL A   1      40.503  26.289  28.397  1.00  0.00     0.148 A 
ATOM     71  C   UNL A   1      41.820  27.343  26.147  1.00  0.00     0.002 A 
ATOM     72  C   UNL A   1      40.617  25.539  27.232  1.00  0.00     0.091 A 
ATOM     73  F   UNL A   1      39.837  25.834  29.467  1.00  0.00    -0.205 F 
ATOM     74  C   UNL A   1      41.259  26.070  26.102  1.00  0.00     0.022 A 
BRANCH  72  75
ATOM     75  S   UNL A   1      39.996  23.859  27.106  1.00  0.00     0.127 S 
ATOM     76  O   UNL A   1      40.768  23.181  28.146  1.00  0.00    -0.237 OA
ATOM     77  O   UNL A   1      38.576  24.031  27.416  1.00  0.00    -0.237 OA
ATOM     78  O   UNL A   1      40.269  23.434  25.740  1.00  0.00    -0.744 OA
ENDBRANCH  72  75
ENDBRANCH  54  68
BRANCH  55  79
ATOM     79  C   UNL A   1      39.694  33.165  36.628  1.00  0.00     0.023 A 
ATOM     80  C   UNL A   1      40.268  34.449  36.694  1.00  0.00     0.012 A 
ATOM     81  C   UNL A   1      38.916  32.703  37.708  1.00  0.00     0.148 A 
ATOM     82  C   UNL A   1      40.090  35.251  37.822  1.00  0.00     0.002 A 
ATOM     83  C   UNL A   1      38.699  33.527  38.806  1.00  0.00     0.091 A 
ATOM     84  F   UNL A   1      38.389  31.473  37.628  1.00  0.00    -0.205 F 
ATOM     85  C   UNL A   1      39.298  34.794  38.872  1.00  0.00     0.022 A 
BRANCH  83  86
ATOM     86  S   UNL A   1      37.595  33.079  40.150  1.00  0.00     0.127 S 
ATOM     87  O   UNL A   1      38.263  31.906  40.707  1.00  0.00    -0.237 OA
ATOM     88  O   UNL A   1      37.650  34.277  40.989  1.00  0.00    -0.237 OA
ATOM     89  O   UNL A   1      36.299  32.830  39.534  1.00  0.00    -0.744 OA
ENDBRANCH  83  86
ENDBRANCH  55  79
BRANCH  67  90
ATOM     90  C   UNL A   1      44.329  28.240  34.879  1.00  0.00     0.023 A 
ATOM     91  C   UNL A   1      45.597  28.853  34.841  1.00  0.00     0.012 A 
ATOM     92  C   UNL A   1      44.146  27.080  35.659  1.00  0.00     0.148 A 
ATOM     93  C   UNL A   1      46.674  28.299  35.533  1.00  0.00     0.002 A 
ATOM     94  C   UNL A   1      45.211  26.565  36.390  1.00  0.00     0.091 A 
ATOM     95  F   UNL A   1      42.938  26.500  35.672  1.00  0.00    -0.205 F 
ATOM     96  C   UNL A   1      46.479  27.163  36.315  1.00  0.00     0.022 A 
BRANCH  94  97
ATOM     97  S   UNL A   1      45.029  25.165  37.502  1.00  0.00     0.127 S 
ATOM     98  O   UNL A   1      44.081  25.686  38.485  1.00  0.00    -0.237 OA
ATOM     99  O   UNL A   1      44.484  24.135  36.616  1.00  0.00    -0.237 OA
ATOM    100  O   UNL A   1      46.364  24.879  38.010  1.00  0.00    -0.744 OA
ENDBRANCH  94  97
ENDBRANCH  67  90
ENDBRANCH  41  42
ENDBRANCH  34  36
ENDBRANCH  33  34
ENDBRANCH  32  33
ENDBRANCH  31  32
ENDBRANCH  30  31
ENDBRANCH  29  30
ENDBRANCH  28  29
ENDBRANCH   1  28
TORSDOF 26
ENDMDL
MODEL 3
REMARK VINA RESULT:      -8.8      2.285      7.640
REMARK SMILES CC(=O)c1ccccc1S(=O)(=O)N1CCC(C(=O)OCCOCCOCCOCCOC(=O)c2ccc(-c3c4nc(c(-c5cccc(S(=O)(=O)[O-])c5F)c5ccc([nH]5)c(-c5cccc(S(=O)(=O)[O-])c5F)c5nc(c(-c6cccc(S(=O)(=O)[O-])c6F)c6ccc3[nH]6)C=C5)C=C4)cc2)CC1
REMARK SMILES IDX 25 1 24 2 23 3 22 4 21 5 20 6 19 7 17 8 18 9 16 10 13 11
REMARK SMILES IDX 14 12 98 13 15 14 97 15 10 16 11 17 12 18 9 19 4 20 5 21
REMARK SMILES IDX 6 22 8 23 7 24 2 25 1 26 3 27 26 28 27 29 28 30 29 31 30 32
REMARK SMILES IDX 31 33 32 34 33 35 34 36 35 37 96 38 36 39 95 40 37 41 38 42
REMARK SMILES IDX 39 43 89 44 40 45 94 46 88 47 90 48 41 49 93 50 87 51 86 52
REMARK SMILES IDX 42 54 74 55 54 56 73 57 55 58 58 59 72 60 91 61 56 62 57 63
REMARK SMILES IDX 71 65 92 66 59 67 43 68 44 69 52 70 45 71 47 72 53 73 46 74
REMARK SMILES IDX 48 75 49 76 50 77 51 78 75 79 76 80 84 81 77 82 79 83 85 84
REMARK SMILES IDX 78 85 80 86 81 87 82 88 83 89 60 90 61 91 69 92 62 93 64 94
REMARK SMILES IDX 70 95 63 96 65 97 66 98 67 99 68 100
REMARK H PARENT 90 53 58 64
REMARK Flexibility Score: inf
ROOT
ATOM      1  O   UNL A   1      30.550  29.704  24.335  1.00  0.00    -0.377 OA
ENDROOT
BRANCH   1   2
ATOM      2  C   UNL A   1      29.873  30.850  23.851  1.00  0.00     0.188 C 
BRANCH   2   3
ATOM      3  C   UNL A   1      28.397  30.732  23.446  1.00  0.00     0.188 C 
BRANCH   3   4
ATOM      4  O   UNL A   1      28.110  29.595  22.663  1.00  0.00    -0.376 OA
BRANCH   4   5
ATOM      5  C   UNL A   1      27.386  28.481  23.161  1.00  0.00     0.202 C 
BRANCH   5   6
ATOM      6  C   UNL A   1      27.978  27.105  23.521  1.00  0.00     0.261 C 
BRANCH   6   7
ATOM      7  O   UNL A   1      29.299  27.093  24.053  1.00  0.00    -0.463 OA
BRANCH   7   8
ATOM      8  C   UNL A   1      29.575  26.144  24.982  1.00  0.00     0.309 C 
ATOM      9  O   UNL A   1      28.796  25.773  25.852  1.00  0.00    -0.252 OA
BRANCH   8  10
ATOM     10  C   UNL A   1      30.936  25.506  24.765  1.00  0.00     0.102 C 
ATOM     11  N   UNL A   1      33.202  23.971  24.369  1.00  0.00    -0.198 NA
ATOM     12  C   UNL A   1      32.417  23.567  25.557  1.00  0.00     0.103 C 
ATOM     13  C   UNL A   1      32.350  24.191  23.158  1.00  0.00     0.103 C 
ATOM     14  C   UNL A   1      31.522  24.734  25.957  1.00  0.00     0.032 C 
ATOM     15  C   UNL A   1      30.926  24.622  23.528  1.00  0.00     0.032 C 
BRANCH  11  16
ATOM     16  S   UNL A   1      34.653  23.123  24.139  1.00  0.00     0.243 S 
ATOM     17  O   UNL A   1      35.526  23.432  25.254  1.00  0.00    -0.207 OA
ATOM     18  O   UNL A   1      35.091  23.300  22.772  1.00  0.00    -0.207 OA
BRANCH  16  19
ATOM     19  C   UNL A   1      34.272  21.397  24.253  1.00  0.00     0.093 A 
ATOM     20  C   UNL A   1      35.145  20.423  24.733  1.00  0.00     0.037 A 
ATOM     21  C   UNL A   1      34.725  19.083  24.805  1.00  0.00     0.013 A 
ATOM     22  C   UNL A   1      33.422  18.730  24.458  1.00  0.00     0.001 A 
ATOM     23  C   UNL A   1      32.960  21.032  23.902  1.00  0.00     0.022 A 
ATOM     24  C   UNL A   1      32.535  19.708  24.020  1.00  0.00     0.001 A 
BRANCH  20  25
ATOM     25  C   UNL A   1      36.491  20.675  25.271  1.00  0.00     0.161 C 
ATOM     26  C   UNL A   1      37.656  20.217  24.438  1.00  0.00     0.093 C 
ATOM     27  O   UNL A   1      36.609  21.394  26.258  1.00  0.00    -0.294 OA
ENDBRANCH  20  25
ENDBRANCH  16  19
ENDBRANCH  11  16
ENDBRANCH   8  10
ENDBRANCH   7   8
ENDBRANCH   6   7
ENDBRANCH   5   6
ENDBRANCH   4   5
ENDBRANCH   3   4
ENDBRANCH   2   3
ENDBRANCH   1   2
BRANCH   1  28
ATOM     28  C   UNL A   1      31.758  29.867  25.069  1.00  0.00     0.188 C 
BRANCH  28  29
ATOM     29  C   UNL A   1      31.818  30.703  26.373  1.00  0.00     0.188 C 
BRANCH  29  30
ATOM     30  O   UNL A   1      31.003  31.864  26.423  1.00  0.00    -0.376 OA
BRANCH  30  31
ATOM     31  C   UNL A   1      31.670  33.109  26.589  1.00  0.00     0.202 C 
BRANCH  31  32
ATOM     32  C   UNL A   1      32.733  33.169  27.700  1.00  0.00     0.261 C 
BRANCH  32  33
ATOM     33  O   UNL A   1      32.515  34.187  28.686  1.00  0.00    -0.460 OA
BRANCH  33  34
ATOM     34  C   UNL A   1      33.570  34.984  28.960  1.00  0.00     0.338 C 
ATOM     35  O   UNL A   1      33.586  36.202  28.984  1.00  0.00    -0.246 OA
BRANCH  34  36
ATOM     36  C   UNL A   1      34.670  34.130  29.439  1.00  0.00     0.060 A 
ATOM     37  C   UNL A   1      34.383  33.154  30.400  1.00  0.00     0.016 A 
ATOM     38  C   UNL A   1      35.968  34.291  28.947  1.00  0.00     0.016 A 
ATOM     39  C   UNL A   1      35.407  32.358  30.906  1.00  0.00     0.010 A 
ATOM     40  C   UNL A   1      36.997  33.508  29.473  1.00  0.00     0.010 A 
ATOM     41  C   UNL A   1      36.725  32.569  30.483  1.00  0.00    -0.014 A 
BRANCH  41  42
ATOM     42  C   UNL A   1      37.829  31.958  31.256  1.00  0.00     0.031 A 
ATOM     43  C   UNL A   1      38.577  30.809  30.638  1.00  0.00     0.074 A 
ATOM     44  C   UNL A   1      38.185  32.433  32.460  1.00  0.00     0.049 A 
ATOM     45  N   UNL A   1      39.607  30.149  31.096  1.00  0.00    -0.248 NA
ATOM     46  C   UNL A   1      38.097  30.346  29.326  1.00  0.00     0.031 C 
ATOM     47  C   UNL A   1      37.545  33.549  33.153  1.00  0.00     0.029 A 
ATOM     48  N   UNL A   1      39.173  32.021  33.318  1.00  0.00    -0.354 N 
ATOM     49  C   UNL A   1      39.886  29.179  30.141  1.00  0.00     0.074 A 
ATOM     50  C   UNL A   1      38.904  29.324  29.090  1.00  0.00     0.031 C 
ATOM     51  C   UNL A   1      38.152  33.727  34.339  1.00  0.00     0.029 A 
ATOM     52  C   UNL A   1      39.207  32.726  34.496  1.00  0.00     0.049 A 
ATOM     53  H   UNL A   1      39.799  31.290  33.108  1.00  0.00     0.167 HD
ATOM     54  C   UNL A   1      40.879  28.258  30.131  1.00  0.00     0.034 A 
ATOM     55  C   UNL A   1      39.995  32.572  35.577  1.00  0.00     0.034 A 
ATOM     56  C   UNL A   1      41.850  28.113  31.180  1.00  0.00     0.049 A 
ATOM     57  C   UNL A   1      41.063  31.508  35.566  1.00  0.00     0.074 A 
ATOM     58  C   UNL A   1      42.921  27.241  31.248  1.00  0.00     0.029 A 
ATOM     59  N   UNL A   1      41.853  28.843  32.360  1.00  0.00    -0.354 N 
ATOM     60  N   UNL A   1      41.394  30.677  34.607  1.00  0.00    -0.248 NA
ATOM     61  C   UNL A   1      41.886  31.383  36.778  1.00  0.00     0.031 C 
ATOM     62  C   UNL A   1      43.547  27.414  32.488  1.00  0.00     0.029 A 
ATOM     63  C   UNL A   1      42.892  28.426  33.174  1.00  0.00     0.049 A 
ATOM     64  H   UNL A   1      41.211  29.553  32.585  1.00  0.00     0.167 HD
ATOM     65  C   UNL A   1      42.486  29.957  35.083  1.00  0.00     0.074 A 
ATOM     66  C   UNL A   1      42.770  30.465  36.410  1.00  0.00     0.031 C 
ATOM     67  C   UNL A   1      43.186  28.962  34.481  1.00  0.00     0.034 A 
BRANCH  54  68
ATOM     68  C   UNL A   1      40.949  27.339  28.939  1.00  0.00     0.023 A 
ATOM     69  C   UNL A   1      40.120  26.199  28.879  1.00  0.00     0.012 A 
ATOM     70  C   UNL A   1      41.837  27.602  27.878  1.00  0.00     0.148 A 
ATOM     71  C   UNL A   1      40.210  25.309  27.809  1.00  0.00     0.002 A 
ATOM     72  C   UNL A   1      41.885  26.737  26.791  1.00  0.00     0.091 A 
ATOM     73  F   UNL A   1      42.637  28.673  27.963  1.00  0.00    -0.205 F 
ATOM     74  C   UNL A   1      41.086  25.583  26.762  1.00  0.00     0.022 A 
BRANCH  72  75
ATOM     75  S   UNL A   1      42.923  27.049  25.359  1.00  0.00     0.127 S 
ATOM     76  O   UNL A   1      44.218  27.309  25.985  1.00  0.00    -0.237 OA
ATOM     77  O   UNL A   1      42.840  25.779  24.636  1.00  0.00    -0.237 OA
ATOM     78  O   UNL A   1      42.320  28.178  24.667  1.00  0.00    -0.744 OA
ENDBRANCH  72  75
ENDBRANCH  54  68
BRANCH  55  79
ATOM     79  C   UNL A   1      39.838  33.485  36.744  1.00  0.00     0.023 A 
ATOM     80  C   UNL A   1      38.766  33.294  37.636  1.00  0.00     0.012 A 
ATOM     81  C   UNL A   1      40.764  34.518  36.992  1.00  0.00     0.148 A 
ATOM     82  C   UNL A   1      38.604  34.128  38.743  1.00  0.00     0.002 A 
ATOM     83  C   UNL A   1      40.627  35.312  38.125  1.00  0.00     0.091 A 
ATOM     84  F   UNL A   1      41.770  34.689  36.123  1.00  0.00    -0.205 F 
ATOM     85  C   UNL A   1      39.539  35.130  38.992  1.00  0.00     0.022 A 
BRANCH  83  86
ATOM     86  S   UNL A   1      41.845  36.544  38.598  1.00  0.00     0.127 S 
ATOM     87  O   UNL A   1      42.929  35.710  39.112  1.00  0.00    -0.237 OA
ATOM     88  O   UNL A   1      42.121  37.193  37.316  1.00  0.00    -0.237 OA
ATOM     89  O   UNL A   1      41.190  37.395  39.580  1.00  0.00    -0.744 OA
ENDBRANCH  83  86
ENDBRANCH  55  79
BRANCH  67  90
ATOM     90  C   UNL A   1      44.352  28.371  35.235  1.00  0.00     0.023 A 
ATOM     91  C   UNL A   1      45.657  28.852  35.006  1.00  0.00     0.012 A 
ATOM     92  C   UNL A   1      44.145  27.381  36.216  1.00  0.00     0.148 A 
ATOM     93  C   UNL A   1      46.740  28.327  35.709  1.00  0.00     0.002 A 
ATOM     94  C   UNL A   1      45.223  26.901  36.951  1.00  0.00     0.091 A 
ATOM     95  F   UNL A   1      42.900  26.922  36.412  1.00  0.00    -0.205 F 
ATOM     96  C   UNL A   1      46.523  27.360  36.688  1.00  0.00     0.022 A 
BRANCH  94  97
ATOM     97  S   UNL A   1      45.025  25.729  38.300  1.00  0.00     0.127 S 
ATOM     98  O   UNL A   1      44.032  26.402  39.136  1.00  0.00    -0.237 OA
ATOM     99  O   UNL A   1      44.531  24.539  37.606  1.00  0.00    -0.237 OA
ATOM    100  O   UNL A   1      46.345  25.576  38.896  1.00  0.00    -0.744 OA
ENDBRANCH  94  97
ENDBRANCH  67  90
ENDBRANCH  41  42
ENDBRANCH  34  36
ENDBRANCH  33  34
ENDBRANCH  32  33
ENDBRANCH  31  32
ENDBRANCH  30  31
ENDBRANCH  29  30
ENDBRANCH  28  29
ENDBRANCH   1  28
TORSDOF 26
ENDMDL
