MODEL 1
REMARK VINA RESULT:      -9.8      0.000      0.000
REMARK SMILES O=C(OCCOCCOCCOCCOC(=O)[C@@H]1CCC(=O)N1C(=O)/C=C/c1ccccc1)c1ccc(-c2c3nc(c(-c4cccc(S(=O)(=O)[O-])c4F)c4ccc([nH]4)c(-c4cccc(S(=O)(=O)[O-])c4F)c4nc(c(-c5cccc(S(=O)(=O)[O-])c5F)c5ccc2[nH]5)C=C4)C=C3)cc1
REMARK SMILES IDX 9 1 8 2 7 3 6 4 5 5 4 6 3 7 2 8 1 9 34 10 35 11 96 12 36 13
REMARK SMILES IDX 95 14 37 15 38 16 39 17 89 18 40 19 94 20 88 21 90 22 41 23
REMARK SMILES IDX 93 24 87 25 86 26 42 28 74 29 54 30 73 31 55 32 58 33 72 34
REMARK SMILES IDX 91 35 56 36 57 37 71 39 92 40 59 41 43 42 44 43 52 44 45 45
REMARK SMILES IDX 47 46 53 47 46 48 48 49 49 50 50 51 51 52 75 53 76 54 84 55
REMARK SMILES IDX 77 56 79 57 85 58 78 59 80 60 81 61 82 62 83 63 60 64 61 65
REMARK SMILES IDX 69 66 62 67 64 68 70 69 63 70 65 71 66 72 67 73 68 74 10 75
REMARK SMILES IDX 11 76 12 77 13 78 14 79 15 80 16 81 17 82 18 83 19 84 23 85
REMARK SMILES IDX 20 86 21 87 22 88 24 89 25 90 26 91 27 92 28 93 29 94 33 95
REMARK SMILES IDX 30 96 32 97 31 98
REMARK H PARENT 90 27 58 38
REMARK Flexibility Score: inf
ROOT
ATOM      1  O   UNL A   1      38.411  20.860  25.363  1.00  0.00    -0.377 OA
ENDROOT
BRANCH   1   2
ATOM      2  C   UNL A   1      39.586  21.621  25.637  1.00  0.00     0.188 C 
BRANCH   2   3
ATOM      3  C   UNL A   1      40.543  20.965  26.630  1.00  0.00     0.188 C 
BRANCH   3   4
ATOM      4  O   UNL A   1      41.636  20.360  25.933  1.00  0.00    -0.376 OA
BRANCH   4   5
ATOM      5  C   UNL A   1      42.926  20.679  26.455  1.00  0.00     0.202 C 
BRANCH   5   6
ATOM      6  C   UNL A   1      43.827  21.389  25.446  1.00  0.00     0.261 C 
BRANCH   6   7
ATOM      7  O   UNL A   1      43.192  22.551  24.896  1.00  0.00    -0.460 OA
BRANCH   7   8
ATOM      8  C   UNL A   1      43.574  23.847  25.023  1.00  0.00     0.338 C 
ATOM      9  O   UNL A   1      44.533  24.227  24.350  1.00  0.00    -0.246 OA
BRANCH   8  10
ATOM     10  C   UNL A   1      42.890  24.859  25.900  1.00  0.00     0.060 A 
ATOM     11  C   UNL A   1      43.102  26.241  25.889  1.00  0.00     0.016 A 
ATOM     12  C   UNL A   1      41.921  24.360  26.790  1.00  0.00     0.016 A 
ATOM     13  C   UNL A   1      42.454  27.090  26.777  1.00  0.00     0.010 A 
ATOM     14  C   UNL A   1      41.251  25.205  27.682  1.00  0.00     0.010 A 
ATOM     15  C   UNL A   1      41.558  26.568  27.704  1.00  0.00    -0.014 A 
BRANCH  15  16
ATOM     16  C   UNL A   1      41.146  27.437  28.816  1.00  0.00     0.031 A 
ATOM     17  C   UNL A   1      42.068  27.527  29.995  1.00  0.00     0.074 A 
ATOM     18  C   UNL A   1      40.057  28.216  28.704  1.00  0.00     0.049 A 
ATOM     19  N   UNL A   1      41.937  28.207  31.099  1.00  0.00    -0.248 NA
ATOM     20  C   UNL A   1      43.325  26.758  29.906  1.00  0.00     0.031 C 
ATOM     21  C   UNL A   1      39.178  28.270  27.536  1.00  0.00     0.029 A 
ATOM     22  N   UNL A   1      39.512  29.115  29.580  1.00  0.00    -0.354 N 
ATOM     23  C   UNL A   1      43.065  27.912  31.854  1.00  0.00     0.074 A 
ATOM     24  C   UNL A   1      43.884  27.012  31.078  1.00  0.00     0.031 C 
ATOM     25  C   UNL A   1      38.194  29.153  27.772  1.00  0.00     0.029 A 
ATOM     26  C   UNL A   1      38.348  29.685  29.123  1.00  0.00     0.049 A 
ATOM     27  H   UNL A   1      39.916  29.333  30.451  1.00  0.00     0.167 HD
ATOM     28  C   UNL A   1      43.381  28.352  33.092  1.00  0.00     0.034 A 
ATOM     29  C   UNL A   1      37.496  30.518  29.752  1.00  0.00     0.034 A 
ATOM     30  C   UNL A   1      42.548  29.249  33.838  1.00  0.00     0.049 A 
ATOM     31  C   UNL A   1      37.841  30.949  31.154  1.00  0.00     0.074 A 
ATOM     32  C   UNL A   1      42.719  29.723  35.123  1.00  0.00     0.029 A 
ATOM     33  N   UNL A   1      41.369  29.800  33.354  1.00  0.00    -0.354 N 
ATOM     34  N   UNL A   1      38.912  30.672  31.862  1.00  0.00    -0.248 NA
ATOM     35  C   UNL A   1      36.873  31.812  31.843  1.00  0.00     0.031 C 
ATOM     36  C   UNL A   1      41.631  30.551  35.422  1.00  0.00     0.029 A 
ATOM     37  C   UNL A   1      40.796  30.609  34.314  1.00  0.00     0.049 A 
ATOM     38  H   UNL A   1      40.997  29.639  32.457  1.00  0.00     0.167 HD
ATOM     39  C   UNL A   1      38.759  31.338  33.070  1.00  0.00     0.074 A 
ATOM     40  C   UNL A   1      37.501  32.057  32.987  1.00  0.00     0.031 C 
ATOM     41  C   UNL A   1      39.565  31.344  34.161  1.00  0.00     0.034 A 
BRANCH  28  42
ATOM     42  C   UNL A   1      44.654  27.829  33.697  1.00  0.00     0.023 A 
ATOM     43  C   UNL A   1      45.843  28.578  33.594  1.00  0.00     0.012 A 
ATOM     44  C   UNL A   1      44.681  26.569  34.325  1.00  0.00     0.148 A 
ATOM     45  C   UNL A   1      47.048  28.063  34.074  1.00  0.00     0.002 A 
ATOM     46  C   UNL A   1      45.877  26.078  34.832  1.00  0.00     0.091 A 
ATOM     47  F   UNL A   1      43.545  25.858  34.379  1.00  0.00    -0.205 F 
ATOM     48  C   UNL A   1      47.064  26.818  34.698  1.00  0.00     0.022 A 
BRANCH  46  49
ATOM     49  S   UNL A   1      45.991  24.502  35.686  1.00  0.00     0.127 S 
ATOM     50  O   UNL A   1      45.721  23.559  34.601  1.00  0.00    -0.237 OA
ATOM     51  O   UNL A   1      47.376  24.509  36.158  1.00  0.00    -0.237 OA
ATOM     52  O   UNL A   1      44.990  24.545  36.742  1.00  0.00    -0.744 OA
ENDBRANCH  46  49
ENDBRANCH  28  42
BRANCH  29  53
ATOM     53  C   UNL A   1      36.259  30.990  29.064  1.00  0.00     0.023 A 
ATOM     54  C   UNL A   1      35.317  30.054  28.596  1.00  0.00     0.012 A 
ATOM     55  C   UNL A   1      35.992  32.365  28.901  1.00  0.00     0.148 A 
ATOM     56  C   UNL A   1      34.145  30.477  27.962  1.00  0.00     0.002 A 
ATOM     57  C   UNL A   1      34.797  32.780  28.323  1.00  0.00     0.091 A 
ATOM     58  F   UNL A   1      36.910  33.246  29.324  1.00  0.00    -0.205 F 
ATOM     59  C   UNL A   1      33.879  31.838  27.838  1.00  0.00     0.022 A 
BRANCH  57  60
ATOM     60  S   UNL A   1      34.320  34.512  28.250  1.00  0.00     0.127 S 
ATOM     61  O   UNL A   1      34.683  34.865  26.880  1.00  0.00    -0.237 OA
ATOM     62  O   UNL A   1      32.881  34.444  28.507  1.00  0.00    -0.237 OA
ATOM     63  O   UNL A   1      35.084  35.170  29.301  1.00  0.00    -0.744 OA
ENDBRANCH  57  60
ENDBRANCH  29  53
BRANCH  41  64
ATOM     64  C   UNL A   1      39.125  32.168  35.339  1.00  0.00     0.023 A 
ATOM     65  C   UNL A   1      38.306  31.586  36.325  1.00  0.00     0.012 A 
ATOM     66  C   UNL A   1      39.617  33.474  35.518  1.00  0.00     0.148 A 
ATOM     67  C   UNL A   1      37.967  32.304  37.470  1.00  0.00     0.002 A 
ATOM     68  C   UNL A   1      39.313  34.165  36.684  1.00  0.00     0.091 A 
ATOM     69  F   UNL A   1      40.376  34.011  34.553  1.00  0.00    -0.205 F 
ATOM     70  C   UNL A   1      38.482  33.586  37.656  1.00  0.00     0.022 A 
BRANCH  68  71
ATOM     71  S   UNL A   1      40.022  35.774  37.046  1.00  0.00     0.127 S 
ATOM     72  O   UNL A   1      39.617  36.549  35.875  1.00  0.00    -0.237 OA
ATOM     73  O   UNL A   1      39.340  36.143  38.288  1.00  0.00    -0.237 OA
ATOM     74  O   UNL A   1      41.455  35.554  37.191  1.00  0.00    -0.744 OA
ENDBRANCH  68  71
ENDBRANCH  41  64
ENDBRANCH  15  16
ENDBRANCH   8  10
ENDBRANCH   7   8
ENDBRANCH   6   7
ENDBRANCH   5   6
ENDBRANCH   4   5
ENDBRANCH   3   4
ENDBRANCH   2   3
ENDBRANCH   1   2
BRANCH   1  75
ATOM     75  C   UNL A   1      37.193  21.588  25.265  1.00  0.00     0.188 C 
BRANCH  75  76
ATOM     76  C   UNL A   1      35.979  20.912  24.614  1.00  0.00     0.188 C 
BRANCH  76  77
ATOM     77  O   UNL A   1      34.725  21.467  24.969  1.00  0.00    -0.376 OA
BRANCH  77  78
ATOM     78  C   UNL A   1      34.540  21.714  26.361  1.00  0.00     0.202 C 
BRANCH  78  79
ATOM     79  C   UNL A   1      33.663  22.940  26.683  1.00  0.00     0.261 C 
BRANCH  79  80
ATOM     80  O   UNL A   1      33.009  23.573  25.555  1.00  0.00    -0.462 OA
BRANCH  80  81
ATOM     81  C   UNL A   1      33.724  24.496  24.871  1.00  0.00     0.329 C 
ATOM     82  O   UNL A   1      34.657  24.217  24.125  1.00  0.00    -0.250 OA
BRANCH  81  83
ATOM     83  C   UNL A   1      33.121  25.908  24.952  1.00  0.00     0.204 C 
ATOM     84  C   UNL A   1      33.885  26.712  25.998  1.00  0.00     0.047 C 
ATOM     85  N   UNL A   1      31.710  26.033  25.327  1.00  0.00    -0.265 N 
ATOM     86  C   UNL A   1      32.882  27.759  26.401  1.00  0.00     0.103 C 
ATOM     87  C   UNL A   1      31.604  26.961  26.375  1.00  0.00     0.230 C 
ATOM     88  O   UNL A   1      30.676  27.151  27.123  1.00  0.00    -0.274 OA
BRANCH  85  89
ATOM     89  C   UNL A   1      30.721  26.100  24.365  1.00  0.00     0.253 C 
ATOM     90  O   UNL A   1      30.109  25.119  23.950  1.00  0.00    -0.269 OA
BRANCH  89  91
ATOM     91  C   UNL A   1      30.612  27.396  23.646  1.00  0.00     0.072 C 
ATOM     92  C   UNL A   1      29.445  28.052  23.764  1.00  0.00     0.014 C 
BRANCH  92  93
ATOM     93  C   UNL A   1      29.046  29.251  23.016  1.00  0.00    -0.025 A 
ATOM     94  C   UNL A   1      29.888  29.691  21.981  1.00  0.00     0.008 A 
ATOM     95  C   UNL A   1      27.862  29.956  23.260  1.00  0.00     0.008 A 
ATOM     96  C   UNL A   1      29.564  30.815  21.219  1.00  0.00     0.001 A 
ATOM     97  C   UNL A   1      27.538  31.083  22.496  1.00  0.00     0.001 A 
ATOM     98  C   UNL A   1      28.388  31.513  21.478  1.00  0.00     0.000 A 
ENDBRANCH  92  93
ENDBRANCH  89  91
ENDBRANCH  85  89
ENDBRANCH  81  83
ENDBRANCH  80  81
ENDBRANCH  79  80
ENDBRANCH  78  79
ENDBRANCH  77  78
ENDBRANCH  76  77
ENDBRANCH  75  76
ENDBRANCH   1  75
TORSDOF 26
ENDMDL
MODEL 2
REMARK VINA RESULT:      -9.2      2.240      3.106
REMARK SMILES O=C(OCCOCCOCCOCCOC(=O)[C@@H]1CCC(=O)N1C(=O)/C=C/c1ccccc1)c1ccc(-c2c3nc(c(-c4cccc(S(=O)(=O)[O-])c4F)c4ccc([nH]4)c(-c4cccc(S(=O)(=O)[O-])c4F)c4nc(c(-c5cccc(S(=O)(=O)[O-])c5F)c5ccc2[nH]5)C=C4)C=C3)cc1
REMARK SMILES IDX 9 1 8 2 7 3 6 4 5 5 4 6 3 7 2 8 1 9 34 10 35 11 96 12 36 13
REMARK SMILES IDX 95 14 37 15 38 16 39 17 89 18 40 19 94 20 88 21 90 22 41 23
REMARK SMILES IDX 93 24 87 25 86 26 42 28 74 29 54 30 73 31 55 32 58 33 72 34
REMARK SMILES IDX 91 35 56 36 57 37 71 39 92 40 59 41 43 42 44 43 52 44 45 45
REMARK SMILES IDX 47 46 53 47 46 48 48 49 49 50 50 51 51 52 75 53 76 54 84 55
REMARK SMILES IDX 77 56 79 57 85 58 78 59 80 60 81 61 82 62 83 63 60 64 61 65
REMARK SMILES IDX 69 66 62 67 64 68 70 69 63 70 65 71 66 72 67 73 68 74 10 75
REMARK SMILES IDX 11 76 12 77 13 78 14 79 15 80 16 81 17 82 18 83 19 84 23 85
REMARK SMILES IDX 20 86 21 87 22 88 24 89 25 90 26 91 27 92 28 93 29 94 33 95
REMARK SMILES IDX 30 96 32 97 31 98
REMARK H PARENT 90 27 58 38
REMARK Flexibility Score: inf
ROOT
ATOM      1  O   UNL A   1      38.006  21.471  25.523  1.00  0.00    -0.377 OA
ENDROOT
BRANCH   1   2
ATOM      2  C   UNL A   1      39.180  22.142  25.977  1.00  0.00     0.188 C 
BRANCH   2   3
ATOM      3  C   UNL A   1      40.019  21.340  26.969  1.00  0.00     0.188 C 
BRANCH   3   4
ATOM      4  O   UNL A   1      40.842  20.402  26.270  1.00  0.00    -0.376 OA
BRANCH   4   5
ATOM      5  C   UNL A   1      42.227  20.448  26.616  1.00  0.00     0.202 C 
BRANCH   5   6
ATOM      6  C   UNL A   1      43.106  21.029  25.510  1.00  0.00     0.261 C 
BRANCH   6   7
ATOM      7  O   UNL A   1      42.663  22.335  25.114  1.00  0.00    -0.460 OA
BRANCH   7   8
ATOM      8  C   UNL A   1      43.354  23.501  25.170  1.00  0.00     0.338 C 
ATOM      9  O   UNL A   1      44.213  23.696  24.308  1.00  0.00    -0.246 OA
BRANCH   8  10
ATOM     10  C   UNL A   1      43.125  24.584  26.186  1.00  0.00     0.060 A 
ATOM     11  C   UNL A   1      43.651  25.879  26.148  1.00  0.00     0.016 A 
ATOM     12  C   UNL A   1      42.270  24.265  27.257  1.00  0.00     0.016 A 
ATOM     13  C   UNL A   1      43.419  26.796  27.165  1.00  0.00     0.010 A 
ATOM     14  C   UNL A   1      42.018  25.183  28.283  1.00  0.00     0.010 A 
ATOM     15  C   UNL A   1      42.636  26.435  28.256  1.00  0.00    -0.014 A 
BRANCH  15  16
ATOM     16  C   UNL A   1      42.680  27.304  29.442  1.00  0.00     0.031 A 
ATOM     17  C   UNL A   1      43.708  26.989  30.486  1.00  0.00     0.074 A 
ATOM     18  C   UNL A   1      41.917  28.408  29.506  1.00  0.00     0.049 A 
ATOM     19  N   UNL A   1      43.948  27.586  31.619  1.00  0.00    -0.248 NA
ATOM     20  C   UNL A   1      44.608  25.853  30.201  1.00  0.00     0.031 C 
ATOM     21  C   UNL A   1      40.978  28.843  28.471  1.00  0.00     0.029 A 
ATOM     22  N   UNL A   1      41.818  29.367  30.476  1.00  0.00    -0.354 N 
ATOM     23  C   UNL A   1      44.988  26.873  32.203  1.00  0.00     0.074 A 
ATOM     24  C   UNL A   1      45.353  25.814  31.294  1.00  0.00     0.031 C 
ATOM     25  C   UNL A   1      40.390  29.983  28.869  1.00  0.00     0.029 A 
ATOM     26  C   UNL A   1      40.875  30.327  30.202  1.00  0.00     0.049 A 
ATOM     27  H   UNL A   1      42.372  29.369  31.291  1.00  0.00     0.167 HD
ATOM     28  C   UNL A   1      45.579  27.086  33.400  1.00  0.00     0.034 A 
ATOM     29  C   UNL A   1      40.438  31.346  30.968  1.00  0.00     0.034 A 
ATOM     30  C   UNL A   1      45.195  28.149  34.282  1.00  0.00     0.049 A 
ATOM     31  C   UNL A   1      41.072  31.527  32.324  1.00  0.00     0.074 A 
ATOM     32  C   UNL A   1      45.668  28.438  35.546  1.00  0.00     0.029 A 
ATOM     33  N   UNL A   1      44.228  29.098  33.982  1.00  0.00    -0.354 N 
ATOM     34  N   UNL A   1      42.059  30.854  32.869  1.00  0.00    -0.248 NA
ATOM     35  C   UNL A   1      40.546  32.608  33.167  1.00  0.00     0.031 C 
ATOM     36  C   UNL A   1      44.971  29.556  36.018  1.00  0.00     0.029 A 
ATOM     37  C   UNL A   1      44.083  29.976  35.037  1.00  0.00     0.049 A 
ATOM     38  H   UNL A   1      43.720  29.140  33.140  1.00  0.00     0.167 HD
ATOM     39  C   UNL A   1      42.286  31.438  34.108  1.00  0.00     0.074 A 
ATOM     40  C   UNL A   1      41.348  32.539  34.221  1.00  0.00     0.031 C 
ATOM     41  C   UNL A   1      43.168  31.090  35.078  1.00  0.00     0.034 A 
BRANCH  28  42
ATOM     42  C   UNL A   1      46.657  26.122  33.808  1.00  0.00     0.023 A 
ATOM     43  C   UNL A   1      48.004  26.397  33.495  1.00  0.00     0.012 A 
ATOM     44  C   UNL A   1      46.330  24.917  34.458  1.00  0.00     0.148 A 
ATOM     45  C   UNL A   1      49.004  25.470  33.790  1.00  0.00     0.002 A 
ATOM     46  C   UNL A   1      47.335  24.014  34.781  1.00  0.00     0.091 A 
ATOM     47  F   UNL A   1      45.040  24.659  34.713  1.00  0.00    -0.205 F 
ATOM     48  C   UNL A   1      48.671  24.282  34.437  1.00  0.00     0.022 A 
BRANCH  46  49
ATOM     49  S   UNL A   1      47.010  22.476  35.648  1.00  0.00     0.127 S 
ATOM     50  O   UNL A   1      47.049  22.910  37.044  1.00  0.00    -0.237 OA
ATOM     51  O   UNL A   1      45.678  22.122  35.157  1.00  0.00    -0.237 OA
ATOM     52  O   UNL A   1      48.067  21.558  35.248  1.00  0.00    -0.744 OA
ENDBRANCH  46  49
ENDBRANCH  28  42
BRANCH  29  53
ATOM     53  C   UNL A   1      39.365  32.256  30.472  1.00  0.00     0.023 A 
ATOM     54  C   UNL A   1      39.708  33.472  29.850  1.00  0.00     0.012 A 
ATOM     55  C   UNL A   1      38.003  31.906  30.581  1.00  0.00     0.148 A 
ATOM     56  C   UNL A   1      38.717  34.330  29.366  1.00  0.00     0.002 A 
ATOM     57  C   UNL A   1      37.024  32.737  30.045  1.00  0.00     0.091 A 
ATOM     58  F   UNL A   1      37.687  30.761  31.201  1.00  0.00    -0.205 F 
ATOM     59  C   UNL A   1      37.378  33.957  29.451  1.00  0.00     0.022 A 
BRANCH  57  60
ATOM     60  S   UNL A   1      35.291  32.264  29.992  1.00  0.00     0.127 S 
ATOM     61  O   UNL A   1      34.700  33.372  29.247  1.00  0.00    -0.237 OA
ATOM     62  O   UNL A   1      35.342  30.992  29.269  1.00  0.00    -0.237 OA
ATOM     63  O   UNL A   1      34.880  32.142  31.384  1.00  0.00    -0.744 OA
ENDBRANCH  57  60
ENDBRANCH  29  53
BRANCH  41  64
ATOM     64  C   UNL A   1      43.177  31.919  36.331  1.00  0.00     0.023 A 
ATOM     65  C   UNL A   1      42.416  31.508  37.442  1.00  0.00     0.012 A 
ATOM     66  C   UNL A   1      44.026  33.036  36.439  1.00  0.00     0.148 A 
ATOM     67  C   UNL A   1      42.487  32.211  38.642  1.00  0.00     0.002 A 
ATOM     68  C   UNL A   1      44.126  33.704  37.653  1.00  0.00     0.091 A 
ATOM     69  F   UNL A   1      44.722  33.420  35.360  1.00  0.00    -0.205 F 
ATOM     70  C   UNL A   1      43.353  33.298  38.752  1.00  0.00     0.022 A 
BRANCH  68  71
ATOM     71  S   UNL A   1      45.294  35.044  37.906  1.00  0.00     0.127 S 
ATOM     72  O   UNL A   1      44.715  35.731  39.059  1.00  0.00    -0.237 OA
ATOM     73  O   UNL A   1      46.539  34.326  38.184  1.00  0.00    -0.237 OA
ATOM     74  O   UNL A   1      45.305  35.803  36.662  1.00  0.00    -0.744 OA
ENDBRANCH  68  71
ENDBRANCH  41  64
ENDBRANCH  15  16
ENDBRANCH   8  10
ENDBRANCH   7   8
ENDBRANCH   6   7
ENDBRANCH   5   6
ENDBRANCH   4   5
ENDBRANCH   3   4
ENDBRANCH   2   3
ENDBRANCH   1   2
BRANCH   1  75
ATOM     75  C   UNL A   1      36.771  22.143  25.731  1.00  0.00     0.188 C 
BRANCH  75  76
ATOM     76  C   UNL A   1      35.580  21.798  24.827  1.00  0.00     0.188 C 
BRANCH  76  77
ATOM     77  O   UNL A   1      34.320  22.235  25.305  1.00  0.00    -0.376 OA
BRANCH  77  78
ATOM     78  C   UNL A   1      33.919  21.682  26.557  1.00  0.00     0.202 C 
BRANCH  78  79
ATOM     79  C   UNL A   1      32.959  22.572  27.371  1.00  0.00     0.261 C 
BRANCH  79  80
ATOM     80  O   UNL A   1      32.527  23.799  26.733  1.00  0.00    -0.462 OA
BRANCH  80  81
ATOM     81  C   UNL A   1      31.210  23.909  26.443  1.00  0.00     0.329 C 
ATOM     82  O   UNL A   1      30.315  23.554  27.202  1.00  0.00    -0.250 OA
BRANCH  81  83
ATOM     83  C   UNL A   1      30.940  24.716  25.162  1.00  0.00     0.204 C 
ATOM     84  C   UNL A   1      31.077  23.791  23.958  1.00  0.00     0.047 C 
ATOM     85  N   UNL A   1      31.811  25.856  24.871  1.00  0.00    -0.265 N 
ATOM     86  C   UNL A   1      31.394  24.751  22.843  1.00  0.00     0.103 C 
ATOM     87  C   UNL A   1      32.285  25.735  23.555  1.00  0.00     0.230 C 
ATOM     88  O   UNL A   1      33.207  26.312  23.029  1.00  0.00    -0.274 OA
BRANCH  85  89
ATOM     89  C   UNL A   1      31.469  27.134  25.269  1.00  0.00     0.253 C 
ATOM     90  O   UNL A   1      31.813  27.628  26.340  1.00  0.00    -0.269 OA
BRANCH  89  91
ATOM     91  C   UNL A   1      30.423  27.803  24.452  1.00  0.00     0.072 C 
ATOM     92  C   UNL A   1      30.709  29.036  24.001  1.00  0.00     0.014 C 
BRANCH  92  93
ATOM     93  C   UNL A   1      29.777  29.951  23.328  1.00  0.00    -0.025 A 
ATOM     94  C   UNL A   1      29.419  29.664  22.000  1.00  0.00     0.008 A 
ATOM     95  C   UNL A   1      29.208  31.068  23.948  1.00  0.00     0.008 A 
ATOM     96  C   UNL A   1      28.527  30.482  21.303  1.00  0.00     0.001 A 
ATOM     97  C   UNL A   1      28.315  31.889  23.249  1.00  0.00     0.001 A 
ATOM     98  C   UNL A   1      27.976  31.596  21.928  1.00  0.00     0.000 A 
ENDBRANCH  92  93
ENDBRANCH  89  91
ENDBRANCH  85  89
ENDBRANCH  81  83
ENDBRANCH  80  81
ENDBRANCH  79  80
ENDBRANCH  78  79
ENDBRANCH  77  78
ENDBRANCH  76  77
ENDBRANCH  75  76
ENDBRANCH   1  75
TORSDOF 26
ENDMDL
MODEL 3
REMARK VINA RESULT:      -8.7      3.238      4.862
REMARK SMILES O=C(OCCOCCOCCOCCOC(=O)[C@@H]1CCC(=O)N1C(=O)/C=C/c1ccccc1)c1ccc(-c2c3nc(c(-c4cccc(S(=O)(=O)[O-])c4F)c4ccc([nH]4)c(-c4cccc(S(=O)(=O)[O-])c4F)c4nc(c(-c5cccc(S(=O)(=O)[O-])c5F)c5ccc2[nH]5)C=C4)C=C3)cc1
REMARK SMILES IDX 9 1 8 2 7 3 6 4 5 5 4 6 3 7 2 8 1 9 34 10 35 11 96 12 36 13
REMARK SMILES IDX 95 14 37 15 38 16 39 17 89 18 40 19 94 20 88 21 90 22 41 23
REMARK SMILES IDX 93 24 87 25 86 26 42 28 74 29 54 30 73 31 55 32 58 33 72 34
REMARK SMILES IDX 91 35 56 36 57 37 71 39 92 40 59 41 43 42 44 43 52 44 45 45
REMARK SMILES IDX 47 46 53 47 46 48 48 49 49 50 50 51 51 52 75 53 76 54 84 55
REMARK SMILES IDX 77 56 79 57 85 58 78 59 80 60 81 61 82 62 83 63 60 64 61 65
REMARK SMILES IDX 69 66 62 67 64 68 70 69 63 70 65 71 66 72 67 73 68 74 10 75
REMARK SMILES IDX 11 76 12 77 13 78 14 79 15 80 16 81 17 82 18 83 19 84 23 85
REMARK SMILES IDX 20 86 21 87 22 88 24 89 25 90 26 91 27 92 28 93 29 94 33 95
REMARK SMILES IDX 30 96 32 97 31 98
REMARK H PARENT 90 27 58 38
REMARK Flexibility Score: inf
ROOT
ATOM      1  O   UNL A   1      38.086  21.323  25.576  1.00  0.00    -0.377 OA
ENDROOT
BRANCH   1   2
ATOM      2  C   UNL A   1      39.069  22.258  26.020  1.00  0.00     0.188 C 
BRANCH   2   3
ATOM      3  C   UNL A   1      40.122  21.668  26.954  1.00  0.00     0.188 C 
BRANCH   3   4
ATOM      4  O   UNL A   1      40.787  20.575  26.316  1.00  0.00    -0.376 OA
BRANCH   4   5
ATOM      5  C   UNL A   1      42.154  20.404  26.697  1.00  0.00     0.202 C 
BRANCH   5   6
ATOM      6  C   UNL A   1      43.136  20.699  25.565  1.00  0.00     0.261 C 
BRANCH   6   7
ATOM      7  O   UNL A   1      42.886  21.979  24.968  1.00  0.00    -0.460 OA
BRANCH   7   8
ATOM      8  C   UNL A   1      43.695  23.068  24.960  1.00  0.00     0.338 C 
ATOM      9  O   UNL A   1      44.482  23.186  24.019  1.00  0.00    -0.246 OA
BRANCH   8  10
ATOM     10  C   UNL A   1      43.678  24.155  25.998  1.00  0.00     0.060 A 
ATOM     11  C   UNL A   1      44.196  25.445  25.854  1.00  0.00     0.016 A 
ATOM     12  C   UNL A   1      43.048  23.844  27.218  1.00  0.00     0.016 A 
ATOM     13  C   UNL A   1      44.175  26.365  26.894  1.00  0.00     0.010 A 
ATOM     14  C   UNL A   1      43.009  24.765  28.270  1.00  0.00     0.010 A 
ATOM     15  C   UNL A   1      43.619  26.012  28.118  1.00  0.00    -0.014 A 
BRANCH  15  16
ATOM     16  C   UNL A   1      43.901  26.882  29.270  1.00  0.00     0.031 A 
ATOM     17  C   UNL A   1      45.209  26.686  29.976  1.00  0.00     0.074 A 
ATOM     18  C   UNL A   1      43.073  27.895  29.577  1.00  0.00     0.049 A 
ATOM     19  N   UNL A   1      45.692  27.308  31.014  1.00  0.00    -0.248 NA
ATOM     20  C   UNL A   1      46.108  25.656  29.417  1.00  0.00     0.031 C 
ATOM     21  C   UNL A   1      41.841  28.222  28.859  1.00  0.00     0.029 A 
ATOM     22  N   UNL A   1      43.150  28.839  30.565  1.00  0.00    -0.354 N 
ATOM     23  C   UNL A   1      46.925  26.715  31.262  1.00  0.00     0.074 A 
ATOM     24  C   UNL A   1      47.130  25.701  30.256  1.00  0.00     0.031 C 
ATOM     25  C   UNL A   1      41.269  29.290  29.439  1.00  0.00     0.029 A 
ATOM     26  C   UNL A   1      42.070  29.688  30.594  1.00  0.00     0.049 A 
ATOM     27  H   UNL A   1      43.906  28.904  31.192  1.00  0.00     0.167 HD
ATOM     28  C   UNL A   1      47.801  26.994  32.252  1.00  0.00     0.034 A 
ATOM     29  C   UNL A   1      41.760  30.654  31.481  1.00  0.00     0.034 A 
ATOM     30  C   UNL A   1      47.570  28.010  33.237  1.00  0.00     0.049 A 
ATOM     31  C   UNL A   1      42.726  30.906  32.610  1.00  0.00     0.074 A 
ATOM     32  C   UNL A   1      48.345  28.351  34.327  1.00  0.00     0.029 A 
ATOM     33  N   UNL A   1      46.461  28.845  33.248  1.00  0.00    -0.354 N 
ATOM     34  N   UNL A   1      43.893  30.347  32.837  1.00  0.00    -0.248 NA
ATOM     35  C   UNL A   1      42.346  31.924  33.598  1.00  0.00     0.031 C 
ATOM     36  C   UNL A   1      47.694  29.386  35.007  1.00  0.00     0.029 A 
ATOM     37  C   UNL A   1      46.526  29.703  34.327  1.00  0.00     0.049 A 
ATOM     38  H   UNL A   1      45.736  28.829  32.582  1.00  0.00     0.167 HD
ATOM     39  C   UNL A   1      44.395  30.955  33.980  1.00  0.00     0.074 A 
ATOM     40  C   UNL A   1      43.415  31.946  34.384  1.00  0.00     0.031 C 
ATOM     41  C   UNL A   1      45.546  30.709  34.655  1.00  0.00     0.034 A 
BRANCH  28  42
ATOM     42  C   UNL A   1      49.048  26.156  32.313  1.00  0.00     0.023 A 
ATOM     43  C   UNL A   1      50.166  26.498  31.527  1.00  0.00     0.012 A 
ATOM     44  C   UNL A   1      49.092  24.999  33.114  1.00  0.00     0.148 A 
ATOM     45  C   UNL A   1      51.297  25.681  31.509  1.00  0.00     0.002 A 
ATOM     46  C   UNL A   1      50.235  24.209  33.118  1.00  0.00     0.091 A 
ATOM     47  F   UNL A   1      48.004  24.674  33.826  1.00  0.00    -0.205 F 
ATOM     48  C   UNL A   1      51.333  24.540  32.308  1.00  0.00     0.022 A 
BRANCH  46  49
ATOM     49  S   UNL A   1      50.391  22.742  34.143  1.00  0.00     0.127 S 
ATOM     50  O   UNL A   1      49.590  21.773  33.395  1.00  0.00    -0.237 OA
ATOM     51  O   UNL A   1      51.833  22.497  34.110  1.00  0.00    -0.237 OA
ATOM     52  O   UNL A   1      49.869  23.109  35.451  1.00  0.00    -0.744 OA
ENDBRANCH  46  49
ENDBRANCH  28  42
BRANCH  29  53
ATOM     53  C   UNL A   1      40.500  31.438  31.331  1.00  0.00     0.023 A 
ATOM     54  C   UNL A   1      40.453  32.528  30.441  1.00  0.00     0.012 A 
ATOM     55  C   UNL A   1      39.333  31.088  32.042  1.00  0.00     0.148 A 
ATOM     56  C   UNL A   1      39.278  33.265  30.277  1.00  0.00     0.002 A 
ATOM     57  C   UNL A   1      38.150  31.789  31.830  1.00  0.00     0.091 A 
ATOM     58  F   UNL A   1      39.398  30.067  32.908  1.00  0.00    -0.205 F 
ATOM     59  C   UNL A   1      38.124  32.888  30.960  1.00  0.00     0.022 A 
BRANCH  57  60
ATOM     60  S   UNL A   1      36.592  31.281  32.567  1.00  0.00     0.127 S 
ATOM     61  O   UNL A   1      36.583  29.847  32.292  1.00  0.00    -0.237 OA
ATOM     62  O   UNL A   1      36.788  31.637  33.973  1.00  0.00    -0.237 OA
ATOM     63  O   UNL A   1      35.568  32.066  31.890  1.00  0.00    -0.744 OA
ENDBRANCH  57  60
ENDBRANCH  29  53
BRANCH  41  64
ATOM     64  C   UNL A   1      45.818  31.536  35.879  1.00  0.00     0.023 A 
ATOM     65  C   UNL A   1      46.465  32.780  35.746  1.00  0.00     0.012 A 
ATOM     66  C   UNL A   1      45.332  31.131  37.135  1.00  0.00     0.148 A 
ATOM     67  C   UNL A   1      46.641  33.603  36.856  1.00  0.00     0.002 A 
ATOM     68  C   UNL A   1      45.468  31.978  38.227  1.00  0.00     0.091 A 
ATOM     69  F   UNL A   1      44.740  29.933  37.237  1.00  0.00    -0.205 F 
ATOM     70  C   UNL A   1      46.129  33.209  38.091  1.00  0.00     0.022 A 
BRANCH  68  71
ATOM     71  S   UNL A   1      44.745  31.593  39.825  1.00  0.00     0.127 S 
ATOM     72  O   UNL A   1      43.341  31.388  39.475  1.00  0.00    -0.237 OA
ATOM     73  O   UNL A   1      45.464  30.376  40.208  1.00  0.00    -0.237 OA
ATOM     74  O   UNL A   1      45.020  32.745  40.674  1.00  0.00    -0.744 OA
ENDBRANCH  68  71
ENDBRANCH  41  64
ENDBRANCH  15  16
ENDBRANCH   8  10
ENDBRANCH   7   8
ENDBRANCH   6   7
ENDBRANCH   5   6
ENDBRANCH   4   5
ENDBRANCH   3   4
ENDBRANCH   2   3
ENDBRANCH   1   2
BRANCH   1  75
ATOM     75  C   UNL A   1      36.727  21.701  25.750  1.00  0.00     0.188 C 
BRANCH  75  76
ATOM     76  C   UNL A   1      35.662  21.068  24.845  1.00  0.00     0.188 C 
BRANCH  76  77
ATOM     77  O   UNL A   1      34.323  21.378  25.190  1.00  0.00    -0.376 OA
BRANCH  77  78
ATOM     78  C   UNL A   1      33.895  20.894  26.461  1.00  0.00     0.202 C 
BRANCH  78  79
ATOM     79  C   UNL A   1      33.245  21.959  27.365  1.00  0.00     0.261 C 
BRANCH  79  80
ATOM     80  O   UNL A   1      32.936  23.229  26.739  1.00  0.00    -0.462 OA
BRANCH  80  81
ATOM     81  C   UNL A   1      31.848  23.268  25.936  1.00  0.00     0.329 C 
ATOM     82  O   UNL A   1      30.835  22.604  26.130  1.00  0.00    -0.250 OA
BRANCH  81  83
ATOM     83  C   UNL A   1      31.920  24.382  24.878  1.00  0.00     0.204 C 
ATOM     84  C   UNL A   1      30.669  24.318  24.009  1.00  0.00     0.047 C 
ATOM     85  N   UNL A   1      33.042  24.364  23.936  1.00  0.00    -0.265 N 
ATOM     86  C   UNL A   1      31.122  24.980  22.735  1.00  0.00     0.103 C 
ATOM     87  C   UNL A   1      32.535  24.468  22.631  1.00  0.00     0.230 C 
ATOM     88  O   UNL A   1      33.092  24.236  21.585  1.00  0.00    -0.274 OA
BRANCH  85  89
ATOM     89  C   UNL A   1      34.195  25.082  24.189  1.00  0.00     0.253 C 
ATOM     90  O   UNL A   1      35.281  24.560  24.430  1.00  0.00    -0.269 OA
BRANCH  89  91
ATOM     91  C   UNL A   1      34.007  26.536  24.430  1.00  0.00     0.072 C 
ATOM     92  C   UNL A   1      33.861  26.920  25.710  1.00  0.00     0.014 C 
BRANCH  92  93
ATOM     93  C   UNL A   1      33.495  28.264  26.175  1.00  0.00    -0.025 A 
ATOM     94  C   UNL A   1      32.239  28.770  25.800  1.00  0.00     0.008 A 
ATOM     95  C   UNL A   1      34.316  29.050  26.990  1.00  0.00     0.008 A 
ATOM     96  C   UNL A   1      31.819  30.034  26.218  1.00  0.00     0.001 A 
ATOM     97  C   UNL A   1      33.896  30.318  27.408  1.00  0.00     0.001 A 
ATOM     98  C   UNL A   1      32.650  30.810  27.022  1.00  0.00     0.000 A 
ENDBRANCH  92  93
ENDBRANCH  89  91
ENDBRANCH  85  89
ENDBRANCH  81  83
ENDBRANCH  80  81
ENDBRANCH  79  80
ENDBRANCH  78  79
ENDBRANCH  77  78
ENDBRANCH  76  77
ENDBRANCH  75  76
ENDBRANCH   1  75
TORSDOF 26
ENDMDL
