MODEL 1
REMARK VINA RESULT:      -9.2      0.000      0.000
REMARK SMILES CC(=O)c1c(C)nn(CC(=O)N2CCC[C@H](c3cccc(C(=O)OCCOCCOCCOCCOC(=O)c4ccc(-c5c6nc(c(-c7cccc(S(=O)(=O)[O-])c7F)c7ccc([nH]7)c(-c7cccc(S(=O)(=O)[O-])c7F)c7nc(c(-c8cccc(S(=O)(=O)[O-])c8F)c8ccc5[nH]8)C=C7)C=C6)cc4)c3)C2)c1C
REMARK SMILES IDX 29 1 28 2 27 3 26 4 25 5 24 6 22 7 23 8 21 9 17 10 18 11
REMARK SMILES IDX 102 12 19 13 20 14 16 15 12 16 13 17 103 18 14 19 15 20
REMARK SMILES IDX 10 21 11 22 9 23 8 24 4 25 5 26 104 27 6 28 7 29 105 30 2 31
REMARK SMILES IDX 1 32 3 33 30 34 31 35 32 36 33 37 34 38 35 39 36 40 37 41
REMARK SMILES IDX 38 42 39 43 40 44 101 45 41 46 100 47 42 48 43 49 44 50
REMARK SMILES IDX 94 51 45 52 99 53 93 54 95 55 46 56 98 57 92 58 91 59 47 61
REMARK SMILES IDX 79 62 59 63 78 64 60 65 63 66 77 67 96 68 61 69 62 70 76 72
REMARK SMILES IDX 97 73 64 74 48 75 49 76 57 77 50 78 52 79 58 80 51 81 53 82
REMARK SMILES IDX 54 83 55 84 56 85 80 86 81 87 89 88 82 89 84 90 90 91 83 92
REMARK SMILES IDX 85 93 86 94 87 95 88 96 65 97 66 98 74 99 67 100 69 101
REMARK SMILES IDX 75 102 68 103 70 104 71 105 72 106 73 107
REMARK H PARENT 95 60 63 71
REMARK Flexibility Score: inf
ROOT
ATOM      1  C   UNL A   1      37.483  33.449  30.226  1.00  0.00     0.188 C 
ENDROOT
BRANCH   1   2
ATOM      2  C   UNL A   1      36.245  32.787  29.581  1.00  0.00     0.188 C 
BRANCH   2   3
ATOM      3  O   UNL A   1      36.327  31.728  28.631  1.00  0.00    -0.376 OA
BRANCH   3   4
ATOM      4  C   UNL A   1      36.231  30.372  29.024  1.00  0.00     0.202 C 
BRANCH   4   5
ATOM      5  C   UNL A   1      35.573  29.343  28.094  1.00  0.00     0.261 C 
BRANCH   5   6
ATOM      6  O   UNL A   1      34.862  29.886  26.982  1.00  0.00    -0.460 OA
BRANCH   6   7
ATOM      7  C   UNL A   1      33.568  30.217  27.206  1.00  0.00     0.338 C 
ATOM      8  O   UNL A   1      33.138  31.251  27.683  1.00  0.00    -0.246 OA
BRANCH   7   9
ATOM      9  C   UNL A   1      32.734  29.170  26.577  1.00  0.00     0.060 A 
ATOM     10  C   UNL A   1      31.454  28.321  24.682  1.00  0.00    -0.042 A 
ATOM     11  C   UNL A   1      30.896  27.378  25.558  1.00  0.00     0.004 A 
ATOM     12  C   UNL A   1      32.329  29.269  25.238  1.00  0.00     0.019 A 
ATOM     13  C   UNL A   1      31.293  27.275  26.891  1.00  0.00     0.001 A 
ATOM     14  C   UNL A   1      32.250  28.144  27.392  1.00  0.00     0.016 A 
BRANCH  10  15
ATOM     15  C   UNL A   1      31.151  28.331  23.179  1.00  0.00     0.039 C 
ATOM     16  N   UNL A   1      32.251  26.158  22.535  1.00  0.00    -0.340 N 
ATOM     17  C   UNL A   1      33.392  26.868  21.937  1.00  0.00     0.119 C 
ATOM     18  C   UNL A   1      30.994  26.929  22.524  1.00  0.00     0.127 C 
ATOM     19  C   UNL A   1      33.566  28.293  22.456  1.00  0.00     0.022 C 
ATOM     20  C   UNL A   1      32.250  29.067  22.380  1.00  0.00     0.012 C 
BRANCH  16  21
ATOM     21  C   UNL A   1      32.482  24.908  23.088  1.00  0.00     0.244 C 
ATOM     22  O   UNL A   1      32.070  24.678  24.241  1.00  0.00    -0.273 OA
BRANCH  21  23
ATOM     23  C   UNL A   1      33.345  23.804  22.488  1.00  0.00     0.244 C 
BRANCH  23  24
ATOM     24  N   UNL A   1      33.648  22.598  23.231  1.00  0.00    -0.259 N 
ATOM     25  C   UNL A   1      33.592  20.620  24.187  1.00  0.00     0.061 A 
ATOM     26  C   UNL A   1      34.659  21.425  24.675  1.00  0.00     0.070 A 
ATOM     27  C   UNL A   1      32.999  21.384  23.188  1.00  0.00     0.047 A 
ATOM     28  C   UNL A   1      35.612  21.135  25.778  1.00  0.00     0.069 C 
ATOM     29  N   UNL A   1      34.740  22.587  24.017  1.00  0.00    -0.177 NA
ATOM     30  C   UNL A   1      31.835  21.142  22.298  1.00  0.00     0.067 C 
BRANCH  25  31
ATOM     31  C   UNL A   1      33.190  19.324  24.718  1.00  0.00     0.163 C 
ATOM     32  C   UNL A   1      33.985  18.098  24.351  1.00  0.00     0.093 C 
ATOM     33  O   UNL A   1      32.199  19.248  25.440  1.00  0.00    -0.294 OA
ENDBRANCH  25  31
ENDBRANCH  23  24
ENDBRANCH  21  23
ENDBRANCH  16  21
ENDBRANCH  10  15
ENDBRANCH   7   9
ENDBRANCH   6   7
ENDBRANCH   5   6
ENDBRANCH   4   5
ENDBRANCH   3   4
ENDBRANCH   2   3
ENDBRANCH   1   2
BRANCH   1  34
ATOM     34  O   UNL A   1      38.729  32.882  29.845  1.00  0.00    -0.377 OA
BRANCH  34  35
ATOM     35  C   UNL A   1      39.803  33.192  30.728  1.00  0.00     0.188 C 
BRANCH  35  36
ATOM     36  C   UNL A   1      40.300  34.651  30.677  1.00  0.00     0.188 C 
BRANCH  36  37
ATOM     37  O   UNL A   1      41.472  34.827  29.879  1.00  0.00    -0.376 OA
BRANCH  37  38
ATOM     38  C   UNL A   1      41.434  35.778  28.825  1.00  0.00     0.202 C 
BRANCH  38  39
ATOM     39  C   UNL A   1      42.807  36.356  28.496  1.00  0.00     0.261 C 
BRANCH  39  40
ATOM     40  O   UNL A   1      43.412  35.749  27.365  1.00  0.00    -0.460 OA
BRANCH  40  41
ATOM     41  C   UNL A   1      44.517  35.018  27.612  1.00  0.00     0.338 C 
ATOM     42  O   UNL A   1      45.646  35.426  27.812  1.00  0.00    -0.246 OA
BRANCH  41  43
ATOM     43  C   UNL A   1      44.166  33.600  27.518  1.00  0.00     0.060 A 
ATOM     44  C   UNL A   1      44.127  32.910  28.729  1.00  0.00     0.016 A 
ATOM     45  C   UNL A   1      44.224  32.950  26.276  1.00  0.00     0.016 A 
ATOM     46  C   UNL A   1      44.457  31.580  28.711  1.00  0.00     0.010 A 
ATOM     47  C   UNL A   1      44.560  31.622  26.259  1.00  0.00     0.010 A 
ATOM     48  C   UNL A   1      44.787  31.001  27.483  1.00  0.00    -0.014 A 
BRANCH  48  49
ATOM     49  C   UNL A   1      45.477  29.736  27.528  1.00  0.00     0.031 A 
ATOM     50  C   UNL A   1      44.589  28.566  27.559  1.00  0.00     0.074 A 
ATOM     51  C   UNL A   1      46.820  29.676  27.481  1.00  0.00     0.049 A 
ATOM     52  N   UNL A   1      44.457  27.700  28.506  1.00  0.00    -0.248 NA
ATOM     53  C   UNL A   1      43.628  28.428  26.457  1.00  0.00     0.031 C 
ATOM     54  C   UNL A   1      47.749  30.763  27.146  1.00  0.00     0.029 A 
ATOM     55  N   UNL A   1      47.627  28.585  27.570  1.00  0.00    -0.354 N 
ATOM     56  C   UNL A   1      43.564  26.763  28.003  1.00  0.00     0.074 A 
ATOM     57  C   UNL A   1      42.941  27.357  26.850  1.00  0.00     0.031 C 
ATOM     58  C   UNL A   1      48.941  30.226  26.807  1.00  0.00     0.029 A 
ATOM     59  C   UNL A   1      48.885  28.790  27.022  1.00  0.00     0.049 A 
ATOM     60  H   UNL A   1      47.347  27.737  27.982  1.00  0.00     0.167 HD
ATOM     61  C   UNL A   1      43.619  25.465  28.396  1.00  0.00     0.034 A 
ATOM     62  C   UNL A   1      49.770  27.829  26.675  1.00  0.00     0.034 A 
ATOM     63  C   UNL A   1      44.324  25.307  29.641  1.00  0.00     0.049 A 
ATOM     64  C   UNL A   1      49.387  26.586  27.386  1.00  0.00     0.074 A 
ATOM     65  C   UNL A   1      44.179  25.804  30.921  1.00  0.00     0.029 A 
ATOM     66  N   UNL A   1      45.585  24.768  29.580  1.00  0.00    -0.354 N 
ATOM     67  N   UNL A   1      49.488  26.416  28.675  1.00  0.00    -0.248 NA
ATOM     68  C   UNL A   1      48.542  25.623  26.696  1.00  0.00     0.031 C 
ATOM     69  C   UNL A   1      45.502  25.900  31.442  1.00  0.00     0.029 A 
ATOM     70  C   UNL A   1      46.384  25.450  30.458  1.00  0.00     0.049 A 
ATOM     71  H   UNL A   1      45.867  24.021  29.003  1.00  0.00     0.167 HD
ATOM     72  C   UNL A   1      48.404  25.614  29.011  1.00  0.00     0.074 A 
ATOM     73  C   UNL A   1      47.957  25.041  27.746  1.00  0.00     0.031 C 
ATOM     74  C   UNL A   1      47.790  25.726  30.227  1.00  0.00     0.034 A 
BRANCH  61  75
ATOM     75  C   UNL A   1      43.371  24.303  27.464  1.00  0.00     0.023 A 
ATOM     76  C   UNL A   1      44.144  24.249  26.285  1.00  0.00     0.012 A 
ATOM     77  C   UNL A   1      42.254  23.436  27.538  1.00  0.00     0.148 A 
ATOM     78  C   UNL A   1      43.793  23.419  25.216  1.00  0.00     0.002 A 
ATOM     79  C   UNL A   1      41.963  22.548  26.510  1.00  0.00     0.091 A 
ATOM     80  F   UNL A   1      41.369  23.548  28.532  1.00  0.00    -0.205 F 
ATOM     81  C   UNL A   1      42.707  22.558  25.332  1.00  0.00     0.022 A 
BRANCH  79  82
ATOM     82  S   UNL A   1      40.607  21.381  26.671  1.00  0.00     0.127 S 
ATOM     83  O   UNL A   1      40.921  20.416  25.624  1.00  0.00    -0.237 OA
ATOM     84  O   UNL A   1      40.781  20.891  28.039  1.00  0.00    -0.237 OA
ATOM     85  O   UNL A   1      39.402  22.181  26.482  1.00  0.00    -0.744 OA
ENDBRANCH  79  82
ENDBRANCH  61  75
BRANCH  62  86
ATOM     86  C   UNL A   1      50.799  27.852  25.613  1.00  0.00     0.023 A 
ATOM     87  C   UNL A   1      52.147  27.622  25.950  1.00  0.00     0.012 A 
ATOM     88  C   UNL A   1      50.450  27.875  24.243  1.00  0.00     0.148 A 
ATOM     89  C   UNL A   1      53.110  27.401  24.960  1.00  0.00     0.002 A 
ATOM     90  C   UNL A   1      51.417  27.679  23.260  1.00  0.00     0.091 A 
ATOM     91  F   UNL A   1      49.161  27.993  23.901  1.00  0.00    -0.205 F 
ATOM     92  C   UNL A   1      52.746  27.431  23.616  1.00  0.00     0.022 A 
BRANCH  90  93
ATOM     93  S   UNL A   1      51.012  27.727  21.507  1.00  0.00     0.127 S 
ATOM     94  O   UNL A   1      50.293  26.465  21.320  1.00  0.00    -0.237 OA
ATOM     95  O   UNL A   1      50.178  28.921  21.418  1.00  0.00    -0.237 OA
ATOM     96  O   UNL A   1      52.291  27.785  20.813  1.00  0.00    -0.744 OA
ENDBRANCH  90  93
ENDBRANCH  62  86
BRANCH  74  97
ATOM     97  C   UNL A   1      48.504  26.487  31.319  1.00  0.00     0.023 A 
ATOM     98  C   UNL A   1      48.190  27.831  31.610  1.00  0.00     0.012 A 
ATOM     99  C   UNL A   1      49.370  25.793  32.185  1.00  0.00     0.148 A 
ATOM    100  C   UNL A   1      48.750  28.478  32.714  1.00  0.00     0.002 A 
ATOM    101  C   UNL A   1      49.887  26.426  33.311  1.00  0.00     0.091 A 
ATOM    102  F   UNL A   1      49.656  24.511  31.908  1.00  0.00    -0.205 F 
ATOM    103  C   UNL A   1      49.588  27.772  33.573  1.00  0.00     0.022 A 
BRANCH 101 104
ATOM    104  S   UNL A   1      50.854  25.526  34.529  1.00  0.00     0.127 S 
ATOM    105  O   UNL A   1      49.926  24.477  34.945  1.00  0.00    -0.237 OA
ATOM    106  O   UNL A   1      51.998  25.053  33.745  1.00  0.00    -0.237 OA
ATOM    107  O   UNL A   1      51.206  26.505  35.551  1.00  0.00    -0.744 OA
ENDBRANCH 101 104
ENDBRANCH  74  97
ENDBRANCH  48  49
ENDBRANCH  41  43
ENDBRANCH  40  41
ENDBRANCH  39  40
ENDBRANCH  38  39
ENDBRANCH  37  38
ENDBRANCH  36  37
ENDBRANCH  35  36
ENDBRANCH  34  35
ENDBRANCH   1  34
TORSDOF 28
ENDMDL
MODEL 2
REMARK VINA RESULT:      -8.5      3.377      5.269
REMARK SMILES CC(=O)c1c(C)nn(CC(=O)N2CCC[C@H](c3cccc(C(=O)OCCOCCOCCOCCOC(=O)c4ccc(-c5c6nc(c(-c7cccc(S(=O)(=O)[O-])c7F)c7ccc([nH]7)c(-c7cccc(S(=O)(=O)[O-])c7F)c7nc(c(-c8cccc(S(=O)(=O)[O-])c8F)c8ccc5[nH]8)C=C7)C=C6)cc4)c3)C2)c1C
REMARK SMILES IDX 29 1 28 2 27 3 26 4 25 5 24 6 22 7 23 8 21 9 17 10 18 11
REMARK SMILES IDX 102 12 19 13 20 14 16 15 12 16 13 17 103 18 14 19 15 20
REMARK SMILES IDX 10 21 11 22 9 23 8 24 4 25 5 26 104 27 6 28 7 29 105 30 2 31
REMARK SMILES IDX 1 32 3 33 30 34 31 35 32 36 33 37 34 38 35 39 36 40 37 41
REMARK SMILES IDX 38 42 39 43 40 44 101 45 41 46 100 47 42 48 43 49 44 50
REMARK SMILES IDX 94 51 45 52 99 53 93 54 95 55 46 56 98 57 92 58 91 59 47 61
REMARK SMILES IDX 79 62 59 63 78 64 60 65 63 66 77 67 96 68 61 69 62 70 76 72
REMARK SMILES IDX 97 73 64 74 48 75 49 76 57 77 50 78 52 79 58 80 51 81 53 82
REMARK SMILES IDX 54 83 55 84 56 85 80 86 81 87 89 88 82 89 84 90 90 91 83 92
REMARK SMILES IDX 85 93 86 94 87 95 88 96 65 97 66 98 74 99 67 100 69 101
REMARK SMILES IDX 75 102 68 103 70 104 71 105 72 106 73 107
REMARK H PARENT 95 60 63 71
REMARK Flexibility Score: inf
ROOT
ATOM      1  C   UNL A   1      37.269  33.788  29.693  1.00  0.00     0.188 C 
ENDROOT
BRANCH   1   2
ATOM      2  C   UNL A   1      37.063  32.278  29.942  1.00  0.00     0.188 C 
BRANCH   2   3
ATOM      3  O   UNL A   1      36.950  31.318  28.895  1.00  0.00    -0.376 OA
BRANCH   3   4
ATOM      4  C   UNL A   1      36.355  30.052  29.112  1.00  0.00     0.202 C 
BRANCH   4   5
ATOM      5  C   UNL A   1      35.703  29.295  27.946  1.00  0.00     0.261 C 
BRANCH   5   6
ATOM      6  O   UNL A   1      35.023  30.107  26.990  1.00  0.00    -0.460 OA
BRANCH   6   7
ATOM      7  C   UNL A   1      33.731  30.399  27.269  1.00  0.00     0.338 C 
ATOM      8  O   UNL A   1      33.297  31.385  27.835  1.00  0.00    -0.246 OA
BRANCH   7   9
ATOM      9  C   UNL A   1      32.896  29.391  26.578  1.00  0.00     0.060 A 
ATOM     10  C   UNL A   1      31.607  28.663  24.640  1.00  0.00    -0.042 A 
ATOM     11  C   UNL A   1      31.059  27.662  25.455  1.00  0.00     0.004 A 
ATOM     12  C   UNL A   1      32.482  29.576  25.251  1.00  0.00     0.019 A 
ATOM     13  C   UNL A   1      31.465  27.474  26.776  1.00  0.00     0.001 A 
ATOM     14  C   UNL A   1      32.422  28.312  27.327  1.00  0.00     0.016 A 
BRANCH  10  15
ATOM     15  C   UNL A   1      31.295  28.770  23.142  1.00  0.00     0.039 C 
ATOM     16  N   UNL A   1      31.590  26.353  22.497  1.00  0.00    -0.340 N 
ATOM     17  C   UNL A   1      32.891  26.638  21.872  1.00  0.00     0.119 C 
ATOM     18  C   UNL A   1      30.663  27.500  22.503  1.00  0.00     0.127 C 
ATOM     19  C   UNL A   1      33.542  27.924  22.375  1.00  0.00     0.022 C 
ATOM     20  C   UNL A   1      32.559  29.094  22.317  1.00  0.00     0.012 C 
BRANCH  16  21
ATOM     21  C   UNL A   1      31.401  25.099  23.058  1.00  0.00     0.244 C 
ATOM     22  O   UNL A   1      30.628  24.987  24.028  1.00  0.00    -0.273 OA
BRANCH  21  23
ATOM     23  C   UNL A   1      32.174  23.832  22.710  1.00  0.00     0.244 C 
BRANCH  23  24
ATOM     24  N   UNL A   1      32.714  22.972  23.743  1.00  0.00    -0.259 N 
ATOM     25  C   UNL A   1      33.941  22.057  25.319  1.00  0.00     0.061 A 
ATOM     26  C   UNL A   1      32.957  21.162  24.814  1.00  0.00     0.070 A 
ATOM     27  C   UNL A   1      33.705  23.256  24.656  1.00  0.00     0.047 A 
ATOM     28  C   UNL A   1      32.755  19.725  25.134  1.00  0.00     0.069 C 
ATOM     29  N   UNL A   1      32.155  21.762  23.926  1.00  0.00    -0.177 NA
ATOM     30  C   UNL A   1      34.378  24.579  24.707  1.00  0.00     0.067 C 
BRANCH  25  31
ATOM     31  C   UNL A   1      35.003  21.715  26.256  1.00  0.00     0.163 C 
ATOM     32  C   UNL A   1      36.404  21.515  25.743  1.00  0.00     0.093 C 
ATOM     33  O   UNL A   1      34.735  21.576  27.448  1.00  0.00    -0.294 OA
ENDBRANCH  25  31
ENDBRANCH  23  24
ENDBRANCH  21  23
ENDBRANCH  16  21
ENDBRANCH  10  15
ENDBRANCH   7   9
ENDBRANCH   6   7
ENDBRANCH   5   6
ENDBRANCH   4   5
ENDBRANCH   3   4
ENDBRANCH   2   3
ENDBRANCH   1   2
BRANCH   1  34
ATOM     34  O   UNL A   1      38.472  34.123  29.014  1.00  0.00    -0.377 OA
BRANCH  34  35
ATOM     35  C   UNL A   1      39.621  34.163  29.855  1.00  0.00     0.188 C 
BRANCH  35  36
ATOM     36  C   UNL A   1      40.603  35.320  29.577  1.00  0.00     0.188 C 
BRANCH  36  37
ATOM     37  O   UNL A   1      41.874  34.886  29.089  1.00  0.00    -0.376 OA
BRANCH  37  38
ATOM     38  C   UNL A   1      42.272  35.294  27.788  1.00  0.00     0.202 C 
BRANCH  38  39
ATOM     39  C   UNL A   1      43.781  35.488  27.663  1.00  0.00     0.261 C 
BRANCH  39  40
ATOM     40  O   UNL A   1      44.217  35.614  26.318  1.00  0.00    -0.460 OA
BRANCH  40  41
ATOM     41  C   UNL A   1      45.499  35.271  26.083  1.00  0.00     0.338 C 
ATOM     42  O   UNL A   1      46.419  36.007  25.777  1.00  0.00    -0.246 OA
BRANCH  41  43
ATOM     43  C   UNL A   1      45.615  33.814  26.170  1.00  0.00     0.060 A 
ATOM     44  C   UNL A   1      44.473  33.099  25.810  1.00  0.00     0.016 A 
ATOM     45  C   UNL A   1      46.671  33.243  26.895  1.00  0.00     0.016 A 
ATOM     46  C   UNL A   1      44.251  31.903  26.440  1.00  0.00     0.010 A 
ATOM     47  C   UNL A   1      46.445  32.051  27.531  1.00  0.00     0.010 A 
ATOM     48  C   UNL A   1      45.189  31.470  27.381  1.00  0.00    -0.014 A 
BRANCH  48  49
ATOM     49  C   UNL A   1      44.769  30.428  28.284  1.00  0.00     0.031 A 
ATOM     50  C   UNL A   1      43.696  29.573  27.759  1.00  0.00     0.074 A 
ATOM     51  C   UNL A   1      45.378  30.252  29.471  1.00  0.00     0.049 A 
ATOM     52  N   UNL A   1      42.495  29.445  28.213  1.00  0.00    -0.248 NA
ATOM     53  C   UNL A   1      43.954  28.883  26.489  1.00  0.00     0.031 C 
ATOM     54  C   UNL A   1      46.635  30.859  29.926  1.00  0.00     0.029 A 
ATOM     55  N   UNL A   1      45.076  29.368  30.458  1.00  0.00    -0.354 N 
ATOM     56  C   UNL A   1      41.922  28.462  27.418  1.00  0.00     0.074 A 
ATOM     57  C   UNL A   1      42.774  28.306  26.269  1.00  0.00     0.031 C 
ATOM     58  C   UNL A   1      47.114  30.138  30.963  1.00  0.00     0.029 A 
ATOM     59  C   UNL A   1      46.142  29.115  31.310  1.00  0.00     0.049 A 
ATOM     60  H   UNL A   1      44.191  28.950  30.559  1.00  0.00     0.167 HD
ATOM     61  C   UNL A   1      40.953  27.647  27.905  1.00  0.00     0.034 A 
ATOM     62  C   UNL A   1      46.252  28.072  32.162  1.00  0.00     0.034 A 
ATOM     63  C   UNL A   1      40.315  28.201  29.071  1.00  0.00     0.049 A 
ATOM     64  C   UNL A   1      44.893  27.521  32.378  1.00  0.00     0.074 A 
ATOM     65  C   UNL A   1      39.633  29.367  29.354  1.00  0.00     0.029 A 
ATOM     66  N   UNL A   1      40.631  27.638  30.282  1.00  0.00    -0.354 N 
ATOM     67  N   UNL A   1      43.945  28.137  33.027  1.00  0.00    -0.248 NA
ATOM     68  C   UNL A   1      44.458  26.403  31.554  1.00  0.00     0.031 C 
ATOM     69  C   UNL A   1      39.921  29.653  30.720  1.00  0.00     0.029 A 
ATOM     70  C   UNL A   1      40.758  28.644  31.201  1.00  0.00     0.049 A 
ATOM     71  H   UNL A   1      40.747  26.676  30.460  1.00  0.00     0.167 HD
ATOM     72  C   UNL A   1      42.774  27.772  32.373  1.00  0.00     0.074 A 
ATOM     73  C   UNL A   1      43.137  26.598  31.587  1.00  0.00     0.031 C 
ATOM     74  C   UNL A   1      41.710  28.625  32.297  1.00  0.00     0.034 A 
BRANCH  61  75
ATOM     75  C   UNL A   1      40.847  26.181  27.557  1.00  0.00     0.023 A 
ATOM     76  C   UNL A   1      39.585  25.710  27.138  1.00  0.00     0.012 A 
ATOM     77  C   UNL A   1      41.819  25.204  27.880  1.00  0.00     0.148 A 
ATOM     78  C   UNL A   1      39.290  24.344  27.096  1.00  0.00     0.002 A 
ATOM     79  C   UNL A   1      41.549  23.848  27.749  1.00  0.00     0.091 A 
ATOM     80  F   UNL A   1      42.974  25.556  28.454  1.00  0.00    -0.205 F 
ATOM     81  C   UNL A   1      40.277  23.410  27.392  1.00  0.00     0.022 A 
BRANCH  79  82
ATOM     82  S   UNL A   1      42.833  22.629  28.059  1.00  0.00     0.127 S 
ATOM     83  O   UNL A   1      43.055  22.793  29.491  1.00  0.00    -0.237 OA
ATOM     84  O   UNL A   1      42.175  21.381  27.672  1.00  0.00    -0.237 OA
ATOM     85  O   UNL A   1      43.932  23.014  27.180  1.00  0.00    -0.744 OA
ENDBRANCH  79  82
ENDBRANCH  61  75
BRANCH  62  86
ATOM     86  C   UNL A   1      47.473  27.387  32.641  1.00  0.00     0.023 A 
ATOM     87  C   UNL A   1      47.613  27.101  34.012  1.00  0.00     0.012 A 
ATOM     88  C   UNL A   1      48.400  26.809  31.742  1.00  0.00     0.148 A 
ATOM     89  C   UNL A   1      48.628  26.254  34.472  1.00  0.00     0.002 A 
ATOM     90  C   UNL A   1      49.422  25.987  32.206  1.00  0.00     0.091 A 
ATOM     91  F   UNL A   1      48.227  26.986  30.425  1.00  0.00    -0.205 F 
ATOM     92  C   UNL A   1      49.532  25.698  33.571  1.00  0.00     0.022 A 
BRANCH  90  93
ATOM     93  S   UNL A   1      50.634  25.257  31.094  1.00  0.00     0.127 S 
ATOM     94  O   UNL A   1      50.931  23.983  31.750  1.00  0.00    -0.237 OA
ATOM     95  O   UNL A   1      49.877  25.140  29.851  1.00  0.00    -0.237 OA
ATOM     96  O   UNL A   1      51.756  26.186  31.075  1.00  0.00    -0.744 OA
ENDBRANCH  90  93
ENDBRANCH  62  86
BRANCH  74  97
ATOM     97  C   UNL A   1      41.693  29.828  33.210  1.00  0.00     0.023 A 
ATOM     98  C   UNL A   1      41.163  29.759  34.515  1.00  0.00     0.012 A 
ATOM     99  C   UNL A   1      42.380  30.994  32.822  1.00  0.00     0.148 A 
ATOM    100  C   UNL A   1      41.285  30.833  35.400  1.00  0.00     0.002 A 
ATOM    101  C   UNL A   1      42.543  32.042  33.722  1.00  0.00     0.091 A 
ATOM    102  F   UNL A   1      42.891  31.049  31.581  1.00  0.00    -0.205 F 
ATOM    103  C   UNL A   1      41.987  31.969  35.009  1.00  0.00     0.022 A 
BRANCH 101 104
ATOM    104  S   UNL A   1      43.560  33.468  33.323  1.00  0.00     0.127 S 
ATOM    105  O   UNL A   1      42.658  34.268  32.497  1.00  0.00    -0.237 OA
ATOM    106  O   UNL A   1      43.845  34.038  34.642  1.00  0.00    -0.237 OA
ATOM    107  O   UNL A   1      44.735  32.934  32.646  1.00  0.00    -0.744 OA
ENDBRANCH 101 104
ENDBRANCH  74  97
ENDBRANCH  48  49
ENDBRANCH  41  43
ENDBRANCH  40  41
ENDBRANCH  39  40
ENDBRANCH  38  39
ENDBRANCH  37  38
ENDBRANCH  36  37
ENDBRANCH  35  36
ENDBRANCH  34  35
ENDBRANCH   1  34
TORSDOF 28
ENDMDL
MODEL 3
REMARK VINA RESULT:      -8.5      6.587     14.036
REMARK SMILES CC(=O)c1c(C)nn(CC(=O)N2CCC[C@H](c3cccc(C(=O)OCCOCCOCCOCCOC(=O)c4ccc(-c5c6nc(c(-c7cccc(S(=O)(=O)[O-])c7F)c7ccc([nH]7)c(-c7cccc(S(=O)(=O)[O-])c7F)c7nc(c(-c8cccc(S(=O)(=O)[O-])c8F)c8ccc5[nH]8)C=C7)C=C6)cc4)c3)C2)c1C
REMARK SMILES IDX 29 1 28 2 27 3 26 4 25 5 24 6 22 7 23 8 21 9 17 10 18 11
REMARK SMILES IDX 102 12 19 13 20 14 16 15 12 16 13 17 103 18 14 19 15 20
REMARK SMILES IDX 10 21 11 22 9 23 8 24 4 25 5 26 104 27 6 28 7 29 105 30 2 31
REMARK SMILES IDX 1 32 3 33 30 34 31 35 32 36 33 37 34 38 35 39 36 40 37 41
REMARK SMILES IDX 38 42 39 43 40 44 101 45 41 46 100 47 42 48 43 49 44 50
REMARK SMILES IDX 94 51 45 52 99 53 93 54 95 55 46 56 98 57 92 58 91 59 47 61
REMARK SMILES IDX 79 62 59 63 78 64 60 65 63 66 77 67 96 68 61 69 62 70 76 72
REMARK SMILES IDX 97 73 64 74 48 75 49 76 57 77 50 78 52 79 58 80 51 81 53 82
REMARK SMILES IDX 54 83 55 84 56 85 80 86 81 87 89 88 82 89 84 90 90 91 83 92
REMARK SMILES IDX 85 93 86 94 87 95 88 96 65 97 66 98 74 99 67 100 69 101
REMARK SMILES IDX 75 102 68 103 70 104 71 105 72 106 73 107
REMARK H PARENT 95 60 63 71
REMARK Flexibility Score: inf
ROOT
ATOM      1  C   UNL A   1      43.550  26.907  32.292  1.00  0.00     0.188 C 
ENDROOT
BRANCH   1   2
ATOM      2  C   UNL A   1      44.546  27.178  33.442  1.00  0.00     0.188 C 
BRANCH   2   3
ATOM      3  O   UNL A   1      44.273  26.865  34.805  1.00  0.00    -0.376 OA
BRANCH   3   4
ATOM      4  C   UNL A   1      43.079  26.209  35.190  1.00  0.00     0.202 C 
BRANCH   4   5
ATOM      5  C   UNL A   1      43.062  24.685  35.376  1.00  0.00     0.261 C 
BRANCH   5   6
ATOM      6  O   UNL A   1      44.337  24.046  35.334  1.00  0.00    -0.460 OA
BRANCH   6   7
ATOM      7  C   UNL A   1      44.433  22.960  34.531  1.00  0.00     0.338 C 
ATOM      8  O   UNL A   1      44.272  22.911  33.325  1.00  0.00    -0.246 OA
BRANCH   7   9
ATOM      9  C   UNL A   1      44.972  21.854  35.353  1.00  0.00     0.060 A 
ATOM     10  C   UNL A   1      46.251  21.054  37.269  1.00  0.00    -0.042 A 
ATOM     11  C   UNL A   1      46.258  19.790  36.662  1.00  0.00     0.004 A 
ATOM     12  C   UNL A   1      45.656  22.104  36.550  1.00  0.00     0.019 A 
ATOM     13  C   UNL A   1      45.582  19.535  35.469  1.00  0.00     0.001 A 
ATOM     14  C   UNL A   1      44.895  20.559  34.835  1.00  0.00     0.016 A 
BRANCH  10  15
ATOM     15  C   UNL A   1      46.845  21.305  38.661  1.00  0.00     0.039 C 
ATOM     16  N   UNL A   1      49.260  20.791  38.163  1.00  0.00    -0.340 N 
ATOM     17  C   UNL A   1      49.163  19.489  38.841  1.00  0.00     0.119 C 
ATOM     18  C   UNL A   1      48.318  21.804  38.674  1.00  0.00     0.127 C 
ATOM     19  C   UNL A   1      47.734  18.965  38.958  1.00  0.00     0.022 C 
ATOM     20  C   UNL A   1      46.805  20.032  39.536  1.00  0.00     0.012 C 
BRANCH  16  21
ATOM     21  C   UNL A   1      50.149  20.907  37.105  1.00  0.00     0.244 C 
ATOM     22  O   UNL A   1      51.329  21.225  37.347  1.00  0.00    -0.273 OA
BRANCH  21  23
ATOM     23  C   UNL A   1      49.799  20.838  35.624  1.00  0.00     0.244 C 
BRANCH  23  24
ATOM     24  N   UNL A   1      49.636  22.040  34.833  1.00  0.00    -0.259 N 
ATOM     25  C   UNL A   1      49.943  23.799  33.552  1.00  0.00     0.061 A 
ATOM     26  C   UNL A   1      48.681  23.824  34.208  1.00  0.00     0.070 A 
ATOM     27  C   UNL A   1      50.511  22.583  33.917  1.00  0.00     0.047 A 
ATOM     28  C   UNL A   1      47.657  24.901  34.213  1.00  0.00     0.069 C 
ATOM     29  N   UNL A   1      48.467  22.703  34.906  1.00  0.00    -0.177 NA
ATOM     30  C   UNL A   1      51.813  21.947  33.596  1.00  0.00     0.067 C 
BRANCH  25  31
ATOM     31  C   UNL A   1      50.513  24.880  32.757  1.00  0.00     0.163 C 
ATOM     32  C   UNL A   1      50.299  24.892  31.267  1.00  0.00     0.093 C 
ATOM     33  O   UNL A   1      51.174  25.754  33.313  1.00  0.00    -0.294 OA
ENDBRANCH  25  31
ENDBRANCH  23  24
ENDBRANCH  21  23
ENDBRANCH  16  21
ENDBRANCH  10  15
ENDBRANCH   7   9
ENDBRANCH   6   7
ENDBRANCH   5   6
ENDBRANCH   4   5
ENDBRANCH   3   4
ENDBRANCH   2   3
ENDBRANCH   1   2
BRANCH   1  34
ATOM     34  O   UNL A   1      43.972  25.925  31.356  1.00  0.00    -0.377 OA
BRANCH  34  35
ATOM     35  C   UNL A   1      45.385  25.837  31.204  1.00  0.00     0.188 C 
BRANCH  35  36
ATOM     36  C   UNL A   1      45.873  25.350  29.823  1.00  0.00     0.188 C 
BRANCH  36  37
ATOM     37  O   UNL A   1      44.812  25.087  28.903  1.00  0.00    -0.376 OA
BRANCH  37  38
ATOM     38  C   UNL A   1      44.994  25.448  27.542  1.00  0.00     0.202 C 
BRANCH  38  39
ATOM     39  C   UNL A   1      44.250  24.527  26.579  1.00  0.00     0.261 C 
BRANCH  39  40
ATOM     40  O   UNL A   1      42.838  24.645  26.673  1.00  0.00    -0.460 OA
BRANCH  40  41
ATOM     41  C   UNL A   1      42.287  25.664  25.985  1.00  0.00     0.338 C 
ATOM     42  O   UNL A   1      42.460  25.948  24.815  1.00  0.00    -0.246 OA
BRANCH  41  43
ATOM     43  C   UNL A   1      41.479  26.465  26.908  1.00  0.00     0.060 A 
ATOM     44  C   UNL A   1      41.097  27.720  26.437  1.00  0.00     0.016 A 
ATOM     45  C   UNL A   1      41.421  26.113  28.265  1.00  0.00     0.016 A 
ATOM     46  C   UNL A   1      40.949  28.724  27.358  1.00  0.00     0.010 A 
ATOM     47  C   UNL A   1      41.280  27.118  29.185  1.00  0.00     0.010 A 
ATOM     48  C   UNL A   1      41.168  28.419  28.704  1.00  0.00    -0.014 A 
BRANCH  48  49
ATOM     49  C   UNL A   1      41.373  29.533  29.595  1.00  0.00     0.031 A 
ATOM     50  C   UNL A   1      40.135  30.098  30.149  1.00  0.00     0.074 A 
ATOM     51  C   UNL A   1      42.613  29.947  29.914  1.00  0.00     0.049 A 
ATOM     52  N   UNL A   1      39.652  31.279  29.959  1.00  0.00    -0.248 NA
ATOM     53  C   UNL A   1      39.257  29.183  30.890  1.00  0.00     0.031 C 
ATOM     54  C   UNL A   1      43.880  29.253  29.650  1.00  0.00     0.029 A 
ATOM     55  N   UNL A   1      42.985  31.004  30.684  1.00  0.00    -0.354 N 
ATOM     56  C   UNL A   1      38.524  31.331  30.766  1.00  0.00     0.074 A 
ATOM     57  C   UNL A   1      38.219  29.977  31.145  1.00  0.00     0.031 C 
ATOM     58  C   UNL A   1      44.831  29.762  30.463  1.00  0.00     0.029 A 
ATOM     59  C   UNL A   1      44.268  30.882  31.198  1.00  0.00     0.049 A 
ATOM     60  H   UNL A   1      42.403  31.779  30.858  1.00  0.00     0.167 HD
ATOM     61  C   UNL A   1      38.101  32.505  31.300  1.00  0.00     0.034 A 
ATOM     62  C   UNL A   1      44.786  31.587  32.227  1.00  0.00     0.034 A 
ATOM     63  C   UNL A   1      38.628  33.642  30.591  1.00  0.00     0.049 A 
ATOM     64  C   UNL A   1      43.953  32.800  32.407  1.00  0.00     0.074 A 
ATOM     65  C   UNL A   1      38.584  34.091  29.287  1.00  0.00     0.029 A 
ATOM     66  N   UNL A   1      39.626  34.354  31.208  1.00  0.00    -0.354 N 
ATOM     67  N   UNL A   1      43.907  33.792  31.563  1.00  0.00    -0.248 NA
ATOM     68  C   UNL A   1      42.871  32.762  33.380  1.00  0.00     0.031 C 
ATOM     69  C   UNL A   1      39.822  34.764  29.075  1.00  0.00     0.029 A 
ATOM     70  C   UNL A   1      40.554  34.697  30.262  1.00  0.00     0.049 A 
ATOM     71  H   UNL A   1      39.668  34.580  32.166  1.00  0.00     0.167 HD
ATOM     72  C   UNL A   1      42.593  34.243  31.618  1.00  0.00     0.074 A 
ATOM     73  C   UNL A   1      42.057  33.678  32.851  1.00  0.00     0.031 C 
ATOM     74  C   UNL A   1      41.981  34.777  30.519  1.00  0.00     0.034 A 
BRANCH  61  75
ATOM     75  C   UNL A   1      37.526  32.627  32.691  1.00  0.00     0.023 A 
ATOM     76  C   UNL A   1      36.473  33.549  32.873  1.00  0.00     0.012 A 
ATOM     77  C   UNL A   1      38.131  32.107  33.860  1.00  0.00     0.148 A 
ATOM     78  C   UNL A   1      36.083  33.973  34.146  1.00  0.00     0.002 A 
ATOM     79  C   UNL A   1      37.678  32.463  35.125  1.00  0.00     0.091 A 
ATOM     80  F   UNL A   1      39.245  31.373  33.782  1.00  0.00    -0.205 F 
ATOM     81  C   UNL A   1      36.678  33.421  35.276  1.00  0.00     0.022 A 
BRANCH  79  82
ATOM     82  S   UNL A   1      38.388  31.709  36.593  1.00  0.00     0.127 S 
ATOM     83  O   UNL A   1      38.469  30.308  36.195  1.00  0.00    -0.237 OA
ATOM     84  O   UNL A   1      39.673  32.398  36.704  1.00  0.00    -0.237 OA
ATOM     85  O   UNL A   1      37.452  32.029  37.665  1.00  0.00    -0.744 OA
ENDBRANCH  79  82
ENDBRANCH  61  75
BRANCH  62  86
ATOM     86  C   UNL A   1      45.824  31.185  33.201  1.00  0.00     0.023 A 
ATOM     87  C   UNL A   1      47.129  31.698  33.072  1.00  0.00     0.012 A 
ATOM     88  C   UNL A   1      45.499  30.482  34.384  1.00  0.00     0.148 A 
ATOM     89  C   UNL A   1      48.072  31.535  34.094  1.00  0.00     0.002 A 
ATOM     90  C   UNL A   1      46.447  30.302  35.387  1.00  0.00     0.091 A 
ATOM     91  F   UNL A   1      44.238  30.072  34.572  1.00  0.00    -0.205 F 
ATOM     92  C   UNL A   1      47.732  30.837  35.250  1.00  0.00     0.022 A 
BRANCH  90  93
ATOM     93  S   UNL A   1      46.074  29.391  36.894  1.00  0.00     0.127 S 
ATOM     94  O   UNL A   1      46.817  30.145  37.905  1.00  0.00    -0.237 OA
ATOM     95  O   UNL A   1      44.623  29.522  36.981  1.00  0.00    -0.237 OA
ATOM     96  O   UNL A   1      46.584  28.044  36.671  1.00  0.00    -0.744 OA
ENDBRANCH  90  93
ENDBRANCH  62  86
BRANCH  74  97
ATOM     97  C   UNL A   1      42.843  35.178  29.346  1.00  0.00     0.023 A 
ATOM     98  C   UNL A   1      43.334  36.493  29.204  1.00  0.00     0.012 A 
ATOM     99  C   UNL A   1      43.318  34.183  28.471  1.00  0.00     0.148 A 
ATOM    100  C   UNL A   1      44.248  36.816  28.198  1.00  0.00     0.002 A 
ATOM    101  C   UNL A   1      44.266  34.498  27.502  1.00  0.00     0.091 A 
ATOM    102  F   UNL A   1      42.855  32.931  28.618  1.00  0.00    -0.205 F 
ATOM    103  C   UNL A   1      44.725  35.816  27.356  1.00  0.00     0.022 A 
BRANCH 101 104
ATOM    104  S   UNL A   1      45.023  33.225  26.485  1.00  0.00     0.127 S 
ATOM    105  O   UNL A   1      45.657  32.368  27.484  1.00  0.00    -0.237 OA
ATOM    106  O   UNL A   1      43.869  32.624  25.811  1.00  0.00    -0.237 OA
ATOM    107  O   UNL A   1      45.928  33.929  25.585  1.00  0.00    -0.744 OA
ENDBRANCH 101 104
ENDBRANCH  74  97
ENDBRANCH  48  49
ENDBRANCH  41  43
ENDBRANCH  40  41
ENDBRANCH  39  40
ENDBRANCH  38  39
ENDBRANCH  37  38
ENDBRANCH  36  37
ENDBRANCH  35  36
ENDBRANCH  34  35
ENDBRANCH   1  34
TORSDOF 28
ENDMDL
