MODEL 1
REMARK VINA RESULT:      -8.1      0.000      0.000
REMARK SMILES Cc1cc(C(=O)N2[C@@H](C(=O)OCCOCCOCCOCCOC(=O)c3ccc(-c4c5nc(c(-c6cccc(S(=O)(=O)[O-])c6F)c6ccc([nH]6)c(-c6cccc(S(=O)(=O)[O-])c6F)c6nc(c(-c7cccc(S(=O)(=O)[O-])c7F)c7ccc4[nH]7)C=C6)C=C5)cc3)C[C@H]3CCCC[C@H]32)c(C)s1
REMARK SMILES IDX 18 1 17 2 16 3 15 4 14 5 13 6 12 7 11 8 9 9 10 10 8 11 7 12
REMARK SMILES IDX 95 13 89 14 90 15 94 16 91 17 93 18 92 19 5 20 6 21 4 22
REMARK SMILES IDX 1 23 2 24 3 25 98 26 96 27 97 28 19 29 20 30 21 31 22 32
REMARK SMILES IDX 23 33 24 34 25 35 26 36 27 37 88 38 28 39 87 40 29 41 30 42
REMARK SMILES IDX 31 43 81 44 32 45 86 46 80 47 82 48 33 49 85 50 79 51 78 52
REMARK SMILES IDX 34 54 66 55 46 56 65 57 47 58 50 59 64 60 83 61 48 62 49 63
REMARK SMILES IDX 63 65 84 66 51 67 35 68 36 69 44 70 37 71 39 72 45 73 38 74
REMARK SMILES IDX 40 75 41 76 42 77 43 78 67 79 68 80 76 81 69 82 71 83 77 84
REMARK SMILES IDX 70 85 72 86 73 87 74 88 75 89 52 90 53 91 61 92 54 93 56 94
REMARK SMILES IDX 62 95 55 96 57 97 58 98 59 99 60 100
REMARK H PARENT 82 53 50 64
REMARK Flexibility Score: inf
ROOT
ATOM      1  C   UNL A   1      36.444  32.028  30.770  1.00  0.00     0.188 C 
ENDROOT
BRANCH   1   2
ATOM      2  O   UNL A   1      35.363  32.861  30.412  1.00  0.00    -0.377 OA
BRANCH   2   3
ATOM      3  C   UNL A   1      34.702  32.613  29.182  1.00  0.00     0.188 C 
BRANCH   3   4
ATOM      4  C   UNL A   1      35.232  31.702  28.065  1.00  0.00     0.188 C 
BRANCH   4   5
ATOM      5  O   UNL A   1      35.130  30.322  28.360  1.00  0.00    -0.376 OA
BRANCH   5   6
ATOM      6  C   UNL A   1      35.251  29.418  27.277  1.00  0.00     0.202 C 
BRANCH   6   7
ATOM      7  C   UNL A   1      34.119  29.373  26.237  1.00  0.00     0.261 C 
BRANCH   7   8
ATOM      8  O   UNL A   1      33.716  28.102  25.685  1.00  0.00    -0.462 OA
BRANCH   8   9
ATOM      9  C   UNL A   1      32.734  27.381  26.277  1.00  0.00     0.328 C 
ATOM     10  O   UNL A   1      32.482  27.417  27.477  1.00  0.00    -0.250 OA
BRANCH   9  11
ATOM     11  C   UNL A   1      31.876  26.589  25.259  1.00  0.00     0.196 C 
ATOM     12  N   UNL A   1      32.265  26.691  23.835  1.00  0.00    -0.322 N 
ATOM     13  C   UNL A   1      31.157  27.097  22.976  1.00  0.00     0.089 C 
ATOM     14  C   UNL A   1      30.383  26.960  25.270  1.00  0.00     0.043 C 
ATOM     15  C   UNL A   1      29.931  26.738  23.819  1.00  0.00     0.014 C 
ATOM     16  C   UNL A   1      31.258  28.544  22.485  1.00  0.00     0.025 C 
ATOM     17  C   UNL A   1      28.640  27.427  23.400  1.00  0.00     0.006 C 
ATOM     18  C   UNL A   1      29.922  29.144  22.054  1.00  0.00     0.002 C 
ATOM     19  C   UNL A   1      28.796  28.899  23.051  1.00  0.00     0.000 C 
BRANCH  12  20
ATOM     20  C   UNL A   1      33.411  26.163  23.244  1.00  0.00     0.255 C 
ATOM     21  O   UNL A   1      33.933  26.683  22.263  1.00  0.00    -0.269 OA
BRANCH  20  22
ATOM     22  C   UNL A   1      33.884  24.880  23.768  1.00  0.00     0.053 A 
ATOM     23  C   UNL A   1      36.430  22.959  25.806  1.00  0.00     0.056 C 
ATOM     24  C   UNL A   1      35.286  23.441  24.988  1.00  0.00     0.003 A 
ATOM     25  C   UNL A   1      34.923  24.744  24.753  1.00  0.00     0.029 A 
ATOM     26  S   UNL A   1      34.205  22.364  24.233  1.00  0.00    -0.145 S 
ATOM     27  C   UNL A   1      33.307  23.644  23.517  1.00  0.00     0.014 A 
ATOM     28  C   UNL A   1      32.065  23.316  22.749  1.00  0.00     0.057 C 
ENDBRANCH  20  22
ENDBRANCH  12  20
ENDBRANCH   9  11
ENDBRANCH   8   9
ENDBRANCH   7   8
ENDBRANCH   6   7
ENDBRANCH   5   6
ENDBRANCH   4   5
ENDBRANCH   3   4
ENDBRANCH   2   3
ENDBRANCH   1   2
BRANCH   1  29
ATOM     29  C   UNL A   1      36.127  31.088  31.943  1.00  0.00     0.188 C 
BRANCH  29  30
ATOM     30  O   UNL A   1      36.271  29.711  31.611  1.00  0.00    -0.376 OA
BRANCH  30  31
ATOM     31  C   UNL A   1      37.278  29.348  30.679  1.00  0.00     0.202 C 
BRANCH  31  32
ATOM     32  C   UNL A   1      38.203  28.149  30.958  1.00  0.00     0.261 C 
BRANCH  32  33
ATOM     33  O   UNL A   1      39.608  28.342  30.766  1.00  0.00    -0.460 OA
BRANCH  33  34
ATOM     34  C   UNL A   1      40.151  27.891  29.613  1.00  0.00     0.338 C 
ATOM     35  O   UNL A   1      39.622  27.826  28.531  1.00  0.00    -0.246 OA
BRANCH  34  36
ATOM     36  C   UNL A   1      41.593  27.672  29.881  1.00  0.00     0.060 A 
ATOM     37  C   UNL A   1      42.211  26.540  29.334  1.00  0.00     0.016 A 
ATOM     38  C   UNL A   1      42.328  28.589  30.634  1.00  0.00     0.016 A 
ATOM     39  C   UNL A   1      43.567  26.313  29.555  1.00  0.00     0.010 A 
ATOM     40  C   UNL A   1      43.679  28.343  30.886  1.00  0.00     0.010 A 
ATOM     41  C   UNL A   1      44.294  27.187  30.373  1.00  0.00    -0.014 A 
BRANCH  41  42
ATOM     42  C   UNL A   1      45.623  26.766  30.873  1.00  0.00     0.031 A 
ATOM     43  C   UNL A   1      46.838  27.272  30.146  1.00  0.00     0.074 A 
ATOM     44  C   UNL A   1      45.752  25.967  31.945  1.00  0.00     0.049 A 
ATOM     45  N   UNL A   1      48.101  27.041  30.380  1.00  0.00    -0.248 NA
ATOM     46  C   UNL A   1      46.590  28.158  28.994  1.00  0.00     0.031 C 
ATOM     47  C   UNL A   1      44.648  25.422  32.733  1.00  0.00     0.029 A 
ATOM     48  N   UNL A   1      46.878  25.455  32.540  1.00  0.00    -0.354 N 
ATOM     49  C   UNL A   1      48.798  27.728  29.394  1.00  0.00     0.074 A 
ATOM     50  C   UNL A   1      47.818  28.378  28.552  1.00  0.00     0.031 C 
ATOM     51  C   UNL A   1      45.152  24.620  33.689  1.00  0.00     0.029 A 
ATOM     52  C   UNL A   1      46.608  24.580  33.565  1.00  0.00     0.049 A 
ATOM     53  H   UNL A   1      47.792  25.692  32.258  1.00  0.00     0.167 HD
ATOM     54  C   UNL A   1      50.135  27.818  29.209  1.00  0.00     0.034 A 
ATOM     55  C   UNL A   1      47.444  23.817  34.298  1.00  0.00     0.034 A 
ATOM     56  C   UNL A   1      51.105  27.172  30.049  1.00  0.00     0.049 A 
ATOM     57  C   UNL A   1      48.930  23.911  34.054  1.00  0.00     0.074 A 
ATOM     58  C   UNL A   1      52.483  27.238  29.976  1.00  0.00     0.029 A 
ATOM     59  N   UNL A   1      50.797  26.324  31.102  1.00  0.00    -0.354 N 
ATOM     60  N   UNL A   1      49.582  24.663  33.199  1.00  0.00    -0.248 NA
ATOM     61  C   UNL A   1      49.797  23.076  34.898  1.00  0.00     0.031 C 
ATOM     62  C   UNL A   1      53.011  26.397  30.962  1.00  0.00     0.029 A 
ATOM     63  C   UNL A   1      51.961  25.843  31.677  1.00  0.00     0.049 A 
ATOM     64  H   UNL A   1      49.886  26.097  31.397  1.00  0.00     0.167 HD
ATOM     65  C   UNL A   1      50.933  24.420  33.428  1.00  0.00     0.074 A 
ATOM     66  C   UNL A   1      51.006  23.465  34.515  1.00  0.00     0.031 C 
ATOM     67  C   UNL A   1      52.016  24.931  32.791  1.00  0.00     0.034 A 
BRANCH  54  68
ATOM     68  C   UNL A   1      50.623  28.646  28.052  1.00  0.00     0.023 A 
ATOM     69  C   UNL A   1      50.980  29.995  28.254  1.00  0.00     0.012 A 
ATOM     70  C   UNL A   1      50.765  28.078  26.772  1.00  0.00     0.148 A 
ATOM     71  C   UNL A   1      51.438  30.775  27.193  1.00  0.00     0.002 A 
ATOM     72  C   UNL A   1      51.267  28.846  25.730  1.00  0.00     0.091 A 
ATOM     73  F   UNL A   1      50.393  26.802  26.594  1.00  0.00    -0.205 F 
ATOM     74  C   UNL A   1      51.592  30.197  25.934  1.00  0.00     0.022 A 
BRANCH  72  75
ATOM     75  S   UNL A   1      51.576  28.174  24.093  1.00  0.00     0.127 S 
ATOM     76  O   UNL A   1      52.577  29.106  23.576  1.00  0.00    -0.237 OA
ATOM     77  O   UNL A   1      52.089  26.839  24.403  1.00  0.00    -0.237 OA
ATOM     78  O   UNL A   1      50.293  28.188  23.404  1.00  0.00    -0.744 OA
ENDBRANCH  72  75
ENDBRANCH  54  68
BRANCH  55  79
ATOM     79  C   UNL A   1      46.900  22.909  35.346  1.00  0.00     0.023 A 
ATOM     80  C   UNL A   1      46.577  21.577  35.020  1.00  0.00     0.012 A 
ATOM     81  C   UNL A   1      46.704  23.358  36.667  1.00  0.00     0.148 A 
ATOM     82  C   UNL A   1      46.042  20.718  35.982  1.00  0.00     0.002 A 
ATOM     83  C   UNL A   1      46.223  22.481  37.633  1.00  0.00     0.091 A 
ATOM     84  F   UNL A   1      47.001  24.633  36.953  1.00  0.00    -0.205 F 
ATOM     85  C   UNL A   1      45.874  21.167  37.288  1.00  0.00     0.022 A 
BRANCH  83  86
ATOM     86  S   UNL A   1      46.085  22.933  39.366  1.00  0.00     0.127 S 
ATOM     87  O   UNL A   1      45.158  24.060  39.307  1.00  0.00    -0.237 OA
ATOM     88  O   UNL A   1      45.533  21.709  39.948  1.00  0.00    -0.237 OA
ATOM     89  O   UNL A   1      47.438  23.252  39.799  1.00  0.00    -0.744 OA
ENDBRANCH  83  86
ENDBRANCH  55  79
BRANCH  67  90
ATOM     90  C   UNL A   1      53.381  24.511  33.275  1.00  0.00     0.023 A 
ATOM     91  C   UNL A   1      54.040  23.423  32.671  1.00  0.00     0.012 A 
ATOM     92  C   UNL A   1      54.044  25.254  34.272  1.00  0.00     0.148 A 
ATOM     93  C   UNL A   1      55.323  23.058  33.077  1.00  0.00     0.002 A 
ATOM     94  C   UNL A   1      55.343  24.917  34.636  1.00  0.00     0.091 A 
ATOM     95  F   UNL A   1      53.395  26.278  34.845  1.00  0.00    -0.205 F 
ATOM     96  C   UNL A   1      55.978  23.811  34.049  1.00  0.00     0.022 A 
BRANCH  94  97
ATOM     97  S   UNL A   1      56.301  25.891  35.801  1.00  0.00     0.127 S 
ATOM     98  O   UNL A   1      55.552  25.692  37.041  1.00  0.00    -0.237 OA
ATOM     99  O   UNL A   1      57.604  25.228  35.762  1.00  0.00    -0.237 OA
ATOM    100  O   UNL A   1      56.300  27.254  35.285  1.00  0.00    -0.744 OA
ENDBRANCH  94  97
ENDBRANCH  67  90
ENDBRANCH  41  42
ENDBRANCH  34  36
ENDBRANCH  33  34
ENDBRANCH  32  33
ENDBRANCH  31  32
ENDBRANCH  30  31
ENDBRANCH  29  30
ENDBRANCH   1  29
TORSDOF 25
ENDMDL
MODEL 2
REMARK VINA RESULT:      -8.0      6.706     10.880
REMARK SMILES Cc1cc(C(=O)N2[C@@H](C(=O)OCCOCCOCCOCCOC(=O)c3ccc(-c4c5nc(c(-c6cccc(S(=O)(=O)[O-])c6F)c6ccc([nH]6)c(-c6cccc(S(=O)(=O)[O-])c6F)c6nc(c(-c7cccc(S(=O)(=O)[O-])c7F)c7ccc4[nH]7)C=C6)C=C5)cc3)C[C@H]3CCCC[C@H]32)c(C)s1
REMARK SMILES IDX 18 1 17 2 16 3 15 4 14 5 13 6 12 7 11 8 9 9 10 10 8 11 7 12
REMARK SMILES IDX 95 13 89 14 90 15 94 16 91 17 93 18 92 19 5 20 6 21 4 22
REMARK SMILES IDX 1 23 2 24 3 25 98 26 96 27 97 28 19 29 20 30 21 31 22 32
REMARK SMILES IDX 23 33 24 34 25 35 26 36 27 37 88 38 28 39 87 40 29 41 30 42
REMARK SMILES IDX 31 43 81 44 32 45 86 46 80 47 82 48 33 49 85 50 79 51 78 52
REMARK SMILES IDX 34 54 66 55 46 56 65 57 47 58 50 59 64 60 83 61 48 62 49 63
REMARK SMILES IDX 63 65 84 66 51 67 35 68 36 69 44 70 37 71 39 72 45 73 38 74
REMARK SMILES IDX 40 75 41 76 42 77 43 78 67 79 68 80 76 81 69 82 71 83 77 84
REMARK SMILES IDX 70 85 72 86 73 87 74 88 75 89 52 90 53 91 61 92 54 93 56 94
REMARK SMILES IDX 62 95 55 96 57 97 58 98 59 99 60 100
REMARK H PARENT 82 53 50 64
REMARK Flexibility Score: inf
ROOT
ATOM      1  C   UNL A   1      39.450  24.781  27.055  1.00  0.00     0.188 C 
ENDROOT
BRANCH   1   2
ATOM      2  O   UNL A   1      38.604  23.975  26.262  1.00  0.00    -0.377 OA
BRANCH   2   3
ATOM      3  C   UNL A   1      38.748  22.567  26.344  1.00  0.00     0.188 C 
BRANCH   3   4
ATOM      4  C   UNL A   1      38.106  21.559  25.379  1.00  0.00     0.188 C 
BRANCH   4   5
ATOM      5  O   UNL A   1      37.416  22.161  24.302  1.00  0.00    -0.376 OA
BRANCH   5   6
ATOM      6  C   UNL A   1      36.088  22.588  24.540  1.00  0.00     0.202 C 
BRANCH   6   7
ATOM      7  C   UNL A   1      35.453  23.579  23.549  1.00  0.00     0.261 C 
BRANCH   7   8
ATOM      8  O   UNL A   1      34.830  23.076  22.348  1.00  0.00    -0.462 OA
BRANCH   8   9
ATOM      9  C   UNL A   1      33.580  23.471  22.011  1.00  0.00     0.328 C 
ATOM     10  O   UNL A   1      33.331  24.308  21.149  1.00  0.00    -0.250 OA
BRANCH   9  11
ATOM     11  C   UNL A   1      32.479  22.667  22.747  1.00  0.00     0.196 C 
ATOM     12  N   UNL A   1      31.823  23.330  23.896  1.00  0.00    -0.322 N 
ATOM     13  C   UNL A   1      31.861  22.521  25.111  1.00  0.00     0.089 C 
ATOM     14  C   UNL A   1      32.955  21.317  23.312  1.00  0.00     0.043 C 
ATOM     15  C   UNL A   1      32.092  21.109  24.564  1.00  0.00     0.014 C 
ATOM     16  C   UNL A   1      32.858  23.028  26.157  1.00  0.00     0.025 C 
ATOM     17  C   UNL A   1      32.611  20.104  25.583  1.00  0.00     0.006 C 
ATOM     18  C   UNL A   1      33.297  21.962  27.158  1.00  0.00     0.002 C 
ATOM     19  C   UNL A   1      33.692  20.643  26.506  1.00  0.00     0.000 C 
BRANCH  12  20
ATOM     20  C   UNL A   1      30.960  24.422  23.848  1.00  0.00     0.255 C 
ATOM     21  O   UNL A   1      29.968  24.433  23.126  1.00  0.00    -0.269 OA
BRANCH  20  22
ATOM     22  C   UNL A   1      31.367  25.610  24.601  1.00  0.00     0.053 A 
ATOM     23  C   UNL A   1      33.738  28.533  24.998  1.00  0.00     0.056 C 
ATOM     24  C   UNL A   1      32.657  27.516  25.077  1.00  0.00     0.003 A 
ATOM     25  C   UNL A   1      32.343  26.562  24.142  1.00  0.00     0.029 A 
ATOM     26  S   UNL A   1      31.593  27.439  26.405  1.00  0.00    -0.145 S 
ATOM     27  C   UNL A   1      30.773  26.068  25.768  1.00  0.00     0.014 A 
ATOM     28  C   UNL A   1      29.570  25.545  26.487  1.00  0.00     0.057 C 
ENDBRANCH  20  22
ENDBRANCH  12  20
ENDBRANCH   9  11
ENDBRANCH   8   9
ENDBRANCH   7   8
ENDBRANCH   6   7
ENDBRANCH   5   6
ENDBRANCH   4   5
ENDBRANCH   3   4
ENDBRANCH   2   3
ENDBRANCH   1   2
BRANCH   1  29
ATOM     29  C   UNL A   1      40.556  25.479  26.250  1.00  0.00     0.188 C 
BRANCH  29  30
ATOM     30  O   UNL A   1      41.861  24.998  26.558  1.00  0.00    -0.376 OA
BRANCH  30  31
ATOM     31  C   UNL A   1      42.126  23.616  26.373  1.00  0.00     0.202 C 
BRANCH  31  32
ATOM     32  C   UNL A   1      43.257  23.158  25.434  1.00  0.00     0.261 C 
BRANCH  32  33
ATOM     33  O   UNL A   1      44.513  22.821  26.031  1.00  0.00    -0.460 OA
BRANCH  33  34
ATOM     34  C   UNL A   1      44.836  23.426  27.196  1.00  0.00     0.338 C 
ATOM     35  O   UNL A   1      44.529  23.081  28.310  1.00  0.00    -0.246 OA
BRANCH  34  36
ATOM     36  C   UNL A   1      45.812  24.492  26.865  1.00  0.00     0.060 A 
ATOM     37  C   UNL A   1      46.737  24.880  27.843  1.00  0.00     0.016 A 
ATOM     38  C   UNL A   1      45.833  25.074  25.596  1.00  0.00     0.016 A 
ATOM     39  C   UNL A   1      47.677  25.868  27.558  1.00  0.00     0.010 A 
ATOM     40  C   UNL A   1      46.750  26.091  25.323  1.00  0.00     0.010 A 
ATOM     41  C   UNL A   1      47.654  26.511  26.314  1.00  0.00    -0.014 A 
BRANCH  41  42
ATOM     42  C   UNL A   1      48.417  27.769  26.141  1.00  0.00     0.031 A 
ATOM     43  C   UNL A   1      47.745  29.056  26.531  1.00  0.00     0.074 A 
ATOM     44  C   UNL A   1      49.672  27.771  25.663  1.00  0.00     0.049 A 
ATOM     45  N   UNL A   1      48.195  30.280  26.467  1.00  0.00    -0.248 NA
ATOM     46  C   UNL A   1      46.375  28.944  27.063  1.00  0.00     0.031 C 
ATOM     47  C   UNL A   1      50.427  26.586  25.260  1.00  0.00     0.029 A 
ATOM     48  N   UNL A   1      50.524  28.817  25.412  1.00  0.00    -0.354 N 
ATOM     49  C   UNL A   1      47.159  31.085  26.923  1.00  0.00     0.074 A 
ATOM     50  C   UNL A   1      46.053  30.214  27.254  1.00  0.00     0.031 C 
ATOM     51  C   UNL A   1      51.621  26.977  24.777  1.00  0.00     0.029 A 
ATOM     52  C   UNL A   1      51.703  28.436  24.818  1.00  0.00     0.049 A 
ATOM     53  H   UNL A   1      50.311  29.753  25.637  1.00  0.00     0.167 HD
ATOM     54  C   UNL A   1      47.133  32.431  27.064  1.00  0.00     0.034 A 
ATOM     55  C   UNL A   1      52.717  29.185  24.340  1.00  0.00     0.034 A 
ATOM     56  C   UNL A   1      48.235  33.292  26.737  1.00  0.00     0.049 A 
ATOM     57  C   UNL A   1      52.652  30.686  24.480  1.00  0.00     0.074 A 
ATOM     58  C   UNL A   1      48.327  34.663  26.887  1.00  0.00     0.029 A 
ATOM     59  N   UNL A   1      49.427  32.867  26.173  1.00  0.00    -0.354 N 
ATOM     60  N   UNL A   1      51.719  31.425  25.030  1.00  0.00    -0.248 NA
ATOM     61  C   UNL A   1      53.796  31.452  23.965  1.00  0.00     0.031 C 
ATOM     62  C   UNL A   1      49.563  35.074  26.377  1.00  0.00     0.029 A 
ATOM     63  C   UNL A   1      50.257  33.953  25.950  1.00  0.00     0.049 A 
ATOM     64  H   UNL A   1      49.652  31.932  25.962  1.00  0.00     0.167 HD
ATOM     65  C   UNL A   1      52.179  32.737  24.960  1.00  0.00     0.074 A 
ATOM     66  C   UNL A   1      53.483  32.688  24.332  1.00  0.00     0.031 C 
ATOM     67  C   UNL A   1      51.574  33.881  25.369  1.00  0.00     0.034 A 
BRANCH  54  68
ATOM     68  C   UNL A   1      45.868  33.050  27.595  1.00  0.00     0.023 A 
ATOM     69  C   UNL A   1      44.881  33.508  26.700  1.00  0.00     0.012 A 
ATOM     70  C   UNL A   1      45.642  33.142  28.981  1.00  0.00     0.148 A 
ATOM     71  C   UNL A   1      43.702  34.081  27.176  1.00  0.00     0.002 A 
ATOM     72  C   UNL A   1      44.445  33.668  29.449  1.00  0.00     0.091 A 
ATOM     73  F   UNL A   1      46.605  32.725  29.816  1.00  0.00    -0.205 F 
ATOM     74  C   UNL A   1      43.480  34.151  28.550  1.00  0.00     0.022 A 
BRANCH  72  75
ATOM     75  S   UNL A   1      44.032  33.729  31.196  1.00  0.00     0.127 S 
ATOM     76  O   UNL A   1      42.812  34.536  31.182  1.00  0.00    -0.237 OA
ATOM     77  O   UNL A   1      43.824  32.315  31.510  1.00  0.00    -0.237 OA
ATOM     78  O   UNL A   1      45.176  34.337  31.860  1.00  0.00    -0.744 OA
ENDBRANCH  72  75
ENDBRANCH  54  68
BRANCH  55  79
ATOM     79  C   UNL A   1      53.891  28.530  23.698  1.00  0.00     0.023 A 
ATOM     80  C   UNL A   1      55.022  28.204  24.472  1.00  0.00     0.012 A 
ATOM     81  C   UNL A   1      53.890  28.223  22.323  1.00  0.00     0.148 A 
ATOM     82  C   UNL A   1      56.142  27.614  23.883  1.00  0.00     0.002 A 
ATOM     83  C   UNL A   1      54.987  27.586  21.754  1.00  0.00     0.091 A 
ATOM     84  F   UNL A   1      52.812  28.556  21.601  1.00  0.00    -0.205 F 
ATOM     85  C   UNL A   1      56.120  27.297  22.528  1.00  0.00     0.022 A 
BRANCH  83  86
ATOM     86  S   UNL A   1      55.004  27.030  20.046  1.00  0.00     0.127 S 
ATOM     87  O   UNL A   1      56.105  26.070  20.056  1.00  0.00    -0.237 OA
ATOM     88  O   UNL A   1      53.672  26.440  19.913  1.00  0.00    -0.237 OA
ATOM     89  O   UNL A   1      55.219  28.227  19.245  1.00  0.00    -0.744 OA
ENDBRANCH  83  86
ENDBRANCH  55  79
BRANCH  67  90
ATOM     90  C   UNL A   1      52.326  35.176  25.196  1.00  0.00     0.023 A 
ATOM     91  C   UNL A   1      52.177  35.926  24.014  1.00  0.00     0.012 A 
ATOM     92  C   UNL A   1      53.114  35.689  26.246  1.00  0.00     0.148 A 
ATOM     93  C   UNL A   1      52.830  37.150  23.865  1.00  0.00     0.002 A 
ATOM     94  C   UNL A   1      53.719  36.933  26.111  1.00  0.00     0.091 A 
ATOM     95  F   UNL A   1      53.255  34.953  27.358  1.00  0.00    -0.205 F 
ATOM     96  C   UNL A   1      53.589  37.658  24.916  1.00  0.00     0.022 A 
BRANCH  94  97
ATOM     97  S   UNL A   1      54.629  37.712  27.450  1.00  0.00     0.127 S 
ATOM     98  O   UNL A   1      53.567  37.964  28.423  1.00  0.00    -0.237 OA
ATOM     99  O   UNL A   1      55.574  36.663  27.834  1.00  0.00    -0.237 OA
ATOM    100  O   UNL A   1      55.246  38.902  26.878  1.00  0.00    -0.744 OA
ENDBRANCH  94  97
ENDBRANCH  67  90
ENDBRANCH  41  42
ENDBRANCH  34  36
ENDBRANCH  33  34
ENDBRANCH  32  33
ENDBRANCH  31  32
ENDBRANCH  30  31
ENDBRANCH  29  30
ENDBRANCH   1  29
TORSDOF 25
ENDMDL
MODEL 3
REMARK VINA RESULT:      -7.8      8.802     14.055
REMARK SMILES Cc1cc(C(=O)N2[C@@H](C(=O)OCCOCCOCCOCCOC(=O)c3ccc(-c4c5nc(c(-c6cccc(S(=O)(=O)[O-])c6F)c6ccc([nH]6)c(-c6cccc(S(=O)(=O)[O-])c6F)c6nc(c(-c7cccc(S(=O)(=O)[O-])c7F)c7ccc4[nH]7)C=C6)C=C5)cc3)C[C@H]3CCCC[C@H]32)c(C)s1
REMARK SMILES IDX 18 1 17 2 16 3 15 4 14 5 13 6 12 7 11 8 9 9 10 10 8 11 7 12
REMARK SMILES IDX 95 13 89 14 90 15 94 16 91 17 93 18 92 19 5 20 6 21 4 22
REMARK SMILES IDX 1 23 2 24 3 25 98 26 96 27 97 28 19 29 20 30 21 31 22 32
REMARK SMILES IDX 23 33 24 34 25 35 26 36 27 37 88 38 28 39 87 40 29 41 30 42
REMARK SMILES IDX 31 43 81 44 32 45 86 46 80 47 82 48 33 49 85 50 79 51 78 52
REMARK SMILES IDX 34 54 66 55 46 56 65 57 47 58 50 59 64 60 83 61 48 62 49 63
REMARK SMILES IDX 63 65 84 66 51 67 35 68 36 69 44 70 37 71 39 72 45 73 38 74
REMARK SMILES IDX 40 75 41 76 42 77 43 78 67 79 68 80 76 81 69 82 71 83 77 84
REMARK SMILES IDX 70 85 72 86 73 87 74 88 75 89 52 90 53 91 61 92 54 93 56 94
REMARK SMILES IDX 62 95 55 96 57 97 58 98 59 99 60 100
REMARK H PARENT 82 53 50 64
REMARK Flexibility Score: inf
ROOT
ATOM      1  C   UNL A   1      37.879  32.428  35.903  1.00  0.00     0.188 C 
ENDROOT
BRANCH   1   2
ATOM      2  O   UNL A   1      37.649  33.290  34.809  1.00  0.00    -0.377 OA
BRANCH   2   3
ATOM      3  C   UNL A   1      38.576  33.276  33.736  1.00  0.00     0.188 C 
BRANCH   3   4
ATOM      4  C   UNL A   1      38.831  34.448  32.776  1.00  0.00     0.188 C 
BRANCH   4   5
ATOM      5  O   UNL A   1      38.120  34.351  31.558  1.00  0.00    -0.376 OA
BRANCH   5   6
ATOM      6  C   UNL A   1      38.880  34.329  30.364  1.00  0.00     0.202 C 
BRANCH   6   7
ATOM      7  C   UNL A   1      40.138  33.444  30.318  1.00  0.00     0.261 C 
BRANCH   7   8
ATOM      8  O   UNL A   1      41.368  33.990  29.799  1.00  0.00    -0.462 OA
BRANCH   8   9
ATOM      9  C   UNL A   1      42.246  34.603  30.628  1.00  0.00     0.328 C 
ATOM     10  O   UNL A   1      41.995  34.917  31.787  1.00  0.00    -0.250 OA
BRANCH   9  11
ATOM     11  C   UNL A   1      43.652  34.766  29.997  1.00  0.00     0.196 C 
ATOM     12  N   UNL A   1      43.840  35.902  29.068  1.00  0.00    -0.322 N 
ATOM     13  C   UNL A   1      44.376  35.489  27.774  1.00  0.00     0.089 C 
ATOM     14  C   UNL A   1      44.129  33.541  29.197  1.00  0.00     0.043 C 
ATOM     15  C   UNL A   1      45.017  34.137  28.095  1.00  0.00     0.014 C 
ATOM     16  C   UNL A   1      43.343  35.514  26.643  1.00  0.00     0.025 C 
ATOM     17  C   UNL A   1      45.280  33.249  26.886  1.00  0.00     0.006 C 
ATOM     18  C   UNL A   1      43.705  34.622  25.458  1.00  0.00     0.002 C 
ATOM     19  C   UNL A   1      44.153  33.224  25.865  1.00  0.00     0.000 C 
BRANCH  12  20
ATOM     20  C   UNL A   1      43.857  37.255  29.397  1.00  0.00     0.255 C 
ATOM     21  O   UNL A   1      43.438  37.666  30.474  1.00  0.00    -0.269 OA
BRANCH  20  22
ATOM     22  C   UNL A   1      44.277  38.179  28.341  1.00  0.00     0.053 A 
ATOM     23  C   UNL A   1      47.086  39.862  26.443  1.00  0.00     0.056 C 
ATOM     24  C   UNL A   1      45.802  39.339  26.980  1.00  0.00     0.003 A 
ATOM     25  C   UNL A   1      45.633  38.318  27.881  1.00  0.00     0.029 A 
ATOM     26  S   UNL A   1      44.299  39.961  26.477  1.00  0.00    -0.145 S 
ATOM     27  C   UNL A   1      43.427  38.924  27.538  1.00  0.00     0.014 A 
ATOM     28  C   UNL A   1      41.932  38.924  27.483  1.00  0.00     0.057 C 
ENDBRANCH  20  22
ENDBRANCH  12  20
ENDBRANCH   9  11
ENDBRANCH   8   9
ENDBRANCH   7   8
ENDBRANCH   6   7
ENDBRANCH   5   6
ENDBRANCH   4   5
ENDBRANCH   3   4
ENDBRANCH   2   3
ENDBRANCH   1   2
BRANCH   1  29
ATOM     29  C   UNL A   1      37.557  33.068  37.261  1.00  0.00     0.188 C 
BRANCH  29  30
ATOM     30  O   UNL A   1      37.628  32.146  38.344  1.00  0.00    -0.376 OA
BRANCH  30  31
ATOM     31  C   UNL A   1      38.207  32.587  39.563  1.00  0.00     0.202 C 
BRANCH  31  32
ATOM     32  C   UNL A   1      38.261  34.089  39.901  1.00  0.00     0.261 C 
BRANCH  32  33
ATOM     33  O   UNL A   1      39.495  34.774  39.666  1.00  0.00    -0.460 OA
BRANCH  33  34
ATOM     34  C   UNL A   1      39.448  35.931  38.968  1.00  0.00     0.338 C 
ATOM     35  O   UNL A   1      38.844  36.935  39.256  1.00  0.00    -0.246 OA
BRANCH  34  36
ATOM     36  C   UNL A   1      40.440  35.808  37.875  1.00  0.00     0.060 A 
ATOM     37  C   UNL A   1      41.795  35.686  38.211  1.00  0.00     0.016 A 
ATOM     38  C   UNL A   1      40.034  35.780  36.539  1.00  0.00     0.016 A 
ATOM     39  C   UNL A   1      42.751  35.554  37.207  1.00  0.00     0.010 A 
ATOM     40  C   UNL A   1      40.996  35.685  35.531  1.00  0.00     0.010 A 
ATOM     41  C   UNL A   1      42.360  35.603  35.863  1.00  0.00    -0.014 A 
BRANCH  41  42
ATOM     42  C   UNL A   1      43.393  35.801  34.821  1.00  0.00     0.031 A 
ATOM     43  C   UNL A   1      44.056  34.578  34.250  1.00  0.00     0.074 A 
ATOM     44  C   UNL A   1      43.728  37.026  34.384  1.00  0.00     0.049 A 
ATOM     45  N   UNL A   1      44.989  34.487  33.341  1.00  0.00    -0.248 NA
ATOM     46  C   UNL A   1      43.604  33.280  34.781  1.00  0.00     0.031 C 
ATOM     47  C   UNL A   1      43.149  38.282  34.858  1.00  0.00     0.029 A 
ATOM     48  N   UNL A   1      44.663  37.413  33.456  1.00  0.00    -0.354 N 
ATOM     49  C   UNL A   1      45.256  33.130  33.210  1.00  0.00     0.074 A 
ATOM     50  C   UNL A   1      44.393  32.434  34.137  1.00  0.00     0.031 C 
ATOM     51  C   UNL A   1      43.769  39.305  34.241  1.00  0.00     0.029 A 
ATOM     52  C   UNL A   1      44.799  38.776  33.348  1.00  0.00     0.049 A 
ATOM     53  H   UNL A   1      45.186  36.774  32.919  1.00  0.00     0.167 HD
ATOM     54  C   UNL A   1      46.134  32.517  32.384  1.00  0.00     0.034 A 
ATOM     55  C   UNL A   1      45.674  39.507  32.630  1.00  0.00     0.034 A 
ATOM     56  C   UNL A   1      46.988  33.213  31.463  1.00  0.00     0.049 A 
ATOM     57  C   UNL A   1      46.667  38.801  31.739  1.00  0.00     0.074 A 
ATOM     58  C   UNL A   1      47.879  32.682  30.549  1.00  0.00     0.029 A 
ATOM     59  N   UNL A   1      47.072  34.592  31.353  1.00  0.00    -0.354 N 
ATOM     60  N   UNL A   1      46.821  37.515  31.531  1.00  0.00    -0.248 NA
ATOM     61  C   UNL A   1      47.581  39.647  30.959  1.00  0.00     0.031 C 
ATOM     62  C   UNL A   1      48.532  33.743  29.913  1.00  0.00     0.029 A 
ATOM     63  C   UNL A   1      48.016  34.933  30.400  1.00  0.00     0.049 A 
ATOM     64  H   UNL A   1      46.540  35.234  31.876  1.00  0.00     0.167 HD
ATOM     65  C   UNL A   1      47.822  37.400  30.571  1.00  0.00     0.074 A 
ATOM     66  C   UNL A   1      48.224  38.748  30.225  1.00  0.00     0.031 C 
ATOM     67  C   UNL A   1      48.368  36.281  30.031  1.00  0.00     0.034 A 
BRANCH  54  68
ATOM     68  C   UNL A   1      46.213  31.015  32.445  1.00  0.00     0.023 A 
ATOM     69  C   UNL A   1      47.155  30.395  33.290  1.00  0.00     0.012 A 
ATOM     70  C   UNL A   1      45.328  30.219  31.694  1.00  0.00     0.148 A 
ATOM     71  C   UNL A   1      47.238  29.005  33.360  1.00  0.00     0.002 A 
ATOM     72  C   UNL A   1      45.383  28.836  31.805  1.00  0.00     0.091 A 
ATOM     73  F   UNL A   1      44.458  30.829  30.875  1.00  0.00    -0.205 F 
ATOM     74  C   UNL A   1      46.346  28.226  32.627  1.00  0.00     0.022 A 
BRANCH  72  75
ATOM     75  S   UNL A   1      44.227  27.751  30.963  1.00  0.00     0.127 S 
ATOM     76  O   UNL A   1      44.462  26.480  31.649  1.00  0.00    -0.237 OA
ATOM     77  O   UNL A   1      42.941  28.379  31.267  1.00  0.00    -0.237 OA
ATOM     78  O   UNL A   1      44.600  27.778  29.556  1.00  0.00    -0.744 OA
ENDBRANCH  72  75
ENDBRANCH  54  68
BRANCH  55  79
ATOM     79  C   UNL A   1      45.645  40.995  32.707  1.00  0.00     0.023 A 
ATOM     80  C   UNL A   1      46.537  41.669  33.564  1.00  0.00     0.012 A 
ATOM     81  C   UNL A   1      44.740  41.746  31.931  1.00  0.00     0.148 A 
ATOM     82  C   UNL A   1      46.506  43.061  33.670  1.00  0.00     0.002 A 
ATOM     83  C   UNL A   1      44.753  43.134  32.000  1.00  0.00     0.091 A 
ATOM     84  F   UNL A   1      43.889  41.084  31.135  1.00  0.00    -0.205 F 
ATOM     85  C   UNL A   1      45.622  43.792  32.882  1.00  0.00     0.022 A 
BRANCH  83  86
ATOM     86  S   UNL A   1      43.735  44.164  30.938  1.00  0.00     0.127 S 
ATOM     87  O   UNL A   1      42.420  43.550  31.099  1.00  0.00    -0.237 OA
ATOM     88  O   UNL A   1      43.884  45.477  31.568  1.00  0.00    -0.237 OA
ATOM     89  O   UNL A   1      44.321  44.061  29.609  1.00  0.00    -0.744 OA
ENDBRANCH  83  86
ENDBRANCH  55  79
BRANCH  67  90
ATOM     90  C   UNL A   1      49.429  36.455  28.974  1.00  0.00     0.023 A 
ATOM     91  C   UNL A   1      50.779  36.602  29.346  1.00  0.00     0.012 A 
ATOM     92  C   UNL A   1      49.092  36.385  27.607  1.00  0.00     0.148 A 
ATOM     93  C   UNL A   1      51.773  36.714  28.375  1.00  0.00     0.002 A 
ATOM     94  C   UNL A   1      50.093  36.444  26.645  1.00  0.00     0.091 A 
ATOM     95  F   UNL A   1      47.800  36.258  27.273  1.00  0.00    -0.205 F 
ATOM     96  C   UNL A   1      51.433  36.622  27.027  1.00  0.00     0.022 A 
BRANCH  94  97
ATOM     97  S   UNL A   1      49.761  36.231  24.893  1.00  0.00     0.127 S 
ATOM     98  O   UNL A   1      51.101  36.345  24.321  1.00  0.00    -0.237 OA
ATOM     99  O   UNL A   1      49.190  34.885  24.847  1.00  0.00    -0.237 OA
ATOM    100  O   UNL A   1      48.834  37.293  24.527  1.00  0.00    -0.744 OA
ENDBRANCH  94  97
ENDBRANCH  67  90
ENDBRANCH  41  42
ENDBRANCH  34  36
ENDBRANCH  33  34
ENDBRANCH  32  33
ENDBRANCH  31  32
ENDBRANCH  30  31
ENDBRANCH  29  30
ENDBRANCH   1  29
TORSDOF 25
ENDMDL
