MODEL 1
REMARK VINA RESULT:     -10.5      0.000      0.000
REMARK SMILES O=C(CC1(NC(=O)C2(c3ccccc3)CC2)CCC1)OCCOCCOCCOCCOC(=O)c1ccc(-c2c3nc(c(-c4cccc(S(=O)(=O)[O-])c4F)c4ccc([nH]4)c(-c4cccc(S(=O)(=O)[O-])c4F)c4nc(c(-c5cccc(S(=O)(=O)[O-])c5F)c5ccc2[nH]5)C=C4)C=C3)cc1
REMARK SMILES IDX 25 1 24 2 23 3 22 4 21 5 20 6 2 7 1 8 3 9 4 10 17 11 19 12
REMARK SMILES IDX 18 13 5 14 6 15 7 17 8 18 15 19 16 20 9 21 10 22 14 23 11 24
REMARK SMILES IDX 13 25 12 26 26 27 27 28 28 29 29 30 30 31 31 32 32 33 33 34
REMARK SMILES IDX 34 35 35 36 36 37 97 38 37 39 96 40 38 41 39 42 40 43 90 44
REMARK SMILES IDX 41 45 95 46 89 47 91 48 42 49 94 50 88 51 87 52 43 54 75 55
REMARK SMILES IDX 55 56 74 57 56 58 59 59 73 60 92 61 57 62 58 63 72 65 93 66
REMARK SMILES IDX 60 67 44 68 45 69 53 70 46 71 48 72 54 73 47 74 49 75 50 76
REMARK SMILES IDX 51 77 52 78 76 79 77 80 85 81 78 82 80 83 86 84 79 85 81 86
REMARK SMILES IDX 82 87 83 88 84 89 61 90 62 91 70 92 63 93 65 94 71 95 64 96
REMARK SMILES IDX 66 97 67 98 68 99 69 100
REMARK H PARENT 5 16 91 53 59 64
REMARK Flexibility Score: inf
ROOT
ATOM      1  C   UNL A   1      32.327  21.569  25.841  1.00  0.00     0.188 C 
ENDROOT
BRANCH   1   2
ATOM      2  C   UNL A   1      31.813  22.950  26.243  1.00  0.00     0.188 C 
BRANCH   2   3
ATOM      3  O   UNL A   1      31.184  23.793  25.274  1.00  0.00    -0.376 OA
BRANCH   3   4
ATOM      4  C   UNL A   1      30.188  24.745  25.685  1.00  0.00     0.202 C 
BRANCH   4   5
ATOM      5  C   UNL A   1      30.549  26.200  25.500  1.00  0.00     0.261 C 
BRANCH   5   6
ATOM      6  O   UNL A   1      29.709  26.693  24.429  1.00  0.00    -0.463 OA
BRANCH   6   7
ATOM      7  C   UNL A   1      30.019  27.258  23.242  1.00  0.00     0.308 C 
ATOM      8  O   UNL A   1      30.713  26.812  22.331  1.00  0.00    -0.252 OA
BRANCH   7   9
ATOM      9  C   UNL A   1      29.146  28.295  22.860  1.00  0.00     0.151 C 
BRANCH   9  10
ATOM     10  C   UNL A   1      30.069  29.485  22.770  1.00  0.00     0.051 C 
ATOM     11  C   UNL A   1      29.329  30.454  21.784  1.00  0.00     0.029 C 
ATOM     12  C   UNL A   1      29.741  30.570  23.854  1.00  0.00     0.029 C 
ATOM     13  C   UNL A   1      28.485  30.914  23.012  1.00  0.00     0.005 C 
BRANCH  10  14
ATOM     14  N   UNL A   1      31.630  29.272  22.580  1.00  0.00    -0.349 N 
ATOM     15  C   UNL A   1      32.893  28.958  23.250  1.00  0.00     0.231 C 
ATOM     16  H   UNL A   1      31.830  29.405  21.625  1.00  0.00     0.164 HD
ATOM     17  O   UNL A   1      33.821  29.389  22.535  1.00  0.00    -0.274 OA
BRANCH  15  18
ATOM     18  C   UNL A   1      33.468  27.983  24.537  1.00  0.00     0.074 C 
ATOM     19  C   UNL A   1      34.087  28.849  25.680  1.00  0.00     0.023 C 
ATOM     20  C   UNL A   1      32.728  28.314  25.898  1.00  0.00     0.023 C 
BRANCH  18  21
ATOM     21  C   UNL A   1      33.783  26.347  24.528  1.00  0.00    -0.032 A 
ATOM     22  C   UNL A   1      34.393  25.606  25.588  1.00  0.00     0.005 A 
ATOM     23  C   UNL A   1      33.644  25.587  23.362  1.00  0.00     0.005 A 
ATOM     24  C   UNL A   1      35.124  24.419  25.436  1.00  0.00     0.000 A 
ATOM     25  C   UNL A   1      34.335  24.360  23.197  1.00  0.00     0.000 A 
ATOM     26  C   UNL A   1      35.141  23.822  24.202  1.00  0.00     0.000 A 
ENDBRANCH  18  21
ENDBRANCH  15  18
ENDBRANCH  10  14
ENDBRANCH   9  10
ENDBRANCH   7   9
ENDBRANCH   6   7
ENDBRANCH   5   6
ENDBRANCH   4   5
ENDBRANCH   3   4
ENDBRANCH   2   3
ENDBRANCH   1   2
BRANCH   1  27
ATOM     27  O   UNL A   1      33.688  21.280  26.061  1.00  0.00    -0.377 OA
BRANCH  27  28
ATOM     28  C   UNL A   1      34.217  20.285  25.216  1.00  0.00     0.188 C 
BRANCH  28  29
ATOM     29  C   UNL A   1      35.646  20.488  24.642  1.00  0.00     0.188 C 
BRANCH  29  30
ATOM     30  O   UNL A   1      36.734  19.724  25.116  1.00  0.00    -0.376 OA
BRANCH  30  31
ATOM     31  C   UNL A   1      38.086  20.137  25.097  1.00  0.00     0.202 C 
BRANCH  31  32
ATOM     32  C   UNL A   1      39.317  19.339  25.573  1.00  0.00     0.261 C 
BRANCH  32  33
ATOM     33  O   UNL A   1      40.064  19.852  26.664  1.00  0.00    -0.460 OA
BRANCH  33  34
ATOM     34  C   UNL A   1      41.320  20.289  26.389  1.00  0.00     0.338 C 
ATOM     35  O   UNL A   1      42.154  19.737  25.717  1.00  0.00    -0.246 OA
BRANCH  34  36
ATOM     36  C   UNL A   1      41.354  21.715  26.804  1.00  0.00     0.060 A 
ATOM     37  C   UNL A   1      40.565  22.634  26.086  1.00  0.00     0.016 A 
ATOM     38  C   UNL A   1      42.021  22.103  27.968  1.00  0.00     0.016 A 
ATOM     39  C   UNL A   1      40.418  23.939  26.548  1.00  0.00     0.010 A 
ATOM     40  C   UNL A   1      41.947  23.430  28.381  1.00  0.00     0.010 A 
ATOM     41  C   UNL A   1      41.176  24.351  27.649  1.00  0.00    -0.014 A 
BRANCH  41  42
ATOM     42  C   UNL A   1      41.528  25.779  27.754  1.00  0.00     0.031 A 
ATOM     43  C   UNL A   1      42.913  26.130  27.292  1.00  0.00     0.074 A 
ATOM     44  C   UNL A   1      40.706  26.691  28.289  1.00  0.00     0.049 A 
ATOM     45  N   UNL A   1      43.577  27.243  27.423  1.00  0.00    -0.248 NA
ATOM     46  C   UNL A   1      43.662  25.059  26.605  1.00  0.00     0.031 C 
ATOM     47  C   UNL A   1      39.338  26.449  28.738  1.00  0.00     0.029 A 
ATOM     48  N   UNL A   1      40.940  28.008  28.594  1.00  0.00    -0.354 N 
ATOM     49  C   UNL A   1      44.834  26.983  26.890  1.00  0.00     0.074 A 
ATOM     50  C   UNL A   1      44.842  25.619  26.424  1.00  0.00     0.031 C 
ATOM     51  C   UNL A   1      38.870  27.568  29.319  1.00  0.00     0.029 A 
ATOM     52  C   UNL A   1      39.925  28.581  29.321  1.00  0.00     0.049 A 
ATOM     53  H   UNL A   1      41.751  28.492  28.320  1.00  0.00     0.167 HD
ATOM     54  C   UNL A   1      45.899  27.806  26.808  1.00  0.00     0.034 A 
ATOM     55  C   UNL A   1      39.889  29.767  29.961  1.00  0.00     0.034 A 
ATOM     56  C   UNL A   1      45.881  29.150  27.300  1.00  0.00     0.049 A 
ATOM     57  C   UNL A   1      41.095  30.669  29.887  1.00  0.00     0.074 A 
ATOM     58  C   UNL A   1      46.880  30.101  27.242  1.00  0.00     0.029 A 
ATOM     59  N   UNL A   1      44.811  29.721  27.973  1.00  0.00    -0.354 N 
ATOM     60  N   UNL A   1      42.249  30.456  29.299  1.00  0.00    -0.248 NA
ATOM     61  C   UNL A   1      40.989  31.981  30.540  1.00  0.00     0.031 C 
ATOM     62  C   UNL A   1      46.429  31.234  27.923  1.00  0.00     0.029 A 
ATOM     63  C   UNL A   1      45.128  31.009  28.351  1.00  0.00     0.049 A 
ATOM     64  H   UNL A   1      43.953  29.273  28.154  1.00  0.00     0.167 HD
ATOM     65  C   UNL A   1      42.991  31.620  29.474  1.00  0.00     0.074 A 
ATOM     66  C   UNL A   1      42.152  32.535  30.223  1.00  0.00     0.031 C 
ATOM     67  C   UNL A   1      44.248  31.910  29.053  1.00  0.00     0.034 A 
BRANCH  54  68
ATOM     68  C   UNL A   1      47.157  27.244  26.205  1.00  0.00     0.023 A 
ATOM     69  C   UNL A   1      47.364  27.295  24.811  1.00  0.00     0.012 A 
ATOM     70  C   UNL A   1      48.124  26.631  27.025  1.00  0.00     0.148 A 
ATOM     71  C   UNL A   1      48.487  26.701  24.237  1.00  0.00     0.002 A 
ATOM     72  C   UNL A   1      49.269  26.094  26.452  1.00  0.00     0.091 A 
ATOM     73  F   UNL A   1      47.890  26.553  28.342  1.00  0.00    -0.205 F 
ATOM     74  C   UNL A   1      49.443  26.110  25.058  1.00  0.00     0.022 A 
BRANCH  72  75
ATOM     75  S   UNL A   1      50.596  25.391  27.434  1.00  0.00     0.127 S 
ATOM     76  O   UNL A   1      49.922  24.267  28.081  1.00  0.00    -0.237 OA
ATOM     77  O   UNL A   1      51.566  25.012  26.407  1.00  0.00    -0.237 OA
ATOM     78  O   UNL A   1      51.040  26.453  28.326  1.00  0.00    -0.744 OA
ENDBRANCH  72  75
ENDBRANCH  54  68
BRANCH  55  79
ATOM     79  C   UNL A   1      38.669  30.155  30.721  1.00  0.00     0.023 A 
ATOM     80  C   UNL A   1      38.534  29.771  32.068  1.00  0.00     0.012 A 
ATOM     81  C   UNL A   1      37.672  30.956  30.131  1.00  0.00     0.148 A 
ATOM     82  C   UNL A   1      37.421  30.167  32.813  1.00  0.00     0.002 A 
ATOM     83  C   UNL A   1      36.594  31.392  30.892  1.00  0.00     0.091 A 
ATOM     84  F   UNL A   1      37.816  31.301  28.844  1.00  0.00    -0.205 F 
ATOM     85  C   UNL A   1      36.459  30.987  32.228  1.00  0.00     0.022 A 
BRANCH  83  86
ATOM     86  S   UNL A   1      35.374  32.555  30.269  1.00  0.00     0.127 S 
ATOM     87  O   UNL A   1      36.219  33.640  29.775  1.00  0.00    -0.237 OA
ATOM     88  O   UNL A   1      34.716  31.763  29.230  1.00  0.00    -0.237 OA
ATOM     89  O   UNL A   1      34.528  32.888  31.406  1.00  0.00    -0.744 OA
ENDBRANCH  83  86
ENDBRANCH  55  79
BRANCH  67  90
ATOM     90  C   UNL A   1      44.780  33.292  29.318  1.00  0.00     0.023 A 
ATOM     91  C   UNL A   1      45.508  33.565  30.491  1.00  0.00     0.012 A 
ATOM     92  C   UNL A   1      44.659  34.287  28.326  1.00  0.00     0.148 A 
ATOM     93  C   UNL A   1      46.089  34.817  30.684  1.00  0.00     0.002 A 
ATOM     94  C   UNL A   1      45.289  35.511  28.499  1.00  0.00     0.091 A 
ATOM     95  F   UNL A   1      43.950  34.005  27.223  1.00  0.00    -0.205 F 
ATOM     96  C   UNL A   1      45.993  35.783  29.683  1.00  0.00     0.022 A 
BRANCH  94  97
ATOM     97  S   UNL A   1      45.311  36.769  27.218  1.00  0.00     0.127 S 
ATOM     98  O   UNL A   1      45.998  36.073  26.131  1.00  0.00    -0.237 OA
ATOM     99  O   UNL A   1      43.886  37.001  26.989  1.00  0.00    -0.237 OA
ATOM    100  O   UNL A   1      46.029  37.905  27.778  1.00  0.00    -0.744 OA
ENDBRANCH  94  97
ENDBRANCH  67  90
ENDBRANCH  41  42
ENDBRANCH  34  36
ENDBRANCH  33  34
ENDBRANCH  32  33
ENDBRANCH  31  32
ENDBRANCH  30  31
ENDBRANCH  29  30
ENDBRANCH  28  29
ENDBRANCH  27  28
ENDBRANCH   1  27
TORSDOF 27
ENDMDL
MODEL 2
REMARK VINA RESULT:      -9.5      1.076      2.605
REMARK SMILES O=C(CC1(NC(=O)C2(c3ccccc3)CC2)CCC1)OCCOCCOCCOCCOC(=O)c1ccc(-c2c3nc(c(-c4cccc(S(=O)(=O)[O-])c4F)c4ccc([nH]4)c(-c4cccc(S(=O)(=O)[O-])c4F)c4nc(c(-c5cccc(S(=O)(=O)[O-])c5F)c5ccc2[nH]5)C=C4)C=C3)cc1
REMARK SMILES IDX 25 1 24 2 23 3 22 4 21 5 20 6 2 7 1 8 3 9 4 10 17 11 19 12
REMARK SMILES IDX 18 13 5 14 6 15 7 17 8 18 15 19 16 20 9 21 10 22 14 23 11 24
REMARK SMILES IDX 13 25 12 26 26 27 27 28 28 29 29 30 30 31 31 32 32 33 33 34
REMARK SMILES IDX 34 35 35 36 36 37 97 38 37 39 96 40 38 41 39 42 40 43 90 44
REMARK SMILES IDX 41 45 95 46 89 47 91 48 42 49 94 50 88 51 87 52 43 54 75 55
REMARK SMILES IDX 55 56 74 57 56 58 59 59 73 60 92 61 57 62 58 63 72 65 93 66
REMARK SMILES IDX 60 67 44 68 45 69 53 70 46 71 48 72 54 73 47 74 49 75 50 76
REMARK SMILES IDX 51 77 52 78 76 79 77 80 85 81 78 82 80 83 86 84 79 85 81 86
REMARK SMILES IDX 82 87 83 88 84 89 61 90 62 91 70 92 63 93 65 94 71 95 64 96
REMARK SMILES IDX 66 97 67 98 68 99 69 100
REMARK H PARENT 5 16 91 53 59 64
REMARK Flexibility Score: inf
ROOT
ATOM      1  C   UNL A   1      33.713  21.078  26.501  1.00  0.00     0.188 C 
ENDROOT
BRANCH   1   2
ATOM      2  C   UNL A   1      33.471  22.575  26.683  1.00  0.00     0.188 C 
BRANCH   2   3
ATOM      3  O   UNL A   1      32.145  23.069  26.888  1.00  0.00    -0.376 OA
BRANCH   3   4
ATOM      4  C   UNL A   1      31.777  24.371  26.404  1.00  0.00     0.202 C 
BRANCH   4   5
ATOM      5  C   UNL A   1      30.379  24.497  25.846  1.00  0.00     0.261 C 
BRANCH   5   6
ATOM      6  O   UNL A   1      30.181  25.904  25.564  1.00  0.00    -0.463 OA
BRANCH   6   7
ATOM      7  C   UNL A   1      30.324  26.612  24.423  1.00  0.00     0.308 C 
ATOM      8  O   UNL A   1      29.459  27.134  23.723  1.00  0.00    -0.252 OA
BRANCH   7   9
ATOM      9  C   UNL A   1      31.622  27.125  24.231  1.00  0.00     0.151 C 
BRANCH   9  10
ATOM     10  C   UNL A   1      31.683  27.308  22.734  1.00  0.00     0.051 C 
ATOM     11  C   UNL A   1      33.195  27.070  22.393  1.00  0.00     0.029 C 
ATOM     12  C   UNL A   1      31.447  25.963  21.964  1.00  0.00     0.029 C 
ATOM     13  C   UNL A   1      32.868  25.546  22.422  1.00  0.00     0.005 C 
BRANCH  10  14
ATOM     14  N   UNL A   1      30.945  28.535  22.049  1.00  0.00    -0.349 N 
ATOM     15  C   UNL A   1      30.050  29.672  22.260  1.00  0.00     0.231 C 
ATOM     16  H   UNL A   1      31.189  28.527  21.095  1.00  0.00     0.164 HD
ATOM     17  O   UNL A   1      29.544  29.970  21.159  1.00  0.00    -0.274 OA
BRANCH  15  18
ATOM     18  C   UNL A   1      29.704  30.840  23.467  1.00  0.00     0.074 C 
ATOM     19  C   UNL A   1      28.855  32.021  22.895  1.00  0.00     0.023 C 
ATOM     20  C   UNL A   1      28.144  31.002  23.695  1.00  0.00     0.023 C 
BRANCH  18  21
ATOM     21  C   UNL A   1      30.445  31.045  24.944  1.00  0.00    -0.032 A 
ATOM     22  C   UNL A   1      30.518  32.268  25.683  1.00  0.00     0.005 A 
ATOM     23  C   UNL A   1      31.248  30.044  25.499  1.00  0.00     0.005 A 
ATOM     24  C   UNL A   1      31.519  32.605  26.603  1.00  0.00     0.000 A 
ATOM     25  C   UNL A   1      32.240  30.346  26.466  1.00  0.00     0.000 A 
ATOM     26  C   UNL A   1      32.430  31.642  26.952  1.00  0.00     0.000 A 
ENDBRANCH  18  21
ENDBRANCH  15  18
ENDBRANCH  10  14
ENDBRANCH   9  10
ENDBRANCH   7   9
ENDBRANCH   6   7
ENDBRANCH   5   6
ENDBRANCH   4   5
ENDBRANCH   3   4
ENDBRANCH   2   3
ENDBRANCH   1   2
BRANCH   1  27
ATOM     27  O   UNL A   1      34.915  20.672  25.888  1.00  0.00    -0.377 OA
BRANCH  27  28
ATOM     28  C   UNL A   1      35.452  21.606  24.980  1.00  0.00     0.188 C 
BRANCH  28  29
ATOM     29  C   UNL A   1      36.924  21.426  24.520  1.00  0.00     0.188 C 
BRANCH  29  30
ATOM     30  O   UNL A   1      37.696  20.331  24.967  1.00  0.00    -0.376 OA
BRANCH  30  31
ATOM     31  C   UNL A   1      39.079  20.377  25.256  1.00  0.00     0.202 C 
BRANCH  31  32
ATOM     32  C   UNL A   1      39.930  19.288  25.941  1.00  0.00     0.261 C 
BRANCH  32  33
ATOM     33  O   UNL A   1      40.771  19.675  27.015  1.00  0.00    -0.460 OA
BRANCH  33  34
ATOM     34  C   UNL A   1      41.977  20.203  26.683  1.00  0.00     0.338 C 
ATOM     35  O   UNL A   1      42.842  19.688  26.019  1.00  0.00    -0.246 OA
BRANCH  34  36
ATOM     36  C   UNL A   1      41.896  21.648  27.019  1.00  0.00     0.060 A 
ATOM     37  C   UNL A   1      41.294  22.513  26.085  1.00  0.00     0.016 A 
ATOM     38  C   UNL A   1      42.258  22.106  28.288  1.00  0.00     0.016 A 
ATOM     39  C   UNL A   1      41.027  23.835  26.430  1.00  0.00     0.010 A 
ATOM     40  C   UNL A   1      42.073  23.449  28.602  1.00  0.00     0.010 A 
ATOM     41  C   UNL A   1      41.492  24.316  27.658  1.00  0.00    -0.014 A 
BRANCH  41  42
ATOM     42  C   UNL A   1      41.794  25.755  27.771  1.00  0.00     0.031 A 
ATOM     43  C   UNL A   1      43.161  26.159  27.297  1.00  0.00     0.074 A 
ATOM     44  C   UNL A   1      40.946  26.633  28.322  1.00  0.00     0.049 A 
ATOM     45  N   UNL A   1      43.786  27.294  27.430  1.00  0.00    -0.248 NA
ATOM     46  C   UNL A   1      43.940  25.121  26.594  1.00  0.00     0.031 C 
ATOM     47  C   UNL A   1      39.592  26.339  28.783  1.00  0.00     0.029 A 
ATOM     48  N   UNL A   1      41.136  27.955  28.635  1.00  0.00    -0.354 N 
ATOM     49  C   UNL A   1      45.045  27.083  26.882  1.00  0.00     0.074 A 
ATOM     50  C   UNL A   1      45.097  25.724  26.405  1.00  0.00     0.031 C 
ATOM     51  C   UNL A   1      39.091  27.436  29.378  1.00  0.00     0.029 A 
ATOM     52  C   UNL A   1      40.109  28.486  29.376  1.00  0.00     0.049 A 
ATOM     53  H   UNL A   1      41.926  28.470  28.356  1.00  0.00     0.167 HD
ATOM     54  C   UNL A   1      46.080  27.945  26.795  1.00  0.00     0.034 A 
ATOM     55  C   UNL A   1      40.037  29.665  30.026  1.00  0.00     0.034 A 
ATOM     56  C   UNL A   1      46.019  29.284  27.299  1.00  0.00     0.049 A 
ATOM     57  C   UNL A   1      41.209  30.610  29.947  1.00  0.00     0.074 A 
ATOM     58  C   UNL A   1      46.983  30.270  27.237  1.00  0.00     0.029 A 
ATOM     59  N   UNL A   1      44.936  29.810  27.987  1.00  0.00    -0.354 N 
ATOM     60  N   UNL A   1      42.364  30.443  29.346  1.00  0.00    -0.248 NA
ATOM     61  C   UNL A   1      41.063  31.913  30.611  1.00  0.00     0.031 C 
ATOM     62  C   UNL A   1      46.498  31.381  27.932  1.00  0.00     0.029 A 
ATOM     63  C   UNL A   1      45.211  31.106  28.372  1.00  0.00     0.049 A 
ATOM     64  H   UNL A   1      44.097  29.331  28.173  1.00  0.00     0.167 HD
ATOM     65  C   UNL A   1      43.066  31.632  29.521  1.00  0.00     0.074 A 
ATOM     66  C   UNL A   1      42.203  32.510  30.286  1.00  0.00     0.031 C 
ATOM     67  C   UNL A   1      44.307  31.970  29.090  1.00  0.00     0.034 A 
BRANCH  54  68
ATOM     68  C   UNL A   1      47.351  27.432  26.175  1.00  0.00     0.023 A 
ATOM     69  C   UNL A   1      47.609  27.641  24.804  1.00  0.00     0.012 A 
ATOM     70  C   UNL A   1      48.278  26.711  26.951  1.00  0.00     0.148 A 
ATOM     71  C   UNL A   1      48.743  27.096  24.205  1.00  0.00     0.002 A 
ATOM     72  C   UNL A   1      49.434  26.222  26.359  1.00  0.00     0.091 A 
ATOM     73  F   UNL A   1      47.995  26.485  28.242  1.00  0.00    -0.205 F 
ATOM     74  C   UNL A   1      49.660  26.396  24.984  1.00  0.00     0.022 A 
BRANCH  72  75
ATOM     75  S   UNL A   1      50.714  25.385  27.299  1.00  0.00     0.127 S 
ATOM     76  O   UNL A   1      51.114  26.425  28.246  1.00  0.00    -0.237 OA
ATOM     77  O   UNL A   1      49.975  24.271  27.893  1.00  0.00    -0.237 OA
ATOM     78  O   UNL A   1      51.730  24.993  26.332  1.00  0.00    -0.744 OA
ENDBRANCH  72  75
ENDBRANCH  54  68
BRANCH  55  79
ATOM     79  C   UNL A   1      38.812  30.004  30.802  1.00  0.00     0.023 A 
ATOM     80  C   UNL A   1      38.686  29.565  32.134  1.00  0.00     0.012 A 
ATOM     81  C   UNL A   1      37.801  30.810  30.244  1.00  0.00     0.148 A 
ATOM     82  C   UNL A   1      37.568  29.914  32.894  1.00  0.00     0.002 A 
ATOM     83  C   UNL A   1      36.718  31.199  31.022  1.00  0.00     0.091 A 
ATOM     84  F   UNL A   1      37.938  31.207  28.972  1.00  0.00    -0.205 F 
ATOM     85  C   UNL A   1      36.592  30.740  32.343  1.00  0.00     0.022 A 
BRANCH  83  86
ATOM     86  S   UNL A   1      35.478  32.364  30.446  1.00  0.00     0.127 S 
ATOM     87  O   UNL A   1      36.273  33.574  30.249  1.00  0.00    -0.237 OA
ATOM     88  O   UNL A   1      35.018  31.721  29.216  1.00  0.00    -0.237 OA
ATOM     89  O   UNL A   1      34.480  32.436  31.505  1.00  0.00    -0.744 OA
ENDBRANCH  83  86
ENDBRANCH  55  79
BRANCH  67  90
ATOM     90  C   UNL A   1      44.792  33.368  29.361  1.00  0.00     0.023 A 
ATOM     91  C   UNL A   1      45.469  33.671  30.556  1.00  0.00     0.012 A 
ATOM     92  C   UNL A   1      44.681  34.351  28.355  1.00  0.00     0.148 A 
ATOM     93  C   UNL A   1      46.010  34.940  30.757  1.00  0.00     0.002 A 
ATOM     94  C   UNL A   1      45.270  35.592  28.539  1.00  0.00     0.091 A 
ATOM     95  F   UNL A   1      44.019  34.040  27.230  1.00  0.00    -0.205 F 
ATOM     96  C   UNL A   1      45.924  35.894  29.744  1.00  0.00     0.022 A 
BRANCH  94  97
ATOM     97  S   UNL A   1      45.305  36.839  27.247  1.00  0.00     0.127 S 
ATOM     98  O   UNL A   1      43.907  36.865  26.821  1.00  0.00    -0.237 OA
ATOM     99  O   UNL A   1      45.743  38.028  27.978  1.00  0.00    -0.237 OA
ATOM    100  O   UNL A   1      46.249  36.361  26.247  1.00  0.00    -0.744 OA
ENDBRANCH  94  97
ENDBRANCH  67  90
ENDBRANCH  41  42
ENDBRANCH  34  36
ENDBRANCH  33  34
ENDBRANCH  32  33
ENDBRANCH  31  32
ENDBRANCH  30  31
ENDBRANCH  29  30
ENDBRANCH  28  29
ENDBRANCH  27  28
ENDBRANCH   1  27
TORSDOF 27
ENDMDL
MODEL 3
REMARK VINA RESULT:      -8.8      1.744      2.244
REMARK SMILES O=C(CC1(NC(=O)C2(c3ccccc3)CC2)CCC1)OCCOCCOCCOCCOC(=O)c1ccc(-c2c3nc(c(-c4cccc(S(=O)(=O)[O-])c4F)c4ccc([nH]4)c(-c4cccc(S(=O)(=O)[O-])c4F)c4nc(c(-c5cccc(S(=O)(=O)[O-])c5F)c5ccc2[nH]5)C=C4)C=C3)cc1
REMARK SMILES IDX 25 1 24 2 23 3 22 4 21 5 20 6 2 7 1 8 3 9 4 10 17 11 19 12
REMARK SMILES IDX 18 13 5 14 6 15 7 17 8 18 15 19 16 20 9 21 10 22 14 23 11 24
REMARK SMILES IDX 13 25 12 26 26 27 27 28 28 29 29 30 30 31 31 32 32 33 33 34
REMARK SMILES IDX 34 35 35 36 36 37 97 38 37 39 96 40 38 41 39 42 40 43 90 44
REMARK SMILES IDX 41 45 95 46 89 47 91 48 42 49 94 50 88 51 87 52 43 54 75 55
REMARK SMILES IDX 55 56 74 57 56 58 59 59 73 60 92 61 57 62 58 63 72 65 93 66
REMARK SMILES IDX 60 67 44 68 45 69 53 70 46 71 48 72 54 73 47 74 49 75 50 76
REMARK SMILES IDX 51 77 52 78 76 79 77 80 85 81 78 82 80 83 86 84 79 85 81 86
REMARK SMILES IDX 82 87 83 88 84 89 61 90 62 91 70 92 63 93 65 94 71 95 64 96
REMARK SMILES IDX 66 97 67 98 68 99 69 100
REMARK H PARENT 5 16 91 53 59 64
REMARK Flexibility Score: inf
ROOT
ATOM      1  C   UNL A   1      34.052  21.576  27.231  1.00  0.00     0.188 C 
ENDROOT
BRANCH   1   2
ATOM      2  C   UNL A   1      33.507  23.000  27.316  1.00  0.00     0.188 C 
BRANCH   2   3
ATOM      3  O   UNL A   1      32.101  23.239  27.214  1.00  0.00    -0.376 OA
BRANCH   3   4
ATOM      4  C   UNL A   1      31.609  24.574  27.012  1.00  0.00     0.202 C 
BRANCH   4   5
ATOM      5  C   UNL A   1      30.425  24.709  26.084  1.00  0.00     0.261 C 
BRANCH   5   6
ATOM      6  O   UNL A   1      30.192  26.129  25.927  1.00  0.00    -0.463 OA
BRANCH   6   7
ATOM      7  C   UNL A   1      30.639  27.009  25.005  1.00  0.00     0.308 C 
ATOM      8  O   UNL A   1      31.781  27.425  24.823  1.00  0.00    -0.252 OA
BRANCH   7   9
ATOM      9  C   UNL A   1      29.775  27.165  23.904  1.00  0.00     0.151 C 
BRANCH   9  10
ATOM     10  C   UNL A   1      30.639  27.907  22.913  1.00  0.00     0.051 C 
ATOM     11  C   UNL A   1      29.630  28.859  22.182  1.00  0.00     0.029 C 
ATOM     12  C   UNL A   1      31.226  29.230  23.517  1.00  0.00     0.029 C 
ATOM     13  C   UNL A   1      29.799  29.822  23.396  1.00  0.00     0.005 C 
BRANCH  10  14
ATOM     14  N   UNL A   1      31.699  27.121  22.032  1.00  0.00    -0.349 N 
ATOM     15  C   UNL A   1      32.854  26.223  22.054  1.00  0.00     0.231 C 
ATOM     16  H   UNL A   1      31.499  27.317  21.088  1.00  0.00     0.164 HD
ATOM     17  O   UNL A   1      33.462  26.356  20.973  1.00  0.00    -0.274 OA
BRANCH  15  18
ATOM     18  C   UNL A   1      33.449  24.902  22.972  1.00  0.00     0.074 C 
ATOM     19  C   UNL A   1      34.960  25.085  23.327  1.00  0.00     0.023 C 
ATOM     20  C   UNL A   1      33.976  25.366  24.392  1.00  0.00     0.023 C 
BRANCH  18  21
ATOM     21  C   UNL A   1      32.772  23.392  23.163  1.00  0.00    -0.032 A 
ATOM     22  C   UNL A   1      31.451  23.121  23.640  1.00  0.00     0.005 A 
ATOM     23  C   UNL A   1      33.543  22.231  23.049  1.00  0.00     0.005 A 
ATOM     24  C   UNL A   1      31.046  21.946  24.288  1.00  0.00     0.000 A 
ATOM     25  C   UNL A   1      33.136  21.015  23.655  1.00  0.00     0.000 A 
ATOM     26  C   UNL A   1      31.929  20.900  24.346  1.00  0.00     0.000 A 
ENDBRANCH  18  21
ENDBRANCH  15  18
ENDBRANCH  10  14
ENDBRANCH   9  10
ENDBRANCH   7   9
ENDBRANCH   6   7
ENDBRANCH   5   6
ENDBRANCH   4   5
ENDBRANCH   3   4
ENDBRANCH   2   3
ENDBRANCH   1   2
BRANCH   1  27
ATOM     27  O   UNL A   1      35.416  21.407  26.920  1.00  0.00    -0.377 OA
BRANCH  27  28
ATOM     28  C   UNL A   1      35.815  22.000  25.707  1.00  0.00     0.188 C 
BRANCH  28  29
ATOM     29  C   UNL A   1      36.914  21.294  24.867  1.00  0.00     0.188 C 
BRANCH  29  30
ATOM     30  O   UNL A   1      38.283  21.481  25.158  1.00  0.00    -0.376 OA
BRANCH  30  31
ATOM     31  C   UNL A   1      39.002  20.791  26.161  1.00  0.00     0.202 C 
BRANCH  31  32
ATOM     32  C   UNL A   1      40.179  19.814  25.966  1.00  0.00     0.261 C 
BRANCH  32  33
ATOM     33  O   UNL A   1      41.200  19.794  26.951  1.00  0.00    -0.460 OA
BRANCH  33  34
ATOM     34  C   UNL A   1      42.380  20.377  26.615  1.00  0.00     0.338 C 
ATOM     35  O   UNL A   1      43.275  19.893  25.969  1.00  0.00    -0.246 OA
BRANCH  34  36
ATOM     36  C   UNL A   1      42.221  21.822  26.918  1.00  0.00     0.060 A 
ATOM     37  C   UNL A   1      41.775  22.671  25.887  1.00  0.00     0.016 A 
ATOM     38  C   UNL A   1      42.355  22.295  28.226  1.00  0.00     0.016 A 
ATOM     39  C   UNL A   1      41.434  23.991  26.168  1.00  0.00     0.010 A 
ATOM     40  C   UNL A   1      42.100  23.637  28.490  1.00  0.00     0.010 A 
ATOM     41  C   UNL A   1      41.675  24.488  27.453  1.00  0.00    -0.014 A 
BRANCH  41  42
ATOM     42  C   UNL A   1      41.933  25.933  27.601  1.00  0.00     0.031 A 
ATOM     43  C   UNL A   1      43.283  26.392  27.131  1.00  0.00     0.074 A 
ATOM     44  C   UNL A   1      41.060  26.769  28.179  1.00  0.00     0.049 A 
ATOM     45  N   UNL A   1      43.873  27.542  27.289  1.00  0.00    -0.248 NA
ATOM     46  C   UNL A   1      44.090  25.397  26.397  1.00  0.00     0.031 C 
ATOM     47  C   UNL A   1      39.719  26.420  28.640  1.00  0.00     0.029 A 
ATOM     48  N   UNL A   1      41.211  28.087  28.525  1.00  0.00    -0.354 N 
ATOM     49  C   UNL A   1      45.135  27.385  26.729  1.00  0.00     0.074 A 
ATOM     50  C   UNL A   1      45.226  26.041  26.217  1.00  0.00     0.031 C 
ATOM     51  C   UNL A   1      39.188  27.485  29.265  1.00  0.00     0.029 A 
ATOM     52  C   UNL A   1      40.172  28.567  29.286  1.00  0.00     0.049 A 
ATOM     53  H   UNL A   1      41.983  28.635  28.255  1.00  0.00     0.167 HD
ATOM     54  C   UNL A   1      46.141  28.281  26.659  1.00  0.00     0.034 A 
ATOM     55  C   UNL A   1      40.067  29.726  29.966  1.00  0.00     0.034 A 
ATOM     56  C   UNL A   1      46.041  29.604  27.198  1.00  0.00     0.049 A 
ATOM     57  C   UNL A   1      41.209  30.709  29.905  1.00  0.00     0.074 A 
ATOM     58  C   UNL A   1      46.973  30.621  27.157  1.00  0.00     0.029 A 
ATOM     59  N   UNL A   1      44.947  30.078  27.905  1.00  0.00    -0.354 N 
ATOM     60  N   UNL A   1      42.365  30.594  29.293  1.00  0.00    -0.248 NA
ATOM     61  C   UNL A   1      41.026  31.989  30.604  1.00  0.00     0.031 C 
ATOM     62  C   UNL A   1      46.458  31.698  27.882  1.00  0.00     0.029 A 
ATOM     63  C   UNL A   1      45.183  31.372  28.322  1.00  0.00     0.049 A 
ATOM     64  H   UNL A   1      44.124  29.568  28.083  1.00  0.00     0.167 HD
ATOM     65  C   UNL A   1      43.029  31.800  29.496  1.00  0.00     0.074 A 
ATOM     66  C   UNL A   1      42.144  32.631  30.288  1.00  0.00     0.031 C 
ATOM     67  C   UNL A   1      44.257  32.188  29.067  1.00  0.00     0.034 A 
BRANCH  54  68
ATOM     68  C   UNL A   1      47.424  27.825  26.020  1.00  0.00     0.023 A 
ATOM     69  C   UNL A   1      48.480  27.333  26.814  1.00  0.00     0.012 A 
ATOM     70  C   UNL A   1      47.593  27.918  24.625  1.00  0.00     0.148 A 
ATOM     71  C   UNL A   1      49.701  26.988  26.237  1.00  0.00     0.002 A 
ATOM     72  C   UNL A   1      48.791  27.517  24.051  1.00  0.00     0.091 A 
ATOM     73  F   UNL A   1      46.594  28.429  23.891  1.00  0.00    -0.205 F 
ATOM     74  C   UNL A   1      49.853  27.070  24.855  1.00  0.00     0.022 A 
BRANCH  72  75
ATOM     75  S   UNL A   1      49.049  27.504  22.276  1.00  0.00     0.127 S 
ATOM     76  O   UNL A   1      50.453  27.898  22.177  1.00  0.00    -0.237 OA
ATOM     77  O   UNL A   1      48.783  26.104  21.940  1.00  0.00    -0.237 OA
ATOM     78  O   UNL A   1      48.091  28.452  21.724  1.00  0.00    -0.744 OA
ENDBRANCH  72  75
ENDBRANCH  54  68
BRANCH  55  79
ATOM     79  C   UNL A   1      38.837  30.005  30.757  1.00  0.00     0.023 A 
ATOM     80  C   UNL A   1      38.734  29.531  32.078  1.00  0.00     0.012 A 
ATOM     81  C   UNL A   1      37.797  30.792  30.225  1.00  0.00     0.148 A 
ATOM     82  C   UNL A   1      37.610  29.825  32.853  1.00  0.00     0.002 A 
ATOM     83  C   UNL A   1      36.707  31.126  31.018  1.00  0.00     0.091 A 
ATOM     84  F   UNL A   1      37.912  31.223  28.961  1.00  0.00    -0.205 F 
ATOM     85  C   UNL A   1      36.604  30.632  32.328  1.00  0.00     0.022 A 
BRANCH  83  86
ATOM     86  S   UNL A   1      35.425  32.264  30.478  1.00  0.00     0.127 S 
ATOM     87  O   UNL A   1      34.948  31.619  29.257  1.00  0.00    -0.237 OA
ATOM     88  O   UNL A   1      34.495  32.217  31.605  1.00  0.00    -0.237 OA
ATOM     89  O   UNL A   1      36.089  33.547  30.291  1.00  0.00    -0.744 OA
ENDBRANCH  83  86
ENDBRANCH  55  79
BRANCH  67  90
ATOM     90  C   UNL A   1      44.699  33.594  29.371  1.00  0.00     0.023 A 
ATOM     91  C   UNL A   1      45.327  33.896  30.593  1.00  0.00     0.012 A 
ATOM     92  C   UNL A   1      44.600  34.586  28.374  1.00  0.00     0.148 A 
ATOM     93  C   UNL A   1      45.830  35.175  30.828  1.00  0.00     0.002 A 
ATOM     94  C   UNL A   1      45.153  35.838  28.593  1.00  0.00     0.091 A 
ATOM     95  F   UNL A   1      43.985  34.274  27.223  1.00  0.00    -0.205 F 
ATOM     96  C   UNL A   1      45.757  36.140  29.824  1.00  0.00     0.022 A 
BRANCH  94  97
ATOM     97  S   UNL A   1      45.205  37.102  27.318  1.00  0.00     0.127 S 
ATOM     98  O   UNL A   1      45.932  36.417  26.251  1.00  0.00    -0.237 OA
ATOM     99  O   UNL A   1      43.784  37.322  27.046  1.00  0.00    -0.237 OA
ATOM    100  O   UNL A   1      45.893  38.242  27.905  1.00  0.00    -0.744 OA
ENDBRANCH  94  97
ENDBRANCH  67  90
ENDBRANCH  41  42
ENDBRANCH  34  36
ENDBRANCH  33  34
ENDBRANCH  32  33
ENDBRANCH  31  32
ENDBRANCH  30  31
ENDBRANCH  29  30
ENDBRANCH  28  29
ENDBRANCH  27  28
ENDBRANCH   1  27
TORSDOF 27
ENDMDL
