MODEL 1
REMARK VINA RESULT:     -11.7      0.000      0.000
REMARK SMILES O=C(OCCOCCOCCOCCOC(=O)c1ccc(-c2c3nc(c(-c4cccc(S(=O)(=O)[O-])c4F)c4ccc([nH]4)c(-c4cccc(S(=O)(=O)[O-])c4F)c4nc(c(-c5cccc(S(=O)(=O)[O-])c5F)c5ccc2[nH]5)C=C4)C=C3)cc1)C1=Cc2c(Cl)ccc(Cl)c2O[C@@H]1C(F)(F)F
REMARK SMILES IDX 10 1 9 2 8 3 7 4 6 5 5 6 4 7 3 8 2 9 1 10 81 11 82 12 92 13
REMARK SMILES IDX 83 14 91 15 84 16 90 17 85 18 86 19 88 20 87 21 89 22 93 23
REMARK SMILES IDX 94 24 95 25 96 26 11 27 12 28 13 29 14 30 15 31 16 32 17 33
REMARK SMILES IDX 18 34 19 35 80 36 20 37 79 38 21 39 22 40 23 41 73 42 24 43
REMARK SMILES IDX 78 44 72 45 74 46 25 47 77 48 71 49 70 50 26 52 58 53 38 54
REMARK SMILES IDX 57 55 39 56 42 57 56 58 75 59 40 60 41 61 55 63 76 64 43 65
REMARK SMILES IDX 27 66 28 67 36 68 29 69 31 70 37 71 30 72 32 73 33 74 34 75
REMARK SMILES IDX 35 76 59 77 60 78 68 79 61 80 63 81 69 82 62 83 64 84 65 85
REMARK SMILES IDX 66 86 67 87 44 88 45 89 53 90 46 91 48 92 54 93 47 94 49 95
REMARK SMILES IDX 50 96 51 97 52 98
REMARK H PARENT 74 51 42 62
REMARK Flexibility Score: inf
ROOT
ATOM      1  C   UNL A   1      32.833  27.917  25.599  1.00  0.00     0.188 C 
ENDROOT
BRANCH   1   2
ATOM      2  O   UNL A   1      33.828  28.450  24.760  1.00  0.00    -0.377 OA
BRANCH   2   3
ATOM      3  C   UNL A   1      33.304  28.878  23.527  1.00  0.00     0.188 C 
BRANCH   3   4
ATOM      4  C   UNL A   1      34.082  28.390  22.300  1.00  0.00     0.188 C 
BRANCH   4   5
ATOM      5  O   UNL A   1      33.840  27.115  21.612  1.00  0.00    -0.376 OA
BRANCH   5   6
ATOM      6  C   UNL A   1      32.732  25.905  21.815  1.00  0.00     0.202 C 
BRANCH   6   7
ATOM      7  C   UNL A   1      33.078  23.753  21.700  1.00  0.00     0.261 C 
BRANCH   7   8
ATOM      8  O   UNL A   1      32.817  22.738  22.794  1.00  0.00    -0.460 OA
BRANCH   8   9
ATOM      9  C   UNL A   1      31.627  22.914  23.380  1.00  0.00     0.338 C 
ATOM     10  O   UNL A   1      30.740  23.668  23.062  1.00  0.00    -0.246 OA
BRANCH   9  11
ATOM     11  C   UNL A   1      31.980  22.348  24.672  1.00  0.00     0.087 C 
ATOM     12  C   UNL A   1      32.824  21.148  24.592  1.00  0.00     0.029 C 
ATOM     13  C   UNL A   1      32.550  24.039  25.376  1.00  0.00     0.316 C 
ATOM     14  C   UNL A   1      34.605  21.117  24.929  1.00  0.00     0.037 A 
ATOM     15  O   UNL A   1      34.484  24.093  25.609  1.00  0.00    -0.474 OA
ATOM     16  C   UNL A   1      35.331  19.955  24.806  1.00  0.00     0.052 A 
ATOM     17  C   UNL A   1      35.478  22.570  25.321  1.00  0.00     0.148 A 
ATOM     18  Cl  UNL A   1      34.632  18.446  24.391  1.00  0.00    -0.084 Cl
ATOM     19  C   UNL A   1      36.716  20.059  25.033  1.00  0.00     0.023 A 
ATOM     20  C   UNL A   1      36.848  22.582  25.447  1.00  0.00     0.083 A 
ATOM     21  C   UNL A   1      37.429  21.295  25.324  1.00  0.00     0.026 A 
ATOM     22  Cl  UNL A   1      37.835  23.958  25.611  1.00  0.00    -0.080 Cl
BRANCH  13  23
ATOM     23  C   UNL A   1      31.283  24.105  26.461  1.00  0.00     0.430 C 
ATOM     24  F   UNL A   1      31.097  23.063  27.293  1.00  0.00    -0.167 F 
ATOM     25  F   UNL A   1      31.550  25.151  27.305  1.00  0.00    -0.167 F 
ATOM     26  F   UNL A   1      30.078  24.419  25.922  1.00  0.00    -0.167 F 
ENDBRANCH  13  23
ENDBRANCH   9  11
ENDBRANCH   8   9
ENDBRANCH   7   8
ENDBRANCH   6   7
ENDBRANCH   5   6
ENDBRANCH   4   5
ENDBRANCH   3   4
ENDBRANCH   2   3
ENDBRANCH   1   2
BRANCH   1  27
ATOM     27  C   UNL A   1      32.702  28.551  26.987  1.00  0.00     0.188 C 
BRANCH  27  28
ATOM     28  O   UNL A   1      31.829  29.632  27.263  1.00  0.00    -0.376 OA
BRANCH  28  29
ATOM     29  C   UNL A   1      31.813  30.797  26.460  1.00  0.00     0.202 C 
BRANCH  29  30
ATOM     30  C   UNL A   1      31.807  32.211  27.063  1.00  0.00     0.261 C 
BRANCH  30  31
ATOM     31  O   UNL A   1      33.021  32.960  26.953  1.00  0.00    -0.460 OA
BRANCH  31  32
ATOM     32  C   UNL A   1      33.616  33.253  28.128  1.00  0.00     0.338 C 
ATOM     33  O   UNL A   1      33.116  33.849  29.068  1.00  0.00    -0.246 OA
BRANCH  32  34
ATOM     34  C   UNL A   1      34.932  32.582  28.216  1.00  0.00     0.060 A 
ATOM     35  C   UNL A   1      34.935  31.197  28.447  1.00  0.00     0.016 A 
ATOM     36  C   UNL A   1      36.135  33.285  28.130  1.00  0.00     0.016 A 
ATOM     37  C   UNL A   1      36.125  30.526  28.682  1.00  0.00     0.010 A 
ATOM     38  C   UNL A   1      37.332  32.619  28.410  1.00  0.00     0.010 A 
ATOM     39  C   UNL A   1      37.314  31.255  28.758  1.00  0.00    -0.014 A 
BRANCH  39  40
ATOM     40  C   UNL A   1      38.443  30.647  29.497  1.00  0.00     0.031 A 
ATOM     41  C   UNL A   1      38.628  31.037  30.941  1.00  0.00     0.074 A 
ATOM     42  C   UNL A   1      39.225  29.712  28.936  1.00  0.00     0.049 A 
ATOM     43  N   UNL A   1      39.516  30.623  31.805  1.00  0.00    -0.248 NA
ATOM     44  C   UNL A   1      37.681  32.028  31.484  1.00  0.00     0.031 C 
ATOM     45  C   UNL A   1      39.104  29.220  27.565  1.00  0.00     0.029 A 
ATOM     46  N   UNL A   1      40.285  29.017  29.456  1.00  0.00    -0.354 N 
ATOM     47  C   UNL A   1      39.266  31.335  32.973  1.00  0.00     0.074 A 
ATOM     48  C   UNL A   1      38.149  32.211  32.708  1.00  0.00     0.031 C 
ATOM     49  C   UNL A   1      40.070  28.311  27.345  1.00  0.00     0.029 A 
ATOM     50  C   UNL A   1      40.893  28.186  28.547  1.00  0.00     0.049 A 
ATOM     51  H   UNL A   1      40.583  29.104  30.391  1.00  0.00     0.167 HD
ATOM     52  C   UNL A   1      39.908  31.265  34.161  1.00  0.00     0.034 A 
ATOM     53  C   UNL A   1      42.003  27.433  28.670  1.00  0.00     0.034 A 
ATOM     54  C   UNL A   1      41.016  30.387  34.419  1.00  0.00     0.049 A 
ATOM     55  C   UNL A   1      42.733  27.413  29.988  1.00  0.00     0.074 A 
ATOM     56  C   UNL A   1      41.711  30.204  35.599  1.00  0.00     0.029 A 
ATOM     57  N   UNL A   1      41.611  29.568  33.471  1.00  0.00    -0.354 N 
ATOM     58  N   UNL A   1      42.436  28.025  31.110  1.00  0.00    -0.248 NA
ATOM     59  C   UNL A   1      43.934  26.570  30.066  1.00  0.00     0.031 C 
ATOM     60  C   UNL A   1      42.771  29.326  35.347  1.00  0.00     0.029 A 
ATOM     61  C   UNL A   1      42.684  28.899  34.032  1.00  0.00     0.049 A 
ATOM     62  H   UNL A   1      41.313  29.475  32.537  1.00  0.00     0.167 HD
ATOM     63  C   UNL A   1      43.382  27.602  32.038  1.00  0.00     0.074 A 
ATOM     64  C   UNL A   1      44.251  26.671  31.349  1.00  0.00     0.031 C 
ATOM     65  C   UNL A   1      43.519  27.949  33.343  1.00  0.00     0.034 A 
BRANCH  52  66
ATOM     66  C   UNL A   1      39.452  32.191  35.260  1.00  0.00     0.023 A 
ATOM     67  C   UNL A   1      38.434  31.800  36.153  1.00  0.00     0.012 A 
ATOM     68  C   UNL A   1      40.066  33.449  35.420  1.00  0.00     0.148 A 
ATOM     69  C   UNL A   1      38.003  32.665  37.160  1.00  0.00     0.002 A 
ATOM     70  C   UNL A   1      39.670  34.282  36.459  1.00  0.00     0.091 A 
ATOM     71  F   UNL A   1      41.015  33.813  34.548  1.00  0.00    -0.205 F 
ATOM     72  C   UNL A   1      38.627  33.900  37.319  1.00  0.00     0.022 A 
BRANCH  70  73
ATOM     73  S   UNL A   1      40.472  35.852  36.797  1.00  0.00     0.127 S 
ATOM     74  O   UNL A   1      41.849  35.573  36.395  1.00  0.00    -0.237 OA
ATOM     75  O   UNL A   1      39.747  36.760  35.909  1.00  0.00    -0.237 OA
ATOM     76  O   UNL A   1      40.280  36.107  38.218  1.00  0.00    -0.744 OA
ENDBRANCH  70  73
ENDBRANCH  52  66
BRANCH  53  77
ATOM     77  C   UNL A   1      42.486  26.617  27.520  1.00  0.00     0.023 A 
ATOM     78  C   UNL A   1      43.278  27.219  26.522  1.00  0.00     0.012 A 
ATOM     79  C   UNL A   1      42.158  25.253  27.409  1.00  0.00     0.148 A 
ATOM     80  C   UNL A   1      43.700  26.486  25.414  1.00  0.00     0.002 A 
ATOM     81  C   UNL A   1      42.630  24.514  26.333  1.00  0.00     0.091 A 
ATOM     82  F   UNL A   1      41.397  24.703  28.366  1.00  0.00    -0.205 F 
ATOM     83  C   UNL A   1      43.383  25.133  25.322  1.00  0.00     0.022 A 
BRANCH  81  84
ATOM     84  S   UNL A   1      42.374  22.743  26.189  1.00  0.00     0.127 S 
ATOM     85  O   UNL A   1      43.060  22.244  27.378  1.00  0.00    -0.237 OA
ATOM     86  O   UNL A   1      40.915  22.651  26.235  1.00  0.00    -0.237 OA
ATOM     87  O   UNL A   1      42.964  22.358  24.915  1.00  0.00    -0.744 OA
ENDBRANCH  81  84
ENDBRANCH  53  77
BRANCH  65  88
ATOM     88  C   UNL A   1      44.603  27.265  34.138  1.00  0.00     0.023 A 
ATOM     89  C   UNL A   1      45.903  27.806  34.197  1.00  0.00     0.012 A 
ATOM     90  C   UNL A   1      44.308  26.099  34.872  1.00  0.00     0.148 A 
ATOM     91  C   UNL A   1      46.904  27.166  34.928  1.00  0.00     0.002 A 
ATOM     92  C   UNL A   1      45.293  25.502  35.649  1.00  0.00     0.091 A 
ATOM     93  F   UNL A   1      43.070  25.591  34.796  1.00  0.00    -0.205 F 
ATOM     94  C   UNL A   1      46.596  26.023  35.661  1.00  0.00     0.022 A 
BRANCH  92  95
ATOM     95  S   UNL A   1      44.961  24.089  36.704  1.00  0.00     0.127 S 
ATOM     96  O   UNL A   1      44.248  23.198  35.791  1.00  0.00    -0.237 OA
ATOM     97  O   UNL A   1      46.310  23.647  37.060  1.00  0.00    -0.237 OA
ATOM     98  O   UNL A   1      44.175  24.592  37.821  1.00  0.00    -0.744 OA
ENDBRANCH  92  95
ENDBRANCH  65  88
ENDBRANCH  39  40
ENDBRANCH  32  34
ENDBRANCH  31  32
ENDBRANCH  30  31
ENDBRANCH  29  30
ENDBRANCH  28  29
ENDBRANCH  27  28
ENDBRANCH   1  27
TORSDOF 24
ENDMDL
MODEL 2
REMARK VINA RESULT:     -11.2      1.825      2.162
REMARK SMILES O=C(OCCOCCOCCOCCOC(=O)c1ccc(-c2c3nc(c(-c4cccc(S(=O)(=O)[O-])c4F)c4ccc([nH]4)c(-c4cccc(S(=O)(=O)[O-])c4F)c4nc(c(-c5cccc(S(=O)(=O)[O-])c5F)c5ccc2[nH]5)C=C4)C=C3)cc1)C1=Cc2c(Cl)ccc(Cl)c2O[C@@H]1C(F)(F)F
REMARK SMILES IDX 10 1 9 2 8 3 7 4 6 5 5 6 4 7 3 8 2 9 1 10 81 11 82 12 92 13
REMARK SMILES IDX 83 14 91 15 84 16 90 17 85 18 86 19 88 20 87 21 89 22 93 23
REMARK SMILES IDX 94 24 95 25 96 26 11 27 12 28 13 29 14 30 15 31 16 32 17 33
REMARK SMILES IDX 18 34 19 35 80 36 20 37 79 38 21 39 22 40 23 41 73 42 24 43
REMARK SMILES IDX 78 44 72 45 74 46 25 47 77 48 71 49 70 50 26 52 58 53 38 54
REMARK SMILES IDX 57 55 39 56 42 57 56 58 75 59 40 60 41 61 55 63 76 64 43 65
REMARK SMILES IDX 27 66 28 67 36 68 29 69 31 70 37 71 30 72 32 73 33 74 34 75
REMARK SMILES IDX 35 76 59 77 60 78 68 79 61 80 63 81 69 82 62 83 64 84 65 85
REMARK SMILES IDX 66 86 67 87 44 88 45 89 53 90 46 91 48 92 54 93 47 94 49 95
REMARK SMILES IDX 50 96 51 97 52 98
REMARK H PARENT 74 51 42 62
REMARK Flexibility Score: inf
ROOT
ATOM      1  C   UNL A   1      32.594  28.243  25.434  1.00  0.00     0.188 C 
ENDROOT
BRANCH   1   2
ATOM      2  O   UNL A   1      33.365  28.857  24.429  1.00  0.00    -0.377 OA
BRANCH   2   3
ATOM      3  C   UNL A   1      32.736  28.795  23.172  1.00  0.00     0.188 C 
BRANCH   3   4
ATOM      4  C   UNL A   1      33.628  28.274  22.039  1.00  0.00     0.188 C 
BRANCH   4   5
ATOM      5  O   UNL A   1      33.914  26.856  21.788  1.00  0.00    -0.376 OA
BRANCH   5   6
ATOM      6  C   UNL A   1      33.750  25.484  22.694  1.00  0.00     0.202 C 
BRANCH   6   7
ATOM      7  C   UNL A   1      33.182  23.493  22.002  1.00  0.00     0.261 C 
BRANCH   7   8
ATOM      8  O   UNL A   1      32.598  22.378  22.845  1.00  0.00    -0.460 OA
BRANCH   8   9
ATOM      9  C   UNL A   1      31.474  22.746  23.471  1.00  0.00     0.338 C 
ATOM     10  O   UNL A   1      30.760  23.690  23.234  1.00  0.00    -0.246 OA
BRANCH   9  11
ATOM     11  C   UNL A   1      31.712  22.016  24.706  1.00  0.00     0.087 C 
ATOM     12  C   UNL A   1      32.106  20.615  24.509  1.00  0.00     0.029 C 
ATOM     13  C   UNL A   1      32.855  23.383  25.418  1.00  0.00     0.316 C 
ATOM     14  C   UNL A   1      33.797  19.986  24.688  1.00  0.00     0.037 A 
ATOM     15  O   UNL A   1      34.710  22.791  25.484  1.00  0.00    -0.474 OA
ATOM     16  C   UNL A   1      34.090  18.661  24.460  1.00  0.00     0.052 A 
ATOM     17  C   UNL A   1      35.125  21.048  25.055  1.00  0.00     0.148 A 
ATOM     18  Cl  UNL A   1      32.906  17.490  24.054  1.00  0.00    -0.084 Cl
ATOM     19  C   UNL A   1      35.444  18.295  24.570  1.00  0.00     0.023 A 
ATOM     20  C   UNL A   1      36.428  20.607  25.061  1.00  0.00     0.083 A 
ATOM     21  C   UNL A   1      36.543  19.211  24.842  1.00  0.00     0.026 A 
ATOM     22  Cl  UNL A   1      37.821  21.574  25.189  1.00  0.00    -0.080 Cl
BRANCH  13  23
ATOM     23  C   UNL A   1      31.759  23.788  26.612  1.00  0.00     0.430 C 
ATOM     24  F   UNL A   1      31.697  23.017  27.712  1.00  0.00    -0.167 F 
ATOM     25  F   UNL A   1      32.147  25.011  27.093  1.00  0.00    -0.167 F 
ATOM     26  F   UNL A   1      30.489  23.994  26.182  1.00  0.00    -0.167 F 
ENDBRANCH  13  23
ENDBRANCH   9  11
ENDBRANCH   8   9
ENDBRANCH   7   8
ENDBRANCH   6   7
ENDBRANCH   5   6
ENDBRANCH   4   5
ENDBRANCH   3   4
ENDBRANCH   2   3
ENDBRANCH   1   2
BRANCH   1  27
ATOM     27  C   UNL A   1      32.666  28.875  26.827  1.00  0.00     0.188 C 
BRANCH  27  28
ATOM     28  O   UNL A   1      31.845  29.958  27.227  1.00  0.00    -0.376 OA
BRANCH  28  29
ATOM     29  C   UNL A   1      31.858  31.194  26.538  1.00  0.00     0.202 C 
BRANCH  29  30
ATOM     30  C   UNL A   1      31.671  32.539  27.258  1.00  0.00     0.261 C 
BRANCH  30  31
ATOM     31  O   UNL A   1      32.775  33.448  27.215  1.00  0.00    -0.460 OA
BRANCH  31  32
ATOM     32  C   UNL A   1      33.380  33.664  28.402  1.00  0.00     0.338 C 
ATOM     33  O   UNL A   1      32.897  34.224  29.373  1.00  0.00    -0.246 OA
BRANCH  32  34
ATOM     34  C   UNL A   1      34.677  32.955  28.451  1.00  0.00     0.060 A 
ATOM     35  C   UNL A   1      34.647  31.573  28.699  1.00  0.00     0.016 A 
ATOM     36  C   UNL A   1      35.897  33.620  28.314  1.00  0.00     0.016 A 
ATOM     37  C   UNL A   1      35.824  30.869  28.900  1.00  0.00     0.010 A 
ATOM     38  C   UNL A   1      37.083  32.921  28.560  1.00  0.00     0.010 A 
ATOM     39  C   UNL A   1      37.037  31.562  28.925  1.00  0.00    -0.014 A 
BRANCH  39  40
ATOM     40  C   UNL A   1      38.172  30.929  29.631  1.00  0.00     0.031 A 
ATOM     41  C   UNL A   1      38.408  31.313  31.069  1.00  0.00     0.074 A 
ATOM     42  C   UNL A   1      38.918  29.978  29.047  1.00  0.00     0.049 A 
ATOM     43  N   UNL A   1      39.311  30.878  31.907  1.00  0.00    -0.248 NA
ATOM     44  C   UNL A   1      37.498  32.323  31.640  1.00  0.00     0.031 C 
ATOM     45  C   UNL A   1      38.747  29.490  27.679  1.00  0.00     0.029 A 
ATOM     46  N   UNL A   1      39.977  29.259  29.535  1.00  0.00    -0.354 N 
ATOM     47  C   UNL A   1      39.109  31.594  33.083  1.00  0.00     0.074 A 
ATOM     48  C   UNL A   1      38.004  32.494  32.850  1.00  0.00     0.031 C 
ATOM     49  C   UNL A   1      39.686  28.561  27.431  1.00  0.00     0.029 A 
ATOM     50  C   UNL A   1      40.540  28.417  28.609  1.00  0.00     0.049 A 
ATOM     51  H   UNL A   1      40.303  29.339  30.462  1.00  0.00     0.167 HD
ATOM     52  C   UNL A   1      39.783  31.508  34.252  1.00  0.00     0.034 A 
ATOM     53  C   UNL A   1      41.637  27.639  28.699  1.00  0.00     0.034 A 
ATOM     54  C   UNL A   1      40.879  30.605  34.477  1.00  0.00     0.049 A 
ATOM     55  C   UNL A   1      42.403  27.601  29.996  1.00  0.00     0.074 A 
ATOM     56  C   UNL A   1      41.603  30.406  35.636  1.00  0.00     0.029 A 
ATOM     57  N   UNL A   1      41.429  29.775  33.512  1.00  0.00    -0.354 N 
ATOM     58  N   UNL A   1      42.152  28.218  31.126  1.00  0.00    -0.248 NA
ATOM     59  C   UNL A   1      43.588  26.732  30.039  1.00  0.00     0.031 C 
ATOM     60  C   UNL A   1      42.636  29.506  35.354  1.00  0.00     0.029 A 
ATOM     61  C   UNL A   1      42.502  29.083  34.041  1.00  0.00     0.049 A 
ATOM     62  H   UNL A   1      41.102  29.690  32.587  1.00  0.00     0.167 HD
ATOM     63  C   UNL A   1      43.114  27.773  32.027  1.00  0.00     0.074 A 
ATOM     64  C   UNL A   1      43.943  26.825  31.312  1.00  0.00     0.031 C 
ATOM     65  C   UNL A   1      43.296  28.115  33.327  1.00  0.00     0.034 A 
BRANCH  52  66
ATOM     66  C   UNL A   1      39.380  32.442  35.364  1.00  0.00     0.023 A 
ATOM     67  C   UNL A   1      39.771  33.796  35.344  1.00  0.00     0.012 A 
ATOM     68  C   UNL A   1      38.579  31.971  36.424  1.00  0.00     0.148 A 
ATOM     69  C   UNL A   1      39.410  34.655  36.382  1.00  0.00     0.002 A 
ATOM     70  C   UNL A   1      38.176  32.845  37.425  1.00  0.00     0.091 A 
ATOM     71  F   UNL A   1      38.236  30.676  36.438  1.00  0.00    -0.205 F 
ATOM     72  C   UNL A   1      38.605  34.182  37.416  1.00  0.00     0.022 A 
BRANCH  70  73
ATOM     73  S   UNL A   1      37.070  32.353  38.750  1.00  0.00     0.127 S 
ATOM     74  O   UNL A   1      37.649  33.055  39.894  1.00  0.00    -0.237 OA
ATOM     75  O   UNL A   1      35.789  32.887  38.290  1.00  0.00    -0.237 OA
ATOM     76  O   UNL A   1      37.137  30.900  38.815  1.00  0.00    -0.744 OA
ENDBRANCH  70  73
ENDBRANCH  52  66
BRANCH  53  77
ATOM     77  C   UNL A   1      42.069  26.815  27.536  1.00  0.00     0.023 A 
ATOM     78  C   UNL A   1      42.734  27.427  26.456  1.00  0.00     0.012 A 
ATOM     79  C   UNL A   1      41.817  25.430  27.493  1.00  0.00     0.148 A 
ATOM     80  C   UNL A   1      43.103  26.683  25.336  1.00  0.00     0.002 A 
ATOM     81  C   UNL A   1      42.240  24.684  26.401  1.00  0.00     0.091 A 
ATOM     82  F   UNL A   1      41.176  24.870  28.529  1.00  0.00    -0.205 F 
ATOM     83  C   UNL A   1      42.864  25.312  25.312  1.00  0.00     0.022 A 
BRANCH  81  84
ATOM     84  S   UNL A   1      42.082  22.897  26.332  1.00  0.00     0.127 S 
ATOM     85  O   UNL A   1      42.714  22.591  25.051  1.00  0.00    -0.237 OA
ATOM     86  O   UNL A   1      42.846  22.488  27.511  1.00  0.00    -0.237 OA
ATOM     87  O   UNL A   1      40.655  22.621  26.411  1.00  0.00    -0.744 OA
ENDBRANCH  81  84
ENDBRANCH  53  77
BRANCH  65  88
ATOM     88  C   UNL A   1      44.387  27.407  34.091  1.00  0.00     0.023 A 
ATOM     89  C   UNL A   1      44.164  26.134  34.652  1.00  0.00     0.012 A 
ATOM     90  C   UNL A   1      45.661  27.998  34.209  1.00  0.00     0.148 A 
ATOM     91  C   UNL A   1      45.175  25.486  35.363  1.00  0.00     0.002 A 
ATOM     92  C   UNL A   1      46.682  27.320  34.864  1.00  0.00     0.091 A 
ATOM     93  F   UNL A   1      45.853  29.215  33.679  1.00  0.00    -0.205 F 
ATOM     94  C   UNL A   1      46.434  26.074  35.459  1.00  0.00     0.022 A 
BRANCH  92  95
ATOM     95  S   UNL A   1      48.359  27.953  34.947  1.00  0.00     0.127 S 
ATOM     96  O   UNL A   1      48.176  29.176  35.726  1.00  0.00    -0.237 OA
ATOM     97  O   UNL A   1      49.059  26.879  35.652  1.00  0.00    -0.237 OA
ATOM     98  O   UNL A   1      48.787  28.152  33.569  1.00  0.00    -0.744 OA
ENDBRANCH  92  95
ENDBRANCH  65  88
ENDBRANCH  39  40
ENDBRANCH  32  34
ENDBRANCH  31  32
ENDBRANCH  30  31
ENDBRANCH  29  30
ENDBRANCH  28  29
ENDBRANCH  27  28
ENDBRANCH   1  27
TORSDOF 24
ENDMDL
MODEL 3
REMARK VINA RESULT:     -10.7      1.897      2.203
REMARK SMILES O=C(OCCOCCOCCOCCOC(=O)c1ccc(-c2c3nc(c(-c4cccc(S(=O)(=O)[O-])c4F)c4ccc([nH]4)c(-c4cccc(S(=O)(=O)[O-])c4F)c4nc(c(-c5cccc(S(=O)(=O)[O-])c5F)c5ccc2[nH]5)C=C4)C=C3)cc1)C1=Cc2c(Cl)ccc(Cl)c2O[C@@H]1C(F)(F)F
REMARK SMILES IDX 10 1 9 2 8 3 7 4 6 5 5 6 4 7 3 8 2 9 1 10 81 11 82 12 92 13
REMARK SMILES IDX 83 14 91 15 84 16 90 17 85 18 86 19 88 20 87 21 89 22 93 23
REMARK SMILES IDX 94 24 95 25 96 26 11 27 12 28 13 29 14 30 15 31 16 32 17 33
REMARK SMILES IDX 18 34 19 35 80 36 20 37 79 38 21 39 22 40 23 41 73 42 24 43
REMARK SMILES IDX 78 44 72 45 74 46 25 47 77 48 71 49 70 50 26 52 58 53 38 54
REMARK SMILES IDX 57 55 39 56 42 57 56 58 75 59 40 60 41 61 55 63 76 64 43 65
REMARK SMILES IDX 27 66 28 67 36 68 29 69 31 70 37 71 30 72 32 73 33 74 34 75
REMARK SMILES IDX 35 76 59 77 60 78 68 79 61 80 63 81 69 82 62 83 64 84 65 85
REMARK SMILES IDX 66 86 67 87 44 88 45 89 53 90 46 91 48 92 54 93 47 94 49 95
REMARK SMILES IDX 50 96 51 97 52 98
REMARK H PARENT 74 51 42 62
REMARK Flexibility Score: inf
ROOT
ATOM      1  C   UNL A   1      32.571  27.858  25.453  1.00  0.00     0.188 C 
ENDROOT
BRANCH   1   2
ATOM      2  O   UNL A   1      33.036  28.736  24.456  1.00  0.00    -0.377 OA
BRANCH   2   3
ATOM      3  C   UNL A   1      32.518  28.416  23.189  1.00  0.00     0.188 C 
BRANCH   3   4
ATOM      4  C   UNL A   1      33.572  27.989  22.160  1.00  0.00     0.188 C 
BRANCH   4   5
ATOM      5  O   UNL A   1      33.926  26.596  21.858  1.00  0.00    -0.376 OA
BRANCH   5   6
ATOM      6  C   UNL A   1      33.838  25.188  22.718  1.00  0.00     0.202 C 
BRANCH   6   7
ATOM      7  C   UNL A   1      33.317  23.204  21.971  1.00  0.00     0.261 C 
BRANCH   7   8
ATOM      8  O   UNL A   1      32.786  22.044  22.787  1.00  0.00    -0.460 OA
BRANCH   8   9
ATOM      9  C   UNL A   1      31.686  22.366  23.477  1.00  0.00     0.338 C 
ATOM     10  O   UNL A   1      30.869  23.218  23.228  1.00  0.00    -0.246 OA
BRANCH   9  11
ATOM     11  C   UNL A   1      32.090  21.773  24.742  1.00  0.00     0.087 C 
ATOM     12  C   UNL A   1      33.064  20.681  24.610  1.00  0.00     0.029 C 
ATOM     13  C   UNL A   1      32.461  23.476  25.544  1.00  0.00     0.316 C 
ATOM     14  C   UNL A   1      34.834  20.832  24.970  1.00  0.00     0.037 A 
ATOM     15  O   UNL A   1      34.374  23.733  25.807  1.00  0.00    -0.474 OA
ATOM     16  C   UNL A   1      35.688  19.766  24.796  1.00  0.00     0.052 A 
ATOM     17  C   UNL A   1      35.536  22.349  25.452  1.00  0.00     0.148 A 
ATOM     18  Cl  UNL A   1      35.166  18.213  24.291  1.00  0.00    -0.084 Cl
ATOM     19  C   UNL A   1      37.050  20.012  25.048  1.00  0.00     0.023 A 
ATOM     20  C   UNL A   1      36.895  22.507  25.598  1.00  0.00     0.083 A 
ATOM     21  C   UNL A   1      37.618  21.302  25.415  1.00  0.00     0.026 A 
ATOM     22  Cl  UNL A   1      37.719  23.974  25.850  1.00  0.00    -0.080 Cl
BRANCH  13  23
ATOM     23  C   UNL A   1      31.185  23.340  26.613  1.00  0.00     0.430 C 
ATOM     24  F   UNL A   1      30.238  22.417  26.366  1.00  0.00    -0.167 F 
ATOM     25  F   UNL A   1      31.723  22.942  27.809  1.00  0.00    -0.167 F 
ATOM     26  F   UNL A   1      30.556  24.505  26.910  1.00  0.00    -0.167 F 
ENDBRANCH  13  23
ENDBRANCH   9  11
ENDBRANCH   8   9
ENDBRANCH   7   8
ENDBRANCH   6   7
ENDBRANCH   5   6
ENDBRANCH   4   5
ENDBRANCH   3   4
ENDBRANCH   2   3
ENDBRANCH   1   2
BRANCH   1  27
ATOM     27  C   UNL A   1      32.532  28.408  26.881  1.00  0.00     0.188 C 
BRANCH  27  28
ATOM     28  O   UNL A   1      31.961  29.663  27.209  1.00  0.00    -0.376 OA
BRANCH  28  29
ATOM     29  C   UNL A   1      32.476  30.873  26.685  1.00  0.00     0.202 C 
BRANCH  29  30
ATOM     30  C   UNL A   1      32.243  32.230  27.368  1.00  0.00     0.261 C 
BRANCH  30  31
ATOM     31  O   UNL A   1      33.341  33.146  27.365  1.00  0.00    -0.460 OA
BRANCH  31  32
ATOM     32  C   UNL A   1      33.901  33.366  28.573  1.00  0.00     0.338 C 
ATOM     33  O   UNL A   1      33.391  33.948  29.516  1.00  0.00    -0.246 OA
BRANCH  32  34
ATOM     34  C   UNL A   1      35.181  32.632  28.683  1.00  0.00     0.060 A 
ATOM     35  C   UNL A   1      35.121  31.291  29.094  1.00  0.00     0.016 A 
ATOM     36  C   UNL A   1      36.414  33.243  28.447  1.00  0.00     0.016 A 
ATOM     37  C   UNL A   1      36.284  30.583  29.357  1.00  0.00     0.010 A 
ATOM     38  C   UNL A   1      37.587  32.545  28.753  1.00  0.00     0.010 A 
ATOM     39  C   UNL A   1      37.514  31.241  29.278  1.00  0.00    -0.014 A 
BRANCH  39  40
ATOM     40  C   UNL A   1      38.648  30.666  30.035  1.00  0.00     0.031 A 
ATOM     41  C   UNL A   1      38.799  31.059  31.482  1.00  0.00     0.074 A 
ATOM     42  C   UNL A   1      39.466  29.754  29.485  1.00  0.00     0.049 A 
ATOM     43  N   UNL A   1      39.685  30.669  32.359  1.00  0.00    -0.248 NA
ATOM     44  C   UNL A   1      37.815  32.021  32.010  1.00  0.00     0.031 C 
ATOM     45  C   UNL A   1      39.381  29.260  28.112  1.00  0.00     0.029 A 
ATOM     46  N   UNL A   1      40.537  29.089  30.021  1.00  0.00    -0.354 N 
ATOM     47  C   UNL A   1      39.396  31.373  33.524  1.00  0.00     0.074 A 
ATOM     48  C   UNL A   1      38.258  32.216  33.241  1.00  0.00     0.031 C 
ATOM     49  C   UNL A   1      40.376  28.380  27.907  1.00  0.00     0.029 A 
ATOM     50  C   UNL A   1      41.183  28.277  29.121  1.00  0.00     0.049 A 
ATOM     51  H   UNL A   1      40.817  29.184  30.961  1.00  0.00     0.167 HD
ATOM     52  C   UNL A   1      40.021  31.319  34.722  1.00  0.00     0.034 A 
ATOM     53  C   UNL A   1      42.312  27.555  29.262  1.00  0.00     0.034 A 
ATOM     54  C   UNL A   1      41.149  30.473  34.996  1.00  0.00     0.049 A 
ATOM     55  C   UNL A   1      43.021  27.555  30.591  1.00  0.00     0.074 A 
ATOM     56  C   UNL A   1      41.831  30.309  36.187  1.00  0.00     0.029 A 
ATOM     57  N   UNL A   1      41.783  29.673  34.057  1.00  0.00    -0.354 N 
ATOM     58  N   UNL A   1      42.689  28.157  31.709  1.00  0.00    -0.248 NA
ATOM     59  C   UNL A   1      44.245  26.747  30.687  1.00  0.00     0.031 C 
ATOM     60  C   UNL A   1      42.919  29.463  35.952  1.00  0.00     0.029 A 
ATOM     61  C   UNL A   1      42.865  29.035  34.635  1.00  0.00     0.049 A 
ATOM     62  H   UNL A   1      41.502  29.573  33.119  1.00  0.00     0.167 HD
ATOM     63  C   UNL A   1      43.631  27.760  32.652  1.00  0.00     0.074 A 
ATOM     64  C   UNL A   1      44.538  26.856  31.975  1.00  0.00     0.031 C 
ATOM     65  C   UNL A   1      43.738  28.110  33.958  1.00  0.00     0.034 A 
BRANCH  52  66
ATOM     66  C   UNL A   1      39.521  32.231  35.814  1.00  0.00     0.023 A 
ATOM     67  C   UNL A   1      39.917  33.583  35.859  1.00  0.00     0.012 A 
ATOM     68  C   UNL A   1      38.627  31.740  36.787  1.00  0.00     0.148 A 
ATOM     69  C   UNL A   1      39.467  34.420  36.880  1.00  0.00     0.002 A 
ATOM     70  C   UNL A   1      38.139  32.594  37.767  1.00  0.00     0.091 A 
ATOM     71  F   UNL A   1      38.281  30.447  36.742  1.00  0.00    -0.205 F 
ATOM     72  C   UNL A   1      38.570  33.929  37.827  1.00  0.00     0.022 A 
BRANCH  70  73
ATOM     73  S   UNL A   1      36.917  32.078  38.977  1.00  0.00     0.127 S 
ATOM     74  O   UNL A   1      35.729  32.798  38.521  1.00  0.00    -0.237 OA
ATOM     75  O   UNL A   1      36.872  30.631  38.765  1.00  0.00    -0.237 OA
ATOM     76  O   UNL A   1      37.433  32.489  40.274  1.00  0.00    -0.744 OA
ENDBRANCH  70  73
ENDBRANCH  52  66
BRANCH  53  77
ATOM     77  C   UNL A   1      42.836  26.756  28.120  1.00  0.00     0.023 A 
ATOM     78  C   UNL A   1      42.168  25.580  27.726  1.00  0.00     0.012 A 
ATOM     79  C   UNL A   1      43.998  27.151  27.429  1.00  0.00     0.148 A 
ATOM     80  C   UNL A   1      42.670  24.790  26.692  1.00  0.00     0.002 A 
ATOM     81  C   UNL A   1      44.459  26.392  26.362  1.00  0.00     0.091 A 
ATOM     82  F   UNL A   1      44.623  28.268  27.826  1.00  0.00    -0.205 F 
ATOM     83  C   UNL A   1      43.809  25.199  26.005  1.00  0.00     0.022 A 
BRANCH  81  84
ATOM     84  S   UNL A   1      45.848  26.899  25.344  1.00  0.00     0.127 S 
ATOM     85  O   UNL A   1      46.077  25.705  24.534  1.00  0.00    -0.237 OA
ATOM     86  O   UNL A   1      45.282  28.037  24.619  1.00  0.00    -0.237 OA
ATOM     87  O   UNL A   1      46.916  27.244  26.271  1.00  0.00    -0.744 OA
ENDBRANCH  81  84
ENDBRANCH  53  77
BRANCH  65  88
ATOM     88  C   UNL A   1      44.829  27.457  34.770  1.00  0.00     0.023 A 
ATOM     89  C   UNL A   1      46.097  28.060  34.890  1.00  0.00     0.012 A 
ATOM     90  C   UNL A   1      44.570  26.255  35.458  1.00  0.00     0.148 A 
ATOM     91  C   UNL A   1      47.104  27.448  35.637  1.00  0.00     0.002 A 
ATOM     92  C   UNL A   1      45.557  25.684  36.251  1.00  0.00     0.091 A 
ATOM     93  F   UNL A   1      43.362  25.688  35.325  1.00  0.00    -0.205 F 
ATOM     94  C   UNL A   1      46.831  26.268  36.324  1.00  0.00     0.022 A 
BRANCH  92  95
ATOM     95  S   UNL A   1      45.263  24.223  37.252  1.00  0.00     0.127 S 
ATOM     96  O   UNL A   1      46.591  23.972  37.809  1.00  0.00    -0.237 OA
ATOM     97  O   UNL A   1      44.276  24.706  38.219  1.00  0.00    -0.237 OA
ATOM     98  O   UNL A   1      44.767  23.200  36.342  1.00  0.00    -0.744 OA
ENDBRANCH  92  95
ENDBRANCH  65  88
ENDBRANCH  39  40
ENDBRANCH  32  34
ENDBRANCH  31  32
ENDBRANCH  30  31
ENDBRANCH  29  30
ENDBRANCH  28  29
ENDBRANCH  27  28
ENDBRANCH   1  27
TORSDOF 24
ENDMDL
