MODEL 1
REMARK VINA RESULT:     -10.0      0.000      0.000
REMARK SMILES CC(C)(C)OC(=O)N1C[C@@H](Oc2cccnc2)C[C@H]1C(=O)OCCOCCOCCOCCOC(=O)c1ccc(-c2c3nc(c(-c4cccc(S(=O)(=O)[O-])c4F)c4ccc([nH]4)c(-c4cccc(S(=O)(=O)[O-])c4F)c4nc(c(-c5cccc(S(=O)(=O)[O-])c5F)c5ccc2[nH]5)C=C4)C=C3)cc1
REMARK SMILES IDX 28 1 27 2 26 3 25 4 24 5 23 6 22 7 20 8 21 9 19 10 8 11 9 12
REMARK SMILES IDX 10 13 18 14 6 15 7 16 5 17 2 18 1 19 3 20 4 21 11 22 12 23
REMARK SMILES IDX 13 24 17 25 14 26 16 27 15 28 29 29 30 30 31 31 32 32 33 33
REMARK SMILES IDX 34 34 35 35 36 36 37 37 38 38 99 39 39 40 98 41 40 42 41 43
REMARK SMILES IDX 42 44 92 45 43 46 97 47 91 48 93 49 44 50 96 51 90 52 89 53
REMARK SMILES IDX 45 55 77 56 57 57 76 58 58 59 61 60 75 61 94 62 59 63 60 64
REMARK SMILES IDX 74 66 95 67 62 68 46 69 47 70 55 71 48 72 50 73 56 74 49 75
REMARK SMILES IDX 51 76 52 77 53 78 54 79 78 80 79 81 87 82 80 83 82 84 88 85
REMARK SMILES IDX 81 86 83 87 84 88 85 89 86 90 63 91 64 92 72 93 65 94 67 95
REMARK SMILES IDX 73 96 66 97 68 98 69 99 70 100 71 101
REMARK H PARENT 93 54 61 65
REMARK Flexibility Score: inf
ROOT
ATOM      1  O   UNL A   1      33.360  34.380  29.512  1.00  0.00    -0.377 OA
ENDROOT
BRANCH   1   2
ATOM      2  C   UNL A   1      34.704  34.105  29.143  1.00  0.00     0.188 C 
BRANCH   2   3
ATOM      3  C   UNL A   1      35.181  32.679  28.755  1.00  0.00     0.188 C 
BRANCH   3   4
ATOM      4  O   UNL A   1      34.738  32.217  27.495  1.00  0.00    -0.376 OA
BRANCH   4   5
ATOM      5  C   UNL A   1      33.908  31.070  27.455  1.00  0.00     0.202 C 
BRANCH   5   6
ATOM      6  C   UNL A   1      34.577  29.693  27.528  1.00  0.00     0.261 C 
BRANCH   6   7
ATOM      7  O   UNL A   1      33.965  28.626  26.786  1.00  0.00    -0.462 OA
BRANCH   7   8
ATOM      8  C   UNL A   1      32.903  28.905  25.989  1.00  0.00     0.329 C 
ATOM      9  O   UNL A   1      31.955  29.619  26.304  1.00  0.00    -0.250 OA
BRANCH   8  10
ATOM     10  C   UNL A   1      33.097  28.258  24.598  1.00  0.00     0.202 C 
ATOM     11  N   UNL A   1      32.316  27.039  24.632  1.00  0.00    -0.291 N 
ATOM     12  C   UNL A   1      31.107  27.139  23.836  1.00  0.00     0.169 C 
ATOM     13  C   UNL A   1      31.498  28.140  22.752  1.00  0.00     0.195 C 
ATOM     14  C   UNL A   1      32.556  29.044  23.399  1.00  0.00     0.084 C 
BRANCH  11  15
ATOM     15  C   UNL A   1      32.713  26.071  25.508  1.00  0.00     0.411 C 
ATOM     16  O   UNL A   1      32.007  25.745  26.458  1.00  0.00    -0.224 OA
BRANCH  15  17
ATOM     17  O   UNL A   1      33.905  25.525  25.203  1.00  0.00    -0.444 OA
BRANCH  17  18
ATOM     18  C   UNL A   1      33.941  24.129  24.811  1.00  0.00     0.106 C 
ATOM     19  C   UNL A   1      32.482  23.789  24.494  1.00  0.00     0.056 C 
ATOM     20  C   UNL A   1      34.427  23.311  26.012  1.00  0.00     0.056 C 
ATOM     21  C   UNL A   1      34.781  23.824  23.556  1.00  0.00     0.056 C 
ENDBRANCH  17  18
ENDBRANCH  15  17
ENDBRANCH  11  15
BRANCH  13  22
ATOM     22  O   UNL A   1      30.426  28.749  22.032  1.00  0.00    -0.487 OA
BRANCH  22  23
ATOM     23  C   UNL A   1      29.565  29.646  22.582  1.00  0.00     0.138 A 
ATOM     24  C   UNL A   1      29.879  30.650  23.488  1.00  0.00     0.050 A 
ATOM     25  C   UNL A   1      28.220  29.503  22.245  1.00  0.00     0.157 A 
ATOM     26  C   UNL A   1      28.870  31.491  23.967  1.00  0.00     0.024 A 
ATOM     27  N   UNL A   1      27.213  30.292  22.700  1.00  0.00    -0.261 NA
ATOM     28  C   UNL A   1      27.566  31.277  23.549  1.00  0.00     0.111 A 
ENDBRANCH  22  23
ENDBRANCH  13  22
ENDBRANCH   8  10
ENDBRANCH   7   8
ENDBRANCH   6   7
ENDBRANCH   5   6
ENDBRANCH   4   5
ENDBRANCH   3   4
ENDBRANCH   2   3
ENDBRANCH   1   2
BRANCH   1  29
ATOM     29  C   UNL A   1      32.951  35.728  29.625  1.00  0.00     0.188 C 
BRANCH  29  30
ATOM     30  C   UNL A   1      32.614  36.227  31.045  1.00  0.00     0.188 C 
BRANCH  30  31
ATOM     31  O   UNL A   1      32.676  35.221  32.044  1.00  0.00    -0.376 OA
BRANCH  31  32
ATOM     32  C   UNL A   1      33.915  34.854  32.617  1.00  0.00     0.202 C 
BRANCH  32  33
ATOM     33  C   UNL A   1      34.080  33.471  33.263  1.00  0.00     0.261 C 
BRANCH  33  34
ATOM     34  O   UNL A   1      35.141  32.654  32.769  1.00  0.00    -0.460 OA
BRANCH  34  35
ATOM     35  C   UNL A   1      36.184  32.431  33.603  1.00  0.00     0.338 C 
ATOM     36  O   UNL A   1      36.231  32.643  34.791  1.00  0.00    -0.246 OA
BRANCH  35  37
ATOM     37  C   UNL A   1      37.185  31.672  32.821  1.00  0.00     0.060 A 
ATOM     38  C   UNL A   1      38.278  31.107  33.492  1.00  0.00     0.016 A 
ATOM     39  C   UNL A   1      37.003  31.469  31.451  1.00  0.00     0.016 A 
ATOM     40  C   UNL A   1      39.191  30.322  32.791  1.00  0.00     0.010 A 
ATOM     41  C   UNL A   1      37.945  30.728  30.741  1.00  0.00     0.010 A 
ATOM     42  C   UNL A   1      39.053  30.174  31.406  1.00  0.00    -0.014 A 
BRANCH  42  43
ATOM     43  C   UNL A   1      40.198  29.671  30.621  1.00  0.00     0.031 A 
ATOM     44  C   UNL A   1      41.417  30.545  30.547  1.00  0.00     0.074 A 
ATOM     45  C   UNL A   1      40.161  28.480  30.000  1.00  0.00     0.049 A 
ATOM     46  N   UNL A   1      42.535  30.355  29.901  1.00  0.00    -0.248 NA
ATOM     47  C   UNL A   1      41.364  31.808  31.307  1.00  0.00     0.031 C 
ATOM     48  C   UNL A   1      39.039  27.545  30.024  1.00  0.00     0.029 A 
ATOM     49  N   UNL A   1      41.096  27.869  29.204  1.00  0.00    -0.354 N 
ATOM     50  C   UNL A   1      43.307  31.481  30.154  1.00  0.00     0.074 A 
ATOM     51  C   UNL A   1      42.530  32.355  31.002  1.00  0.00     0.031 C 
ATOM     52  C   UNL A   1      39.340  26.487  29.248  1.00  0.00     0.029 A 
ATOM     53  C   UNL A   1      40.661  26.688  28.653  1.00  0.00     0.049 A 
ATOM     54  H   UNL A   1      41.993  28.243  29.043  1.00  0.00     0.167 HD
ATOM     55  C   UNL A   1      44.559  31.759  29.726  1.00  0.00     0.034 A 
ATOM     56  C   UNL A   1      41.257  25.882  27.753  1.00  0.00     0.034 A 
ATOM     57  C   UNL A   1      45.323  30.889  28.879  1.00  0.00     0.049 A 
ATOM     58  C   UNL A   1      42.634  26.240  27.249  1.00  0.00     0.074 A 
ATOM     59  C   UNL A   1      46.611  31.062  28.407  1.00  0.00     0.029 A 
ATOM     60  N   UNL A   1      44.861  29.690  28.359  1.00  0.00    -0.354 N 
ATOM     61  N   UNL A   1      43.397  27.256  27.575  1.00  0.00    -0.248 NA
ATOM     62  C   UNL A   1      43.244  25.324  26.274  1.00  0.00     0.031 C 
ATOM     63  C   UNL A   1      46.915  29.983  27.571  1.00  0.00     0.029 A 
ATOM     64  C   UNL A   1      45.832  29.116  27.559  1.00  0.00     0.049 A 
ATOM     65  H   UNL A   1      43.973  29.303  28.533  1.00  0.00     0.167 HD
ATOM     66  C   UNL A   1      44.589  27.079  26.881  1.00  0.00     0.074 A 
ATOM     67  C   UNL A   1      44.453  25.849  26.128  1.00  0.00     0.031 C 
ATOM     68  C   UNL A   1      45.696  27.864  26.860  1.00  0.00     0.034 A 
BRANCH  55  69
ATOM     69  C   UNL A   1      45.173  33.058  30.172  1.00  0.00     0.023 A 
ATOM     70  C   UNL A   1      44.888  34.247  29.470  1.00  0.00     0.012 A 
ATOM     71  C   UNL A   1      46.005  33.106  31.307  1.00  0.00     0.148 A 
ATOM     72  C   UNL A   1      45.448  35.459  29.871  1.00  0.00     0.002 A 
ATOM     73  C   UNL A   1      46.519  34.324  31.730  1.00  0.00     0.091 A 
ATOM     74  F   UNL A   1      46.287  31.959  31.941  1.00  0.00    -0.205 F 
ATOM     75  C   UNL A   1      46.254  35.499  31.007  1.00  0.00     0.022 A 
BRANCH  73  76
ATOM     76  S   UNL A   1      47.501  34.494  33.223  1.00  0.00     0.127 S 
ATOM     77  O   UNL A   1      47.050  33.344  34.005  1.00  0.00    -0.237 OA
ATOM     78  O   UNL A   1      48.866  34.382  32.704  1.00  0.00    -0.237 OA
ATOM     79  O   UNL A   1      47.166  35.796  33.781  1.00  0.00    -0.744 OA
ENDBRANCH  73  76
ENDBRANCH  55  69
BRANCH  56  80
ATOM     80  C   UNL A   1      40.572  24.645  27.282  1.00  0.00     0.023 A 
ATOM     81  C   UNL A   1      39.333  24.745  26.618  1.00  0.00     0.012 A 
ATOM     82  C   UNL A   1      41.137  23.372  27.493  1.00  0.00     0.148 A 
ATOM     83  C   UNL A   1      38.654  23.599  26.203  1.00  0.00     0.002 A 
ATOM     84  C   UNL A   1      40.481  22.239  27.028  1.00  0.00     0.091 A 
ATOM     85  F   UNL A   1      42.308  23.297  28.140  1.00  0.00    -0.205 F 
ATOM     86  C   UNL A   1      39.232  22.347  26.400  1.00  0.00     0.022 A 
BRANCH  84  87
ATOM     87  S   UNL A   1      41.201  20.595  27.132  1.00  0.00     0.127 S 
ATOM     88  O   UNL A   1      40.632  19.945  25.953  1.00  0.00    -0.237 OA
ATOM     89  O   UNL A   1      42.631  20.890  27.042  1.00  0.00    -0.237 OA
ATOM     90  O   UNL A   1      40.775  20.057  28.415  1.00  0.00    -0.744 OA
ENDBRANCH  84  87
ENDBRANCH  56  80
BRANCH  68  91
ATOM     91  C   UNL A   1      46.874  27.400  26.041  1.00  0.00     0.023 A 
ATOM     92  C   UNL A   1      46.937  27.690  24.665  1.00  0.00     0.012 A 
ATOM     93  C   UNL A   1      47.958  26.746  26.661  1.00  0.00     0.148 A 
ATOM     94  C   UNL A   1      48.047  27.307  23.911  1.00  0.00     0.002 A 
ATOM     95  C   UNL A   1      49.083  26.417  25.916  1.00  0.00     0.091 A 
ATOM     96  F   UNL A   1      47.872  26.467  27.971  1.00  0.00    -0.205 F 
ATOM     97  C   UNL A   1      49.123  26.683  24.538  1.00  0.00     0.022 A 
BRANCH  95  98
ATOM     98  S   UNL A   1      50.556  25.706  26.657  1.00  0.00     0.127 S 
ATOM     99  O   UNL A   1      51.441  25.583  25.500  1.00  0.00    -0.237 OA
ATOM    100  O   UNL A   1      50.948  26.738  27.618  1.00  0.00    -0.237 OA
ATOM    101  O   UNL A   1      50.139  24.446  27.258  1.00  0.00    -0.744 OA
ENDBRANCH  95  98
ENDBRANCH  68  91
ENDBRANCH  42  43
ENDBRANCH  35  37
ENDBRANCH  34  35
ENDBRANCH  33  34
ENDBRANCH  32  33
ENDBRANCH  31  32
ENDBRANCH  30  31
ENDBRANCH  29  30
ENDBRANCH   1  29
TORSDOF 28
ENDMDL
MODEL 2
REMARK VINA RESULT:      -9.3      3.424      4.135
REMARK SMILES CC(C)(C)OC(=O)N1C[C@@H](Oc2cccnc2)C[C@H]1C(=O)OCCOCCOCCOCCOC(=O)c1ccc(-c2c3nc(c(-c4cccc(S(=O)(=O)[O-])c4F)c4ccc([nH]4)c(-c4cccc(S(=O)(=O)[O-])c4F)c4nc(c(-c5cccc(S(=O)(=O)[O-])c5F)c5ccc2[nH]5)C=C4)C=C3)cc1
REMARK SMILES IDX 28 1 27 2 26 3 25 4 24 5 23 6 22 7 20 8 21 9 19 10 8 11 9 12
REMARK SMILES IDX 10 13 18 14 6 15 7 16 5 17 2 18 1 19 3 20 4 21 11 22 12 23
REMARK SMILES IDX 13 24 17 25 14 26 16 27 15 28 29 29 30 30 31 31 32 32 33 33
REMARK SMILES IDX 34 34 35 35 36 36 37 37 38 38 99 39 39 40 98 41 40 42 41 43
REMARK SMILES IDX 42 44 92 45 43 46 97 47 91 48 93 49 44 50 96 51 90 52 89 53
REMARK SMILES IDX 45 55 77 56 57 57 76 58 58 59 61 60 75 61 94 62 59 63 60 64
REMARK SMILES IDX 74 66 95 67 62 68 46 69 47 70 55 71 48 72 50 73 56 74 49 75
REMARK SMILES IDX 51 76 52 77 53 78 54 79 78 80 79 81 87 82 80 83 82 84 88 85
REMARK SMILES IDX 81 86 83 87 84 88 85 89 86 90 63 91 64 92 72 93 65 94 67 95
REMARK SMILES IDX 73 96 66 97 68 98 69 99 70 100 71 101
REMARK H PARENT 93 54 61 65
REMARK Flexibility Score: inf
ROOT
ATOM      1  O   UNL A   1      33.571  34.194  29.112  1.00  0.00    -0.377 OA
ENDROOT
BRANCH   1   2
ATOM      2  C   UNL A   1      34.595  33.989  28.150  1.00  0.00     0.188 C 
BRANCH   2   3
ATOM      3  C   UNL A   1      35.407  32.668  28.073  1.00  0.00     0.188 C 
BRANCH   3   4
ATOM      4  O   UNL A   1      34.651  31.485  28.234  1.00  0.00    -0.376 OA
BRANCH   4   5
ATOM      5  C   UNL A   1      35.049  30.332  27.514  1.00  0.00     0.202 C 
BRANCH   5   6
ATOM      6  C   UNL A   1      34.054  29.171  27.406  1.00  0.00     0.261 C 
BRANCH   6   7
ATOM      7  O   UNL A   1      33.759  28.679  26.088  1.00  0.00    -0.462 OA
BRANCH   7   8
ATOM      8  C   UNL A   1      32.508  28.229  25.820  1.00  0.00     0.329 C 
ATOM      9  O   UNL A   1      31.519  28.442  26.514  1.00  0.00    -0.250 OA
BRANCH   8  10
ATOM     10  C   UNL A   1      32.494  27.474  24.470  1.00  0.00     0.202 C 
ATOM     11  N   UNL A   1      31.454  26.475  24.602  1.00  0.00    -0.291 N 
ATOM     12  C   UNL A   1      30.271  26.808  23.830  1.00  0.00     0.169 C 
ATOM     13  C   UNL A   1      30.841  27.626  22.674  1.00  0.00     0.195 C 
ATOM     14  C   UNL A   1      32.104  28.294  23.235  1.00  0.00     0.084 C 
BRANCH  11  15
ATOM     15  C   UNL A   1      31.650  25.494  25.530  1.00  0.00     0.411 C 
ATOM     16  O   UNL A   1      30.788  25.225  26.362  1.00  0.00    -0.224 OA
BRANCH  15  17
ATOM     17  O   UNL A   1      32.836  24.869  25.410  1.00  0.00    -0.444 OA
BRANCH  17  18
ATOM     18  C   UNL A   1      32.911  23.465  25.768  1.00  0.00     0.106 C 
ATOM     19  C   UNL A   1      31.930  22.779  24.814  1.00  0.00     0.056 C 
ATOM     20  C   UNL A   1      32.434  23.318  27.216  1.00  0.00     0.056 C 
ATOM     21  C   UNL A   1      34.294  22.815  25.571  1.00  0.00     0.056 C 
ENDBRANCH  17  18
ENDBRANCH  15  17
ENDBRANCH  11  15
BRANCH  13  22
ATOM     22  O   UNL A   1      29.912  28.425  21.941  1.00  0.00    -0.487 OA
BRANCH  22  23
ATOM     23  C   UNL A   1      29.159  29.408  22.503  1.00  0.00     0.138 A 
ATOM     24  C   UNL A   1      29.590  30.675  22.874  1.00  0.00     0.050 A 
ATOM     25  C   UNL A   1      27.833  29.088  22.788  1.00  0.00     0.157 A 
ATOM     26  C   UNL A   1      28.686  31.572  23.450  1.00  0.00     0.024 A 
ATOM     27  N   UNL A   1      26.932  29.929  23.358  1.00  0.00    -0.261 NA
ATOM     28  C   UNL A   1      27.382  31.161  23.670  1.00  0.00     0.111 A 
ENDBRANCH  22  23
ENDBRANCH  13  22
ENDBRANCH   8  10
ENDBRANCH   7   8
ENDBRANCH   6   7
ENDBRANCH   5   6
ENDBRANCH   4   5
ENDBRANCH   3   4
ENDBRANCH   2   3
ENDBRANCH   1   2
BRANCH   1  29
ATOM     29  C   UNL A   1      33.054  35.499  29.285  1.00  0.00     0.188 C 
BRANCH  29  30
ATOM     30  C   UNL A   1      33.020  36.039  30.729  1.00  0.00     0.188 C 
BRANCH  30  31
ATOM     31  O   UNL A   1      32.932  35.031  31.724  1.00  0.00    -0.376 OA
BRANCH  31  32
ATOM     32  C   UNL A   1      34.084  34.616  32.429  1.00  0.00     0.202 C 
BRANCH  32  33
ATOM     33  C   UNL A   1      34.092  33.263  33.154  1.00  0.00     0.261 C 
BRANCH  33  34
ATOM     34  O   UNL A   1      35.317  32.530  33.131  1.00  0.00    -0.460 OA
BRANCH  34  35
ATOM     35  C   UNL A   1      36.298  32.945  33.965  1.00  0.00     0.338 C 
ATOM     36  O   UNL A   1      36.170  33.524  35.017  1.00  0.00    -0.246 OA
BRANCH  35  37
ATOM     37  C   UNL A   1      37.556  32.360  33.450  1.00  0.00     0.060 A 
ATOM     38  C   UNL A   1      38.709  32.430  34.245  1.00  0.00     0.016 A 
ATOM     39  C   UNL A   1      37.572  31.691  32.223  1.00  0.00     0.016 A 
ATOM     40  C   UNL A   1      39.884  31.817  33.817  1.00  0.00     0.010 A 
ATOM     41  C   UNL A   1      38.762  31.124  31.772  1.00  0.00     0.010 A 
ATOM     42  C   UNL A   1      39.925  31.208  32.558  1.00  0.00    -0.014 A 
BRANCH  42  43
ATOM     43  C   UNL A   1      41.236  30.897  31.954  1.00  0.00     0.031 A 
ATOM     44  C   UNL A   1      41.829  31.923  31.032  1.00  0.00     0.074 A 
ATOM     45  C   UNL A   1      41.881  29.747  32.217  1.00  0.00     0.049 A 
ATOM     46  N   UNL A   1      42.941  31.882  30.351  1.00  0.00    -0.248 NA
ATOM     47  C   UNL A   1      41.057  33.167  30.855  1.00  0.00     0.031 C 
ATOM     48  C   UNL A   1      41.408  28.694  33.112  1.00  0.00     0.029 A 
ATOM     49  N   UNL A   1      43.070  29.271  31.729  1.00  0.00    -0.354 N 
ATOM     50  C   UNL A   1      42.992  33.077  29.647  1.00  0.00     0.074 A 
ATOM     51  C   UNL A   1      41.795  33.819  29.971  1.00  0.00     0.031 C 
ATOM     52  C   UNL A   1      42.287  27.675  33.084  1.00  0.00     0.029 A 
ATOM     53  C   UNL A   1      43.365  27.996  32.150  1.00  0.00     0.049 A 
ATOM     54  H   UNL A   1      43.656  29.791  31.133  1.00  0.00     0.167 HD
ATOM     55  C   UNL A   1      43.955  33.523  28.809  1.00  0.00     0.034 A 
ATOM     56  C   UNL A   1      44.377  27.180  31.795  1.00  0.00     0.034 A 
ATOM     57  C   UNL A   1      45.138  32.779  28.487  1.00  0.00     0.049 A 
ATOM     58  C   UNL A   1      45.412  27.681  30.819  1.00  0.00     0.074 A 
ATOM     59  C   UNL A   1      46.190  33.148  27.670  1.00  0.00     0.029 A 
ATOM     60  N   UNL A   1      45.415  31.501  28.949  1.00  0.00    -0.354 N 
ATOM     61  N   UNL A   1      45.504  28.853  30.238  1.00  0.00    -0.248 NA
ATOM     62  C   UNL A   1      46.501  26.755  30.471  1.00  0.00     0.031 C 
ATOM     63  C   UNL A   1      47.088  32.078  27.610  1.00  0.00     0.029 A 
ATOM     64  C   UNL A   1      46.617  31.060  28.425  1.00  0.00     0.049 A 
ATOM     65  H   UNL A   1      44.842  30.985  29.560  1.00  0.00     0.167 HD
ATOM     66  C   UNL A   1      46.679  28.822  29.492  1.00  0.00     0.074 A 
ATOM     67  C   UNL A   1      47.272  27.518  29.708  1.00  0.00     0.031 C 
ATOM     68  C   UNL A   1      47.217  29.778  28.695  1.00  0.00     0.034 A 
BRANCH  55  69
ATOM     69  C   UNL A   1      43.762  34.881  28.190  1.00  0.00     0.023 A 
ATOM     70  C   UNL A   1      43.132  34.995  26.934  1.00  0.00     0.012 A 
ATOM     71  C   UNL A   1      44.174  36.044  28.867  1.00  0.00     0.148 A 
ATOM     72  C   UNL A   1      42.945  36.246  26.346  1.00  0.00     0.002 A 
ATOM     73  C   UNL A   1      43.940  37.289  28.298  1.00  0.00     0.091 A 
ATOM     74  F   UNL A   1      44.798  35.910  30.046  1.00  0.00    -0.205 F 
ATOM     75  C   UNL A   1      43.339  37.392  27.033  1.00  0.00     0.022 A 
BRANCH  73  76
ATOM     76  S   UNL A   1      44.337  38.826  29.136  1.00  0.00     0.127 S 
ATOM     77  O   UNL A   1      43.022  39.457  29.233  1.00  0.00    -0.237 OA
ATOM     78  O   UNL A   1      44.880  38.347  30.409  1.00  0.00    -0.237 OA
ATOM     79  O   UNL A   1      45.297  39.514  28.285  1.00  0.00    -0.744 OA
ENDBRANCH  73  76
ENDBRANCH  55  69
BRANCH  56  80
ATOM     80  C   UNL A   1      44.480  25.813  32.380  1.00  0.00     0.023 A 
ATOM     81  C   UNL A   1      44.043  24.702  31.632  1.00  0.00     0.012 A 
ATOM     82  C   UNL A   1      45.002  25.608  33.672  1.00  0.00     0.148 A 
ATOM     83  C   UNL A   1      44.093  23.416  32.173  1.00  0.00     0.002 A 
ATOM     84  C   UNL A   1      45.100  24.319  34.182  1.00  0.00     0.091 A 
ATOM     85  F   UNL A   1      45.398  26.679  34.373  1.00  0.00    -0.205 F 
ATOM     86  C   UNL A   1      44.629  23.224  33.444  1.00  0.00     0.022 A 
BRANCH  84  87
ATOM     87  S   UNL A   1      45.882  23.962  35.760  1.00  0.00     0.127 S 
ATOM     88  O   UNL A   1      45.519  22.561  35.963  1.00  0.00    -0.237 OA
ATOM     89  O   UNL A   1      47.294  24.194  35.452  1.00  0.00    -0.237 OA
ATOM     90  O   UNL A   1      45.309  24.905  36.708  1.00  0.00    -0.744 OA
ENDBRANCH  84  87
ENDBRANCH  56  80
BRANCH  68  91
ATOM     91  C   UNL A   1      48.539  29.483  28.034  1.00  0.00     0.023 A 
ATOM     92  C   UNL A   1      49.744  29.798  28.691  1.00  0.00     0.012 A 
ATOM     93  C   UNL A   1      48.581  28.815  26.793  1.00  0.00     0.148 A 
ATOM     94  C   UNL A   1      50.972  29.483  28.107  1.00  0.00     0.002 A 
ATOM     95  C   UNL A   1      49.806  28.456  26.244  1.00  0.00     0.091 A 
ATOM     96  F   UNL A   1      47.422  28.537  26.178  1.00  0.00    -0.205 F 
ATOM     97  C   UNL A   1      51.002  28.802  26.892  1.00  0.00     0.022 A 
BRANCH  95  98
ATOM     98  S   UNL A   1      49.939  27.488  24.737  1.00  0.00     0.127 S 
ATOM     99  O   UNL A   1      51.332  27.722  24.357  1.00  0.00    -0.237 OA
ATOM    100  O   UNL A   1      49.656  26.134  25.214  1.00  0.00    -0.237 OA
ATOM    101  O   UNL A   1      48.945  28.028  23.820  1.00  0.00    -0.744 OA
ENDBRANCH  95  98
ENDBRANCH  68  91
ENDBRANCH  42  43
ENDBRANCH  35  37
ENDBRANCH  34  35
ENDBRANCH  33  34
ENDBRANCH  32  33
ENDBRANCH  31  32
ENDBRANCH  30  31
ENDBRANCH  29  30
ENDBRANCH   1  29
TORSDOF 28
ENDMDL
MODEL 3
REMARK VINA RESULT:      -9.1      3.799      9.363
REMARK SMILES CC(C)(C)OC(=O)N1C[C@@H](Oc2cccnc2)C[C@H]1C(=O)OCCOCCOCCOCCOC(=O)c1ccc(-c2c3nc(c(-c4cccc(S(=O)(=O)[O-])c4F)c4ccc([nH]4)c(-c4cccc(S(=O)(=O)[O-])c4F)c4nc(c(-c5cccc(S(=O)(=O)[O-])c5F)c5ccc2[nH]5)C=C4)C=C3)cc1
REMARK SMILES IDX 28 1 27 2 26 3 25 4 24 5 23 6 22 7 20 8 21 9 19 10 8 11 9 12
REMARK SMILES IDX 10 13 18 14 6 15 7 16 5 17 2 18 1 19 3 20 4 21 11 22 12 23
REMARK SMILES IDX 13 24 17 25 14 26 16 27 15 28 29 29 30 30 31 31 32 32 33 33
REMARK SMILES IDX 34 34 35 35 36 36 37 37 38 38 99 39 39 40 98 41 40 42 41 43
REMARK SMILES IDX 42 44 92 45 43 46 97 47 91 48 93 49 44 50 96 51 90 52 89 53
REMARK SMILES IDX 45 55 77 56 57 57 76 58 58 59 61 60 75 61 94 62 59 63 60 64
REMARK SMILES IDX 74 66 95 67 62 68 46 69 47 70 55 71 48 72 50 73 56 74 49 75
REMARK SMILES IDX 51 76 52 77 53 78 54 79 78 80 79 81 87 82 80 83 82 84 88 85
REMARK SMILES IDX 81 86 83 87 84 88 85 89 86 90 63 91 64 92 72 93 65 94 67 95
REMARK SMILES IDX 73 96 66 97 68 98 69 99 70 100 71 101
REMARK H PARENT 93 54 61 65
REMARK Flexibility Score: inf
ROOT
ATOM      1  O   UNL A   1      33.232  34.298  29.578  1.00  0.00    -0.377 OA
ENDROOT
BRANCH   1   2
ATOM      2  C   UNL A   1      34.471  33.668  29.287  1.00  0.00     0.188 C 
BRANCH   2   3
ATOM      3  C   UNL A   1      34.564  32.175  28.872  1.00  0.00     0.188 C 
BRANCH   3   4
ATOM      4  O   UNL A   1      34.178  31.893  27.542  1.00  0.00    -0.376 OA
BRANCH   4   5
ATOM      5  C   UNL A   1      33.182  30.910  27.326  1.00  0.00     0.202 C 
BRANCH   5   6
ATOM      6  C   UNL A   1      33.461  29.817  26.287  1.00  0.00     0.261 C 
BRANCH   6   7
ATOM      7  O   UNL A   1      32.347  29.356  25.505  1.00  0.00    -0.462 OA
BRANCH   7   8
ATOM      8  C   UNL A   1      32.370  28.093  25.011  1.00  0.00     0.329 C 
ATOM      9  O   UNL A   1      33.386  27.438  24.798  1.00  0.00    -0.250 OA
BRANCH   8  10
ATOM     10  C   UNL A   1      30.926  27.569  24.827  1.00  0.00     0.202 C 
ATOM     11  N   UNL A   1      30.615  27.788  23.430  1.00  0.00    -0.291 N 
ATOM     12  C   UNL A   1      30.602  26.551  22.670  1.00  0.00     0.169 C 
ATOM     13  C   UNL A   1      30.197  25.516  23.716  1.00  0.00     0.195 C 
ATOM     14  C   UNL A   1      30.714  26.067  25.052  1.00  0.00     0.084 C 
BRANCH  11  15
ATOM     15  C   UNL A   1      30.555  29.082  23.003  1.00  0.00     0.411 C 
ATOM     16  O   UNL A   1      31.281  29.487  22.099  1.00  0.00    -0.224 OA
BRANCH  15  17
ATOM     17  O   UNL A   1      29.629  29.818  23.645  1.00  0.00    -0.444 OA
BRANCH  17  18
ATOM     18  C   UNL A   1      28.343  30.015  23.004  1.00  0.00     0.106 C 
ATOM     19  C   UNL A   1      28.691  30.294  21.539  1.00  0.00     0.056 C 
ATOM     20  C   UNL A   1      27.682  31.245  23.635  1.00  0.00     0.056 C 
ATOM     21  C   UNL A   1      27.401  28.798  23.042  1.00  0.00     0.056 C 
ENDBRANCH  17  18
ENDBRANCH  15  17
ENDBRANCH  11  15
BRANCH  13  22
ATOM     22  O   UNL A   1      30.458  24.150  23.393  1.00  0.00    -0.487 OA
BRANCH  22  23
ATOM     23  C   UNL A   1      31.669  23.555  23.565  1.00  0.00     0.138 A 
ATOM     24  C   UNL A   1      32.828  23.808  22.845  1.00  0.00     0.050 A 
ATOM     25  C   UNL A   1      31.734  22.547  24.526  1.00  0.00     0.157 A 
ATOM     26  C   UNL A   1      33.997  23.101  23.143  1.00  0.00     0.024 A 
ATOM     27  N   UNL A   1      32.847  21.832  24.833  1.00  0.00    -0.261 NA
ATOM     28  C   UNL A   1      33.960  22.134  24.135  1.00  0.00     0.111 A 
ENDBRANCH  22  23
ENDBRANCH  13  22
ENDBRANCH   8  10
ENDBRANCH   7   8
ENDBRANCH   6   7
ENDBRANCH   5   6
ENDBRANCH   4   5
ENDBRANCH   3   4
ENDBRANCH   2   3
ENDBRANCH   1   2
BRANCH   1  29
ATOM     29  C   UNL A   1      33.219  35.691  29.818  1.00  0.00     0.188 C 
BRANCH  29  30
ATOM     30  C   UNL A   1      32.935  36.136  31.267  1.00  0.00     0.188 C 
BRANCH  30  31
ATOM     31  O   UNL A   1      32.946  35.078  32.212  1.00  0.00    -0.376 OA
BRANCH  31  32
ATOM     32  C   UNL A   1      34.137  34.730  32.887  1.00  0.00     0.202 C 
BRANCH  32  33
ATOM     33  C   UNL A   1      34.402  33.267  33.269  1.00  0.00     0.261 C 
BRANCH  33  34
ATOM     34  O   UNL A   1      35.768  32.881  33.425  1.00  0.00    -0.460 OA
BRANCH  34  35
ATOM     35  C   UNL A   1      36.423  33.362  34.508  1.00  0.00     0.338 C 
ATOM     36  O   UNL A   1      36.007  33.445  35.638  1.00  0.00    -0.246 OA
BRANCH  35  37
ATOM     37  C   UNL A   1      37.827  33.563  34.086  1.00  0.00     0.060 A 
ATOM     38  C   UNL A   1      38.080  34.203  32.864  1.00  0.00     0.016 A 
ATOM     39  C   UNL A   1      38.877  33.183  34.926  1.00  0.00     0.016 A 
ATOM     40  C   UNL A   1      39.392  34.475  32.483  1.00  0.00     0.010 A 
ATOM     41  C   UNL A   1      40.190  33.408  34.519  1.00  0.00     0.010 A 
ATOM     42  C   UNL A   1      40.449  34.032  33.286  1.00  0.00    -0.014 A 
BRANCH  42  43
ATOM     43  C   UNL A   1      41.811  33.985  32.716  1.00  0.00     0.031 A 
ATOM     44  C   UNL A   1      42.153  32.805  31.852  1.00  0.00     0.074 A 
ATOM     45  C   UNL A   1      42.710  34.955  32.952  1.00  0.00     0.049 A 
ATOM     46  N   UNL A   1      43.279  32.507  31.265  1.00  0.00    -0.248 NA
ATOM     47  C   UNL A   1      41.073  31.827  31.623  1.00  0.00     0.031 C 
ATOM     48  C   UNL A   1      42.477  36.152  33.756  1.00  0.00     0.029 A 
ATOM     49  N   UNL A   1      44.017  35.064  32.548  1.00  0.00    -0.354 N 
ATOM     50  C   UNL A   1      43.053  31.298  30.618  1.00  0.00     0.074 A 
ATOM     51  C   UNL A   1      41.689  30.911  30.893  1.00  0.00     0.031 C 
ATOM     52  C   UNL A   1      43.618  36.863  33.814  1.00  0.00     0.029 A 
ATOM     53  C   UNL A   1      44.663  36.156  33.075  1.00  0.00     0.049 A 
ATOM     54  H   UNL A   1      44.449  34.421  31.941  1.00  0.00     0.167 HD
ATOM     55  C   UNL A   1      43.905  30.579  29.854  1.00  0.00     0.034 A 
ATOM     56  C   UNL A   1      45.958  36.520  32.987  1.00  0.00     0.034 A 
ATOM     57  C   UNL A   1      45.261  30.967  29.590  1.00  0.00     0.049 A 
ATOM     58  C   UNL A   1      46.902  35.672  32.171  1.00  0.00     0.074 A 
ATOM     59  C   UNL A   1      46.203  30.324  28.808  1.00  0.00     0.029 A 
ATOM     60  N   UNL A   1      45.876  32.091  30.120  1.00  0.00    -0.354 N 
ATOM     61  N   UNL A   1      46.653  34.587  31.479  1.00  0.00    -0.248 NA
ATOM     62  C   UNL A   1      48.302  36.117  32.100  1.00  0.00     0.031 C 
ATOM     63  C   UNL A   1      47.400  31.041  28.894  1.00  0.00     0.029 A 
ATOM     64  C   UNL A   1      47.191  32.155  29.694  1.00  0.00     0.049 A 
ATOM     65  H   UNL A   1      45.443  32.746  30.712  1.00  0.00     0.167 HD
ATOM     66  C   UNL A   1      47.849  34.243  30.857  1.00  0.00     0.074 A 
ATOM     67  C   UNL A   1      48.820  35.247  31.243  1.00  0.00     0.031 C 
ATOM     68  C   UNL A   1      48.126  33.191  30.047  1.00  0.00     0.034 A 
BRANCH  55  69
ATOM     69  C   UNL A   1      43.387  29.301  29.251  1.00  0.00     0.023 A 
ATOM     70  C   UNL A   1      43.425  28.107  29.999  1.00  0.00     0.012 A 
ATOM     71  C   UNL A   1      42.831  29.292  27.958  1.00  0.00     0.148 A 
ATOM     72  C   UNL A   1      42.949  26.914  29.455  1.00  0.00     0.002 A 
ATOM     73  C   UNL A   1      42.313  28.112  27.442  1.00  0.00     0.091 A 
ATOM     74  F   UNL A   1      42.832  30.433  27.254  1.00  0.00    -0.205 F 
ATOM     75  C   UNL A   1      42.383  26.920  28.183  1.00  0.00     0.022 A 
BRANCH  73  76
ATOM     76  S   UNL A   1      41.493  28.030  25.847  1.00  0.00     0.127 S 
ATOM     77  O   UNL A   1      40.391  28.972  26.033  1.00  0.00    -0.237 OA
ATOM     78  O   UNL A   1      42.545  28.493  24.940  1.00  0.00    -0.237 OA
ATOM     79  O   UNL A   1      41.100  26.640  25.665  1.00  0.00    -0.744 OA
ENDBRANCH  73  76
ENDBRANCH  55  69
BRANCH  56  80
ATOM     80  C   UNL A   1      46.439  37.755  33.669  1.00  0.00     0.023 A 
ATOM     81  C   UNL A   1      47.066  37.656  34.927  1.00  0.00     0.012 A 
ATOM     82  C   UNL A   1      46.275  39.025  33.082  1.00  0.00     0.148 A 
ATOM     83  C   UNL A   1      47.490  38.801  35.603  1.00  0.00     0.002 A 
ATOM     84  C   UNL A   1      46.749  40.156  33.736  1.00  0.00     0.091 A 
ATOM     85  F   UNL A   1      45.662  39.100  31.893  1.00  0.00    -0.205 F 
ATOM     86  C   UNL A   1      47.339  40.049  35.004  1.00  0.00     0.022 A 
BRANCH  84  87
ATOM     87  S   UNL A   1      46.705  41.791  32.992  1.00  0.00     0.127 S 
ATOM     88  O   UNL A   1      45.272  42.079  32.989  1.00  0.00    -0.237 OA
ATOM     89  O   UNL A   1      47.488  42.574  33.948  1.00  0.00    -0.237 OA
ATOM     90  O   UNL A   1      47.321  41.647  31.682  1.00  0.00    -0.744 OA
ENDBRANCH  84  87
ENDBRANCH  56  80
BRANCH  68  91
ATOM     91  C   UNL A   1      49.517  33.090  29.473  1.00  0.00     0.023 A 
ATOM     92  C   UNL A   1      50.515  32.372  30.160  1.00  0.00     0.012 A 
ATOM     93  C   UNL A   1      49.806  33.639  28.208  1.00  0.00     0.148 A 
ATOM     94  C   UNL A   1      51.790  32.232  29.612  1.00  0.00     0.002 A 
ATOM     95  C   UNL A   1      51.061  33.449  27.643  1.00  0.00     0.091 A 
ATOM     96  F   UNL A   1      48.845  34.331  27.576  1.00  0.00    -0.205 F 
ATOM     97  C   UNL A   1      52.059  32.759  28.350  1.00  0.00     0.022 A 
BRANCH  95  98
ATOM     98  S   UNL A   1      51.465  34.002  25.984  1.00  0.00     0.127 S 
ATOM     99  O   UNL A   1      51.389  35.455  26.127  1.00  0.00    -0.237 OA
ATOM    100  O   UNL A   1      52.819  33.476  25.804  1.00  0.00    -0.237 OA
ATOM    101  O   UNL A   1      50.465  33.410  25.105  1.00  0.00    -0.744 OA
ENDBRANCH  95  98
ENDBRANCH  68  91
ENDBRANCH  42  43
ENDBRANCH  35  37
ENDBRANCH  34  35
ENDBRANCH  33  34
ENDBRANCH  32  33
ENDBRANCH  31  32
ENDBRANCH  30  31
ENDBRANCH  29  30
ENDBRANCH   1  29
TORSDOF 28
ENDMDL
