MODEL 1
REMARK VINA RESULT:     -10.2      0.000      0.000
REMARK SMILES O=C(OCCOCCOCCOCCOC(=O)[C@@H]1CSCN1C(=O)c1cccc(Cl)c1)c1ccc(-c2c3nc(c(-c4cccc(S(=O)(=O)[O-])c4F)c4ccc([nH]4)c(-c4cccc(S(=O)(=O)[O-])c4F)c4nc(c(-c5cccc(S(=O)(=O)[O-])c5F)c5ccc2[nH]5)C=C4)C=C3)cc1
REMARK SMILES IDX 8 1 7 2 6 3 5 4 4 5 3 6 2 7 1 8 32 9 33 10 94 11 34 12 93 13
REMARK SMILES IDX 35 14 36 15 37 16 87 17 38 18 92 19 86 20 88 21 39 22 91 23
REMARK SMILES IDX 85 24 84 25 40 27 72 28 52 29 71 30 53 31 56 32 70 33 89 34
REMARK SMILES IDX 54 35 55 36 69 38 90 39 57 40 41 41 42 42 50 43 43 44 45 45
REMARK SMILES IDX 51 46 44 47 46 48 47 49 48 50 49 51 73 52 74 53 82 54 75 55
REMARK SMILES IDX 77 56 83 57 76 58 78 59 79 60 80 61 81 62 58 63 59 64 67 65
REMARK SMILES IDX 60 66 62 67 68 68 61 69 63 70 64 71 65 72 66 73 9 74 10 75
REMARK SMILES IDX 11 76 12 77 13 78 14 79 15 80 16 81 17 82 18 83 19 84 22 85
REMARK SMILES IDX 20 86 21 87 23 88 24 89 25 90 26 91 31 92 27 93 29 94 28 95
REMARK SMILES IDX 30 96
REMARK H PARENT 88 26 56 37
REMARK Flexibility Score: inf
ROOT
ATOM      1  C   UNL A   1      33.276  27.601  24.683  1.00  0.00     0.188 C 
ENDROOT
BRANCH   1   2
ATOM      2  C   UNL A   1      32.298  28.746  24.425  1.00  0.00     0.188 C 
BRANCH   2   3
ATOM      3  O   UNL A   1      32.717  29.945  25.083  1.00  0.00    -0.376 OA
BRANCH   3   4
ATOM      4  C   UNL A   1      31.775  30.579  25.950  1.00  0.00     0.202 C 
BRANCH   4   5
ATOM      5  C   UNL A   1      32.349  31.183  27.228  1.00  0.00     0.261 C 
BRANCH   5   6
ATOM      6  O   UNL A   1      32.396  32.610  27.198  1.00  0.00    -0.460 OA
BRANCH   6   7
ATOM      7  C   UNL A   1      33.160  33.433  27.959  1.00  0.00     0.338 C 
ATOM      8  O   UNL A   1      32.826  34.618  28.005  1.00  0.00    -0.246 OA
BRANCH   7   9
ATOM      9  C   UNL A   1      34.419  33.029  28.680  1.00  0.00     0.060 A 
ATOM     10  C   UNL A   1      35.717  33.010  28.152  1.00  0.00     0.016 A 
ATOM     11  C   UNL A   1      34.271  32.685  30.036  1.00  0.00     0.016 A 
ATOM     12  C   UNL A   1      36.822  32.665  28.911  1.00  0.00     0.010 A 
ATOM     13  C   UNL A   1      35.366  32.278  30.800  1.00  0.00     0.010 A 
ATOM     14  C   UNL A   1      36.634  32.234  30.214  1.00  0.00    -0.014 A 
BRANCH  14  15
ATOM     15  C   UNL A   1      37.708  31.422  30.793  1.00  0.00     0.031 A 
ATOM     16  C   UNL A   1      38.037  31.690  32.228  1.00  0.00     0.074 A 
ATOM     17  C   UNL A   1      38.262  30.423  30.095  1.00  0.00     0.049 A 
ATOM     18  N   UNL A   1      39.012  31.231  32.956  1.00  0.00    -0.248 NA
ATOM     19  C   UNL A   1      37.125  32.602  32.948  1.00  0.00     0.031 C 
ATOM     20  C   UNL A   1      37.863  30.007  28.750  1.00  0.00     0.029 A 
ATOM     21  N   UNL A   1      39.290  29.584  30.421  1.00  0.00    -0.354 N 
ATOM     22  C   UNL A   1      38.878  31.858  34.188  1.00  0.00     0.074 A 
ATOM     23  C   UNL A   1      37.707  32.696  34.130  1.00  0.00     0.031 C 
ATOM     24  C   UNL A   1      38.676  29.019  28.344  1.00  0.00     0.029 A 
ATOM     25  C   UNL A   1      39.685  28.790  29.372  1.00  0.00     0.049 A 
ATOM     26  H   UNL A   1      39.705  29.553  31.314  1.00  0.00     0.167 HD
ATOM     27  C   UNL A   1      39.692  31.756  35.260  1.00  0.00     0.034 A 
ATOM     28  C   UNL A   1      40.787  28.028  29.253  1.00  0.00     0.034 A 
ATOM     29  C   UNL A   1      40.854  30.917  35.257  1.00  0.00     0.049 A 
ATOM     30  C   UNL A   1      41.727  27.979  30.428  1.00  0.00     0.074 A 
ATOM     31  C   UNL A   1      41.801  30.742  36.242  1.00  0.00     0.029 A 
ATOM     32  N   UNL A   1      41.228  30.120  34.181  1.00  0.00    -0.354 N 
ATOM     33  N   UNL A   1      41.623  28.587  31.588  1.00  0.00    -0.248 NA
ATOM     34  C   UNL A   1      42.921  27.139  30.295  1.00  0.00     0.031 C 
ATOM     35  C   UNL A   1      42.773  29.866  35.744  1.00  0.00     0.029 A 
ATOM     36  C   UNL A   1      42.399  29.454  34.470  1.00  0.00     0.049 A 
ATOM     37  H   UNL A   1      40.729  30.041  33.335  1.00  0.00     0.167 HD
ATOM     38  C   UNL A   1      42.715  28.176  32.340  1.00  0.00     0.074 A 
ATOM     39  C   UNL A   1      43.468  27.263  31.498  1.00  0.00     0.031 C 
ATOM     40  C   UNL A   1      43.071  28.515  33.604  1.00  0.00     0.034 A 
BRANCH  27  41
ATOM     41  C   UNL A   1      39.383  32.638  36.439  1.00  0.00     0.023 A 
ATOM     42  C   UNL A   1      40.077  33.850  36.632  1.00  0.00     0.012 A 
ATOM     43  C   UNL A   1      38.448  32.219  37.406  1.00  0.00     0.148 A 
ATOM     44  C   UNL A   1      39.888  34.600  37.795  1.00  0.00     0.002 A 
ATOM     45  C   UNL A   1      38.227  32.996  38.535  1.00  0.00     0.091 A 
ATOM     46  F   UNL A   1      37.825  31.045  37.225  1.00  0.00    -0.205 F 
ATOM     47  C   UNL A   1      38.959  34.177  38.742  1.00  0.00     0.022 A 
BRANCH  45  48
ATOM     48  S   UNL A   1      37.005  32.567  39.777  1.00  0.00     0.127 S 
ATOM     49  O   UNL A   1      37.493  31.265  40.234  1.00  0.00    -0.237 OA
ATOM     50  O   UNL A   1      37.161  33.651  40.747  1.00  0.00    -0.237 OA
ATOM     51  O   UNL A   1      35.721  32.546  39.090  1.00  0.00    -0.744 OA
ENDBRANCH  45  48
ENDBRANCH  27  41
BRANCH  28  52
ATOM     52  C   UNL A   1      41.053  27.302  27.979  1.00  0.00     0.023 A 
ATOM     53  C   UNL A   1      41.519  28.005  26.853  1.00  0.00     0.012 A 
ATOM     54  C   UNL A   1      40.912  25.900  27.902  1.00  0.00     0.148 A 
ATOM     55  C   UNL A   1      41.825  27.329  25.670  1.00  0.00     0.002 A 
ATOM     56  C   UNL A   1      41.269  25.227  26.740  1.00  0.00     0.091 A 
ATOM     57  F   UNL A   1      40.455  25.249  28.982  1.00  0.00    -0.205 F 
ATOM     58  C   UNL A   1      41.713  25.941  25.617  1.00  0.00     0.022 A 
BRANCH  56  59
ATOM     59  S   UNL A   1      41.277  23.434  26.622  1.00  0.00     0.127 S 
ATOM     60  O   UNL A   1      42.186  23.213  25.499  1.00  0.00    -0.237 OA
ATOM     61  O   UNL A   1      41.809  23.050  27.930  1.00  0.00    -0.237 OA
ATOM     62  O   UNL A   1      39.893  23.044  26.395  1.00  0.00    -0.744 OA
ENDBRANCH  56  59
ENDBRANCH  28  52
BRANCH  40  63
ATOM     63  C   UNL A   1      44.282  27.843  34.184  1.00  0.00     0.023 A 
ATOM     64  C   UNL A   1      45.536  28.477  34.135  1.00  0.00     0.012 A 
ATOM     65  C   UNL A   1      44.125  26.645  34.908  1.00  0.00     0.148 A 
ATOM     66  C   UNL A   1      46.628  27.916  34.793  1.00  0.00     0.002 A 
ATOM     67  C   UNL A   1      45.203  26.125  35.608  1.00  0.00     0.091 A 
ATOM     68  F   UNL A   1      42.919  26.059  34.920  1.00  0.00    -0.205 F 
ATOM     69  C   UNL A   1      46.458  26.752  35.543  1.00  0.00     0.022 A 
BRANCH  67  70
ATOM     70  S   UNL A   1      45.041  24.707  36.697  1.00  0.00     0.127 S 
ATOM     71  O   UNL A   1      44.425  23.722  35.811  1.00  0.00    -0.237 OA
ATOM     72  O   UNL A   1      46.433  24.430  37.049  1.00  0.00    -0.237 OA
ATOM     73  O   UNL A   1      44.211  25.146  37.812  1.00  0.00    -0.744 OA
ENDBRANCH  67  70
ENDBRANCH  40  63
ENDBRANCH  14  15
ENDBRANCH   7   9
ENDBRANCH   6   7
ENDBRANCH   5   6
ENDBRANCH   4   5
ENDBRANCH   3   4
ENDBRANCH   2   3
ENDBRANCH   1   2
BRANCH   1  74
ATOM     74  O   UNL A   1      33.070  26.875  25.885  1.00  0.00    -0.377 OA
BRANCH  74  75
ATOM     75  C   UNL A   1      31.767  26.935  26.428  1.00  0.00     0.188 C 
BRANCH  75  76
ATOM     76  C   UNL A   1      30.556  26.553  25.539  1.00  0.00     0.188 C 
BRANCH  76  77
ATOM     77  O   UNL A   1      30.211  25.203  25.402  1.00  0.00    -0.376 OA
BRANCH  77  78
ATOM     78  C   UNL A   1      30.389  24.520  24.179  1.00  0.00     0.202 C 
BRANCH  78  79
ATOM     79  C   UNL A   1      31.604  24.668  23.235  1.00  0.00     0.261 C 
BRANCH  79  80
ATOM     80  O   UNL A   1      32.277  23.501  22.739  1.00  0.00    -0.462 OA
BRANCH  80  81
ATOM     81  C   UNL A   1      33.597  23.372  23.034  1.00  0.00     0.329 C 
ATOM     82  O   UNL A   1      34.477  23.285  22.185  1.00  0.00    -0.250 OA
BRANCH  81  83
ATOM     83  C   UNL A   1      33.846  23.420  24.572  1.00  0.00     0.206 C 
ATOM     84  C   UNL A   1      35.126  24.098  25.098  1.00  0.00     0.108 C 
ATOM     85  N   UNL A   1      33.932  22.022  24.972  1.00  0.00    -0.315 N 
ATOM     86  S   UNL A   1      36.182  22.820  25.837  1.00  0.00    -0.138 SA
ATOM     87  C   UNL A   1      35.292  21.521  24.975  1.00  0.00     0.191 C 
BRANCH  85  88
ATOM     88  C   UNL A   1      32.756  21.312  25.092  1.00  0.00     0.255 C 
ATOM     89  O   UNL A   1      31.750  21.739  25.617  1.00  0.00    -0.269 OA
BRANCH  88  90
ATOM     90  C   UNL A   1      32.747  19.974  24.501  1.00  0.00     0.041 A 
ATOM     91  C   UNL A   1      32.491  19.825  23.136  1.00  0.00     0.014 A 
ATOM     92  C   UNL A   1      32.920  18.882  25.348  1.00  0.00     0.034 A 
ATOM     93  C   UNL A   1      32.352  18.547  22.613  1.00  0.00     0.002 A 
ATOM     94  C   UNL A   1      32.803  17.611  24.808  1.00  0.00     0.041 A 
ATOM     95  C   UNL A   1      32.508  17.440  23.450  1.00  0.00     0.020 A 
ATOM     96  Cl  UNL A   1      32.999  16.234  25.818  1.00  0.00    -0.084 Cl
ENDBRANCH  88  90
ENDBRANCH  85  88
ENDBRANCH  81  83
ENDBRANCH  80  81
ENDBRANCH  79  80
ENDBRANCH  78  79
ENDBRANCH  77  78
ENDBRANCH  76  77
ENDBRANCH  75  76
ENDBRANCH  74  75
ENDBRANCH   1  74
TORSDOF 25
ENDMDL
MODEL 2
REMARK VINA RESULT:     -10.0      4.831      7.115
REMARK SMILES O=C(OCCOCCOCCOCCOC(=O)[C@@H]1CSCN1C(=O)c1cccc(Cl)c1)c1ccc(-c2c3nc(c(-c4cccc(S(=O)(=O)[O-])c4F)c4ccc([nH]4)c(-c4cccc(S(=O)(=O)[O-])c4F)c4nc(c(-c5cccc(S(=O)(=O)[O-])c5F)c5ccc2[nH]5)C=C4)C=C3)cc1
REMARK SMILES IDX 8 1 7 2 6 3 5 4 4 5 3 6 2 7 1 8 32 9 33 10 94 11 34 12 93 13
REMARK SMILES IDX 35 14 36 15 37 16 87 17 38 18 92 19 86 20 88 21 39 22 91 23
REMARK SMILES IDX 85 24 84 25 40 27 72 28 52 29 71 30 53 31 56 32 70 33 89 34
REMARK SMILES IDX 54 35 55 36 69 38 90 39 57 40 41 41 42 42 50 43 43 44 45 45
REMARK SMILES IDX 51 46 44 47 46 48 47 49 48 50 49 51 73 52 74 53 82 54 75 55
REMARK SMILES IDX 77 56 83 57 76 58 78 59 79 60 80 61 81 62 58 63 59 64 67 65
REMARK SMILES IDX 60 66 62 67 68 68 61 69 63 70 64 71 65 72 66 73 9 74 10 75
REMARK SMILES IDX 11 76 12 77 13 78 14 79 15 80 16 81 17 82 18 83 19 84 22 85
REMARK SMILES IDX 20 86 21 87 23 88 24 89 25 90 26 91 31 92 27 93 29 94 28 95
REMARK SMILES IDX 30 96
REMARK H PARENT 88 26 56 37
REMARK Flexibility Score: inf
ROOT
ATOM      1  C   UNL A   1      33.851  33.376  28.034  1.00  0.00     0.188 C 
ENDROOT
BRANCH   1   2
ATOM      2  C   UNL A   1      34.508  34.356  29.004  1.00  0.00     0.188 C 
BRANCH   2   3
ATOM      3  O   UNL A   1      33.528  35.051  29.782  1.00  0.00    -0.376 OA
BRANCH   3   4
ATOM      4  C   UNL A   1      33.824  35.270  31.162  1.00  0.00     0.202 C 
BRANCH   4   5
ATOM      5  C   UNL A   1      34.128  34.020  31.983  1.00  0.00     0.261 C 
BRANCH   5   6
ATOM      6  O   UNL A   1      35.518  33.871  32.276  1.00  0.00    -0.460 OA
BRANCH   6   7
ATOM      7  C   UNL A   1      36.141  32.800  32.828  1.00  0.00     0.338 C 
ATOM      8  O   UNL A   1      35.970  32.616  34.034  1.00  0.00    -0.246 OA
BRANCH   7   9
ATOM      9  C   UNL A   1      37.082  31.874  32.102  1.00  0.00     0.060 A 
ATOM     10  C   UNL A   1      37.877  30.872  32.673  1.00  0.00     0.016 A 
ATOM     11  C   UNL A   1      37.118  32.005  30.702  1.00  0.00     0.016 A 
ATOM     12  C   UNL A   1      38.679  30.037  31.913  1.00  0.00     0.010 A 
ATOM     13  C   UNL A   1      37.964  31.211  29.926  1.00  0.00     0.010 A 
ATOM     14  C   UNL A   1      38.771  30.254  30.548  1.00  0.00    -0.014 A 
BRANCH  14  15
ATOM     15  C   UNL A   1      39.962  29.720  29.883  1.00  0.00     0.031 A 
ATOM     16  C   UNL A   1      41.164  30.611  29.866  1.00  0.00     0.074 A 
ATOM     17  C   UNL A   1      39.987  28.459  29.433  1.00  0.00     0.049 A 
ATOM     18  N   UNL A   1      42.297  30.465  29.244  1.00  0.00    -0.248 NA
ATOM     19  C   UNL A   1      41.076  31.842  30.677  1.00  0.00     0.031 C 
ATOM     20  C   UNL A   1      38.900  27.489  29.574  1.00  0.00     0.029 A 
ATOM     21  N   UNL A   1      40.962  27.784  28.754  1.00  0.00    -0.354 N 
ATOM     22  C   UNL A   1      43.021  31.618  29.524  1.00  0.00     0.074 A 
ATOM     23  C   UNL A   1      42.224  32.435  30.404  1.00  0.00     0.031 C 
ATOM     24  C   UNL A   1      39.252  26.353  28.951  1.00  0.00     0.029 A 
ATOM     25  C   UNL A   1      40.551  26.549  28.316  1.00  0.00     0.049 A 
ATOM     26  H   UNL A   1      41.864  28.145  28.595  1.00  0.00     0.167 HD
ATOM     27  C   UNL A   1      44.237  31.964  29.053  1.00  0.00     0.034 A 
ATOM     28  C   UNL A   1      41.143  25.719  27.439  1.00  0.00     0.034 A 
ATOM     29  C   UNL A   1      44.980  31.118  28.167  1.00  0.00     0.049 A 
ATOM     30  C   UNL A   1      42.465  26.149  26.862  1.00  0.00     0.074 A 
ATOM     31  C   UNL A   1      46.200  31.345  27.566  1.00  0.00     0.029 A 
ATOM     32  N   UNL A   1      44.541  29.868  27.743  1.00  0.00    -0.354 N 
ATOM     33  N   UNL A   1      43.147  27.247  27.100  1.00  0.00    -0.248 NA
ATOM     34  C   UNL A   1      43.110  25.235  25.914  1.00  0.00     0.031 C 
ATOM     35  C   UNL A   1      46.479  30.248  26.744  1.00  0.00     0.029 A 
ATOM     36  C   UNL A   1      45.459  29.312  26.878  1.00  0.00     0.049 A 
ATOM     37  H   UNL A   1      43.697  29.442  28.019  1.00  0.00     0.167 HD
ATOM     38  C   UNL A   1      44.318  27.143  26.364  1.00  0.00     0.074 A 
ATOM     39  C   UNL A   1      44.251  25.869  25.671  1.00  0.00     0.031 C 
ATOM     40  C   UNL A   1      45.356  28.011  26.262  1.00  0.00     0.034 A 
BRANCH  27  41
ATOM     41  C   UNL A   1      44.750  33.331  29.421  1.00  0.00     0.023 A 
ATOM     42  C   UNL A   1      45.630  33.499  30.509  1.00  0.00     0.012 A 
ATOM     43  C   UNL A   1      44.290  34.465  28.725  1.00  0.00     0.148 A 
ATOM     44  C   UNL A   1      45.998  34.777  30.934  1.00  0.00     0.002 A 
ATOM     45  C   UNL A   1      44.701  35.731  29.121  1.00  0.00     0.091 A 
ATOM     46  F   UNL A   1      43.423  34.289  27.717  1.00  0.00    -0.205 F 
ATOM     47  C   UNL A   1      45.538  35.892  30.237  1.00  0.00     0.022 A 
BRANCH  45  48
ATOM     48  S   UNL A   1      44.214  37.221  28.246  1.00  0.00     0.127 S 
ATOM     49  O   UNL A   1      44.739  38.266  29.126  1.00  0.00    -0.237 OA
ATOM     50  O   UNL A   1      44.928  37.077  26.977  1.00  0.00    -0.237 OA
ATOM     51  O   UNL A   1      42.763  37.169  28.136  1.00  0.00    -0.744 OA
ENDBRANCH  45  48
ENDBRANCH  27  41
BRANCH  28  52
ATOM     52  C   UNL A   1      40.471  24.448  27.050  1.00  0.00     0.023 A 
ATOM     53  C   UNL A   1      39.175  24.477  26.502  1.00  0.00     0.012 A 
ATOM     54  C   UNL A   1      41.143  23.211  27.156  1.00  0.00     0.148 A 
ATOM     55  C   UNL A   1      38.555  23.298  26.082  1.00  0.00     0.002 A 
ATOM     56  C   UNL A   1      40.543  22.050  26.686  1.00  0.00     0.091 A 
ATOM     57  F   UNL A   1      42.372  23.203  27.690  1.00  0.00    -0.205 F 
ATOM     58  C   UNL A   1      39.242  22.088  26.161  1.00  0.00     0.022 A 
BRANCH  56  59
ATOM     59  S   UNL A   1      41.398  20.470  26.631  1.00  0.00     0.127 S 
ATOM     60  O   UNL A   1      40.328  19.566  26.215  1.00  0.00    -0.237 OA
ATOM     61  O   UNL A   1      42.423  20.719  25.617  1.00  0.00    -0.237 OA
ATOM     62  O   UNL A   1      41.917  20.252  27.974  1.00  0.00    -0.744 OA
ENDBRANCH  56  59
ENDBRANCH  28  52
BRANCH  40  63
ATOM     63  C   UNL A   1      46.534  27.586  25.434  1.00  0.00     0.023 A 
ATOM     64  C   UNL A   1      46.580  27.882  24.061  1.00  0.00     0.012 A 
ATOM     65  C   UNL A   1      47.656  27.022  26.072  1.00  0.00     0.148 A 
ATOM     66  C   UNL A   1      47.730  27.609  23.325  1.00  0.00     0.002 A 
ATOM     67  C   UNL A   1      48.817  26.808  25.345  1.00  0.00     0.091 A 
ATOM     68  F   UNL A   1      47.573  26.737  27.379  1.00  0.00    -0.205 F 
ATOM     69  C   UNL A   1      48.854  27.090  23.970  1.00  0.00     0.022 A 
BRANCH  67  70
ATOM     70  S   UNL A   1      50.343  26.264  26.120  1.00  0.00     0.127 S 
ATOM     71  O   UNL A   1      49.953  24.963  26.659  1.00  0.00    -0.237 OA
ATOM     72  O   UNL A   1      51.261  26.207  24.983  1.00  0.00    -0.237 OA
ATOM     73  O   UNL A   1      50.674  27.275  27.116  1.00  0.00    -0.744 OA
ENDBRANCH  67  70
ENDBRANCH  40  63
ENDBRANCH  14  15
ENDBRANCH   7   9
ENDBRANCH   6   7
ENDBRANCH   5   6
ENDBRANCH   4   5
ENDBRANCH   3   4
ENDBRANCH   2   3
ENDBRANCH   1   2
BRANCH   1  74
ATOM     74  O   UNL A   1      34.049  32.000  28.322  1.00  0.00    -0.377 OA
BRANCH  74  75
ATOM     75  C   UNL A   1      33.631  31.092  27.323  1.00  0.00     0.188 C 
BRANCH  75  76
ATOM     76  C   UNL A   1      34.169  29.638  27.346  1.00  0.00     0.188 C 
BRANCH  76  77
ATOM     77  O   UNL A   1      33.420  28.626  26.732  1.00  0.00    -0.376 OA
BRANCH  77  78
ATOM     78  C   UNL A   1      33.924  27.912  25.623  1.00  0.00     0.202 C 
BRANCH  78  79
ATOM     79  C   UNL A   1      33.181  27.682  24.287  1.00  0.00     0.261 C 
BRANCH  79  80
ATOM     80  O   UNL A   1      33.411  26.483  23.531  1.00  0.00    -0.462 OA
BRANCH  80  81
ATOM     81  C   UNL A   1      32.410  26.062  22.715  1.00  0.00     0.329 C 
ATOM     82  O   UNL A   1      32.179  26.552  21.615  1.00  0.00    -0.250 OA
BRANCH  81  83
ATOM     83  C   UNL A   1      31.650  24.845  23.325  1.00  0.00     0.206 C 
ATOM     84  C   UNL A   1      30.520  25.106  24.340  1.00  0.00     0.108 C 
ATOM     85  N   UNL A   1      32.674  24.095  24.040  1.00  0.00    -0.315 N 
ATOM     86  S   UNL A   1      31.056  24.482  25.958  1.00  0.00    -0.138 SA
ATOM     87  C   UNL A   1      32.774  24.471  25.436  1.00  0.00     0.191 C 
BRANCH  85  88
ATOM     88  C   UNL A   1      33.529  23.306  23.300  1.00  0.00     0.255 C 
ATOM     89  O   UNL A   1      33.889  23.560  22.170  1.00  0.00    -0.269 OA
BRANCH  88  90
ATOM     90  C   UNL A   1      34.049  22.114  23.969  1.00  0.00     0.041 A 
ATOM     91  C   UNL A   1      35.395  22.060  24.336  1.00  0.00     0.014 A 
ATOM     92  C   UNL A   1      33.187  21.034  24.147  1.00  0.00     0.034 A 
ATOM     93  C   UNL A   1      35.907  20.876  24.847  1.00  0.00     0.002 A 
ATOM     94  C   UNL A   1      33.705  19.865  24.682  1.00  0.00     0.041 A 
ATOM     95  C   UNL A   1      35.061  19.778  25.020  1.00  0.00     0.020 A 
ATOM     96  Cl  UNL A   1      32.680  18.505  24.910  1.00  0.00    -0.084 Cl
ENDBRANCH  88  90
ENDBRANCH  85  88
ENDBRANCH  81  83
ENDBRANCH  80  81
ENDBRANCH  79  80
ENDBRANCH  78  79
ENDBRANCH  77  78
ENDBRANCH  76  77
ENDBRANCH  75  76
ENDBRANCH  74  75
ENDBRANCH   1  74
TORSDOF 25
ENDMDL
MODEL 3
REMARK VINA RESULT:      -9.8      1.591      2.424
REMARK SMILES O=C(OCCOCCOCCOCCOC(=O)[C@@H]1CSCN1C(=O)c1cccc(Cl)c1)c1ccc(-c2c3nc(c(-c4cccc(S(=O)(=O)[O-])c4F)c4ccc([nH]4)c(-c4cccc(S(=O)(=O)[O-])c4F)c4nc(c(-c5cccc(S(=O)(=O)[O-])c5F)c5ccc2[nH]5)C=C4)C=C3)cc1
REMARK SMILES IDX 8 1 7 2 6 3 5 4 4 5 3 6 2 7 1 8 32 9 33 10 94 11 34 12 93 13
REMARK SMILES IDX 35 14 36 15 37 16 87 17 38 18 92 19 86 20 88 21 39 22 91 23
REMARK SMILES IDX 85 24 84 25 40 27 72 28 52 29 71 30 53 31 56 32 70 33 89 34
REMARK SMILES IDX 54 35 55 36 69 38 90 39 57 40 41 41 42 42 50 43 43 44 45 45
REMARK SMILES IDX 51 46 44 47 46 48 47 49 48 50 49 51 73 52 74 53 82 54 75 55
REMARK SMILES IDX 77 56 83 57 76 58 78 59 79 60 80 61 81 62 58 63 59 64 67 65
REMARK SMILES IDX 60 66 62 67 68 68 61 69 63 70 64 71 65 72 66 73 9 74 10 75
REMARK SMILES IDX 11 76 12 77 13 78 14 79 15 80 16 81 17 82 18 83 19 84 22 85
REMARK SMILES IDX 20 86 21 87 23 88 24 89 25 90 26 91 31 92 27 93 29 94 28 95
REMARK SMILES IDX 30 96
REMARK H PARENT 88 26 56 37
REMARK Flexibility Score: inf
ROOT
ATOM      1  C   UNL A   1      32.931  27.422  23.654  1.00  0.00     0.188 C 
ENDROOT
BRANCH   1   2
ATOM      2  C   UNL A   1      32.965  28.944  23.527  1.00  0.00     0.188 C 
BRANCH   2   3
ATOM      3  O   UNL A   1      33.308  29.561  24.771  1.00  0.00    -0.376 OA
BRANCH   3   4
ATOM      4  C   UNL A   1      32.235  30.058  25.573  1.00  0.00     0.202 C 
BRANCH   4   5
ATOM      5  C   UNL A   1      32.625  30.598  26.945  1.00  0.00     0.261 C 
BRANCH   5   6
ATOM      6  O   UNL A   1      32.380  31.998  27.083  1.00  0.00    -0.460 OA
BRANCH   6   7
ATOM      7  C   UNL A   1      33.153  32.920  27.710  1.00  0.00     0.338 C 
ATOM      8  O   UNL A   1      32.801  34.098  27.617  1.00  0.00    -0.246 OA
BRANCH   7   9
ATOM      9  C   UNL A   1      34.438  32.625  28.438  1.00  0.00     0.060 A 
ATOM     10  C   UNL A   1      35.733  32.692  27.909  1.00  0.00     0.016 A 
ATOM     11  C   UNL A   1      34.315  32.299  29.801  1.00  0.00     0.016 A 
ATOM     12  C   UNL A   1      36.861  32.445  28.674  1.00  0.00     0.010 A 
ATOM     13  C   UNL A   1      35.437  31.990  30.572  1.00  0.00     0.010 A 
ATOM     14  C   UNL A   1      36.705  32.029  29.986  1.00  0.00    -0.014 A 
BRANCH  14  15
ATOM     15  C   UNL A   1      37.836  31.311  30.580  1.00  0.00     0.031 A 
ATOM     16  C   UNL A   1      38.091  31.568  32.032  1.00  0.00     0.074 A 
ATOM     17  C   UNL A   1      38.509  30.392  29.876  1.00  0.00     0.049 A 
ATOM     18  N   UNL A   1      39.084  31.186  32.780  1.00  0.00    -0.248 NA
ATOM     19  C   UNL A   1      37.070  32.364  32.743  1.00  0.00     0.031 C 
ATOM     20  C   UNL A   1      38.196  29.978  28.507  1.00  0.00     0.029 A 
ATOM     21  N   UNL A   1      39.605  29.650  30.215  1.00  0.00    -0.354 N 
ATOM     22  C   UNL A   1      38.849  31.761  34.023  1.00  0.00     0.074 A 
ATOM     23  C   UNL A   1      37.602  32.480  33.947  1.00  0.00     0.031 C 
ATOM     24  C   UNL A   1      39.117  29.088  28.104  1.00  0.00     0.029 A 
ATOM     25  C   UNL A   1      40.111  28.930  29.160  1.00  0.00     0.049 A 
ATOM     26  H   UNL A   1      39.993  29.634  31.121  1.00  0.00     0.167 HD
ATOM     27  C   UNL A   1      39.634  31.709  35.119  1.00  0.00     0.034 A 
ATOM     28  C   UNL A   1      41.287  28.285  29.059  1.00  0.00     0.034 A 
ATOM     29  C   UNL A   1      40.874  30.990  35.134  1.00  0.00     0.049 A 
ATOM     30  C   UNL A   1      42.189  28.296  30.264  1.00  0.00     0.074 A 
ATOM     31  C   UNL A   1      41.803  30.880  36.147  1.00  0.00     0.029 A 
ATOM     32  N   UNL A   1      41.360  30.265  34.052  1.00  0.00    -0.354 N 
ATOM     33  N   UNL A   1      41.989  28.856  31.436  1.00  0.00    -0.248 NA
ATOM     34  C   UNL A   1      43.465  27.582  30.150  1.00  0.00     0.031 C 
ATOM     35  C   UNL A   1      42.872  30.121  35.661  1.00  0.00     0.029 A 
ATOM     36  C   UNL A   1      42.582  29.711  34.364  1.00  0.00     0.049 A 
ATOM     37  H   UNL A   1      40.898  30.162  33.188  1.00  0.00     0.167 HD
ATOM     38  C   UNL A   1      43.091  28.533  32.213  1.00  0.00     0.074 A 
ATOM     39  C   UNL A   1      43.958  27.725  31.375  1.00  0.00     0.031 C 
ATOM     40  C   UNL A   1      43.372  28.868  33.497  1.00  0.00     0.034 A 
BRANCH  27  41
ATOM     41  C   UNL A   1      39.201  32.521  36.310  1.00  0.00     0.023 A 
ATOM     42  C   UNL A   1      39.750  33.798  36.547  1.00  0.00     0.012 A 
ATOM     43  C   UNL A   1      38.298  31.975  37.243  1.00  0.00     0.148 A 
ATOM     44  C   UNL A   1      39.451  34.493  37.721  1.00  0.00     0.002 A 
ATOM     45  C   UNL A   1      37.966  32.695  38.383  1.00  0.00     0.091 A 
ATOM     46  F   UNL A   1      37.816  30.744  37.021  1.00  0.00    -0.205 F 
ATOM     47  C   UNL A   1      38.555  33.945  38.635  1.00  0.00     0.022 A 
BRANCH  45  48
ATOM     48  S   UNL A   1      36.773  32.099  39.586  1.00  0.00     0.127 S 
ATOM     49  O   UNL A   1      35.506  32.382  38.910  1.00  0.00    -0.237 OA
ATOM     50  O   UNL A   1      37.112  30.679  39.675  1.00  0.00    -0.237 OA
ATOM     51  O   UNL A   1      37.014  32.860  40.804  1.00  0.00    -0.744 OA
ENDBRANCH  45  48
ENDBRANCH  27  41
BRANCH  28  52
ATOM     52  C   UNL A   1      41.664  27.627  27.777  1.00  0.00     0.023 A 
ATOM     53  C   UNL A   1      41.864  28.403  26.620  1.00  0.00     0.012 A 
ATOM     54  C   UNL A   1      41.896  26.236  27.718  1.00  0.00     0.148 A 
ATOM     55  C   UNL A   1      42.272  27.805  25.426  1.00  0.00     0.002 A 
ATOM     56  C   UNL A   1      42.354  25.655  26.541  1.00  0.00     0.091 A 
ATOM     57  F   UNL A   1      41.690  25.512  28.827  1.00  0.00    -0.205 F 
ATOM     58  C   UNL A   1      42.528  26.436  25.389  1.00  0.00     0.022 A 
BRANCH  56  59
ATOM     59  S   UNL A   1      42.830  23.926  26.435  1.00  0.00     0.127 S 
ATOM     60  O   UNL A   1      42.883  23.719  24.990  1.00  0.00    -0.237 OA
ATOM     61  O   UNL A   1      44.132  23.932  27.104  1.00  0.00    -0.237 OA
ATOM     62  O   UNL A   1      41.794  23.183  27.139  1.00  0.00    -0.744 OA
ENDBRANCH  56  59
ENDBRANCH  28  52
BRANCH  40  63
ATOM     63  C   UNL A   1      44.625  28.304  34.101  1.00  0.00     0.023 A 
ATOM     64  C   UNL A   1      45.821  29.041  34.071  1.00  0.00     0.012 A 
ATOM     65  C   UNL A   1      44.557  27.099  34.828  1.00  0.00     0.148 A 
ATOM     66  C   UNL A   1      46.946  28.577  34.749  1.00  0.00     0.002 A 
ATOM     67  C   UNL A   1      45.663  26.674  35.548  1.00  0.00     0.091 A 
ATOM     68  F   UNL A   1      43.405  26.413  34.823  1.00  0.00    -0.205 F 
ATOM     69  C   UNL A   1      46.861  27.405  35.502  1.00  0.00     0.022 A 
BRANCH  67  70
ATOM     70  S   UNL A   1      45.602  25.251  36.641  1.00  0.00     0.127 S 
ATOM     71  O   UNL A   1      45.283  24.174  35.707  1.00  0.00    -0.237 OA
ATOM     72  O   UNL A   1      46.963  25.217  37.176  1.00  0.00    -0.237 OA
ATOM     73  O   UNL A   1      44.571  25.543  37.629  1.00  0.00    -0.744 OA
ENDBRANCH  67  70
ENDBRANCH  40  63
ENDBRANCH  14  15
ENDBRANCH   7   9
ENDBRANCH   6   7
ENDBRANCH   5   6
ENDBRANCH   4   5
ENDBRANCH   3   4
ENDBRANCH   2   3
ENDBRANCH   1   2
BRANCH   1  74
ATOM     74  O   UNL A   1      33.825  26.864  24.605  1.00  0.00    -0.377 OA
BRANCH  74  75
ATOM     75  C   UNL A   1      33.230  26.252  25.730  1.00  0.00     0.188 C 
BRANCH  75  76
ATOM     76  C   UNL A   1      31.715  26.453  25.991  1.00  0.00     0.188 C 
BRANCH  76  77
ATOM     77  O   UNL A   1      31.063  25.609  26.899  1.00  0.00    -0.376 OA
BRANCH  77  78
ATOM     78  C   UNL A   1      30.614  24.326  26.517  1.00  0.00     0.202 C 
BRANCH  78  79
ATOM     79  C   UNL A   1      31.513  23.089  26.293  1.00  0.00     0.261 C 
BRANCH  79  80
ATOM     80  O   UNL A   1      31.355  22.287  25.112  1.00  0.00    -0.462 OA
BRANCH  80  81
ATOM     81  C   UNL A   1      32.009  22.694  23.993  1.00  0.00     0.329 C 
ATOM     82  O   UNL A   1      31.952  23.836  23.550  1.00  0.00    -0.250 OA
BRANCH  81  83
ATOM     83  C   UNL A   1      32.884  21.550  23.396  1.00  0.00     0.206 C 
ATOM     84  C   UNL A   1      32.365  20.101  23.468  1.00  0.00     0.108 C 
ATOM     85  N   UNL A   1      34.112  21.582  24.178  1.00  0.00    -0.315 N 
ATOM     86  S   UNL A   1      33.443  19.168  24.592  1.00  0.00    -0.138 SA
ATOM     87  C   UNL A   1      34.078  20.684  25.315  1.00  0.00     0.191 C 
BRANCH  85  88
ATOM     88  C   UNL A   1      35.036  22.564  23.889  1.00  0.00     0.255 C 
ATOM     89  O   UNL A   1      34.822  23.511  23.162  1.00  0.00    -0.269 OA
BRANCH  88  90
ATOM     90  C   UNL A   1      36.335  22.444  24.550  1.00  0.00     0.041 A 
ATOM     91  C   UNL A   1      37.031  21.234  24.487  1.00  0.00     0.014 A 
ATOM     92  C   UNL A   1      36.797  23.529  25.290  1.00  0.00     0.034 A 
ATOM     93  C   UNL A   1      38.196  21.089  25.227  1.00  0.00     0.002 A 
ATOM     94  C   UNL A   1      37.974  23.378  26.006  1.00  0.00     0.041 A 
ATOM     95  C   UNL A   1      38.667  22.162  25.987  1.00  0.00     0.020 A 
ATOM     96  Cl  UNL A   1      38.577  24.689  26.941  1.00  0.00    -0.084 Cl
ENDBRANCH  88  90
ENDBRANCH  85  88
ENDBRANCH  81  83
ENDBRANCH  80  81
ENDBRANCH  79  80
ENDBRANCH  78  79
ENDBRANCH  77  78
ENDBRANCH  76  77
ENDBRANCH  75  76
ENDBRANCH  74  75
ENDBRANCH   1  74
TORSDOF 25
ENDMDL
