MODEL 1
REMARK VINA RESULT:      -9.5      0.000      0.000
REMARK SMILES COc1cc(/C=C2\SC(=S)N(CC(=O)OCCOCCOCCOCCOC(=O)c3ccc(-c4c5nc(c(-c6cccc(S(=O)(=O)[O-])c6F)c6ccc([nH]6)c(-c6cccc(S(=O)(=O)[O-])c6F)c6nc(c(-c7cccc(S(=O)(=O)[O-])c7F)c7ccc4[nH]7)C=C6)C=C5)cc3)C2=O)cc2c1OCO2
REMARK SMILES IDX 21 1 20 2 19 3 18 4 17 5 16 6 15 7 13 8 14 9 12 10 11 11
REMARK SMILES IDX 6 12 7 13 8 14 93 15 9 16 94 17 10 18 5 19 3 20 4 21 97 22
REMARK SMILES IDX 96 23 98 24 95 25 100 26 99 27 2 28 1 29 22 30 23 31 24 32
REMARK SMILES IDX 25 33 26 34 27 35 28 36 29 37 30 38 31 39 92 40 32 41 91 42
REMARK SMILES IDX 33 43 34 44 35 45 85 46 36 47 90 48 84 49 86 50 37 51 89 52
REMARK SMILES IDX 83 53 82 54 38 56 70 57 50 58 69 59 51 60 54 61 68 62 87 63
REMARK SMILES IDX 52 64 53 65 67 67 88 68 55 69 39 70 40 71 48 72 41 73 43 74
REMARK SMILES IDX 49 75 42 76 44 77 45 78 46 79 47 80 71 81 72 82 80 83 73 84
REMARK SMILES IDX 75 85 81 86 74 87 76 88 77 89 78 90 79 91 56 92 57 93 65 94
REMARK SMILES IDX 58 95 60 96 66 97 59 98 61 99 62 100 63 101 64 102
REMARK H PARENT 86 55 54 66
REMARK Flexibility Score: inf
ROOT
ATOM      1  O   UNL A   1      32.960  37.099  31.109  1.00  0.00    -0.377 OA
ENDROOT
BRANCH   1   2
ATOM      2  C   UNL A   1      33.226  36.702  29.782  1.00  0.00     0.188 C 
BRANCH   2   3
ATOM      3  C   UNL A   1      32.812  35.263  29.425  1.00  0.00     0.188 C 
BRANCH   3   4
ATOM      4  O   UNL A   1      32.456  34.908  28.090  1.00  0.00    -0.376 OA
BRANCH   4   5
ATOM      5  C   UNL A   1      32.892  33.669  27.548  1.00  0.00     0.202 C 
BRANCH   5   6
ATOM      6  C   UNL A   1      31.901  32.486  27.528  1.00  0.00     0.261 C 
BRANCH   6   7
ATOM      7  O   UNL A   1      31.755  31.785  26.269  1.00  0.00    -0.462 OA
BRANCH   7   8
ATOM      8  C   UNL A   1      31.785  30.431  26.309  1.00  0.00     0.326 C 
ATOM      9  O   UNL A   1      31.283  29.760  27.209  1.00  0.00    -0.250 OA
BRANCH   8  10
ATOM     10  C   UNL A   1      32.434  29.748  25.088  1.00  0.00     0.250 C 
BRANCH  10  11
ATOM     11  N   UNL A   1      32.547  28.284  24.932  1.00  0.00    -0.282 N 
ATOM     12  C   UNL A   1      33.973  25.177  26.179  1.00  0.00     0.029 C 
ATOM     13  C   UNL A   1      33.353  26.105  25.429  1.00  0.00     0.081 C 
ATOM     14  S   UNL A   1      32.426  25.871  24.007  1.00  0.00    -0.054 SA
ATOM     15  C   UNL A   1      33.387  27.559  25.765  1.00  0.00     0.266 C 
ATOM     16  C   UNL A   1      31.966  27.572  23.903  1.00  0.00     0.148 C 
ATOM     17  O   UNL A   1      34.083  28.021  26.662  1.00  0.00    -0.268 OA
ATOM     18  S   UNL A   1      31.017  28.169  22.673  1.00  0.00    -0.052 S 
BRANCH  12  19
ATOM     19  C   UNL A   1      34.083  23.738  25.887  1.00  0.00    -0.017 A 
ATOM     20  C   UNL A   1      35.448  21.706  25.613  1.00  0.00     0.165 A 
ATOM     21  C   UNL A   1      35.325  23.067  25.953  1.00  0.00     0.058 A 
ATOM     22  C   UNL A   1      34.294  21.034  25.252  1.00  0.00     0.207 A 
ATOM     23  C   UNL A   1      33.081  21.690  25.190  1.00  0.00     0.170 A 
ATOM     24  O   UNL A   1      34.154  19.715  24.939  1.00  0.00    -0.450 OA
ATOM     25  C   UNL A   1      32.946  23.033  25.480  1.00  0.00     0.059 A 
ATOM     26  O   UNL A   1      32.056  20.873  24.820  1.00  0.00    -0.453 OA
ATOM     27  C   UNL A   1      32.725  19.600  24.806  1.00  0.00     0.468 C 
BRANCH  20  28
ATOM     28  O   UNL A   1      36.708  21.189  25.718  1.00  0.00    -0.493 OA
ATOM     29  C   UNL A   1      37.443  21.056  24.503  1.00  0.00     0.278 C 
ENDBRANCH  20  28
ENDBRANCH  12  19
ENDBRANCH  10  11
ENDBRANCH   8  10
ENDBRANCH   7   8
ENDBRANCH   6   7
ENDBRANCH   5   6
ENDBRANCH   4   5
ENDBRANCH   3   4
ENDBRANCH   2   3
ENDBRANCH   1   2
BRANCH   1  30
ATOM     30  C   UNL A   1      32.504  36.092  31.988  1.00  0.00     0.188 C 
BRANCH  30  31
ATOM     31  C   UNL A   1      33.583  35.395  32.831  1.00  0.00     0.188 C 
BRANCH  31  32
ATOM     32  O   UNL A   1      33.709  34.010  32.533  1.00  0.00    -0.376 OA
BRANCH  32  33
ATOM     33  C   UNL A   1      34.852  33.550  31.833  1.00  0.00     0.202 C 
BRANCH  33  34
ATOM     34  C   UNL A   1      34.776  32.234  31.041  1.00  0.00     0.261 C 
BRANCH  34  35
ATOM     35  O   UNL A   1      35.413  32.194  29.760  1.00  0.00    -0.460 OA
BRANCH  35  36
ATOM     36  C   UNL A   1      35.330  31.053  29.042  1.00  0.00     0.338 C 
ATOM     37  O   UNL A   1      34.423  30.733  28.293  1.00  0.00    -0.246 OA
BRANCH  36  38
ATOM     38  C   UNL A   1      36.635  30.358  29.151  1.00  0.00     0.060 A 
ATOM     39  C   UNL A   1      36.835  29.470  30.218  1.00  0.00     0.016 A 
ATOM     40  C   UNL A   1      37.633  30.537  28.189  1.00  0.00     0.016 A 
ATOM     41  C   UNL A   1      38.037  28.768  30.333  1.00  0.00     0.010 A 
ATOM     42  C   UNL A   1      38.849  29.857  28.326  1.00  0.00     0.010 A 
ATOM     43  C   UNL A   1      39.067  28.988  29.410  1.00  0.00    -0.014 A 
BRANCH  43  44
ATOM     44  C   UNL A   1      40.428  28.468  29.684  1.00  0.00     0.031 A 
ATOM     45  C   UNL A   1      41.276  29.196  30.691  1.00  0.00     0.074 A 
ATOM     46  C   UNL A   1      40.913  27.385  29.049  1.00  0.00     0.049 A 
ATOM     47  N   UNL A   1      42.514  28.980  31.045  1.00  0.00    -0.248 NA
ATOM     48  C   UNL A   1      40.634  30.321  31.392  1.00  0.00     0.031 C 
ATOM     49  C   UNL A   1      40.183  26.580  28.072  1.00  0.00     0.029 A 
ATOM     50  N   UNL A   1      42.153  26.798  29.114  1.00  0.00    -0.354 N 
ATOM     51  C   UNL A   1      42.813  29.960  31.985  1.00  0.00     0.074 A 
ATOM     52  C   UNL A   1      41.628  30.773  32.143  1.00  0.00     0.031 C 
ATOM     53  C   UNL A   1      41.004  25.627  27.595  1.00  0.00     0.029 A 
ATOM     54  C   UNL A   1      42.324  25.775  28.209  1.00  0.00     0.049 A 
ATOM     55  H   UNL A   1      42.853  27.081  29.745  1.00  0.00     0.167 HD
ATOM     56  C   UNL A   1      43.968  30.162  32.660  1.00  0.00     0.034 A 
ATOM     57  C   UNL A   1      43.427  25.069  27.889  1.00  0.00     0.034 A 
ATOM     58  C   UNL A   1      45.145  29.355  32.500  1.00  0.00     0.049 A 
ATOM     59  C   UNL A   1      44.721  25.351  28.612  1.00  0.00     0.074 A 
ATOM     60  C   UNL A   1      46.353  29.455  33.166  1.00  0.00     0.029 A 
ATOM     61  N   UNL A   1      45.272  28.313  31.594  1.00  0.00    -0.354 N 
ATOM     62  N   UNL A   1      44.960  26.208  29.577  1.00  0.00    -0.248 NA
ATOM     63  C   UNL A   1      45.894  24.553  28.220  1.00  0.00     0.031 C 
ATOM     64  C   UNL A   1      47.225  28.501  32.632  1.00  0.00     0.029 A 
ATOM     65  C   UNL A   1      46.546  27.777  31.667  1.00  0.00     0.049 A 
ATOM     66  H   UNL A   1      44.561  28.001  30.989  1.00  0.00     0.167 HD
ATOM     67  C   UNL A   1      46.294  26.027  29.930  1.00  0.00     0.074 A 
ATOM     68  C   UNL A   1      46.808  24.967  29.088  1.00  0.00     0.031 C 
ATOM     69  C   UNL A   1      47.031  26.687  30.859  1.00  0.00     0.034 A 
BRANCH  56  70
ATOM     70  C   UNL A   1      44.014  31.308  33.637  1.00  0.00     0.023 A 
ATOM     71  C   UNL A   1      44.544  32.551  33.236  1.00  0.00     0.012 A 
ATOM     72  C   UNL A   1      43.493  31.164  34.937  1.00  0.00     0.148 A 
ATOM     73  C   UNL A   1      44.585  33.625  34.125  1.00  0.00     0.002 A 
ATOM     74  C   UNL A   1      43.495  32.251  35.802  1.00  0.00     0.091 A 
ATOM     75  F   UNL A   1      43.016  29.967  35.306  1.00  0.00    -0.205 F 
ATOM     76  C   UNL A   1      44.052  33.477  35.403  1.00  0.00     0.022 A 
BRANCH  74  77
ATOM     77  S   UNL A   1      42.763  32.186  37.441  1.00  0.00     0.127 S 
ATOM     78  O   UNL A   1      42.311  30.797  37.506  1.00  0.00    -0.237 OA
ATOM     79  O   UNL A   1      43.908  32.496  38.299  1.00  0.00    -0.237 OA
ATOM     80  O   UNL A   1      41.705  33.186  37.451  1.00  0.00    -0.744 OA
ENDBRANCH  74  77
ENDBRANCH  56  70
BRANCH  57  81
ATOM     81  C   UNL A   1      43.367  24.020  26.830  1.00  0.00     0.023 A 
ATOM     82  C   UNL A   1      43.977  24.251  25.582  1.00  0.00     0.012 A 
ATOM     83  C   UNL A   1      42.705  22.797  27.053  1.00  0.00     0.148 A 
ATOM     84  C   UNL A   1      43.901  23.298  24.565  1.00  0.00     0.002 A 
ATOM     85  C   UNL A   1      42.680  21.830  26.055  1.00  0.00     0.091 A 
ATOM     86  F   UNL A   1      42.114  22.603  28.241  1.00  0.00    -0.205 F 
ATOM     87  C   UNL A   1      43.263  22.085  24.804  1.00  0.00     0.022 A 
BRANCH  85  88
ATOM     88  S   UNL A   1      41.984  20.194  26.311  1.00  0.00     0.127 S 
ATOM     89  O   UNL A   1      40.550  20.464  26.227  1.00  0.00    -0.237 OA
ATOM     90  O   UNL A   1      42.539  19.454  25.178  1.00  0.00    -0.237 OA
ATOM     91  O   UNL A   1      42.467  19.759  27.615  1.00  0.00    -0.744 OA
ENDBRANCH  85  88
ENDBRANCH  57  81
BRANCH  69  92
ATOM     92  C   UNL A   1      48.464  26.263  31.058  1.00  0.00     0.023 A 
ATOM     93  C   UNL A   1      49.488  26.858  30.296  1.00  0.00     0.012 A 
ATOM     94  C   UNL A   1      48.801  25.345  32.073  1.00  0.00     0.148 A 
ATOM     95  C   UNL A   1      50.824  26.526  30.522  1.00  0.00     0.002 A 
ATOM     96  C   UNL A   1      50.138  25.058  32.328  1.00  0.00     0.091 A 
ATOM     97  F   UNL A   1      47.811  24.781  32.779  1.00  0.00    -0.205 F 
ATOM     98  C   UNL A   1      51.148  25.638  31.545  1.00  0.00     0.022 A 
BRANCH  96  99
ATOM     99  S   UNL A   1      50.659  24.007  33.687  1.00  0.00     0.127 S 
ATOM    100  O   UNL A   1      50.013  24.653  34.829  1.00  0.00    -0.237 OA
ATOM    101  O   UNL A   1      50.086  22.713  33.314  1.00  0.00    -0.237 OA
ATOM    102  O   UNL A   1      52.116  24.047  33.696  1.00  0.00    -0.744 OA
ENDBRANCH  96  99
ENDBRANCH  69  92
ENDBRANCH  43  44
ENDBRANCH  36  38
ENDBRANCH  35  36
ENDBRANCH  34  35
ENDBRANCH  33  34
ENDBRANCH  32  33
ENDBRANCH  31  32
ENDBRANCH  30  31
ENDBRANCH   1  30
TORSDOF 26
ENDMDL
MODEL 2
REMARK VINA RESULT:      -9.4      1.784      2.029
REMARK SMILES COc1cc(/C=C2\SC(=S)N(CC(=O)OCCOCCOCCOCCOC(=O)c3ccc(-c4c5nc(c(-c6cccc(S(=O)(=O)[O-])c6F)c6ccc([nH]6)c(-c6cccc(S(=O)(=O)[O-])c6F)c6nc(c(-c7cccc(S(=O)(=O)[O-])c7F)c7ccc4[nH]7)C=C6)C=C5)cc3)C2=O)cc2c1OCO2
REMARK SMILES IDX 21 1 20 2 19 3 18 4 17 5 16 6 15 7 13 8 14 9 12 10 11 11
REMARK SMILES IDX 6 12 7 13 8 14 93 15 9 16 94 17 10 18 5 19 3 20 4 21 97 22
REMARK SMILES IDX 96 23 98 24 95 25 100 26 99 27 2 28 1 29 22 30 23 31 24 32
REMARK SMILES IDX 25 33 26 34 27 35 28 36 29 37 30 38 31 39 92 40 32 41 91 42
REMARK SMILES IDX 33 43 34 44 35 45 85 46 36 47 90 48 84 49 86 50 37 51 89 52
REMARK SMILES IDX 83 53 82 54 38 56 70 57 50 58 69 59 51 60 54 61 68 62 87 63
REMARK SMILES IDX 52 64 53 65 67 67 88 68 55 69 39 70 40 71 48 72 41 73 43 74
REMARK SMILES IDX 49 75 42 76 44 77 45 78 46 79 47 80 71 81 72 82 80 83 73 84
REMARK SMILES IDX 75 85 81 86 74 87 76 88 77 89 78 90 79 91 56 92 57 93 65 94
REMARK SMILES IDX 58 95 60 96 66 97 59 98 61 99 62 100 63 101 64 102
REMARK H PARENT 86 55 54 66
REMARK Flexibility Score: inf
ROOT
ATOM      1  O   UNL A   1      33.004  36.980  31.033  1.00  0.00    -0.377 OA
ENDROOT
BRANCH   1   2
ATOM      2  C   UNL A   1      33.244  36.587  29.700  1.00  0.00     0.188 C 
BRANCH   2   3
ATOM      3  C   UNL A   1      32.873  35.131  29.361  1.00  0.00     0.188 C 
BRANCH   3   4
ATOM      4  O   UNL A   1      32.537  34.747  28.029  1.00  0.00    -0.376 OA
BRANCH   4   5
ATOM      5  C   UNL A   1      32.986  33.500  27.519  1.00  0.00     0.202 C 
BRANCH   5   6
ATOM      6  C   UNL A   1      31.999  32.313  27.503  1.00  0.00     0.261 C 
BRANCH   6   7
ATOM      7  O   UNL A   1      31.860  31.602  26.249  1.00  0.00    -0.462 OA
BRANCH   7   8
ATOM      8  C   UNL A   1      31.874  30.249  26.302  1.00  0.00     0.326 C 
ATOM      9  O   UNL A   1      31.406  29.593  27.231  1.00  0.00    -0.250 OA
BRANCH   8  10
ATOM     10  C   UNL A   1      32.457  29.544  25.059  1.00  0.00     0.250 C 
BRANCH  10  11
ATOM     11  N   UNL A   1      32.535  28.077  24.911  1.00  0.00    -0.282 N 
ATOM     12  C   UNL A   1      34.043  24.965  26.042  1.00  0.00     0.029 C 
ATOM     13  C   UNL A   1      33.362  25.893  25.349  1.00  0.00     0.081 C 
ATOM     14  S   UNL A   1      32.291  25.656  24.032  1.00  0.00    -0.054 SA
ATOM     15  C   UNL A   1      33.447  27.350  25.662  1.00  0.00     0.266 C 
ATOM     16  C   UNL A   1      31.844  27.362  23.955  1.00  0.00     0.148 C 
ATOM     17  O   UNL A   1      34.238  27.812  26.477  1.00  0.00    -0.268 OA
ATOM     18  S   UNL A   1      30.781  27.959  22.822  1.00  0.00    -0.052 S 
BRANCH  12  19
ATOM     19  C   UNL A   1      34.106  23.522  25.758  1.00  0.00    -0.017 A 
ATOM     20  C   UNL A   1      35.409  21.485  25.291  1.00  0.00     0.165 A 
ATOM     21  C   UNL A   1      35.342  22.851  25.627  1.00  0.00     0.058 A 
ATOM     22  C   UNL A   1      34.212  20.808  25.138  1.00  0.00     0.207 A 
ATOM     23  C   UNL A   1      33.005  21.464  25.269  1.00  0.00     0.170 A 
ATOM     24  O   UNL A   1      34.024  19.485  24.872  1.00  0.00    -0.450 OA
ATOM     25  C   UNL A   1      32.918  22.812  25.557  1.00  0.00     0.059 A 
ATOM     26  O   UNL A   1      31.933  20.643  25.087  1.00  0.00    -0.453 OA
ATOM     27  C   UNL A   1      32.593  19.369  24.981  1.00  0.00     0.468 C 
BRANCH  20  28
ATOM     28  O   UNL A   1      36.669  20.968  25.194  1.00  0.00    -0.493 OA
ATOM     29  C   UNL A   1      37.697  21.875  24.800  1.00  0.00     0.278 C 
ENDBRANCH  20  28
ENDBRANCH  12  19
ENDBRANCH  10  11
ENDBRANCH   8  10
ENDBRANCH   7   8
ENDBRANCH   6   7
ENDBRANCH   5   6
ENDBRANCH   4   5
ENDBRANCH   3   4
ENDBRANCH   2   3
ENDBRANCH   1   2
BRANCH   1  30
ATOM     30  C   UNL A   1      32.606  35.962  31.928  1.00  0.00     0.188 C 
BRANCH  30  31
ATOM     31  C   UNL A   1      33.736  35.269  32.702  1.00  0.00     0.188 C 
BRANCH  31  32
ATOM     32  O   UNL A   1      33.855  33.886  32.388  1.00  0.00    -0.376 OA
BRANCH  32  33
ATOM     33  C   UNL A   1      34.976  33.435  31.648  1.00  0.00     0.202 C 
BRANCH  33  34
ATOM     34  C   UNL A   1      34.892  32.103  30.883  1.00  0.00     0.261 C 
BRANCH  34  35
ATOM     35  O   UNL A   1      35.509  32.040  29.593  1.00  0.00    -0.460 OA
BRANCH  35  36
ATOM     36  C   UNL A   1      35.432  30.879  28.906  1.00  0.00     0.338 C 
ATOM     37  O   UNL A   1      34.521  30.529  28.176  1.00  0.00    -0.246 OA
BRANCH  36  38
ATOM     38  C   UNL A   1      36.747  30.204  29.019  1.00  0.00     0.060 A 
ATOM     39  C   UNL A   1      36.963  29.334  30.098  1.00  0.00     0.016 A 
ATOM     40  C   UNL A   1      37.738  30.382  28.050  1.00  0.00     0.016 A 
ATOM     41  C   UNL A   1      38.175  28.649  30.217  1.00  0.00     0.010 A 
ATOM     42  C   UNL A   1      38.964  29.720  28.191  1.00  0.00     0.010 A 
ATOM     43  C   UNL A   1      39.197  28.870  29.286  1.00  0.00    -0.014 A 
BRANCH  43  44
ATOM     44  C   UNL A   1      40.567  28.372  29.561  1.00  0.00     0.031 A 
ATOM     45  C   UNL A   1      41.407  29.121  30.559  1.00  0.00     0.074 A 
ATOM     46  C   UNL A   1      41.065  27.290  28.935  1.00  0.00     0.049 A 
ATOM     47  N   UNL A   1      42.649  28.926  30.911  1.00  0.00    -0.248 NA
ATOM     48  C   UNL A   1      40.751  30.243  31.251  1.00  0.00     0.031 C 
ATOM     49  C   UNL A   1      40.344  26.465  27.967  1.00  0.00     0.029 A 
ATOM     50  N   UNL A   1      42.314  26.721  29.001  1.00  0.00    -0.354 N 
ATOM     51  C   UNL A   1      42.936  29.919  31.841  1.00  0.00     0.074 A 
ATOM     52  C   UNL A   1      41.741  30.717  31.995  1.00  0.00     0.031 C 
ATOM     53  C   UNL A   1      41.178  25.520  27.497  1.00  0.00     0.029 A 
ATOM     54  C   UNL A   1      42.497  25.693  28.105  1.00  0.00     0.049 A 
ATOM     55  H   UNL A   1      43.011  27.021  29.628  1.00  0.00     0.167 HD
ATOM     56  C   UNL A   1      44.091  30.144  32.511  1.00  0.00     0.034 A 
ATOM     57  C   UNL A   1      43.610  24.999  27.789  1.00  0.00     0.034 A 
ATOM     58  C   UNL A   1      45.279  29.352  32.355  1.00  0.00     0.049 A 
ATOM     59  C   UNL A   1      44.901  25.307  28.506  1.00  0.00     0.074 A 
ATOM     60  C   UNL A   1      46.487  29.476  33.017  1.00  0.00     0.029 A 
ATOM     61  N   UNL A   1      45.418  28.304  31.459  1.00  0.00    -0.354 N 
ATOM     62  N   UNL A   1      45.130  26.176  29.462  1.00  0.00    -0.248 NA
ATOM     63  C   UNL A   1      46.084  24.522  28.118  1.00  0.00     0.031 C 
ATOM     64  C   UNL A   1      47.371  28.529  32.489  1.00  0.00     0.029 A 
ATOM     65  C   UNL A   1      46.699  27.786  31.533  1.00  0.00     0.049 A 
ATOM     66  H   UNL A   1      44.710  27.976  30.859  1.00  0.00     0.167 HD
ATOM     67  C   UNL A   1      46.468  26.017  29.812  1.00  0.00     0.074 A 
ATOM     68  C   UNL A   1      46.995  24.957  28.979  1.00  0.00     0.031 C 
ATOM     69  C   UNL A   1      47.197  26.696  30.733  1.00  0.00     0.034 A 
BRANCH  56  70
ATOM     70  C   UNL A   1      44.122  31.299  33.477  1.00  0.00     0.023 A 
ATOM     71  C   UNL A   1      44.071  31.055  34.864  1.00  0.00     0.012 A 
ATOM     72  C   UNL A   1      44.246  32.622  33.011  1.00  0.00     0.148 A 
ATOM     73  C   UNL A   1      44.108  32.112  35.773  1.00  0.00     0.002 A 
ATOM     74  C   UNL A   1      44.330  33.666  33.924  1.00  0.00     0.091 A 
ATOM     75  F   UNL A   1      44.270  32.834  31.688  1.00  0.00    -0.205 F 
ATOM     76  C   UNL A   1      44.248  33.415  35.303  1.00  0.00     0.022 A 
BRANCH  74  77
ATOM     77  S   UNL A   1      44.590  35.371  33.422  1.00  0.00     0.127 S 
ATOM     78  O   UNL A   1      45.690  35.234  32.470  1.00  0.00    -0.237 OA
ATOM     79  O   UNL A   1      43.300  35.711  32.818  1.00  0.00    -0.237 OA
ATOM     80  O   UNL A   1      44.906  36.107  34.638  1.00  0.00    -0.744 OA
ENDBRANCH  74  77
ENDBRANCH  56  70
BRANCH  57  81
ATOM     81  C   UNL A   1      43.561  23.940  26.739  1.00  0.00     0.023 A 
ATOM     82  C   UNL A   1      44.166  24.168  25.488  1.00  0.00     0.012 A 
ATOM     83  C   UNL A   1      42.916  22.710  26.976  1.00  0.00     0.148 A 
ATOM     84  C   UNL A   1      44.101  23.204  24.480  1.00  0.00     0.002 A 
ATOM     85  C   UNL A   1      42.902  21.733  25.987  1.00  0.00     0.091 A 
ATOM     86  F   UNL A   1      42.330  22.520  28.166  1.00  0.00    -0.205 F 
ATOM     87  C   UNL A   1      43.479  21.985  24.732  1.00  0.00     0.022 A 
BRANCH  85  88
ATOM     88  S   UNL A   1      42.229  20.090  26.259  1.00  0.00     0.127 S 
ATOM     89  O   UNL A   1      40.802  20.313  26.034  1.00  0.00    -0.237 OA
ATOM     90  O   UNL A   1      42.904  19.316  25.217  1.00  0.00    -0.237 OA
ATOM     91  O   UNL A   1      42.603  19.732  27.620  1.00  0.00    -0.744 OA
ENDBRANCH  85  88
ENDBRANCH  57  81
BRANCH  69  92
ATOM     92  C   UNL A   1      48.638  26.295  30.932  1.00  0.00     0.023 A 
ATOM     93  C   UNL A   1      48.966  25.269  31.839  1.00  0.00     0.012 A 
ATOM     94  C   UNL A   1      49.653  26.873  30.144  1.00  0.00     0.148 A 
ATOM     95  C   UNL A   1      50.287  24.841  31.976  1.00  0.00     0.002 A 
ATOM     96  C   UNL A   1      50.959  26.406  30.249  1.00  0.00     0.091 A 
ATOM     97  F   UNL A   1      49.321  27.857  29.296  1.00  0.00    -0.205 F 
ATOM     98  C   UNL A   1      51.279  25.400  31.174  1.00  0.00     0.022 A 
BRANCH  96  99
ATOM     99  S   UNL A   1      52.284  26.992  29.188  1.00  0.00     0.127 S 
ATOM    100  O   UNL A   1      53.375  26.089  29.548  1.00  0.00    -0.237 OA
ATOM    101  O   UNL A   1      51.727  26.776  27.852  1.00  0.00    -0.237 OA
ATOM    102  O   UNL A   1      52.497  28.390  29.539  1.00  0.00    -0.744 OA
ENDBRANCH  96  99
ENDBRANCH  69  92
ENDBRANCH  43  44
ENDBRANCH  36  38
ENDBRANCH  35  36
ENDBRANCH  34  35
ENDBRANCH  33  34
ENDBRANCH  32  33
ENDBRANCH  31  32
ENDBRANCH  30  31
ENDBRANCH   1  30
TORSDOF 26
ENDMDL
MODEL 3
REMARK VINA RESULT:      -8.3      4.482     11.707
REMARK SMILES COc1cc(/C=C2\SC(=S)N(CC(=O)OCCOCCOCCOCCOC(=O)c3ccc(-c4c5nc(c(-c6cccc(S(=O)(=O)[O-])c6F)c6ccc([nH]6)c(-c6cccc(S(=O)(=O)[O-])c6F)c6nc(c(-c7cccc(S(=O)(=O)[O-])c7F)c7ccc4[nH]7)C=C6)C=C5)cc3)C2=O)cc2c1OCO2
REMARK SMILES IDX 21 1 20 2 19 3 18 4 17 5 16 6 15 7 13 8 14 9 12 10 11 11
REMARK SMILES IDX 6 12 7 13 8 14 93 15 9 16 94 17 10 18 5 19 3 20 4 21 97 22
REMARK SMILES IDX 96 23 98 24 95 25 100 26 99 27 2 28 1 29 22 30 23 31 24 32
REMARK SMILES IDX 25 33 26 34 27 35 28 36 29 37 30 38 31 39 92 40 32 41 91 42
REMARK SMILES IDX 33 43 34 44 35 45 85 46 36 47 90 48 84 49 86 50 37 51 89 52
REMARK SMILES IDX 83 53 82 54 38 56 70 57 50 58 69 59 51 60 54 61 68 62 87 63
REMARK SMILES IDX 52 64 53 65 67 67 88 68 55 69 39 70 40 71 48 72 41 73 43 74
REMARK SMILES IDX 49 75 42 76 44 77 45 78 46 79 47 80 71 81 72 82 80 83 73 84
REMARK SMILES IDX 75 85 81 86 74 87 76 88 77 89 78 90 79 91 56 92 57 93 65 94
REMARK SMILES IDX 58 95 60 96 66 97 59 98 61 99 62 100 63 101 64 102
REMARK H PARENT 86 55 54 66
REMARK Flexibility Score: inf
ROOT
ATOM      1  O   UNL A   1      43.112  19.539  26.199  1.00  0.00    -0.377 OA
ENDROOT
BRANCH   1   2
ATOM      2  C   UNL A   1      41.836  18.994  25.946  1.00  0.00     0.188 C 
BRANCH   2   3
ATOM      3  C   UNL A   1      40.653  19.961  26.139  1.00  0.00     0.188 C 
BRANCH   3   4
ATOM      4  O   UNL A   1      40.857  21.289  26.616  1.00  0.00    -0.376 OA
BRANCH   4   5
ATOM      5  C   UNL A   1      41.120  21.513  27.994  1.00  0.00     0.202 C 
BRANCH   5   6
ATOM      6  C   UNL A   1      42.319  22.406  28.379  1.00  0.00     0.261 C 
BRANCH   6   7
ATOM      7  O   UNL A   1      42.010  23.748  28.826  1.00  0.00    -0.462 OA
BRANCH   7   8
ATOM      8  C   UNL A   1      42.762  24.755  28.322  1.00  0.00     0.326 C 
ATOM      9  O   UNL A   1      43.956  24.912  28.570  1.00  0.00    -0.250 OA
BRANCH   8  10
ATOM     10  C   UNL A   1      42.039  25.684  27.324  1.00  0.00     0.250 C 
BRANCH  10  11
ATOM     11  N   UNL A   1      40.842  26.479  27.665  1.00  0.00    -0.282 N 
ATOM     12  C   UNL A   1      39.513  29.672  28.796  1.00  0.00     0.029 C 
ATOM     13  C   UNL A   1      39.652  28.383  28.442  1.00  0.00     0.081 C 
ATOM     14  S   UNL A   1      38.425  27.205  28.231  1.00  0.00    -0.054 SA
ATOM     15  C   UNL A   1      40.982  27.768  28.158  1.00  0.00     0.266 C 
ATOM     16  C   UNL A   1      39.557  25.978  27.659  1.00  0.00     0.148 C 
ATOM     17  O   UNL A   1      42.042  28.352  28.354  1.00  0.00    -0.268 OA
ATOM     18  S   UNL A   1      39.077  24.438  27.249  1.00  0.00    -0.052 S 
BRANCH  12  19
ATOM     19  C   UNL A   1      38.266  30.349  29.189  1.00  0.00    -0.017 A 
ATOM     20  C   UNL A   1      36.650  31.026  30.920  1.00  0.00     0.165 A 
ATOM     21  C   UNL A   1      37.872  30.436  30.543  1.00  0.00     0.058 A 
ATOM     22  C   UNL A   1      35.865  31.560  29.914  1.00  0.00     0.207 A 
ATOM     23  C   UNL A   1      36.252  31.477  28.592  1.00  0.00     0.170 A 
ATOM     24  O   UNL A   1      34.681  32.224  30.037  1.00  0.00    -0.450 OA
ATOM     25  C   UNL A   1      37.426  30.867  28.198  1.00  0.00     0.059 A 
ATOM     26  O   UNL A   1      35.360  32.056  27.741  1.00  0.00    -0.453 OA
ATOM     27  C   UNL A   1      34.447  32.649  28.681  1.00  0.00     0.468 C 
BRANCH  20  28
ATOM     28  O   UNL A   1      36.396  31.037  32.262  1.00  0.00    -0.493 OA
ATOM     29  C   UNL A   1      37.531  30.955  33.122  1.00  0.00     0.278 C 
ENDBRANCH  20  28
ENDBRANCH  12  19
ENDBRANCH  10  11
ENDBRANCH   8  10
ENDBRANCH   7   8
ENDBRANCH   6   7
ENDBRANCH   5   6
ENDBRANCH   4   5
ENDBRANCH   3   4
ENDBRANCH   2   3
ENDBRANCH   1   2
BRANCH   1  30
ATOM     30  C   UNL A   1      44.086  19.356  25.193  1.00  0.00     0.188 C 
BRANCH  30  31
ATOM     31  C   UNL A   1      44.954  20.580  24.867  1.00  0.00     0.188 C 
BRANCH  31  32
ATOM     32  O   UNL A   1      44.187  21.716  24.484  1.00  0.00    -0.376 OA
BRANCH  32  33
ATOM     33  C   UNL A   1      44.440  22.966  25.100  1.00  0.00     0.202 C 
BRANCH  33  34
ATOM     34  C   UNL A   1      45.363  23.032  26.329  1.00  0.00     0.261 C 
BRANCH  34  35
ATOM     35  O   UNL A   1      46.697  23.512  26.130  1.00  0.00    -0.460 OA
BRANCH  35  36
ATOM     36  C   UNL A   1      46.865  24.657  25.434  1.00  0.00     0.338 C 
ATOM     37  O   UNL A   1      47.134  24.751  24.248  1.00  0.00    -0.246 OA
BRANCH  36  38
ATOM     38  C   UNL A   1      46.447  25.778  26.308  1.00  0.00     0.060 A 
ATOM     39  C   UNL A   1      47.146  25.992  27.505  1.00  0.00     0.016 A 
ATOM     40  C   UNL A   1      45.414  26.643  25.934  1.00  0.00     0.016 A 
ATOM     41  C   UNL A   1      46.807  27.062  28.337  1.00  0.00     0.010 A 
ATOM     42  C   UNL A   1      45.054  27.694  26.786  1.00  0.00     0.010 A 
ATOM     43  C   UNL A   1      45.732  27.895  28.001  1.00  0.00    -0.014 A 
BRANCH  43  44
ATOM     44  C   UNL A   1      45.193  28.845  29.004  1.00  0.00     0.031 A 
ATOM     45  C   UNL A   1      44.765  28.300  30.339  1.00  0.00     0.074 A 
ATOM     46  C   UNL A   1      45.070  30.159  28.740  1.00  0.00     0.049 A 
ATOM     47  N   UNL A   1      44.200  28.913  31.345  1.00  0.00    -0.248 NA
ATOM     48  C   UNL A   1      45.009  26.865  30.567  1.00  0.00     0.031 C 
ATOM     49  C   UNL A   1      45.471  30.813  27.496  1.00  0.00     0.029 A 
ATOM     50  N   UNL A   1      44.540  31.173  29.501  1.00  0.00    -0.354 N 
ATOM     51  C   UNL A   1      43.991  27.936  32.311  1.00  0.00     0.074 A 
ATOM     52  C   UNL A   1      44.485  26.690  31.771  1.00  0.00     0.031 C 
ATOM     53  C   UNL A   1      45.132  32.114  27.561  1.00  0.00     0.029 A 
ATOM     54  C   UNL A   1      44.464  32.375  28.836  1.00  0.00     0.049 A 
ATOM     55  H   UNL A   1      44.241  31.051  30.430  1.00  0.00     0.167 HD
ATOM     56  C   UNL A   1      43.440  28.065  33.541  1.00  0.00     0.034 A 
ATOM     57  C   UNL A   1      43.888  33.539  29.201  1.00  0.00     0.034 A 
ATOM     58  C   UNL A   1      42.948  29.304  34.076  1.00  0.00     0.049 A 
ATOM     59  C   UNL A   1      43.227  33.644  30.553  1.00  0.00     0.074 A 
ATOM     60  C   UNL A   1      42.407  29.546  35.326  1.00  0.00     0.029 A 
ATOM     61  N   UNL A   1      42.911  30.504  33.384  1.00  0.00    -0.354 N 
ATOM     62  N   UNL A   1      43.134  32.741  31.501  1.00  0.00    -0.248 NA
ATOM     63  C   UNL A   1      42.611  34.936  30.897  1.00  0.00     0.031 C 
ATOM     64  C   UNL A   1      42.005  30.884  35.374  1.00  0.00     0.029 A 
ATOM     65  C   UNL A   1      42.336  31.486  34.172  1.00  0.00     0.049 A 
ATOM     66  H   UNL A   1      43.245  30.639  32.468  1.00  0.00     0.167 HD
ATOM     67  C   UNL A   1      42.484  33.365  32.562  1.00  0.00     0.074 A 
ATOM     68  C   UNL A   1      42.222  34.728  32.149  1.00  0.00     0.031 C 
ATOM     69  C   UNL A   1      42.127  32.853  33.767  1.00  0.00     0.034 A 
BRANCH  56  70
ATOM     70  C   UNL A   1      43.343  26.828  34.394  1.00  0.00     0.023 A 
ATOM     71  C   UNL A   1      42.122  26.127  34.477  1.00  0.00     0.012 A 
ATOM     72  C   UNL A   1      44.470  26.337  35.080  1.00  0.00     0.148 A 
ATOM     73  C   UNL A   1      42.017  24.975  35.256  1.00  0.00     0.002 A 
ATOM     74  C   UNL A   1      44.370  25.163  35.816  1.00  0.00     0.091 A 
ATOM     75  F   UNL A   1      45.614  27.031  35.007  1.00  0.00    -0.205 F 
ATOM     76  C   UNL A   1      43.142  24.489  35.916  1.00  0.00     0.022 A 
BRANCH  74  77
ATOM     77  S   UNL A   1      45.779  24.413  36.638  1.00  0.00     0.127 S 
ATOM     78  O   UNL A   1      46.717  24.252  35.528  1.00  0.00    -0.237 OA
ATOM     79  O   UNL A   1      46.152  25.445  37.607  1.00  0.00    -0.237 OA
ATOM     80  O   UNL A   1      45.291  23.173  37.226  1.00  0.00    -0.744 OA
ENDBRANCH  74  77
ENDBRANCH  56  70
BRANCH  57  81
ATOM     81  C   UNL A   1      43.905  34.708  28.275  1.00  0.00     0.023 A 
ATOM     82  C   UNL A   1      42.890  34.849  27.308  1.00  0.00     0.012 A 
ATOM     83  C   UNL A   1      44.923  35.679  28.346  1.00  0.00     0.148 A 
ATOM     84  C   UNL A   1      42.907  35.915  26.408  1.00  0.00     0.002 A 
ATOM     85  C   UNL A   1      44.904  36.769  27.484  1.00  0.00     0.091 A 
ATOM     86  F   UNL A   1      45.890  35.518  29.261  1.00  0.00    -0.205 F 
ATOM     87  C   UNL A   1      43.906  36.880  26.502  1.00  0.00     0.022 A 
BRANCH  85  88
ATOM     88  S   UNL A   1      46.080  38.120  27.606  1.00  0.00     0.127 S 
ATOM     89  O   UNL A   1      47.212  37.471  28.263  1.00  0.00    -0.237 OA
ATOM     90  O   UNL A   1      46.294  38.457  26.199  1.00  0.00    -0.237 OA
ATOM     91  O   UNL A   1      45.412  39.156  28.383  1.00  0.00    -0.744 OA
ENDBRANCH  85  88
ENDBRANCH  57  81
BRANCH  69  92
ATOM     92  C   UNL A   1      41.450  33.770  34.755  1.00  0.00     0.023 A 
ATOM     93  C   UNL A   1      40.045  33.807  34.836  1.00  0.00     0.012 A 
ATOM     94  C   UNL A   1      42.216  34.522  35.669  1.00  0.00     0.148 A 
ATOM     95  C   UNL A   1      39.411  34.597  35.795  1.00  0.00     0.002 A 
ATOM     96  C   UNL A   1      41.579  35.266  36.655  1.00  0.00     0.091 A 
ATOM     97  F   UNL A   1      43.552  34.483  35.567  1.00  0.00    -0.205 F 
ATOM     98  C   UNL A   1      40.177  35.315  36.710  1.00  0.00     0.022 A 
BRANCH  96  99
ATOM     99  S   UNL A   1      42.478  36.142  37.940  1.00  0.00     0.127 S 
ATOM    100  O   UNL A   1      43.282  37.077  37.155  1.00  0.00    -0.237 OA
ATOM    101  O   UNL A   1      41.396  36.761  38.706  1.00  0.00    -0.237 OA
ATOM    102  O   UNL A   1      43.236  35.131  38.665  1.00  0.00    -0.744 OA
ENDBRANCH  96  99
ENDBRANCH  69  92
ENDBRANCH  43  44
ENDBRANCH  36  38
ENDBRANCH  35  36
ENDBRANCH  34  35
ENDBRANCH  33  34
ENDBRANCH  32  33
ENDBRANCH  31  32
ENDBRANCH  30  31
ENDBRANCH   1  30
TORSDOF 26
ENDMDL
