MODEL 1
REMARK VINA RESULT:      -8.4      0.000      0.000
REMARK SMILES COc1ccc(-c2ccc(C#N)c(S[C@@H](C)C(=O)OCCOCCOCCOCCOC(=O)c3ccc(-c4c5nc(c(-c6cccc(S(=O)(=O)[O-])c6F)c6ccc([nH]6)c(-c6cccc(S(=O)(=O)[O-])c6F)c6nc(c(-c7cccc(S(=O)(=O)[O-])c7F)c7ccc4[nH]7)C=C6)C=C5)cc3)n2)cc1
REMARK SMILES IDX 24 1 23 2 22 3 21 4 20 5 19 6 17 7 18 8 15 9 16 10 14 11
REMARK SMILES IDX 13 12 7 13 8 14 97 15 9 16 10 17 6 18 3 19 4 20 99 21 5 22
REMARK SMILES IDX 98 23 2 24 1 25 11 26 12 27 25 28 26 29 27 30 28 31 29 32
REMARK SMILES IDX 30 33 31 34 32 35 33 36 34 37 35 38 96 39 36 40 95 41 37 42
REMARK SMILES IDX 38 43 39 44 89 45 40 46 94 47 88 48 90 49 41 50 93 51 87 52
REMARK SMILES IDX 86 53 42 55 74 56 54 57 73 58 55 59 58 60 72 61 91 62 56 63
REMARK SMILES IDX 57 64 71 66 92 67 59 68 43 69 44 70 52 71 45 72 47 73 53 74
REMARK SMILES IDX 46 75 48 76 49 77 50 78 51 79 75 80 76 81 84 82 77 83 79 84
REMARK SMILES IDX 85 85 78 86 80 87 81 88 82 89 83 90 60 91 61 92 69 93 62 94
REMARK SMILES IDX 64 95 70 96 63 97 65 98 66 99 67 100 68 101
REMARK H PARENT 90 54 58 65
REMARK Flexibility Score: inf
ROOT
ATOM      1  C   UNL A   1      35.409  33.424  28.919  1.00  0.00     0.188 C 
ENDROOT
BRANCH   1   2
ATOM      2  C   UNL A   1      34.549  32.542  27.997  1.00  0.00     0.188 C 
BRANCH   2   3
ATOM      3  O   UNL A   1      34.499  31.132  28.164  1.00  0.00    -0.376 OA
BRANCH   3   4
ATOM      4  C   UNL A   1      33.865  30.288  27.213  1.00  0.00     0.202 C 
BRANCH   4   5
ATOM      5  C   UNL A   1      34.193  28.795  27.056  1.00  0.00     0.261 C 
BRANCH   5   6
ATOM      6  O   UNL A   1      34.059  28.244  25.736  1.00  0.00    -0.462 OA
BRANCH   6   7
ATOM      7  C   UNL A   1      32.864  27.691  25.446  1.00  0.00     0.319 C 
ATOM      8  O   UNL A   1      31.934  28.329  24.951  1.00  0.00    -0.251 OA
BRANCH   7   9
ATOM      9  C   UNL A   1      32.749  26.195  25.654  1.00  0.00     0.160 C 
ATOM     10  C   UNL A   1      34.104  25.506  25.552  1.00  0.00     0.032 C 
BRANCH   9  11
ATOM     11  S   UNL A   1      31.462  25.101  24.954  1.00  0.00    -0.090 SA
BRANCH  11  12
ATOM     12  C   UNL A   1      32.023  23.968  23.704  1.00  0.00     0.115 A 
ATOM     13  C   UNL A   1      32.390  21.648  23.433  1.00  0.00     0.072 A 
ATOM     14  C   UNL A   1      32.843  21.835  22.137  1.00  0.00     0.030 A 
ATOM     15  N   UNL A   1      31.938  22.682  24.186  1.00  0.00    -0.240 NA
ATOM     16  C   UNL A   1      32.952  23.133  21.652  1.00  0.00     0.024 A 
ATOM     17  C   UNL A   1      32.600  24.220  22.465  1.00  0.00     0.084 A 
BRANCH  13  18
ATOM     18  C   UNL A   1      32.590  20.356  24.110  1.00  0.00     0.000 A 
ATOM     19  C   UNL A   1      32.839  17.806  25.320  1.00  0.00     0.118 A 
ATOM     20  C   UNL A   1      32.917  18.971  26.087  1.00  0.00     0.047 A 
ATOM     21  C   UNL A   1      32.621  17.907  23.950  1.00  0.00     0.047 A 
ATOM     22  C   UNL A   1      32.815  20.237  25.487  1.00  0.00     0.014 A 
ATOM     23  C   UNL A   1      32.504  19.168  23.356  1.00  0.00     0.014 A 
BRANCH  19  24
ATOM     24  O   UNL A   1      32.923  16.625  26.006  1.00  0.00    -0.497 OA
ATOM     25  C   UNL A   1      32.368  15.497  25.336  1.00  0.00     0.278 C 
ENDBRANCH  19  24
ENDBRANCH  13  18
BRANCH  17  26
ATOM     26  C   UNL A   1      32.958  25.520  22.010  1.00  0.00     0.102 C 
ATOM     27  N   UNL A   1      33.263  26.585  21.652  1.00  0.00    -0.192 NA
ENDBRANCH  17  26
ENDBRANCH  11  12
ENDBRANCH   9  11
ENDBRANCH   7   9
ENDBRANCH   6   7
ENDBRANCH   5   6
ENDBRANCH   4   5
ENDBRANCH   3   4
ENDBRANCH   2   3
ENDBRANCH   1   2
BRANCH   1  28
ATOM     28  O   UNL A   1      34.871  34.705  29.180  1.00  0.00    -0.377 OA
BRANCH  28  29
ATOM     29  C   UNL A   1      33.587  35.005  28.653  1.00  0.00     0.188 C 
BRANCH  29  30
ATOM     30  C   UNL A   1      32.840  36.256  29.170  1.00  0.00     0.188 C 
BRANCH  30  31
ATOM     31  O   UNL A   1      33.442  36.887  30.287  1.00  0.00    -0.376 OA
BRANCH  31  32
ATOM     32  C   UNL A   1      33.090  36.491  31.601  1.00  0.00     0.202 C 
BRANCH  32  33
ATOM     33  C   UNL A   1      34.164  36.396  32.702  1.00  0.00     0.261 C 
BRANCH  33  34
ATOM     34  O   UNL A   1      34.118  35.255  33.569  1.00  0.00    -0.460 OA
BRANCH  34  35
ATOM     35  C   UNL A   1      34.861  34.184  33.222  1.00  0.00     0.338 C 
ATOM     36  O   UNL A   1      34.652  33.426  32.294  1.00  0.00    -0.246 OA
BRANCH  35  37
ATOM     37  C   UNL A   1      36.102  34.200  34.031  1.00  0.00     0.060 A 
ATOM     38  C   UNL A   1      37.299  34.571  33.405  1.00  0.00     0.016 A 
ATOM     39  C   UNL A   1      36.095  33.834  35.379  1.00  0.00     0.016 A 
ATOM     40  C   UNL A   1      38.499  34.516  34.108  1.00  0.00     0.010 A 
ATOM     41  C   UNL A   1      37.306  33.763  36.078  1.00  0.00     0.010 A 
ATOM     42  C   UNL A   1      38.519  34.056  35.430  1.00  0.00    -0.014 A 
BRANCH  42  43
ATOM     43  C   UNL A   1      39.829  33.725  36.044  1.00  0.00     0.031 A 
ATOM     44  C   UNL A   1      40.453  34.701  37.007  1.00  0.00     0.074 A 
ATOM     45  C   UNL A   1      40.418  32.539  35.813  1.00  0.00     0.049 A 
ATOM     46  N   UNL A   1      41.549  34.583  37.710  1.00  0.00    -0.248 NA
ATOM     47  C   UNL A   1      39.745  35.976  37.207  1.00  0.00     0.031 C 
ATOM     48  C   UNL A   1      39.907  31.502  34.918  1.00  0.00     0.029 A 
ATOM     49  N   UNL A   1      41.580  32.009  36.315  1.00  0.00    -0.354 N 
ATOM     50  C   UNL A   1      41.680  35.777  38.413  1.00  0.00     0.074 A 
ATOM     51  C   UNL A   1      40.559  36.610  38.038  1.00  0.00     0.031 C 
ATOM     52  C   UNL A   1      40.758  30.462  34.925  1.00  0.00     0.029 A 
ATOM     53  C   UNL A   1      41.886  30.771  35.802  1.00  0.00     0.049 A 
ATOM     54  H   UNL A   1      42.140  32.471  36.979  1.00  0.00     0.167 HD
ATOM     55  C   UNL A   1      42.637  36.143  39.299  1.00  0.00     0.034 A 
ATOM     56  C   UNL A   1      42.965  29.988  35.999  1.00  0.00     0.034 A 
ATOM     57  C   UNL A   1      43.751  35.312  39.672  1.00  0.00     0.049 A 
ATOM     58  C   UNL A   1      44.034  30.434  36.962  1.00  0.00     0.074 A 
ATOM     59  C   UNL A   1      44.753  35.578  40.590  1.00  0.00     0.029 A 
ATOM     60  N   UNL A   1      44.030  34.066  39.131  1.00  0.00    -0.354 N 
ATOM     61  N   UNL A   1      44.089  31.520  37.695  1.00  0.00    -0.248 NA
ATOM     62  C   UNL A   1      45.171  29.523  37.153  1.00  0.00     0.031 C 
ATOM     63  C   UNL A   1      45.666  34.519  40.562  1.00  0.00     0.029 A 
ATOM     64  C   UNL A   1      45.198  33.561  39.677  1.00  0.00     0.049 A 
ATOM     65  H   UNL A   1      43.477  33.608  38.457  1.00  0.00     0.167 HD
ATOM     66  C   UNL A   1      45.246  31.406  38.460  1.00  0.00     0.074 A 
ATOM     67  C   UNL A   1      45.840  30.129  38.123  1.00  0.00     0.031 C 
ATOM     68  C   UNL A   1      45.773  32.280  39.355  1.00  0.00     0.034 A 
BRANCH  55  69
ATOM     69  C   UNL A   1      42.528  37.513  39.922  1.00  0.00     0.023 A 
ATOM     70  C   UNL A   1      43.135  38.624  39.302  1.00  0.00     0.012 A 
ATOM     71  C   UNL A   1      41.778  37.703  41.098  1.00  0.00     0.148 A 
ATOM     72  C   UNL A   1      43.030  39.896  39.865  1.00  0.00     0.002 A 
ATOM     73  C   UNL A   1      41.634  38.982  41.624  1.00  0.00     0.091 A 
ATOM     74  F   UNL A   1      41.225  36.633  41.685  1.00  0.00    -0.205 F 
ATOM     75  C   UNL A   1      42.271  40.077  41.017  1.00  0.00     0.022 A 
BRANCH  73  76
ATOM     76  S   UNL A   1      40.608  39.330  43.056  1.00  0.00     0.127 S 
ATOM     77  O   UNL A   1      39.308  39.576  42.434  1.00  0.00    -0.237 OA
ATOM     78  O   UNL A   1      40.698  38.078  43.808  1.00  0.00    -0.237 OA
ATOM     79  O   UNL A   1      41.209  40.481  43.714  1.00  0.00    -0.744 OA
ENDBRANCH  73  76
ENDBRANCH  55  69
BRANCH  56  80
ATOM     80  C   UNL A   1      43.089  28.693  35.275  1.00  0.00     0.023 A 
ATOM     81  C   UNL A   1      43.786  28.626  34.054  1.00  0.00     0.012 A 
ATOM     82  C   UNL A   1      42.508  27.523  35.800  1.00  0.00     0.148 A 
ATOM     83  C   UNL A   1      43.867  27.425  33.348  1.00  0.00     0.002 A 
ATOM     84  C   UNL A   1      42.649  26.317  35.126  1.00  0.00     0.091 A 
ATOM     85  F   UNL A   1      41.838  27.611  36.958  1.00  0.00    -0.205 F 
ATOM     86  C   UNL A   1      43.308  26.269  33.888  1.00  0.00     0.022 A 
BRANCH  84  87
ATOM     87  S   UNL A   1      42.086  24.761  35.821  1.00  0.00     0.127 S 
ATOM     88  O   UNL A   1      42.843  24.698  37.068  1.00  0.00    -0.237 OA
ATOM     89  O   UNL A   1      40.653  25.006  35.975  1.00  0.00    -0.237 OA
ATOM     90  O   UNL A   1      42.414  23.743  34.831  1.00  0.00    -0.744 OA
ENDBRANCH  84  87
ENDBRANCH  56  80
BRANCH  68  91
ATOM     91  C   UNL A   1      47.036  31.861  40.069  1.00  0.00     0.023 A 
ATOM     92  C   UNL A   1      48.299  32.228  39.560  1.00  0.00     0.012 A 
ATOM     93  C   UNL A   1      46.967  31.111  41.260  1.00  0.00     0.148 A 
ATOM     94  C   UNL A   1      49.469  31.793  40.182  1.00  0.00     0.002 A 
ATOM     95  C   UNL A   1      48.137  30.735  41.908  1.00  0.00     0.091 A 
ATOM     96  F   UNL A   1      45.761  30.759  41.728  1.00  0.00    -0.205 F 
ATOM     97  C   UNL A   1      49.389  31.054  41.360  1.00  0.00     0.022 A 
BRANCH  95  98
ATOM     98  S   UNL A   1      48.130  29.868  43.481  1.00  0.00     0.127 S 
ATOM     99  O   UNL A   1      47.111  30.609  44.224  1.00  0.00    -0.237 OA
ATOM    100  O   UNL A   1      47.735  28.516  43.087  1.00  0.00    -0.237 OA
ATOM    101  O   UNL A   1      49.485  29.972  44.006  1.00  0.00    -0.744 OA
ENDBRANCH  95  98
ENDBRANCH  68  91
ENDBRANCH  42  43
ENDBRANCH  35  37
ENDBRANCH  34  35
ENDBRANCH  33  34
ENDBRANCH  32  33
ENDBRANCH  31  32
ENDBRANCH  30  31
ENDBRANCH  29  30
ENDBRANCH  28  29
ENDBRANCH   1  28
TORSDOF 28
ENDMDL
MODEL 2
REMARK VINA RESULT:      -8.0      5.259      6.013
REMARK SMILES COc1ccc(-c2ccc(C#N)c(S[C@@H](C)C(=O)OCCOCCOCCOCCOC(=O)c3ccc(-c4c5nc(c(-c6cccc(S(=O)(=O)[O-])c6F)c6ccc([nH]6)c(-c6cccc(S(=O)(=O)[O-])c6F)c6nc(c(-c7cccc(S(=O)(=O)[O-])c7F)c7ccc4[nH]7)C=C6)C=C5)cc3)n2)cc1
REMARK SMILES IDX 24 1 23 2 22 3 21 4 20 5 19 6 17 7 18 8 15 9 16 10 14 11
REMARK SMILES IDX 13 12 7 13 8 14 97 15 9 16 10 17 6 18 3 19 4 20 99 21 5 22
REMARK SMILES IDX 98 23 2 24 1 25 11 26 12 27 25 28 26 29 27 30 28 31 29 32
REMARK SMILES IDX 30 33 31 34 32 35 33 36 34 37 35 38 96 39 36 40 95 41 37 42
REMARK SMILES IDX 38 43 39 44 89 45 40 46 94 47 88 48 90 49 41 50 93 51 87 52
REMARK SMILES IDX 86 53 42 55 74 56 54 57 73 58 55 59 58 60 72 61 91 62 56 63
REMARK SMILES IDX 57 64 71 66 92 67 59 68 43 69 44 70 52 71 45 72 47 73 53 74
REMARK SMILES IDX 46 75 48 76 49 77 50 78 51 79 75 80 76 81 84 82 77 83 79 84
REMARK SMILES IDX 85 85 78 86 80 87 81 88 82 89 83 90 60 91 61 92 69 93 62 94
REMARK SMILES IDX 64 95 70 96 63 97 65 98 66 99 67 100 68 101
REMARK H PARENT 90 54 58 65
REMARK Flexibility Score: inf
ROOT
ATOM      1  C   UNL A   1      35.060  33.326  28.564  1.00  0.00     0.188 C 
ENDROOT
BRANCH   1   2
ATOM      2  C   UNL A   1      33.725  32.846  27.968  1.00  0.00     0.188 C 
BRANCH   2   3
ATOM      3  O   UNL A   1      33.449  31.463  27.800  1.00  0.00    -0.376 OA
BRANCH   3   4
ATOM      4  C   UNL A   1      32.628  30.987  26.743  1.00  0.00     0.202 C 
BRANCH   4   5
ATOM      5  C   UNL A   1      32.728  29.565  26.169  1.00  0.00     0.261 C 
BRANCH   5   6
ATOM      6  O   UNL A   1      33.600  29.390  25.039  1.00  0.00    -0.462 OA
BRANCH   6   7
ATOM      7  C   UNL A   1      33.146  28.579  24.063  1.00  0.00     0.319 C 
ATOM      8  O   UNL A   1      32.321  28.939  23.223  1.00  0.00    -0.251 OA
BRANCH   7   9
ATOM      9  C   UNL A   1      33.792  27.211  23.973  1.00  0.00     0.160 C 
ATOM     10  C   UNL A   1      33.329  26.451  22.737  1.00  0.00     0.032 C 
BRANCH   9  11
ATOM     11  S   UNL A   1      34.030  26.034  25.352  1.00  0.00    -0.090 SA
BRANCH  11  12
ATOM     12  C   UNL A   1      32.762  24.800  25.527  1.00  0.00     0.115 A 
ATOM     13  C   UNL A   1      32.548  22.445  25.507  1.00  0.00     0.072 A 
ATOM     14  C   UNL A   1      31.179  22.532  25.698  1.00  0.00     0.030 A 
ATOM     15  N   UNL A   1      33.335  23.550  25.475  1.00  0.00    -0.240 NA
ATOM     16  C   UNL A   1      30.592  23.791  25.729  1.00  0.00     0.024 A 
ATOM     17  C   UNL A   1      31.380  24.941  25.578  1.00  0.00     0.084 A 
BRANCH  13  18
ATOM     18  C   UNL A   1      33.163  21.166  25.113  1.00  0.00     0.000 A 
ATOM     19  C   UNL A   1      34.219  18.623  24.446  1.00  0.00     0.118 A 
ATOM     20  C   UNL A   1      35.061  19.663  24.848  1.00  0.00     0.047 A 
ATOM     21  C   UNL A   1      32.847  18.843  24.389  1.00  0.00     0.047 A 
ATOM     22  C   UNL A   1      34.543  20.931  25.160  1.00  0.00     0.014 A 
ATOM     23  C   UNL A   1      32.331  20.101  24.714  1.00  0.00     0.014 A 
BRANCH  19  24
ATOM     24  O   UNL A   1      34.823  17.422  24.192  1.00  0.00    -0.497 OA
ATOM     25  C   UNL A   1      33.937  16.366  23.830  1.00  0.00     0.278 C 
ENDBRANCH  19  24
ENDBRANCH  13  18
BRANCH  17  26
ATOM     26  C   UNL A   1      30.705  26.176  25.375  1.00  0.00     0.102 C 
ATOM     27  N   UNL A   1      30.154  27.186  25.191  1.00  0.00    -0.192 NA
ENDBRANCH  17  26
ENDBRANCH  11  12
ENDBRANCH   9  11
ENDBRANCH   7   9
ENDBRANCH   6   7
ENDBRANCH   5   6
ENDBRANCH   4   5
ENDBRANCH   3   4
ENDBRANCH   2   3
ENDBRANCH   1   2
BRANCH   1  28
ATOM     28  O   UNL A   1      35.142  34.719  28.784  1.00  0.00    -0.377 OA
BRANCH  28  29
ATOM     29  C   UNL A   1      34.158  35.545  28.177  1.00  0.00     0.188 C 
BRANCH  29  30
ATOM     30  C   UNL A   1      33.235  36.395  29.080  1.00  0.00     0.188 C 
BRANCH  30  31
ATOM     31  O   UNL A   1      33.581  36.391  30.454  1.00  0.00    -0.376 OA
BRANCH  31  32
ATOM     32  C   UNL A   1      32.949  35.487  31.343  1.00  0.00     0.202 C 
BRANCH  32  33
ATOM     33  C   UNL A   1      33.476  35.307  32.780  1.00  0.00     0.261 C 
BRANCH  33  34
ATOM     34  O   UNL A   1      33.644  33.965  33.256  1.00  0.00    -0.460 OA
BRANCH  34  35
ATOM     35  C   UNL A   1      34.478  33.162  32.562  1.00  0.00     0.338 C 
ATOM     36  O   UNL A   1      34.169  32.390  31.674  1.00  0.00    -0.246 OA
BRANCH  35  37
ATOM     37  C   UNL A   1      35.870  33.528  32.912  1.00  0.00     0.060 A 
ATOM     38  C   UNL A   1      36.523  34.487  32.128  1.00  0.00     0.016 A 
ATOM     39  C   UNL A   1      36.533  32.921  33.981  1.00  0.00     0.016 A 
ATOM     40  C   UNL A   1      37.858  34.795  32.371  1.00  0.00     0.010 A 
ATOM     41  C   UNL A   1      37.881  33.220  34.213  1.00  0.00     0.010 A 
ATOM     42  C   UNL A   1      38.563  34.121  33.376  1.00  0.00    -0.014 A 
BRANCH  42  43
ATOM     43  C   UNL A   1      40.041  34.249  33.411  1.00  0.00     0.031 A 
ATOM     44  C   UNL A   1      40.699  34.806  34.646  1.00  0.00     0.074 A 
ATOM     45  C   UNL A   1      40.795  33.802  32.392  1.00  0.00     0.049 A 
ATOM     46  N   UNL A   1      41.971  34.937  34.920  1.00  0.00    -0.248 NA
ATOM     47  C   UNL A   1      39.803  35.272  35.718  1.00  0.00     0.031 C 
ATOM     48  C   UNL A   1      40.282  33.226  31.150  1.00  0.00     0.029 A 
ATOM     49  N   UNL A   1      42.159  33.765  32.242  1.00  0.00    -0.354 N 
ATOM     50  C   UNL A   1      42.030  35.526  36.178  1.00  0.00     0.074 A 
ATOM     51  C   UNL A   1      40.666  35.741  36.607  1.00  0.00     0.031 C 
ATOM     52  C   UNL A   1      41.319  32.902  30.359  1.00  0.00     0.029 A 
ATOM     53  C   UNL A   1      42.565  33.274  31.025  1.00  0.00     0.049 A 
ATOM     54  H   UNL A   1      42.786  34.063  32.940  1.00  0.00     0.167 HD
ATOM     55  C   UNL A   1      43.119  35.849  36.916  1.00  0.00     0.034 A 
ATOM     56  C   UNL A   1      43.801  33.159  30.500  1.00  0.00     0.034 A 
ATOM     57  C   UNL A   1      44.477  35.633  36.489  1.00  0.00     0.049 A 
ATOM     58  C   UNL A   1      44.995  33.558  31.328  1.00  0.00     0.074 A 
ATOM     59  C   UNL A   1      45.647  35.890  37.182  1.00  0.00     0.029 A 
ATOM     60  N   UNL A   1      44.850  35.135  35.250  1.00  0.00    -0.354 N 
ATOM     61  N   UNL A   1      45.037  34.017  32.555  1.00  0.00    -0.248 NA
ATOM     62  C   UNL A   1      46.315  33.383  30.707  1.00  0.00     0.031 C 
ATOM     63  C   UNL A   1      46.727  35.601  36.341  1.00  0.00     0.029 A 
ATOM     64  C   UNL A   1      46.231  35.099  35.149  1.00  0.00     0.049 A 
ATOM     65  H   UNL A   1      44.224  34.849  34.546  1.00  0.00     0.167 HD
ATOM     66  C   UNL A   1      46.386  34.152  32.866  1.00  0.00     0.074 A 
ATOM     67  C   UNL A   1      47.125  33.693  31.709  1.00  0.00     0.031 C 
ATOM     68  C   UNL A   1      46.961  34.619  34.003  1.00  0.00     0.034 A 
BRANCH  55  69
ATOM     69  C   UNL A   1      42.889  36.483  38.266  1.00  0.00     0.023 A 
ATOM     70  C   UNL A   1      42.402  35.709  39.339  1.00  0.00     0.012 A 
ATOM     71  C   UNL A   1      43.204  37.839  38.480  1.00  0.00     0.148 A 
ATOM     72  C   UNL A   1      42.197  36.284  40.594  1.00  0.00     0.002 A 
ATOM     73  C   UNL A   1      43.047  38.391  39.746  1.00  0.00     0.091 A 
ATOM     74  F   UNL A   1      43.647  38.564  37.444  1.00  0.00    -0.205 F 
ATOM     75  C   UNL A   1      42.529  37.620  40.800  1.00  0.00     0.022 A 
BRANCH  73  76
ATOM     76  S   UNL A   1      43.526  40.078  40.133  1.00  0.00     0.127 S 
ATOM     77  O   UNL A   1      44.906  40.110  39.649  1.00  0.00    -0.237 OA
ATOM     78  O   UNL A   1      42.579  40.855  39.332  1.00  0.00    -0.237 OA
ATOM     79  O   UNL A   1      43.370  40.223  41.573  1.00  0.00    -0.744 OA
ENDBRANCH  73  76
ENDBRANCH  55  69
BRANCH  56  80
ATOM     80  C   UNL A   1      43.978  32.634  29.117  1.00  0.00     0.023 A 
ATOM     81  C   UNL A   1      44.015  31.246  28.885  1.00  0.00     0.012 A 
ATOM     82  C   UNL A   1      44.113  33.517  28.030  1.00  0.00     0.148 A 
ATOM     83  C   UNL A   1      44.226  30.748  27.598  1.00  0.00     0.002 A 
ATOM     84  C   UNL A   1      44.255  33.014  26.743  1.00  0.00     0.091 A 
ATOM     85  F   UNL A   1      44.087  34.835  28.275  1.00  0.00    -0.205 F 
ATOM     86  C   UNL A   1      44.335  31.631  26.527  1.00  0.00     0.022 A 
BRANCH  84  87
ATOM     87  S   UNL A   1      44.258  34.077  25.296  1.00  0.00     0.127 S 
ATOM     88  O   UNL A   1      43.074  34.899  25.526  1.00  0.00    -0.237 OA
ATOM     89  O   UNL A   1      45.536  34.773  25.442  1.00  0.00    -0.237 OA
ATOM     90  O   UNL A   1      44.194  33.182  24.148  1.00  0.00    -0.744 OA
ENDBRANCH  84  87
ENDBRANCH  56  80
BRANCH  68  91
ATOM     91  C   UNL A   1      48.470  34.613  34.068  1.00  0.00     0.023 A 
ATOM     92  C   UNL A   1      49.160  33.481  34.550  1.00  0.00     0.012 A 
ATOM     93  C   UNL A   1      49.208  35.733  33.634  1.00  0.00     0.148 A 
ATOM     94  C   UNL A   1      50.550  33.493  34.668  1.00  0.00     0.002 A 
ATOM     95  C   UNL A   1      50.596  35.712  33.695  1.00  0.00     0.091 A 
ATOM     96  F   UNL A   1      48.540  36.806  33.187  1.00  0.00    -0.205 F 
ATOM     97  C   UNL A   1      51.268  34.604  34.233  1.00  0.00     0.022 A 
BRANCH  95  98
ATOM     98  S   UNL A   1      51.607  37.058  33.066  1.00  0.00     0.127 S 
ATOM     99  O   UNL A   1      52.957  36.559  33.322  1.00  0.00    -0.237 OA
ATOM    100  O   UNL A   1      51.227  37.094  31.654  1.00  0.00    -0.237 OA
ATOM    101  O   UNL A   1      51.223  38.240  33.826  1.00  0.00    -0.744 OA
ENDBRANCH  95  98
ENDBRANCH  68  91
ENDBRANCH  42  43
ENDBRANCH  35  37
ENDBRANCH  34  35
ENDBRANCH  33  34
ENDBRANCH  32  33
ENDBRANCH  31  32
ENDBRANCH  30  31
ENDBRANCH  29  30
ENDBRANCH  28  29
ENDBRANCH   1  28
TORSDOF 28
ENDMDL
MODEL 3
REMARK VINA RESULT:      -8.0      1.593      2.140
REMARK SMILES COc1ccc(-c2ccc(C#N)c(S[C@@H](C)C(=O)OCCOCCOCCOCCOC(=O)c3ccc(-c4c5nc(c(-c6cccc(S(=O)(=O)[O-])c6F)c6ccc([nH]6)c(-c6cccc(S(=O)(=O)[O-])c6F)c6nc(c(-c7cccc(S(=O)(=O)[O-])c7F)c7ccc4[nH]7)C=C6)C=C5)cc3)n2)cc1
REMARK SMILES IDX 24 1 23 2 22 3 21 4 20 5 19 6 17 7 18 8 15 9 16 10 14 11
REMARK SMILES IDX 13 12 7 13 8 14 97 15 9 16 10 17 6 18 3 19 4 20 99 21 5 22
REMARK SMILES IDX 98 23 2 24 1 25 11 26 12 27 25 28 26 29 27 30 28 31 29 32
REMARK SMILES IDX 30 33 31 34 32 35 33 36 34 37 35 38 96 39 36 40 95 41 37 42
REMARK SMILES IDX 38 43 39 44 89 45 40 46 94 47 88 48 90 49 41 50 93 51 87 52
REMARK SMILES IDX 86 53 42 55 74 56 54 57 73 58 55 59 58 60 72 61 91 62 56 63
REMARK SMILES IDX 57 64 71 66 92 67 59 68 43 69 44 70 52 71 45 72 47 73 53 74
REMARK SMILES IDX 46 75 48 76 49 77 50 78 51 79 75 80 76 81 84 82 77 83 79 84
REMARK SMILES IDX 85 85 78 86 80 87 81 88 82 89 83 90 60 91 61 92 69 93 62 94
REMARK SMILES IDX 64 95 70 96 63 97 65 98 66 99 67 100 68 101
REMARK H PARENT 90 54 58 65
REMARK Flexibility Score: inf
ROOT
ATOM      1  C   UNL A   1      34.611  32.621  28.706  1.00  0.00     0.188 C 
ENDROOT
BRANCH   1   2
ATOM      2  C   UNL A   1      33.673  32.068  27.618  1.00  0.00     0.188 C 
BRANCH   2   3
ATOM      3  O   UNL A   1      33.699  30.697  27.251  1.00  0.00    -0.376 OA
BRANCH   3   4
ATOM      4  C   UNL A   1      32.906  30.192  26.186  1.00  0.00     0.202 C 
BRANCH   4   5
ATOM      5  C   UNL A   1      33.329  29.005  25.307  1.00  0.00     0.261 C 
BRANCH   5   6
ATOM      6  O   UNL A   1      32.949  29.065  23.923  1.00  0.00    -0.462 OA
BRANCH   6   7
ATOM      7  C   UNL A   1      31.918  28.277  23.558  1.00  0.00     0.319 C 
ATOM      8  O   UNL A   1      30.757  28.682  23.493  1.00  0.00    -0.251 OA
BRANCH   7   9
ATOM      9  C   UNL A   1      32.271  26.873  23.113  1.00  0.00     0.160 C 
ATOM     10  C   UNL A   1      31.026  26.045  22.822  1.00  0.00     0.032 C 
BRANCH   9  11
ATOM     11  S   UNL A   1      33.554  25.795  23.846  1.00  0.00    -0.090 SA
BRANCH  11  12
ATOM     12  C   UNL A   1      32.970  24.628  25.053  1.00  0.00     0.115 A 
ATOM     13  C   UNL A   1      32.921  22.289  25.398  1.00  0.00     0.072 A 
ATOM     14  C   UNL A   1      32.233  22.443  26.590  1.00  0.00     0.030 A 
ATOM     15  N   UNL A   1      33.331  23.358  24.668  1.00  0.00    -0.240 NA
ATOM     16  C   UNL A   1      31.846  23.722  26.973  1.00  0.00     0.024 A 
ATOM     17  C   UNL A   1      32.160  24.825  26.166  1.00  0.00     0.084 A 
BRANCH  13  18
ATOM     18  C   UNL A   1      33.039  20.961  24.774  1.00  0.00     0.000 A 
ATOM     19  C   UNL A   1      33.438  18.434  23.558  1.00  0.00     0.118 A 
ATOM     20  C   UNL A   1      32.364  19.244  23.183  1.00  0.00     0.047 A 
ATOM     21  C   UNL A   1      34.325  18.886  24.528  1.00  0.00     0.047 A 
ATOM     22  C   UNL A   1      32.151  20.489  23.799  1.00  0.00     0.014 A 
ATOM     23  C   UNL A   1      34.122  20.132  25.130  1.00  0.00     0.014 A 
BRANCH  19  24
ATOM     24  O   UNL A   1      33.570  17.254  22.877  1.00  0.00    -0.497 OA
ATOM     25  C   UNL A   1      33.978  16.142  23.670  1.00  0.00     0.278 C 
ENDBRANCH  19  24
ENDBRANCH  13  18
BRANCH  17  26
ATOM     26  C   UNL A   1      31.536  26.065  26.479  1.00  0.00     0.102 C 
ATOM     27  N   UNL A   1      31.030  27.078  26.752  1.00  0.00    -0.192 NA
ENDBRANCH  17  26
ENDBRANCH  11  12
ENDBRANCH   9  11
ENDBRANCH   7   9
ENDBRANCH   6   7
ENDBRANCH   5   6
ENDBRANCH   4   5
ENDBRANCH   3   4
ENDBRANCH   2   3
ENDBRANCH   1   2
BRANCH   1  28
ATOM     28  O   UNL A   1      34.182  33.832  29.295  1.00  0.00    -0.377 OA
BRANCH  28  29
ATOM     29  C   UNL A   1      33.316  34.667  28.541  1.00  0.00     0.188 C 
BRANCH  29  30
ATOM     30  C   UNL A   1      32.834  35.999  29.160  1.00  0.00     0.188 C 
BRANCH  30  31
ATOM     31  O   UNL A   1      33.577  36.434  30.286  1.00  0.00    -0.376 OA
BRANCH  31  32
ATOM     32  C   UNL A   1      33.165  36.070  31.592  1.00  0.00     0.202 C 
BRANCH  32  33
ATOM     33  C   UNL A   1      34.117  36.254  32.790  1.00  0.00     0.261 C 
BRANCH  33  34
ATOM     34  O   UNL A   1      34.451  35.084  33.550  1.00  0.00    -0.460 OA
BRANCH  34  35
ATOM     35  C   UNL A   1      35.408  34.274  33.051  1.00  0.00     0.338 C 
ATOM     36  O   UNL A   1      35.469  33.835  31.917  1.00  0.00    -0.246 OA
BRANCH  35  37
ATOM     37  C   UNL A   1      36.496  34.174  34.050  1.00  0.00     0.060 A 
ATOM     38  C   UNL A   1      37.765  34.655  33.704  1.00  0.00     0.016 A 
ATOM     39  C   UNL A   1      36.281  33.594  35.303  1.00  0.00     0.016 A 
ATOM     40  C   UNL A   1      38.834  34.501  34.582  1.00  0.00     0.010 A 
ATOM     41  C   UNL A   1      37.360  33.425  36.178  1.00  0.00     0.010 A 
ATOM     42  C   UNL A   1      38.652  33.833  35.799  1.00  0.00    -0.014 A 
BRANCH  42  43
ATOM     43  C   UNL A   1      39.854  33.422  36.567  1.00  0.00     0.031 A 
ATOM     44  C   UNL A   1      40.271  34.236  37.764  1.00  0.00     0.074 A 
ATOM     45  C   UNL A   1      40.519  32.297  36.254  1.00  0.00     0.049 A 
ATOM     46  N   UNL A   1      41.239  34.018  38.616  1.00  0.00    -0.248 NA
ATOM     47  C   UNL A   1      39.490  35.453  38.041  1.00  0.00     0.031 C 
ATOM     48  C   UNL A   1      40.205  31.413  35.132  1.00  0.00     0.029 A 
ATOM     49  N   UNL A   1      41.601  31.706  36.856  1.00  0.00    -0.354 N 
ATOM     50  C   UNL A   1      41.204  35.083  39.511  1.00  0.00     0.074 A 
ATOM     51  C   UNL A   1      40.129  35.953  39.087  1.00  0.00     0.031 C 
ATOM     52  C   UNL A   1      41.083  30.397  35.120  1.00  0.00     0.029 A 
ATOM     53  C   UNL A   1      42.037  30.572  36.213  1.00  0.00     0.049 A 
ATOM     54  H   UNL A   1      42.025  32.060  37.671  1.00  0.00     0.167 HD
ATOM     55  C   UNL A   1      41.986  35.311  40.593  1.00  0.00     0.034 A 
ATOM     56  C   UNL A   1      43.098  29.780  36.465  1.00  0.00     0.034 A 
ATOM     57  C   UNL A   1      43.055  34.444  41.014  1.00  0.00     0.049 A 
ATOM     58  C   UNL A   1      43.974  30.076  37.654  1.00  0.00     0.074 A 
ATOM     59  C   UNL A   1      43.879  34.569  42.119  1.00  0.00     0.029 A 
ATOM     60  N   UNL A   1      43.467  33.306  40.338  1.00  0.00    -0.354 N 
ATOM     61  N   UNL A   1      43.865  31.028  38.548  1.00  0.00    -0.248 NA
ATOM     62  C   UNL A   1      45.099  29.159  37.888  1.00  0.00     0.031 C 
ATOM     63  C   UNL A   1      44.825  33.540  42.079  1.00  0.00     0.029 A 
ATOM     64  C   UNL A   1      44.548  32.733  40.988  1.00  0.00     0.049 A 
ATOM     65  H   UNL A   1      43.053  32.958  39.516  1.00  0.00     0.167 HD
ATOM     66  C   UNL A   1      44.882  30.805  39.470  1.00  0.00     0.074 A 
ATOM     67  C   UNL A   1      45.573  29.607  39.041  1.00  0.00     0.031 C 
ATOM     68  C   UNL A   1      45.218  31.528  40.569  1.00  0.00     0.034 A 
BRANCH  55  69
ATOM     69  C   UNL A   1      41.722  36.560  41.397  1.00  0.00     0.023 A 
ATOM     70  C   UNL A   1      40.906  36.505  42.546  1.00  0.00     0.012 A 
ATOM     71  C   UNL A   1      42.327  37.781  41.039  1.00  0.00     0.148 A 
ATOM     72  C   UNL A   1      40.666  37.652  43.302  1.00  0.00     0.002 A 
ATOM     73  C   UNL A   1      42.126  38.907  41.827  1.00  0.00     0.091 A 
ATOM     74  F   UNL A   1      43.084  37.819  39.933  1.00  0.00    -0.205 F 
ATOM     75  C   UNL A   1      41.284  38.849  42.950  1.00  0.00     0.022 A 
BRANCH  73  76
ATOM     76  S   UNL A   1      42.944  40.473  41.506  1.00  0.00     0.127 S 
ATOM     77  O   UNL A   1      42.317  40.880  40.249  1.00  0.00    -0.237 OA
ATOM     78  O   UNL A   1      42.549  41.267  42.670  1.00  0.00    -0.237 OA
ATOM     79  O   UNL A   1      44.367  40.178  41.424  1.00  0.00    -0.744 OA
ENDBRANCH  73  76
ENDBRANCH  55  69
BRANCH  56  80
ATOM     80  C   UNL A   1      43.391  28.621  35.576  1.00  0.00     0.023 A 
ATOM     81  C   UNL A   1      44.152  28.800  34.405  1.00  0.00     0.012 A 
ATOM     82  C   UNL A   1      42.909  27.338  35.894  1.00  0.00     0.148 A 
ATOM     83  C   UNL A   1      44.391  27.727  33.545  1.00  0.00     0.002 A 
ATOM     84  C   UNL A   1      43.207  26.262  35.068  1.00  0.00     0.091 A 
ATOM     85  F   UNL A   1      42.177  27.192  37.007  1.00  0.00    -0.205 F 
ATOM     86  C   UNL A   1      43.928  26.457  33.881  1.00  0.00     0.022 A 
BRANCH  84  87
ATOM     87  S   UNL A   1      42.774  24.575  35.502  1.00  0.00     0.127 S 
ATOM     88  O   UNL A   1      43.233  23.837  34.329  1.00  0.00    -0.237 OA
ATOM     89  O   UNL A   1      43.564  24.368  36.715  1.00  0.00    -0.237 OA
ATOM     90  O   UNL A   1      41.333  24.580  35.721  1.00  0.00    -0.744 OA
ENDBRANCH  84  87
ENDBRANCH  56  80
BRANCH  68  91
ATOM     91  C   UNL A   1      46.361  31.014  41.411  1.00  0.00     0.023 A 
ATOM     92  C   UNL A   1      47.691  31.377  41.111  1.00  0.00     0.012 A 
ATOM     93  C   UNL A   1      46.112  30.177  42.517  1.00  0.00     0.148 A 
ATOM     94  C   UNL A   1      48.753  30.857  41.849  1.00  0.00     0.002 A 
ATOM     95  C   UNL A   1      47.172  29.713  43.287  1.00  0.00     0.091 A 
ATOM     96  F   UNL A   1      44.845  29.831  42.787  1.00  0.00    -0.205 F 
ATOM     97  C   UNL A   1      48.494  30.032  42.941  1.00  0.00     0.022 A 
BRANCH  95  98
ATOM     98  S   UNL A   1      46.928  28.729  44.769  1.00  0.00     0.127 S 
ATOM     99  O   UNL A   1      47.087  29.732  45.821  1.00  0.00    -0.237 OA
ATOM    100  O   UNL A   1      45.560  28.241  44.593  1.00  0.00    -0.237 OA
ATOM    101  O   UNL A   1      47.949  27.690  44.736  1.00  0.00    -0.744 OA
ENDBRANCH  95  98
ENDBRANCH  68  91
ENDBRANCH  42  43
ENDBRANCH  35  37
ENDBRANCH  34  35
ENDBRANCH  33  34
ENDBRANCH  32  33
ENDBRANCH  31  32
ENDBRANCH  30  31
ENDBRANCH  29  30
ENDBRANCH  28  29
ENDBRANCH   1  28
TORSDOF 28
ENDMDL
