MODEL 1
REMARK VINA RESULT:      -9.2      0.000      0.000
REMARK SMILES CC[C@@H](NS(=O)(=O)c1cc(C)ccc1C)C(=O)OCCOCCOCCOCCOC(=O)c1ccc(-c2c3nc(c(-c4cccc(S(=O)(=O)[O-])c4F)c4ccc([nH]4)c(-c4cccc(S(=O)(=O)[O-])c4F)c4nc(c(-c5cccc(S(=O)(=O)[O-])c5F)c5ccc2[nH]5)C=C4)C=C3)cc1
REMARK SMILES IDX 24 1 23 2 22 3 21 4 20 5 19 6 18 7 16 8 17 9 3 10 2 11 1 12
REMARK SMILES IDX 4 13 5 15 6 16 7 17 8 18 9 19 14 20 10 21 13 22 15 23 11 24
REMARK SMILES IDX 12 25 25 26 26 27 27 28 28 29 29 30 30 31 31 32 32 33 33 34
REMARK SMILES IDX 34 35 95 36 35 37 94 38 36 39 37 40 38 41 88 42 39 43 93 44
REMARK SMILES IDX 87 45 89 46 40 47 92 48 86 49 85 50 41 52 73 53 53 54 72 55
REMARK SMILES IDX 54 56 57 57 71 58 90 59 55 60 56 61 70 63 91 64 58 65 42 66
REMARK SMILES IDX 43 67 51 68 44 69 46 70 52 71 45 72 47 73 48 74 49 75 50 76
REMARK SMILES IDX 74 77 75 78 83 79 76 80 78 81 84 82 77 83 79 84 80 85 81 86
REMARK SMILES IDX 82 87 59 88 60 89 68 90 61 91 63 92 69 93 62 94 64 95 65 96
REMARK SMILES IDX 66 97 67 98
REMARK H PARENT 4 14 89 51 57 62
REMARK Flexibility Score: inf
ROOT
ATOM      1  O   UNL A   1      33.819  28.151  26.934  1.00  0.00    -0.377 OA
ENDROOT
BRANCH   1   2
ATOM      2  C   UNL A   1      32.486  27.698  27.148  1.00  0.00     0.188 C 
BRANCH   2   3
ATOM      3  C   UNL A   1      31.946  26.464  26.393  1.00  0.00     0.188 C 
BRANCH   3   4
ATOM      4  O   UNL A   1      31.155  25.541  27.135  1.00  0.00    -0.376 OA
BRANCH   4   5
ATOM      5  C   UNL A   1      30.865  24.247  26.631  1.00  0.00     0.202 C 
BRANCH   5   6
ATOM      6  C   UNL A   1      31.969  23.202  26.852  1.00  0.00     0.261 C 
BRANCH   6   7
ATOM      7  O   UNL A   1      32.746  23.074  25.662  1.00  0.00    -0.462 OA
BRANCH   7   8
ATOM      8  C   UNL A   1      34.058  23.395  25.786  1.00  0.00     0.324 C 
ATOM      9  O   UNL A   1      34.689  23.374  26.831  1.00  0.00    -0.250 OA
BRANCH   8  10
ATOM     10  C   UNL A   1      34.609  23.642  24.406  1.00  0.00     0.179 C 
BRANCH  10  11
ATOM     11  C   UNL A   1      35.523  22.499  23.934  1.00  0.00     0.028 C 
ATOM     12  C   UNL A   1      36.677  22.971  23.045  1.00  0.00     0.006 C 
ENDBRANCH  10  11
BRANCH  10  13
ATOM     13  N   UNL A   1      33.651  24.015  23.386  1.00  0.00    -0.197 NA
ATOM     14  H   UNL A   1      32.759  23.674  23.746  1.00  0.00     0.142 HD
BRANCH  13  15
ATOM     15  S   UNL A   1      33.288  25.517  22.750  1.00  0.00     0.241 S 
ATOM     16  O   UNL A   1      34.155  26.359  23.531  1.00  0.00    -0.207 OA
ATOM     17  O   UNL A   1      33.532  25.279  21.340  1.00  0.00    -0.207 OA
BRANCH  15  18
ATOM     18  C   UNL A   1      31.664  26.257  22.894  1.00  0.00     0.085 A 
ATOM     19  C   UNL A   1      31.566  27.645  23.065  1.00  0.00     0.025 A 
ATOM     20  C   UNL A   1      30.530  25.503  23.194  1.00  0.00    -0.031 A 
ATOM     21  C   UNL A   1      30.351  28.245  23.468  1.00  0.00    -0.050 A 
ATOM     22  C   UNL A   1      29.294  26.099  23.496  1.00  0.00     0.005 A 
ATOM     23  C   UNL A   1      30.620  24.042  23.210  1.00  0.00     0.046 C 
ATOM     24  C   UNL A   1      30.272  29.697  23.833  1.00  0.00     0.044 C 
ATOM     25  C   UNL A   1      29.202  27.469  23.619  1.00  0.00     0.004 A 
ENDBRANCH  15  18
ENDBRANCH  13  15
ENDBRANCH  10  13
ENDBRANCH   8  10
ENDBRANCH   7   8
ENDBRANCH   6   7
ENDBRANCH   5   6
ENDBRANCH   4   5
ENDBRANCH   3   4
ENDBRANCH   2   3
ENDBRANCH   1   2
BRANCH   1  26
ATOM     26  C   UNL A   1      34.004  29.536  26.672  1.00  0.00     0.188 C 
BRANCH  26  27
ATOM     27  C   UNL A   1      32.996  30.538  27.276  1.00  0.00     0.188 C 
BRANCH  27  28
ATOM     28  O   UNL A   1      33.400  31.898  27.205  1.00  0.00    -0.376 OA
BRANCH  28  29
ATOM     29  C   UNL A   1      33.947  32.455  28.387  1.00  0.00     0.202 C 
BRANCH  29  30
ATOM     30  C   UNL A   1      35.421  32.067  28.512  1.00  0.00     0.261 C 
BRANCH  30  31
ATOM     31  O   UNL A   1      35.988  32.448  29.784  1.00  0.00    -0.460 OA
BRANCH  31  32
ATOM     32  C   UNL A   1      36.148  31.439  30.680  1.00  0.00     0.338 C 
ATOM     33  O   UNL A   1      35.484  31.295  31.695  1.00  0.00    -0.246 OA
BRANCH  32  34
ATOM     34  C   UNL A   1      37.326  30.614  30.282  1.00  0.00     0.060 A 
ATOM     35  C   UNL A   1      37.231  29.233  30.394  1.00  0.00     0.016 A 
ATOM     36  C   UNL A   1      38.574  31.201  29.988  1.00  0.00     0.016 A 
ATOM     37  C   UNL A   1      38.400  28.480  30.339  1.00  0.00     0.010 A 
ATOM     38  C   UNL A   1      39.753  30.445  29.991  1.00  0.00     0.010 A 
ATOM     39  C   UNL A   1      39.684  29.080  30.232  1.00  0.00    -0.014 A 
BRANCH  39  40
ATOM     40  C   UNL A   1      40.861  28.176  30.200  1.00  0.00     0.031 A 
ATOM     41  C   UNL A   1      41.673  28.320  31.430  1.00  0.00     0.074 A 
ATOM     42  C   UNL A   1      41.336  27.385  29.200  1.00  0.00     0.049 A 
ATOM     43  N   UNL A   1      42.927  28.646  31.502  1.00  0.00    -0.248 NA
ATOM     44  C   UNL A   1      40.957  28.286  32.717  1.00  0.00     0.031 C 
ATOM     45  C   UNL A   1      40.712  27.144  27.904  1.00  0.00     0.029 A 
ATOM     46  N   UNL A   1      42.530  26.669  29.104  1.00  0.00    -0.354 N 
ATOM     47  C   UNL A   1      43.210  28.557  32.851  1.00  0.00     0.074 A 
ATOM     48  C   UNL A   1      41.951  28.535  33.561  1.00  0.00     0.031 C 
ATOM     49  C   UNL A   1      41.467  26.273  27.198  1.00  0.00     0.029 A 
ATOM     50  C   UNL A   1      42.639  25.862  27.970  1.00  0.00     0.049 A 
ATOM     51  H   UNL A   1      43.241  26.729  29.782  1.00  0.00     0.167 HD
ATOM     52  C   UNL A   1      44.358  27.960  33.240  1.00  0.00     0.034 A 
ATOM     53  C   UNL A   1      43.550  24.891  27.661  1.00  0.00     0.034 A 
ATOM     54  C   UNL A   1      45.528  28.255  32.478  1.00  0.00     0.049 A 
ATOM     55  C   UNL A   1      44.853  25.055  28.412  1.00  0.00     0.074 A 
ATOM     56  C   UNL A   1      46.565  29.152  32.576  1.00  0.00     0.029 A 
ATOM     57  N   UNL A   1      45.688  27.612  31.285  1.00  0.00    -0.354 N 
ATOM     58  N   UNL A   1      45.924  25.722  28.051  1.00  0.00    -0.248 NA
ATOM     59  C   UNL A   1      44.935  24.469  29.751  1.00  0.00     0.031 C 
ATOM     60  C   UNL A   1      47.444  28.884  31.491  1.00  0.00     0.029 A 
ATOM     61  C   UNL A   1      46.945  27.814  30.751  1.00  0.00     0.049 A 
ATOM     62  H   UNL A   1      44.990  27.066  30.855  1.00  0.00     0.167 HD
ATOM     63  C   UNL A   1      46.639  25.950  29.227  1.00  0.00     0.074 A 
ATOM     64  C   UNL A   1      46.044  25.050  30.207  1.00  0.00     0.031 C 
ATOM     65  C   UNL A   1      47.332  27.101  29.523  1.00  0.00     0.034 A 
BRANCH  52  66
ATOM     66  C   UNL A   1      44.255  26.746  34.116  1.00  0.00     0.023 A 
ATOM     67  C   UNL A   1      43.929  25.510  33.548  1.00  0.00     0.012 A 
ATOM     68  C   UNL A   1      44.325  26.823  35.532  1.00  0.00     0.148 A 
ATOM     69  C   UNL A   1      43.751  24.382  34.354  1.00  0.00     0.002 A 
ATOM     70  C   UNL A   1      44.273  25.684  36.315  1.00  0.00     0.091 A 
ATOM     71  F   UNL A   1      44.335  28.020  36.135  1.00  0.00    -0.205 F 
ATOM     72  C   UNL A   1      43.965  24.457  35.731  1.00  0.00     0.022 A 
BRANCH  70  73
ATOM     73  S   UNL A   1      44.708  25.752  38.056  1.00  0.00     0.127 S 
ATOM     74  O   UNL A   1      46.024  26.381  38.014  1.00  0.00    -0.237 OA
ATOM     75  O   UNL A   1      43.638  26.584  38.607  1.00  0.00    -0.237 OA
ATOM     76  O   UNL A   1      44.666  24.365  38.509  1.00  0.00    -0.744 OA
ENDBRANCH  70  73
ENDBRANCH  52  66
BRANCH  53  77
ATOM     77  C   UNL A   1      43.326  23.643  26.814  1.00  0.00     0.023 A 
ATOM     78  C   UNL A   1      44.320  23.239  25.888  1.00  0.00     0.012 A 
ATOM     79  C   UNL A   1      42.282  22.707  27.035  1.00  0.00     0.148 A 
ATOM     80  C   UNL A   1      44.286  21.982  25.248  1.00  0.00     0.002 A 
ATOM     81  C   UNL A   1      42.224  21.481  26.361  1.00  0.00     0.091 A 
ATOM     82  F   UNL A   1      41.369  22.932  27.984  1.00  0.00    -0.205 F 
ATOM     83  C   UNL A   1      43.235  21.104  25.479  1.00  0.00     0.022 A 
BRANCH  81  84
ATOM     84  S   UNL A   1      40.850  20.343  26.629  1.00  0.00     0.127 S 
ATOM     85  O   UNL A   1      39.692  21.129  26.196  1.00  0.00    -0.237 OA
ATOM     86  O   UNL A   1      41.192  19.230  25.748  1.00  0.00    -0.237 OA
ATOM     87  O   UNL A   1      40.864  20.060  28.060  1.00  0.00    -0.744 OA
ENDBRANCH  81  84
ENDBRANCH  53  77
BRANCH  65  88
ATOM     88  C   UNL A   1      48.335  27.752  28.575  1.00  0.00     0.023 A 
ATOM     89  C   UNL A   1      47.986  28.652  27.563  1.00  0.00     0.012 A 
ATOM     90  C   UNL A   1      49.722  27.507  28.736  1.00  0.00     0.148 A 
ATOM     91  C   UNL A   1      48.949  29.426  26.891  1.00  0.00     0.002 A 
ATOM     92  C   UNL A   1      50.684  28.278  28.077  1.00  0.00     0.091 A 
ATOM     93  F   UNL A   1      50.102  26.475  29.504  1.00  0.00    -0.205 F 
ATOM     94  C   UNL A   1      50.297  29.271  27.179  1.00  0.00     0.022 A 
BRANCH  92  95
ATOM     95  S   UNL A   1      52.447  28.090  28.379  1.00  0.00     0.127 S 
ATOM     96  O   UNL A   1      52.705  26.748  27.858  1.00  0.00    -0.237 OA
ATOM     97  O   UNL A   1      53.023  29.176  27.583  1.00  0.00    -0.237 OA
ATOM     98  O   UNL A   1      52.628  28.250  29.816  1.00  0.00    -0.744 OA
ENDBRANCH  92  95
ENDBRANCH  65  88
ENDBRANCH  39  40
ENDBRANCH  32  34
ENDBRANCH  31  32
ENDBRANCH  30  31
ENDBRANCH  29  30
ENDBRANCH  28  29
ENDBRANCH  27  28
ENDBRANCH  26  27
ENDBRANCH   1  26
TORSDOF 27
ENDMDL
MODEL 2
REMARK VINA RESULT:      -8.6      2.978      7.176
REMARK SMILES CC[C@@H](NS(=O)(=O)c1cc(C)ccc1C)C(=O)OCCOCCOCCOCCOC(=O)c1ccc(-c2c3nc(c(-c4cccc(S(=O)(=O)[O-])c4F)c4ccc([nH]4)c(-c4cccc(S(=O)(=O)[O-])c4F)c4nc(c(-c5cccc(S(=O)(=O)[O-])c5F)c5ccc2[nH]5)C=C4)C=C3)cc1
REMARK SMILES IDX 24 1 23 2 22 3 21 4 20 5 19 6 18 7 16 8 17 9 3 10 2 11 1 12
REMARK SMILES IDX 4 13 5 15 6 16 7 17 8 18 9 19 14 20 10 21 13 22 15 23 11 24
REMARK SMILES IDX 12 25 25 26 26 27 27 28 28 29 29 30 30 31 31 32 32 33 33 34
REMARK SMILES IDX 34 35 95 36 35 37 94 38 36 39 37 40 38 41 88 42 39 43 93 44
REMARK SMILES IDX 87 45 89 46 40 47 92 48 86 49 85 50 41 52 73 53 53 54 72 55
REMARK SMILES IDX 54 56 57 57 71 58 90 59 55 60 56 61 70 63 91 64 58 65 42 66
REMARK SMILES IDX 43 67 51 68 44 69 46 70 52 71 45 72 47 73 48 74 49 75 50 76
REMARK SMILES IDX 74 77 75 78 83 79 76 80 78 81 84 82 77 83 79 84 80 85 81 86
REMARK SMILES IDX 82 87 59 88 60 89 68 90 61 91 63 92 69 93 62 94 64 95 65 96
REMARK SMILES IDX 66 97 67 98
REMARK H PARENT 4 14 89 51 57 62
REMARK Flexibility Score: inf
ROOT
ATOM      1  O   UNL A   1      31.304  22.538  26.258  1.00  0.00    -0.377 OA
ENDROOT
BRANCH   1   2
ATOM      2  C   UNL A   1      31.163  23.742  25.512  1.00  0.00     0.188 C 
BRANCH   2   3
ATOM      3  C   UNL A   1      30.923  23.698  23.987  1.00  0.00     0.188 C 
BRANCH   3   4
ATOM      4  O   UNL A   1      32.072  23.716  23.146  1.00  0.00    -0.376 OA
BRANCH   4   5
ATOM      5  C   UNL A   1      32.382  24.847  22.348  1.00  0.00     0.202 C 
BRANCH   5   6
ATOM      6  C   UNL A   1      33.600  25.658  22.815  1.00  0.00     0.261 C 
BRANCH   6   7
ATOM      7  O   UNL A   1      33.216  27.016  23.021  1.00  0.00    -0.462 OA
BRANCH   7   8
ATOM      8  C   UNL A   1      33.349  27.473  24.290  1.00  0.00     0.324 C 
ATOM      9  O   UNL A   1      33.974  26.912  25.175  1.00  0.00    -0.250 OA
BRANCH   8  10
ATOM     10  C   UNL A   1      32.714  28.837  24.363  1.00  0.00     0.179 C 
BRANCH  10  11
ATOM     11  C   UNL A   1      31.210  28.761  24.673  1.00  0.00     0.028 C 
ATOM     12  C   UNL A   1      30.400  28.049  23.587  1.00  0.00     0.006 C 
ENDBRANCH  10  11
BRANCH  10  13
ATOM     13  N   UNL A   1      33.381  29.818  25.194  1.00  0.00    -0.197 NA
ATOM     14  H   UNL A   1      33.268  30.694  24.684  1.00  0.00     0.142 HD
BRANCH  13  15
ATOM     15  S   UNL A   1      33.112  30.237  26.790  1.00  0.00     0.241 S 
ATOM     16  O   UNL A   1      31.949  31.075  26.657  1.00  0.00    -0.207 OA
ATOM     17  O   UNL A   1      33.034  28.925  27.403  1.00  0.00    -0.207 OA
BRANCH  15  18
ATOM     18  C   UNL A   1      34.279  31.205  27.742  1.00  0.00     0.085 A 
ATOM     19  C   UNL A   1      34.025  32.570  27.936  1.00  0.00     0.025 A 
ATOM     20  C   UNL A   1      35.576  30.763  27.995  1.00  0.00    -0.031 A 
ATOM     21  C   UNL A   1      35.031  33.435  28.421  1.00  0.00    -0.050 A 
ATOM     22  C   UNL A   1      36.550  31.593  28.573  1.00  0.00     0.005 A 
ATOM     23  C   UNL A   1      35.952  29.392  27.642  1.00  0.00     0.046 C 
ATOM     24  C   UNL A   1      34.840  34.922  28.462  1.00  0.00     0.044 C 
ATOM     25  C   UNL A   1      36.274  32.925  28.799  1.00  0.00     0.004 A 
ENDBRANCH  15  18
ENDBRANCH  13  15
ENDBRANCH  10  13
ENDBRANCH   8  10
ENDBRANCH   7   8
ENDBRANCH   6   7
ENDBRANCH   5   6
ENDBRANCH   4   5
ENDBRANCH   3   4
ENDBRANCH   2   3
ENDBRANCH   1   2
BRANCH   1  26
ATOM     26  C   UNL A   1      32.623  22.126  26.592  1.00  0.00     0.188 C 
BRANCH  26  27
ATOM     27  C   UNL A   1      33.806  22.999  26.117  1.00  0.00     0.188 C 
BRANCH  27  28
ATOM     28  O   UNL A   1      34.434  22.544  24.926  1.00  0.00    -0.376 OA
BRANCH  28  29
ATOM     29  C   UNL A   1      34.433  21.144  24.709  1.00  0.00     0.202 C 
BRANCH  29  30
ATOM     30  C   UNL A   1      35.771  20.549  25.149  1.00  0.00     0.261 C 
BRANCH  30  31
ATOM     31  O   UNL A   1      36.832  21.528  25.172  1.00  0.00    -0.460 OA
BRANCH  31  32
ATOM     32  C   UNL A   1      38.081  21.033  25.374  1.00  0.00     0.338 C 
ATOM     33  O   UNL A   1      38.401  19.863  25.231  1.00  0.00    -0.246 OA
BRANCH  32  34
ATOM     34  C   UNL A   1      38.956  22.120  25.904  1.00  0.00     0.060 A 
ATOM     35  C   UNL A   1      40.235  21.785  26.332  1.00  0.00     0.016 A 
ATOM     36  C   UNL A   1      38.457  23.414  26.157  1.00  0.00     0.016 A 
ATOM     37  C   UNL A   1      40.934  22.701  27.113  1.00  0.00     0.010 A 
ATOM     38  C   UNL A   1      39.141  24.308  26.990  1.00  0.00     0.010 A 
ATOM     39  C   UNL A   1      40.363  23.933  27.531  1.00  0.00    -0.014 A 
BRANCH  39  40
ATOM     40  C   UNL A   1      41.199  24.823  28.377  1.00  0.00     0.031 A 
ATOM     41  C   UNL A   1      40.818  26.241  28.191  1.00  0.00     0.074 A 
ATOM     42  C   UNL A   1      42.285  24.539  29.145  1.00  0.00     0.049 A 
ATOM     43  N   UNL A   1      41.588  27.211  27.805  1.00  0.00    -0.248 NA
ATOM     44  C   UNL A   1      39.382  26.567  28.258  1.00  0.00     0.031 C 
ATOM     45  C   UNL A   1      42.844  23.220  29.419  1.00  0.00     0.029 A 
ATOM     46  N   UNL A   1      43.174  25.392  29.802  1.00  0.00    -0.354 N 
ATOM     47  C   UNL A   1      40.774  28.324  27.877  1.00  0.00     0.074 A 
ATOM     48  C   UNL A   1      39.407  27.860  27.959  1.00  0.00     0.031 C 
ATOM     49  C   UNL A   1      43.899  23.345  30.254  1.00  0.00     0.029 A 
ATOM     50  C   UNL A   1      44.117  24.747  30.606  1.00  0.00     0.049 A 
ATOM     51  H   UNL A   1      43.140  26.370  29.706  1.00  0.00     0.167 HD
ATOM     52  C   UNL A   1      41.267  29.461  28.416  1.00  0.00     0.034 A 
ATOM     53  C   UNL A   1      44.985  25.256  31.531  1.00  0.00     0.034 A 
ATOM     54  C   UNL A   1      42.604  29.812  28.066  1.00  0.00     0.049 A 
ATOM     55  C   UNL A   1      45.286  26.721  31.302  1.00  0.00     0.074 A 
ATOM     56  C   UNL A   1      43.193  30.616  27.119  1.00  0.00     0.029 A 
ATOM     57  N   UNL A   1      43.620  29.160  28.702  1.00  0.00    -0.354 N 
ATOM     58  N   UNL A   1      46.248  27.253  30.584  1.00  0.00    -0.248 NA
ATOM     59  C   UNL A   1      44.361  27.697  31.882  1.00  0.00     0.031 C 
ATOM     60  C   UNL A   1      44.596  30.558  27.346  1.00  0.00     0.029 A 
ATOM     61  C   UNL A   1      44.849  29.734  28.440  1.00  0.00     0.049 A 
ATOM     62  H   UNL A   1      43.493  28.375  29.282  1.00  0.00     0.167 HD
ATOM     63  C   UNL A   1      45.839  28.561  30.319  1.00  0.00     0.074 A 
ATOM     64  C   UNL A   1      44.741  28.804  31.246  1.00  0.00     0.031 C 
ATOM     65  C   UNL A   1      46.045  29.231  29.135  1.00  0.00     0.034 A 
BRANCH  52  66
ATOM     66  C   UNL A   1      40.582  30.013  29.632  1.00  0.00     0.023 A 
ATOM     67  C   UNL A   1      40.109  31.329  29.619  1.00  0.00     0.012 A 
ATOM     68  C   UNL A   1      40.527  29.305  30.861  1.00  0.00     0.148 A 
ATOM     69  C   UNL A   1      39.538  31.890  30.766  1.00  0.00     0.002 A 
ATOM     70  C   UNL A   1      39.851  29.816  31.954  1.00  0.00     0.091 A 
ATOM     71  F   UNL A   1      41.227  28.171  31.008  1.00  0.00    -0.205 F 
ATOM     72  C   UNL A   1      39.369  31.122  31.919  1.00  0.00     0.022 A 
BRANCH  70  73
ATOM     73  S   UNL A   1      39.490  28.776  33.373  1.00  0.00     0.127 S 
ATOM     74  O   UNL A   1      38.677  29.662  34.198  1.00  0.00    -0.237 OA
ATOM     75  O   UNL A   1      38.767  27.661  32.759  1.00  0.00    -0.237 OA
ATOM     76  O   UNL A   1      40.795  28.404  33.909  1.00  0.00    -0.744 OA
ENDBRANCH  70  73
ENDBRANCH  52  66
BRANCH  53  77
ATOM     77  C   UNL A   1      45.506  24.572  32.790  1.00  0.00     0.023 A 
ATOM     78  C   UNL A   1      44.713  23.588  33.430  1.00  0.00     0.012 A 
ATOM     79  C   UNL A   1      46.841  24.682  33.263  1.00  0.00     0.148 A 
ATOM     80  C   UNL A   1      45.222  22.757  34.450  1.00  0.00     0.002 A 
ATOM     81  C   UNL A   1      47.329  23.889  34.308  1.00  0.00     0.091 A 
ATOM     82  F   UNL A   1      47.709  25.484  32.640  1.00  0.00    -0.205 F 
ATOM     83  C   UNL A   1      46.529  22.911  34.895  1.00  0.00     0.022 A 
BRANCH  81  84
ATOM     84  S   UNL A   1      49.015  24.098  34.916  1.00  0.00     0.127 S 
ATOM     85  O   UNL A   1      49.808  23.364  33.928  1.00  0.00    -0.237 OA
ATOM     86  O   UNL A   1      49.183  25.547  34.875  1.00  0.00    -0.237 OA
ATOM     87  O   UNL A   1      49.019  23.486  36.241  1.00  0.00    -0.744 OA
ENDBRANCH  81  84
ENDBRANCH  53  77
BRANCH  65  88
ATOM     88  C   UNL A   1      47.398  29.321  28.438  1.00  0.00     0.023 A 
ATOM     89  C   UNL A   1      48.443  30.149  28.861  1.00  0.00     0.012 A 
ATOM     90  C   UNL A   1      47.679  28.486  27.327  1.00  0.00     0.148 A 
ATOM     91  C   UNL A   1      49.750  30.013  28.359  1.00  0.00     0.002 A 
ATOM     92  C   UNL A   1      48.977  28.339  26.830  1.00  0.00     0.091 A 
ATOM     93  F   UNL A   1      46.655  27.866  26.720  1.00  0.00    -0.205 F 
ATOM     94  C   UNL A   1      50.028  29.076  27.374  1.00  0.00     0.022 A 
BRANCH  92  95
ATOM     95  S   UNL A   1      49.387  27.173  25.524  1.00  0.00     0.127 S 
ATOM     96  O   UNL A   1      48.681  27.740  24.376  1.00  0.00    -0.237 OA
ATOM     97  O   UNL A   1      50.846  27.274  25.455  1.00  0.00    -0.237 OA
ATOM     98  O   UNL A   1      48.904  25.876  25.979  1.00  0.00    -0.744 OA
ENDBRANCH  92  95
ENDBRANCH  65  88
ENDBRANCH  39  40
ENDBRANCH  32  34
ENDBRANCH  31  32
ENDBRANCH  30  31
ENDBRANCH  29  30
ENDBRANCH  28  29
ENDBRANCH  27  28
ENDBRANCH  26  27
ENDBRANCH   1  26
TORSDOF 27
ENDMDL
MODEL 3
REMARK VINA RESULT:      -8.3      3.010      8.912
REMARK SMILES CC[C@@H](NS(=O)(=O)c1cc(C)ccc1C)C(=O)OCCOCCOCCOCCOC(=O)c1ccc(-c2c3nc(c(-c4cccc(S(=O)(=O)[O-])c4F)c4ccc([nH]4)c(-c4cccc(S(=O)(=O)[O-])c4F)c4nc(c(-c5cccc(S(=O)(=O)[O-])c5F)c5ccc2[nH]5)C=C4)C=C3)cc1
REMARK SMILES IDX 24 1 23 2 22 3 21 4 20 5 19 6 18 7 16 8 17 9 3 10 2 11 1 12
REMARK SMILES IDX 4 13 5 15 6 16 7 17 8 18 9 19 14 20 10 21 13 22 15 23 11 24
REMARK SMILES IDX 12 25 25 26 26 27 27 28 28 29 29 30 30 31 31 32 32 33 33 34
REMARK SMILES IDX 34 35 95 36 35 37 94 38 36 39 37 40 38 41 88 42 39 43 93 44
REMARK SMILES IDX 87 45 89 46 40 47 92 48 86 49 85 50 41 52 73 53 53 54 72 55
REMARK SMILES IDX 54 56 57 57 71 58 90 59 55 60 56 61 70 63 91 64 58 65 42 66
REMARK SMILES IDX 43 67 51 68 44 69 46 70 52 71 45 72 47 73 48 74 49 75 50 76
REMARK SMILES IDX 74 77 75 78 83 79 76 80 78 81 84 82 77 83 79 84 80 85 81 86
REMARK SMILES IDX 82 87 59 88 60 89 68 90 61 91 63 92 69 93 62 94 64 95 65 96
REMARK SMILES IDX 66 97 67 98
REMARK H PARENT 4 14 89 51 57 62
REMARK Flexibility Score: inf
ROOT
ATOM      1  O   UNL A   1      30.242  23.014  26.031  1.00  0.00    -0.377 OA
ENDROOT
BRANCH   1   2
ATOM      2  C   UNL A   1      30.261  24.400  26.357  1.00  0.00     0.188 C 
BRANCH   2   3
ATOM      3  C   UNL A   1      30.180  25.469  25.246  1.00  0.00     0.188 C 
BRANCH   3   4
ATOM      4  O   UNL A   1      30.624  25.092  23.946  1.00  0.00    -0.376 OA
BRANCH   4   5
ATOM      5  C   UNL A   1      31.458  25.944  23.177  1.00  0.00     0.202 C 
BRANCH   5   6
ATOM      6  C   UNL A   1      32.884  26.120  23.722  1.00  0.00     0.261 C 
BRANCH   6   7
ATOM      7  O   UNL A   1      33.021  27.426  24.279  1.00  0.00    -0.462 OA
BRANCH   7   8
ATOM      8  C   UNL A   1      33.443  27.468  25.567  1.00  0.00     0.324 C 
ATOM      9  O   UNL A   1      33.663  26.491  26.265  1.00  0.00    -0.250 OA
BRANCH   8  10
ATOM     10  C   UNL A   1      33.715  28.907  25.921  1.00  0.00     0.179 C 
BRANCH  10  11
ATOM     11  C   UNL A   1      32.573  29.838  25.482  1.00  0.00     0.028 C 
ATOM     12  C   UNL A   1      31.689  30.304  26.642  1.00  0.00     0.006 C 
ENDBRANCH  10  11
BRANCH  10  13
ATOM     13  N   UNL A   1      34.124  29.171  27.285  1.00  0.00    -0.197 NA
ATOM     14  H   UNL A   1      34.083  28.257  27.738  1.00  0.00     0.142 HD
BRANCH  13  15
ATOM     15  S   UNL A   1      35.531  29.854  27.873  1.00  0.00     0.241 S 
ATOM     16  O   UNL A   1      35.808  28.987  28.988  1.00  0.00    -0.207 OA
ATOM     17  O   UNL A   1      36.356  29.840  26.680  1.00  0.00    -0.207 OA
BRANCH  15  18
ATOM     18  C   UNL A   1      35.589  31.513  28.545  1.00  0.00     0.085 A 
ATOM     19  C   UNL A   1      34.472  32.345  28.388  1.00  0.00     0.025 A 
ATOM     20  C   UNL A   1      36.789  32.127  28.899  1.00  0.00    -0.031 A 
ATOM     21  C   UNL A   1      34.559  33.734  28.634  1.00  0.00    -0.050 A 
ATOM     22  C   UNL A   1      36.859  33.487  29.244  1.00  0.00     0.005 A 
ATOM     23  C   UNL A   1      38.026  31.344  28.904  1.00  0.00     0.046 C 
ATOM     24  C   UNL A   1      33.434  34.667  28.297  1.00  0.00     0.044 C 
ATOM     25  C   UNL A   1      35.742  34.286  29.126  1.00  0.00     0.004 A 
ENDBRANCH  15  18
ENDBRANCH  13  15
ENDBRANCH  10  13
ENDBRANCH   8  10
ENDBRANCH   7   8
ENDBRANCH   6   7
ENDBRANCH   5   6
ENDBRANCH   4   5
ENDBRANCH   3   4
ENDBRANCH   2   3
ENDBRANCH   1   2
BRANCH   1  26
ATOM     26  C   UNL A   1      31.426  22.267  26.284  1.00  0.00     0.188 C 
BRANCH  26  27
ATOM     27  C   UNL A   1      32.748  23.036  26.493  1.00  0.00     0.188 C 
BRANCH  27  28
ATOM     28  O   UNL A   1      33.614  23.038  25.367  1.00  0.00    -0.376 OA
BRANCH  28  29
ATOM     29  C   UNL A   1      34.053  21.770  24.909  1.00  0.00     0.202 C 
BRANCH  29  30
ATOM     30  C   UNL A   1      35.339  21.372  25.633  1.00  0.00     0.261 C 
BRANCH  30  31
ATOM     31  O   UNL A   1      36.429  22.282  25.367  1.00  0.00    -0.460 OA
BRANCH  31  32
ATOM     32  C   UNL A   1      37.675  21.753  25.483  1.00  0.00     0.338 C 
ATOM     33  O   UNL A   1      38.011  20.657  25.061  1.00  0.00    -0.246 OA
BRANCH  32  34
ATOM     34  C   UNL A   1      38.521  22.672  26.299  1.00  0.00     0.060 A 
ATOM     35  C   UNL A   1      38.235  24.031  26.269  1.00  0.00     0.016 A 
ATOM     36  C   UNL A   1      39.700  22.226  26.931  1.00  0.00     0.016 A 
ATOM     37  C   UNL A   1      39.189  24.921  26.753  1.00  0.00     0.010 A 
ATOM     38  C   UNL A   1      40.680  23.128  27.363  1.00  0.00     0.010 A 
ATOM     39  C   UNL A   1      40.461  24.491  27.219  1.00  0.00    -0.014 A 
BRANCH  39  40
ATOM     40  C   UNL A   1      41.404  25.533  27.695  1.00  0.00     0.031 A 
ATOM     41  C   UNL A   1      42.765  25.301  27.160  1.00  0.00     0.074 A 
ATOM     42  C   UNL A   1      41.228  26.528  28.607  1.00  0.00     0.049 A 
ATOM     43  N   UNL A   1      43.854  25.134  27.844  1.00  0.00    -0.248 NA
ATOM     44  C   UNL A   1      42.883  25.037  25.715  1.00  0.00     0.031 C 
ATOM     45  C   UNL A   1      39.985  26.890  29.279  1.00  0.00     0.029 A 
ATOM     46  N   UNL A   1      42.154  27.399  29.183  1.00  0.00    -0.354 N 
ATOM     47  C   UNL A   1      44.837  25.042  26.878  1.00  0.00     0.074 A 
ATOM     48  C   UNL A   1      44.183  24.787  25.614  1.00  0.00     0.031 C 
ATOM     49  C   UNL A   1      40.204  27.953  30.084  1.00  0.00     0.029 A 
ATOM     50  C   UNL A   1      41.599  28.384  30.002  1.00  0.00     0.049 A 
ATOM     51  H   UNL A   1      43.123  27.325  29.026  1.00  0.00     0.167 HD
ATOM     52  C   UNL A   1      45.996  25.713  27.058  1.00  0.00     0.034 A 
ATOM     53  C   UNL A   1      42.166  29.502  30.549  1.00  0.00     0.034 A 
ATOM     54  C   UNL A   1      46.551  25.698  28.372  1.00  0.00     0.049 A 
ATOM     55  C   UNL A   1      43.670  29.391  30.672  1.00  0.00     0.074 A 
ATOM     56  C   UNL A   1      47.485  24.939  29.036  1.00  0.00     0.029 A 
ATOM     57  N   UNL A   1      46.009  26.538  29.301  1.00  0.00    -0.354 N 
ATOM     58  N   UNL A   1      44.373  28.934  31.682  1.00  0.00    -0.248 NA
ATOM     59  C   UNL A   1      44.470  29.762  29.503  1.00  0.00     0.031 C 
ATOM     60  C   UNL A   1      47.609  25.489  30.342  1.00  0.00     0.029 A 
ATOM     61  C   UNL A   1      46.763  26.589  30.457  1.00  0.00     0.049 A 
ATOM     62  H   UNL A   1      45.179  27.051  29.164  1.00  0.00     0.167 HD
ATOM     63  C   UNL A   1      45.625  28.616  31.154  1.00  0.00     0.074 A 
ATOM     64  C   UNL A   1      45.656  29.264  29.849  1.00  0.00     0.031 C 
ATOM     65  C   UNL A   1      46.388  27.533  31.523  1.00  0.00     0.034 A 
BRANCH  52  66
ATOM     66  C   UNL A   1      46.372  26.748  26.038  1.00  0.00     0.023 A 
ATOM     67  C   UNL A   1      45.734  27.993  26.051  1.00  0.00     0.012 A 
ATOM     68  C   UNL A   1      47.246  26.466  24.957  1.00  0.00     0.148 A 
ATOM     69  C   UNL A   1      46.013  28.944  25.064  1.00  0.00     0.002 A 
ATOM     70  C   UNL A   1      47.613  27.450  24.056  1.00  0.00     0.091 A 
ATOM     71  F   UNL A   1      47.643  25.206  24.732  1.00  0.00    -0.205 F 
ATOM     72  C   UNL A   1      46.982  28.691  24.093  1.00  0.00     0.022 A 
BRANCH  70  73
ATOM     73  S   UNL A   1      48.973  27.181  22.914  1.00  0.00     0.127 S 
ATOM     74  O   UNL A   1      49.027  28.454  22.204  1.00  0.00    -0.237 OA
ATOM     75  O   UNL A   1      50.091  26.928  23.823  1.00  0.00    -0.237 OA
ATOM     76  O   UNL A   1      48.580  26.015  22.128  1.00  0.00    -0.744 OA
ENDBRANCH  70  73
ENDBRANCH  52  66
BRANCH  53  77
ATOM     77  C   UNL A   1      41.485  30.830  30.863  1.00  0.00     0.023 A 
ATOM     78  C   UNL A   1      41.750  31.961  30.053  1.00  0.00     0.012 A 
ATOM     79  C   UNL A   1      40.416  30.978  31.787  1.00  0.00     0.148 A 
ATOM     80  C   UNL A   1      40.988  33.145  30.140  1.00  0.00     0.002 A 
ATOM     81  C   UNL A   1      39.694  32.171  31.905  1.00  0.00     0.091 A 
ATOM     82  F   UNL A   1      39.999  29.930  32.503  1.00  0.00    -0.205 F 
ATOM     83  C   UNL A   1      39.963  33.254  31.071  1.00  0.00     0.022 A 
BRANCH  81  84
ATOM     84  S   UNL A   1      38.379  32.337  33.130  1.00  0.00     0.127 S 
ATOM     85  O   UNL A   1      37.551  31.156  32.877  1.00  0.00    -0.237 OA
ATOM     86  O   UNL A   1      39.119  32.302  34.387  1.00  0.00    -0.237 OA
ATOM     87  O   UNL A   1      37.716  33.596  32.806  1.00  0.00    -0.744 OA
ENDBRANCH  81  84
ENDBRANCH  53  77
BRANCH  65  88
ATOM     88  C   UNL A   1      46.709  27.177  32.971  1.00  0.00     0.023 A 
ATOM     89  C   UNL A   1      47.781  27.716  33.691  1.00  0.00     0.012 A 
ATOM     90  C   UNL A   1      45.858  26.299  33.689  1.00  0.00     0.148 A 
ATOM     91  C   UNL A   1      47.888  27.569  35.086  1.00  0.00     0.002 A 
ATOM     92  C   UNL A   1      45.955  26.156  35.076  1.00  0.00     0.091 A 
ATOM     93  F   UNL A   1      44.978  25.559  32.999  1.00  0.00    -0.205 F 
ATOM     94  C   UNL A   1      46.950  26.826  35.787  1.00  0.00     0.022 A 
BRANCH  92  95
ATOM     95  S   UNL A   1      44.792  25.169  36.030  1.00  0.00     0.127 S 
ATOM     96  O   UNL A   1      45.168  23.807  35.655  1.00  0.00    -0.237 OA
ATOM     97  O   UNL A   1      45.122  25.536  37.409  1.00  0.00    -0.237 OA
ATOM     98  O   UNL A   1      43.464  25.593  35.606  1.00  0.00    -0.744 OA
ENDBRANCH  92  95
ENDBRANCH  65  88
ENDBRANCH  39  40
ENDBRANCH  32  34
ENDBRANCH  31  32
ENDBRANCH  30  31
ENDBRANCH  29  30
ENDBRANCH  28  29
ENDBRANCH  27  28
ENDBRANCH  26  27
ENDBRANCH   1  26
TORSDOF 27
ENDMDL
