MODEL 1
REMARK VINA RESULT:      -9.4      0.000      0.000
REMARK SMILES C[C@@H]1CC[C@@H](C(=O)OCCOCCOCCOCCOC(=O)c2ccc(-c3c4nc(c(-c5cccc(S(=O)(=O)[O-])c5F)c5ccc([nH]5)c(-c5cccc(S(=O)(=O)[O-])c5F)c5nc(c(-c6cccc(S(=O)(=O)[O-])c6F)c6ccc3[nH]6)C=C5)C=C4)cc2)[C@H](SCC[NH+](C)C)C1
REMARK SMILES IDX 13 1 12 2 11 3 10 4 9 5 8 6 6 7 7 8 5 9 1 10 2 11 3 12 93 13
REMARK SMILES IDX 4 14 86 15 87 16 88 17 89 18 90 19 91 20 92 21 14 23 15 24
REMARK SMILES IDX 16 25 17 26 18 27 19 28 20 29 21 30 22 31 23 32 24 33 85 34
REMARK SMILES IDX 25 35 84 36 26 37 27 38 28 39 78 40 29 41 83 42 77 43 79 44
REMARK SMILES IDX 30 45 82 46 76 47 75 48 31 50 63 51 43 52 62 53 44 54 47 55
REMARK SMILES IDX 61 56 80 57 45 58 46 59 60 61 81 62 48 63 32 64 33 65 41 66
REMARK SMILES IDX 34 67 36 68 42 69 35 70 37 71 38 72 39 73 40 74 64 75 65 76
REMARK SMILES IDX 73 77 66 78 68 79 74 80 67 81 69 82 70 83 71 84 72 85 49 86
REMARK SMILES IDX 50 87 58 88 51 89 53 90 59 91 52 92 54 93 55 94 56 95 57 96
REMARK H PARENT 90 22 79 49 47 60
REMARK Flexibility Score: inf
ROOT
ATOM      1  C   UNL A   1      32.353  28.129  25.596  1.00  0.00     0.188 C 
ENDROOT
BRANCH   1   2
ATOM      2  C   UNL A   1      33.394  28.789  24.667  1.00  0.00     0.188 C 
BRANCH   2   3
ATOM      3  O   UNL A   1      34.085  27.840  23.869  1.00  0.00    -0.376 OA
BRANCH   3   4
ATOM      4  C   UNL A   1      33.558  26.515  23.862  1.00  0.00     0.202 C 
BRANCH   4   5
ATOM      5  C   UNL A   1      32.902  25.887  22.594  1.00  0.00     0.261 C 
BRANCH   5   6
ATOM      6  O   UNL A   1      31.940  24.818  22.797  1.00  0.00    -0.463 OA
BRANCH   6   7
ATOM      7  C   UNL A   1      30.944  24.845  23.749  1.00  0.00     0.310 C 
ATOM      8  O   UNL A   1      30.204  25.798  23.936  1.00  0.00    -0.252 OA
BRANCH   7   9
ATOM      9  C   UNL A   1      30.856  23.452  24.505  1.00  0.00     0.112 C 
ATOM     10  C   UNL A   1      34.206  23.019  27.214  1.00  0.00     0.007 C 
ATOM     11  C   UNL A   1      33.383  23.766  26.161  1.00  0.00    -0.013 C 
ATOM     12  C   UNL A   1      32.039  24.259  26.679  1.00  0.00     0.004 C 
ATOM     13  C   UNL A   1      33.362  23.079  24.791  1.00  0.00     0.018 C 
ATOM     14  C   UNL A   1      30.772  23.819  25.956  1.00  0.00     0.017 C 
ATOM     15  C   UNL A   1      32.029  22.467  24.295  1.00  0.00     0.061 C 
BRANCH  15  16
ATOM     16  S   UNL A   1      32.156  20.544  24.613  1.00  0.00    -0.152 SA
BRANCH  16  17
ATOM     17  C   UNL A   1      33.770  19.845  25.282  1.00  0.00     0.131 C 
BRANCH  17  18
ATOM     18  C   UNL A   1      34.467  18.622  24.514  1.00  0.00     0.272 C 
BRANCH  18  19
ATOM     19  N   UNL A   1      33.622  17.462  24.156  1.00  0.00    -0.339 N 
ATOM     20  C   UNL A   1      34.233  16.461  23.290  1.00  0.00     0.332 C 
ATOM     21  C   UNL A   1      33.213  16.826  25.363  1.00  0.00     0.332 C 
ATOM     22  H   UNL A   1      32.849  17.844  23.610  1.00  0.00     0.347 HD
ENDBRANCH  18  19
ENDBRANCH  17  18
ENDBRANCH  16  17
ENDBRANCH  15  16
ENDBRANCH   7   9
ENDBRANCH   6   7
ENDBRANCH   5   6
ENDBRANCH   4   5
ENDBRANCH   3   4
ENDBRANCH   2   3
ENDBRANCH   1   2
BRANCH   1  23
ATOM     23  O   UNL A   1      31.055  28.618  25.377  1.00  0.00    -0.377 OA
BRANCH  23  24
ATOM     24  C   UNL A   1      30.734  28.939  24.032  1.00  0.00     0.188 C 
BRANCH  24  25
ATOM     25  C   UNL A   1      30.146  30.324  23.611  1.00  0.00     0.188 C 
BRANCH  25  26
ATOM     26  O   UNL A   1      29.744  31.221  24.639  1.00  0.00    -0.376 OA
BRANCH  26  27
ATOM     27  C   UNL A   1      30.699  32.067  25.266  1.00  0.00     0.202 C 
BRANCH  27  28
ATOM     28  C   UNL A   1      31.138  31.766  26.710  1.00  0.00     0.261 C 
BRANCH  28  29
ATOM     29  O   UNL A   1      32.548  31.672  26.935  1.00  0.00    -0.460 OA
BRANCH  29  30
ATOM     30  C   UNL A   1      33.154  32.756  27.487  1.00  0.00     0.338 C 
ATOM     31  O   UNL A   1      32.665  33.838  27.684  1.00  0.00    -0.246 OA
BRANCH  30  32
ATOM     32  C   UNL A   1      34.452  32.289  28.034  1.00  0.00     0.060 A 
ATOM     33  C   UNL A   1      34.592  30.924  28.332  1.00  0.00     0.016 A 
ATOM     34  C   UNL A   1      35.542  33.155  28.154  1.00  0.00     0.016 A 
ATOM     35  C   UNL A   1      35.817  30.424  28.760  1.00  0.00     0.010 A 
ATOM     36  C   UNL A   1      36.755  32.663  28.643  1.00  0.00     0.010 A 
ATOM     37  C   UNL A   1      36.882  31.303  28.978  1.00  0.00    -0.014 A 
BRANCH  37  38
ATOM     38  C   UNL A   1      38.006  30.843  29.820  1.00  0.00     0.031 A 
ATOM     39  C   UNL A   1      38.946  29.836  29.220  1.00  0.00     0.074 A 
ATOM     40  C   UNL A   1      38.216  31.328  31.056  1.00  0.00     0.049 A 
ATOM     41  N   UNL A   1      39.994  29.262  29.745  1.00  0.00    -0.248 NA
ATOM     42  C   UNL A   1      38.664  29.422  27.833  1.00  0.00     0.031 C 
ATOM     43  C   UNL A   1      37.393  32.331  31.726  1.00  0.00     0.029 A 
ATOM     44  N   UNL A   1      39.186  31.014  31.974  1.00  0.00    -0.354 N 
ATOM     45  C   UNL A   1      40.474  28.396  28.771  1.00  0.00     0.074 A 
ATOM     46  C   UNL A   1      39.606  28.516  27.623  1.00  0.00     0.031 C 
ATOM     47  C   UNL A   1      37.872  32.525  32.968  1.00  0.00     0.029 A 
ATOM     48  C   UNL A   1      39.015  31.638  33.186  1.00  0.00     0.049 A 
ATOM     49  H   UNL A   1      39.933  30.401  31.784  1.00  0.00     0.167 HD
ATOM     50  C   UNL A   1      41.548  27.576  28.825  1.00  0.00     0.034 A 
ATOM     51  C   UNL A   1      39.687  31.481  34.345  1.00  0.00     0.034 A 
ATOM     52  C   UNL A   1      42.411  27.465  29.967  1.00  0.00     0.049 A 
ATOM     53  C   UNL A   1      40.855  30.530  34.394  1.00  0.00     0.074 A 
ATOM     54  C   UNL A   1      43.548  26.693  30.109  1.00  0.00     0.029 A 
ATOM     55  N   UNL A   1      42.220  28.128  31.168  1.00  0.00    -0.354 N 
ATOM     56  N   UNL A   1      41.362  29.791  33.435  1.00  0.00    -0.248 NA
ATOM     57  C   UNL A   1      41.566  30.413  35.676  1.00  0.00     0.031 C 
ATOM     58  C   UNL A   1      44.020  26.854  31.416  1.00  0.00     0.029 A 
ATOM     59  C   UNL A   1      43.208  27.768  32.067  1.00  0.00     0.049 A 
ATOM     60  H   UNL A   1      41.489  28.762  31.355  1.00  0.00     0.167 HD
ATOM     61  C   UNL A   1      42.469  29.153  33.987  1.00  0.00     0.074 A 
ATOM     62  C   UNL A   1      42.570  29.607  35.358  1.00  0.00     0.031 C 
ATOM     63  C   UNL A   1      43.321  28.267  33.414  1.00  0.00     0.034 A 
BRANCH  50  64
ATOM     64  C   UNL A   1      41.838  26.727  27.618  1.00  0.00     0.023 A 
ATOM     65  C   UNL A   1      42.470  27.290  26.491  1.00  0.00     0.012 A 
ATOM     66  C   UNL A   1      41.522  25.354  27.622  1.00  0.00     0.148 A 
ATOM     67  C   UNL A   1      42.757  26.507  25.375  1.00  0.00     0.002 A 
ATOM     68  C   UNL A   1      41.857  24.570  26.528  1.00  0.00     0.091 A 
ATOM     69  F   UNL A   1      40.894  24.847  28.692  1.00  0.00    -0.205 F 
ATOM     70  C   UNL A   1      42.462  25.146  25.398  1.00  0.00     0.022 A 
BRANCH  68  71
ATOM     71  S   UNL A   1      41.594  22.794  26.494  1.00  0.00     0.127 S 
ATOM     72  O   UNL A   1      42.321  22.411  25.284  1.00  0.00    -0.237 OA
ATOM     73  O   UNL A   1      42.222  22.370  27.744  1.00  0.00    -0.237 OA
ATOM     74  O   UNL A   1      40.152  22.601  26.439  1.00  0.00    -0.744 OA
ENDBRANCH  68  71
ENDBRANCH  50  64
BRANCH  51  75
ATOM     75  C   UNL A   1      39.273  32.246  35.555  1.00  0.00     0.023 A 
ATOM     76  C   UNL A   1      39.661  33.592  35.703  1.00  0.00     0.012 A 
ATOM     77  C   UNL A   1      38.493  31.642  36.561  1.00  0.00     0.148 A 
ATOM     78  C   UNL A   1      39.305  34.312  36.845  1.00  0.00     0.002 A 
ATOM     79  C   UNL A   1      38.095  32.381  37.668  1.00  0.00     0.091 A 
ATOM     80  F   UNL A   1      38.150  30.354  36.409  1.00  0.00    -0.205 F 
ATOM     81  C   UNL A   1      38.515  33.711  37.821  1.00  0.00     0.022 A 
BRANCH  79  82
ATOM     82  S   UNL A   1      36.977  31.728  38.912  1.00  0.00     0.127 S 
ATOM     83  O   UNL A   1      37.672  32.076  40.150  1.00  0.00    -0.237 OA
ATOM     84  O   UNL A   1      35.760  32.497  38.651  1.00  0.00    -0.237 OA
ATOM     85  O   UNL A   1      36.861  30.303  38.633  1.00  0.00    -0.744 OA
ENDBRANCH  79  82
ENDBRANCH  51  75
BRANCH  63  86
ATOM     86  C   UNL A   1      44.473  27.759  34.243  1.00  0.00     0.023 A 
ATOM     87  C   UNL A   1      45.634  28.542  34.399  1.00  0.00     0.012 A 
ATOM     88  C   UNL A   1      44.367  26.536  34.935  1.00  0.00     0.148 A 
ATOM     89  C   UNL A   1      46.684  28.099  35.201  1.00  0.00     0.002 A 
ATOM     90  C   UNL A   1      45.393  26.127  35.776  1.00  0.00     0.091 A 
ATOM     91  F   UNL A   1      43.260  25.799  34.762  1.00  0.00    -0.205 F 
ATOM     92  C   UNL A   1      46.560  26.899  35.899  1.00  0.00     0.022 A 
BRANCH  90  93
ATOM     93  S   UNL A   1      45.278  24.649  36.791  1.00  0.00     0.127 S 
ATOM     94  O   UNL A   1      46.559  24.671  37.495  1.00  0.00    -0.237 OA
ATOM     95  O   UNL A   1      44.116  24.941  37.630  1.00  0.00    -0.237 OA
ATOM     96  O   UNL A   1      45.094  23.538  35.868  1.00  0.00    -0.744 OA
ENDBRANCH  90  93
ENDBRANCH  63  86
ENDBRANCH  37  38
ENDBRANCH  30  32
ENDBRANCH  29  30
ENDBRANCH  28  29
ENDBRANCH  27  28
ENDBRANCH  26  27
ENDBRANCH  25  26
ENDBRANCH  24  25
ENDBRANCH  23  24
ENDBRANCH   1  23
TORSDOF 27
ENDMDL
MODEL 2
REMARK VINA RESULT:      -8.9      1.828      2.117
REMARK SMILES C[C@@H]1CC[C@@H](C(=O)OCCOCCOCCOCCOC(=O)c2ccc(-c3c4nc(c(-c5cccc(S(=O)(=O)[O-])c5F)c5ccc([nH]5)c(-c5cccc(S(=O)(=O)[O-])c5F)c5nc(c(-c6cccc(S(=O)(=O)[O-])c6F)c6ccc3[nH]6)C=C5)C=C4)cc2)[C@H](SCC[NH+](C)C)C1
REMARK SMILES IDX 13 1 12 2 11 3 10 4 9 5 8 6 6 7 7 8 5 9 1 10 2 11 3 12 93 13
REMARK SMILES IDX 4 14 86 15 87 16 88 17 89 18 90 19 91 20 92 21 14 23 15 24
REMARK SMILES IDX 16 25 17 26 18 27 19 28 20 29 21 30 22 31 23 32 24 33 85 34
REMARK SMILES IDX 25 35 84 36 26 37 27 38 28 39 78 40 29 41 83 42 77 43 79 44
REMARK SMILES IDX 30 45 82 46 76 47 75 48 31 50 63 51 43 52 62 53 44 54 47 55
REMARK SMILES IDX 61 56 80 57 45 58 46 59 60 61 81 62 48 63 32 64 33 65 41 66
REMARK SMILES IDX 34 67 36 68 42 69 35 70 37 71 38 72 39 73 40 74 64 75 65 76
REMARK SMILES IDX 73 77 66 78 68 79 74 80 67 81 69 82 70 83 71 84 72 85 49 86
REMARK SMILES IDX 50 87 58 88 51 89 53 90 59 91 52 92 54 93 55 94 56 95 57 96
REMARK H PARENT 90 22 79 49 47 60
REMARK Flexibility Score: inf
ROOT
ATOM      1  C   UNL A   1      32.591  26.777  26.340  1.00  0.00     0.188 C 
ENDROOT
BRANCH   1   2
ATOM      2  C   UNL A   1      33.555  27.283  25.245  1.00  0.00     0.188 C 
BRANCH   2   3
ATOM      3  O   UNL A   1      34.229  26.222  24.585  1.00  0.00    -0.376 OA
BRANCH   3   4
ATOM      4  C   UNL A   1      33.411  25.313  23.852  1.00  0.00     0.202 C 
BRANCH   4   5
ATOM      5  C   UNL A   1      33.907  24.611  22.549  1.00  0.00     0.261 C 
BRANCH   5   6
ATOM      6  O   UNL A   1      33.404  23.277  22.274  1.00  0.00    -0.463 OA
BRANCH   6   7
ATOM      7  C   UNL A   1      32.446  22.640  23.034  1.00  0.00     0.310 C 
ATOM      8  O   UNL A   1      31.270  22.963  23.059  1.00  0.00    -0.252 OA
BRANCH   7   9
ATOM      9  C   UNL A   1      33.076  21.401  23.801  1.00  0.00     0.112 C 
ATOM     10  C   UNL A   1      33.560  22.347  28.000  1.00  0.00     0.007 C 
ATOM     11  C   UNL A   1      33.154  22.672  26.559  1.00  0.00    -0.013 C 
ATOM     12  C   UNL A   1      31.930  21.900  26.085  1.00  0.00     0.004 C 
ATOM     13  C   UNL A   1      34.332  22.726  25.581  1.00  0.00     0.018 C 
ATOM     14  C   UNL A   1      32.049  21.041  24.832  1.00  0.00     0.017 C 
ATOM     15  C   UNL A   1      34.439  21.627  24.495  1.00  0.00     0.061 C 
BRANCH  15  16
ATOM     16  S   UNL A   1      35.775  20.354  25.133  1.00  0.00    -0.152 SA
BRANCH  16  17
ATOM     17  C   UNL A   1      35.622  18.551  24.615  1.00  0.00     0.131 C 
BRANCH  17  18
ATOM     18  C   UNL A   1      34.163  17.898  24.489  1.00  0.00     0.272 C 
BRANCH  18  19
ATOM     19  N   UNL A   1      34.052  16.428  24.620  1.00  0.00    -0.339 N 
ATOM     20  C   UNL A   1      35.185  15.747  25.235  1.00  0.00     0.332 C 
ATOM     21  C   UNL A   1      32.884  16.141  25.382  1.00  0.00     0.332 C 
ATOM     22  H   UNL A   1      34.019  16.070  23.665  1.00  0.00     0.347 HD
ENDBRANCH  18  19
ENDBRANCH  17  18
ENDBRANCH  16  17
ENDBRANCH  15  16
ENDBRANCH   7   9
ENDBRANCH   6   7
ENDBRANCH   5   6
ENDBRANCH   4   5
ENDBRANCH   3   4
ENDBRANCH   2   3
ENDBRANCH   1   2
BRANCH   1  23
ATOM     23  O   UNL A   1      31.280  27.242  26.153  1.00  0.00    -0.377 OA
BRANCH  23  24
ATOM     24  C   UNL A   1      30.765  27.128  24.834  1.00  0.00     0.188 C 
BRANCH  24  25
ATOM     25  C   UNL A   1      30.456  28.370  23.939  1.00  0.00     0.188 C 
BRANCH  25  26
ATOM     26  O   UNL A   1      30.470  29.656  24.548  1.00  0.00    -0.376 OA
BRANCH  26  27
ATOM     27  C   UNL A   1      31.696  30.233  24.975  1.00  0.00     0.202 C 
BRANCH  27  28
ATOM     28  C   UNL A   1      31.894  30.562  26.466  1.00  0.00     0.261 C 
BRANCH  28  29
ATOM     29  O   UNL A   1      33.241  30.529  26.947  1.00  0.00    -0.460 OA
BRANCH  29  30
ATOM     30  C   UNL A   1      33.731  31.681  27.474  1.00  0.00     0.338 C 
ATOM     31  O   UNL A   1      33.161  32.737  27.565  1.00  0.00    -0.246 OA
BRANCH  30  32
ATOM     32  C   UNL A   1      35.007  31.335  28.150  1.00  0.00     0.060 A 
ATOM     33  C   UNL A   1      35.145  30.043  28.681  1.00  0.00     0.016 A 
ATOM     34  C   UNL A   1      36.082  32.227  28.168  1.00  0.00     0.016 A 
ATOM     35  C   UNL A   1      36.353  29.642  29.242  1.00  0.00     0.010 A 
ATOM     36  C   UNL A   1      37.276  31.845  28.786  1.00  0.00     0.010 A 
ATOM     37  C   UNL A   1      37.399  30.563  29.353  1.00  0.00    -0.014 A 
BRANCH  37  38
ATOM     38  C   UNL A   1      38.488  30.271  30.309  1.00  0.00     0.031 A 
ATOM     39  C   UNL A   1      39.567  29.329  29.854  1.00  0.00     0.074 A 
ATOM     40  C   UNL A   1      38.545  30.848  31.521  1.00  0.00     0.049 A 
ATOM     41  N   UNL A   1      40.617  28.897  30.497  1.00  0.00    -0.248 NA
ATOM     42  C   UNL A   1      39.443  28.805  28.481  1.00  0.00     0.031 C 
ATOM     43  C   UNL A   1      37.577  31.802  32.055  1.00  0.00     0.029 A 
ATOM     44  N   UNL A   1      39.461  30.691  32.531  1.00  0.00    -0.354 N 
ATOM     45  C   UNL A   1      41.258  28.026  29.625  1.00  0.00     0.074 A 
ATOM     46  C   UNL A   1      40.481  27.988  28.408  1.00  0.00     0.031 C 
ATOM     47  C   UNL A   1      37.929  32.118  33.314  1.00  0.00     0.029 A 
ATOM     48  C   UNL A   1      39.129  31.367  33.681  1.00  0.00     0.049 A 
ATOM     49  H   UNL A   1      40.276  30.146  32.442  1.00  0.00     0.167 HD
ATOM     50  C   UNL A   1      42.396  27.323  29.819  1.00  0.00     0.034 A 
ATOM     51  C   UNL A   1      39.714  31.349  34.896  1.00  0.00     0.034 A 
ATOM     52  C   UNL A   1      43.167  27.370  31.029  1.00  0.00     0.049 A 
ATOM     53  C   UNL A   1      40.959  30.525  35.101  1.00  0.00     0.074 A 
ATOM     54  C   UNL A   1      44.357  26.726  31.312  1.00  0.00     0.029 A 
ATOM     55  N   UNL A   1      42.813  28.082  32.163  1.00  0.00    -0.354 N 
ATOM     56  N   UNL A   1      41.613  29.784  34.238  1.00  0.00    -0.248 NA
ATOM     57  C   UNL A   1      41.568  30.559  36.439  1.00  0.00     0.031 C 
ATOM     58  C   UNL A   1      44.700  27.014  32.637  1.00  0.00     0.029 A 
ATOM     59  C   UNL A   1      43.752  27.879  33.159  1.00  0.00     0.049 A 
ATOM     60  H   UNL A   1      42.012  28.649  32.249  1.00  0.00     0.167 HD
ATOM     61  C   UNL A   1      42.726  29.296  34.916  1.00  0.00     0.074 A 
ATOM     62  C   UNL A   1      42.667  29.840  36.256  1.00  0.00     0.031 C 
ATOM     63  C   UNL A   1      43.703  28.467  34.473  1.00  0.00     0.034 A 
BRANCH  50  64
ATOM     64  C   UNL A   1      42.867  26.436  28.699  1.00  0.00     0.023 A 
ATOM     65  C   UNL A   1      42.265  25.178  28.493  1.00  0.00     0.012 A 
ATOM     66  C   UNL A   1      43.879  26.873  27.823  1.00  0.00     0.148 A 
ATOM     67  C   UNL A   1      42.683  24.356  27.448  1.00  0.00     0.002 A 
ATOM     68  C   UNL A   1      44.254  26.071  26.755  1.00  0.00     0.091 A 
ATOM     69  F   UNL A   1      44.457  28.059  28.057  1.00  0.00    -0.205 F 
ATOM     70  C   UNL A   1      43.668  24.807  26.573  1.00  0.00     0.022 A 
BRANCH  68  71
ATOM     71  S   UNL A   1      45.454  26.597  25.527  1.00  0.00     0.127 S 
ATOM     72  O   UNL A   1      45.543  25.411  24.675  1.00  0.00    -0.237 OA
ATOM     73  O   UNL A   1      44.780  27.740  24.913  1.00  0.00    -0.237 OA
ATOM     74  O   UNL A   1      46.667  26.926  26.262  1.00  0.00    -0.744 OA
ENDBRANCH  68  71
ENDBRANCH  50  64
BRANCH  51  75
ATOM     75  C   UNL A   1      39.128  32.140  36.015  1.00  0.00     0.023 A 
ATOM     76  C   UNL A   1      39.348  33.530  36.084  1.00  0.00     0.012 A 
ATOM     77  C   UNL A   1      38.351  31.518  37.012  1.00  0.00     0.148 A 
ATOM     78  C   UNL A   1      38.830  34.279  37.142  1.00  0.00     0.002 A 
ATOM     79  C   UNL A   1      37.792  32.278  38.031  1.00  0.00     0.091 A 
ATOM     80  F   UNL A   1      38.169  30.192  36.938  1.00  0.00    -0.205 F 
ATOM     81  C   UNL A   1      38.046  33.656  38.108  1.00  0.00     0.022 A 
BRANCH  79  82
ATOM     82  S   UNL A   1      36.668  31.584  39.247  1.00  0.00     0.127 S 
ATOM     83  O   UNL A   1      37.534  31.460  40.418  1.00  0.00    -0.237 OA
ATOM     84  O   UNL A   1      35.650  32.630  39.342  1.00  0.00    -0.237 OA
ATOM     85  O   UNL A   1      36.194  30.330  38.679  1.00  0.00    -0.744 OA
ENDBRANCH  79  82
ENDBRANCH  51  75
BRANCH  63  86
ATOM     86  C   UNL A   1      44.826  28.130  35.422  1.00  0.00     0.023 A 
ATOM     87  C   UNL A   1      46.060  28.803  35.329  1.00  0.00     0.012 A 
ATOM     88  C   UNL A   1      44.623  27.199  36.461  1.00  0.00     0.148 A 
ATOM     89  C   UNL A   1      47.086  28.528  36.233  1.00  0.00     0.002 A 
ATOM     90  C   UNL A   1      45.629  26.971  37.390  1.00  0.00     0.091 A 
ATOM     91  F   UNL A   1      43.445  26.559  36.524  1.00  0.00    -0.205 F 
ATOM     92  C   UNL A   1      46.867  27.623  37.269  1.00  0.00     0.022 A 
BRANCH  90  93
ATOM     93  S   UNL A   1      45.401  25.901  38.815  1.00  0.00     0.127 S 
ATOM     94  O   UNL A   1      46.640  26.129  39.558  1.00  0.00    -0.237 OA
ATOM     95  O   UNL A   1      44.204  26.466  39.438  1.00  0.00    -0.237 OA
ATOM     96  O   UNL A   1      45.231  24.555  38.287  1.00  0.00    -0.744 OA
ENDBRANCH  90  93
ENDBRANCH  63  86
ENDBRANCH  37  38
ENDBRANCH  30  32
ENDBRANCH  29  30
ENDBRANCH  28  29
ENDBRANCH  27  28
ENDBRANCH  26  27
ENDBRANCH  25  26
ENDBRANCH  24  25
ENDBRANCH  23  24
ENDBRANCH   1  23
TORSDOF 27
ENDMDL
MODEL 3
REMARK VINA RESULT:      -8.7      2.914      7.988
REMARK SMILES C[C@@H]1CC[C@@H](C(=O)OCCOCCOCCOCCOC(=O)c2ccc(-c3c4nc(c(-c5cccc(S(=O)(=O)[O-])c5F)c5ccc([nH]5)c(-c5cccc(S(=O)(=O)[O-])c5F)c5nc(c(-c6cccc(S(=O)(=O)[O-])c6F)c6ccc3[nH]6)C=C5)C=C4)cc2)[C@H](SCC[NH+](C)C)C1
REMARK SMILES IDX 13 1 12 2 11 3 10 4 9 5 8 6 6 7 7 8 5 9 1 10 2 11 3 12 93 13
REMARK SMILES IDX 4 14 86 15 87 16 88 17 89 18 90 19 91 20 92 21 14 23 15 24
REMARK SMILES IDX 16 25 17 26 18 27 19 28 20 29 21 30 22 31 23 32 24 33 85 34
REMARK SMILES IDX 25 35 84 36 26 37 27 38 28 39 78 40 29 41 83 42 77 43 79 44
REMARK SMILES IDX 30 45 82 46 76 47 75 48 31 50 63 51 43 52 62 53 44 54 47 55
REMARK SMILES IDX 61 56 80 57 45 58 46 59 60 61 81 62 48 63 32 64 33 65 41 66
REMARK SMILES IDX 34 67 36 68 42 69 35 70 37 71 38 72 39 73 40 74 64 75 65 76
REMARK SMILES IDX 73 77 66 78 68 79 74 80 67 81 69 82 70 83 71 84 72 85 49 86
REMARK SMILES IDX 50 87 58 88 51 89 53 90 59 91 52 92 54 93 55 94 56 95 57 96
REMARK H PARENT 90 22 79 49 47 60
REMARK Flexibility Score: inf
ROOT
ATOM      1  C   UNL A   1      31.908  25.915  26.740  1.00  0.00     0.188 C 
ENDROOT
BRANCH   1   2
ATOM      2  C   UNL A   1      33.318  26.058  26.126  1.00  0.00     0.188 C 
BRANCH   2   3
ATOM      3  O   UNL A   1      34.009  24.820  26.067  1.00  0.00    -0.376 OA
BRANCH   3   4
ATOM      4  C   UNL A   1      35.225  24.810  25.322  1.00  0.00     0.202 C 
BRANCH   4   5
ATOM      5  C   UNL A   1      35.904  23.485  24.854  1.00  0.00     0.261 C 
BRANCH   5   6
ATOM      6  O   UNL A   1      35.305  22.786  23.731  1.00  0.00    -0.463 OA
BRANCH   6   7
ATOM      7  C   UNL A   1      34.156  23.195  23.090  1.00  0.00     0.310 C 
ATOM      8  O   UNL A   1      34.000  24.306  22.610  1.00  0.00    -0.252 OA
BRANCH   7   9
ATOM      9  C   UNL A   1      33.109  22.004  23.008  1.00  0.00     0.112 C 
ATOM     10  C   UNL A   1      30.305  22.263  26.298  1.00  0.00     0.007 C 
ATOM     11  C   UNL A   1      31.515  22.736  25.487  1.00  0.00    -0.013 C 
ATOM     12  C   UNL A   1      31.148  23.303  24.123  1.00  0.00     0.004 C 
ATOM     13  C   UNL A   1      32.697  21.761  25.512  1.00  0.00     0.018 C 
ATOM     14  C   UNL A   1      31.780  22.684  22.882  1.00  0.00     0.017 C 
ATOM     15  C   UNL A   1      33.070  21.023  24.203  1.00  0.00     0.061 C 
BRANCH  15  16
ATOM     16  S   UNL A   1      32.328  19.224  24.355  1.00  0.00    -0.152 SA
BRANCH  16  17
ATOM     17  C   UNL A   1      32.874  17.915  23.118  1.00  0.00     0.131 C 
BRANCH  17  18
ATOM     18  C   UNL A   1      33.974  16.836  23.561  1.00  0.00     0.272 C 
BRANCH  18  19
ATOM     19  N   UNL A   1      33.948  16.360  24.962  1.00  0.00    -0.339 N 
ATOM     20  C   UNL A   1      32.915  15.388  25.294  1.00  0.00     0.332 C 
ATOM     21  C   UNL A   1      35.219  15.789  25.256  1.00  0.00     0.332 C 
ATOM     22  H   UNL A   1      33.726  17.181  25.526  1.00  0.00     0.347 HD
ENDBRANCH  18  19
ENDBRANCH  17  18
ENDBRANCH  16  17
ENDBRANCH  15  16
ENDBRANCH   7   9
ENDBRANCH   6   7
ENDBRANCH   5   6
ENDBRANCH   4   5
ENDBRANCH   3   4
ENDBRANCH   2   3
ENDBRANCH   1   2
BRANCH   1  23
ATOM     23  O   UNL A   1      31.059  26.973  26.380  1.00  0.00    -0.377 OA
BRANCH  23  24
ATOM     24  C   UNL A   1      30.618  26.982  25.030  1.00  0.00     0.188 C 
BRANCH  24  25
ATOM     25  C   UNL A   1      31.140  28.011  23.978  1.00  0.00     0.188 C 
BRANCH  25  26
ATOM     26  O   UNL A   1      31.541  29.296  24.438  1.00  0.00    -0.376 OA
BRANCH  26  27
ATOM     27  C   UNL A   1      32.850  29.497  24.952  1.00  0.00     0.202 C 
BRANCH  27  28
ATOM     28  C   UNL A   1      33.024  30.082  26.365  1.00  0.00     0.261 C 
BRANCH  28  29
ATOM     29  O   UNL A   1      34.343  30.028  26.914  1.00  0.00    -0.460 OA
BRANCH  29  30
ATOM     30  C   UNL A   1      34.685  31.013  27.785  1.00  0.00     0.338 C 
ATOM     31  O   UNL A   1      34.012  31.954  28.116  1.00  0.00    -0.246 OA
BRANCH  30  32
ATOM     32  C   UNL A   1      35.943  30.584  28.447  1.00  0.00     0.060 A 
ATOM     33  C   UNL A   1      37.126  31.268  28.127  1.00  0.00     0.016 A 
ATOM     34  C   UNL A   1      35.940  29.599  29.438  1.00  0.00     0.016 A 
ATOM     35  C   UNL A   1      38.311  30.963  28.787  1.00  0.00     0.010 A 
ATOM     36  C   UNL A   1      37.143  29.251  30.058  1.00  0.00     0.010 A 
ATOM     37  C   UNL A   1      38.335  29.911  29.708  1.00  0.00    -0.014 A 
BRANCH  37  38
ATOM     38  C   UNL A   1      39.645  29.329  30.069  1.00  0.00     0.031 A 
ATOM     39  C   UNL A   1      40.399  29.980  31.193  1.00  0.00     0.074 A 
ATOM     40  C   UNL A   1      40.133  28.238  29.454  1.00  0.00     0.049 A 
ATOM     41  N   UNL A   1      41.567  29.679  31.694  1.00  0.00    -0.248 NA
ATOM     42  C   UNL A   1      39.742  31.129  31.844  1.00  0.00     0.031 C 
ATOM     43  C   UNL A   1      39.475  27.503  28.378  1.00  0.00     0.029 A 
ATOM     44  N   UNL A   1      41.319  27.574  29.645  1.00  0.00    -0.354 N 
ATOM     45  C   UNL A   1      41.800  30.618  32.690  1.00  0.00     0.074 A 
ATOM     46  C   UNL A   1      40.657  31.501  32.726  1.00  0.00     0.031 C 
ATOM     47  C   UNL A   1      40.285  26.508  27.974  1.00  0.00     0.029 A 
ATOM     48  C   UNL A   1      41.527  26.556  28.745  1.00  0.00     0.049 A 
ATOM     49  H   UNL A   1      41.959  27.804  30.357  1.00  0.00     0.167 HD
ATOM     50  C   UNL A   1      42.870  30.734  33.508  1.00  0.00     0.034 A 
ATOM     51  C   UNL A   1      42.613  25.780  28.551  1.00  0.00     0.034 A 
ATOM     52  C   UNL A   1      44.001  29.850  33.472  1.00  0.00     0.049 A 
ATOM     53  C   UNL A   1      43.811  25.954  29.448  1.00  0.00     0.074 A 
ATOM     54  C   UNL A   1      45.120  29.857  34.285  1.00  0.00     0.029 A 
ATOM     55  N   UNL A   1      44.168  28.818  32.563  1.00  0.00    -0.354 N 
ATOM     56  N   UNL A   1      43.980  26.781  30.453  1.00  0.00    -0.248 NA
ATOM     57  C   UNL A   1      44.959  25.067  29.205  1.00  0.00     0.031 C 
ATOM     58  C   UNL A   1      45.986  28.855  33.836  1.00  0.00     0.029 A 
ATOM     59  C   UNL A   1      45.382  28.191  32.780  1.00  0.00     0.049 A 
ATOM     60  H   UNL A   1      43.519  28.568  31.866  1.00  0.00     0.167 HD
ATOM     61  C   UNL A   1      45.233  26.488  30.984  1.00  0.00     0.074 A 
ATOM     62  C   UNL A   1      45.772  25.396  30.201  1.00  0.00     0.031 C 
ATOM     63  C   UNL A   1      45.882  27.074  32.021  1.00  0.00     0.034 A 
BRANCH  50  64
ATOM     64  C   UNL A   1      42.871  31.864  34.500  1.00  0.00     0.023 A 
ATOM     65  C   UNL A   1      43.492  33.088  34.179  1.00  0.00     0.012 A 
ATOM     66  C   UNL A   1      42.213  31.723  35.738  1.00  0.00     0.148 A 
ATOM     67  C   UNL A   1      43.483  34.146  35.087  1.00  0.00     0.002 A 
ATOM     68  C   UNL A   1      42.165  32.798  36.614  1.00  0.00     0.091 A 
ATOM     69  F   UNL A   1      41.656  30.541  36.034  1.00  0.00    -0.205 F 
ATOM     70  C   UNL A   1      42.809  34.005  36.298  1.00  0.00     0.022 A 
BRANCH  68  71
ATOM     71  S   UNL A   1      41.254  32.743  38.161  1.00  0.00     0.127 S 
ATOM     72  O   UNL A   1      41.347  34.132  38.608  1.00  0.00    -0.237 OA
ATOM     73  O   UNL A   1      39.923  32.333  37.716  1.00  0.00    -0.237 OA
ATOM     74  O   UNL A   1      41.943  31.773  39.001  1.00  0.00    -0.744 OA
ENDBRANCH  68  71
ENDBRANCH  50  64
BRANCH  51  75
ATOM     75  C   UNL A   1      42.616  24.764  27.460  1.00  0.00     0.023 A 
ATOM     76  C   UNL A   1      43.098  25.108  26.181  1.00  0.00     0.012 A 
ATOM     77  C   UNL A   1      42.144  23.457  27.687  1.00  0.00     0.148 A 
ATOM     78  C   UNL A   1      43.080  24.176  25.142  1.00  0.00     0.002 A 
ATOM     79  C   UNL A   1      42.182  22.518  26.664  1.00  0.00     0.091 A 
ATOM     80  F   UNL A   1      41.673  23.156  28.906  1.00  0.00    -0.205 F 
ATOM     81  C   UNL A   1      42.632  22.881  25.385  1.00  0.00     0.022 A 
BRANCH  79  82
ATOM     82  S   UNL A   1      41.742  20.796  26.918  1.00  0.00     0.127 S 
ATOM     83  O   UNL A   1      42.790  20.352  27.834  1.00  0.00    -0.237 OA
ATOM     84  O   UNL A   1      40.411  20.914  27.513  1.00  0.00    -0.237 OA
ATOM     85  O   UNL A   1      41.760  20.183  25.597  1.00  0.00    -0.744 OA
ENDBRANCH  79  82
ENDBRANCH  51  75
BRANCH  63  86
ATOM     86  C   UNL A   1      47.229  26.521  32.412  1.00  0.00     0.023 A 
ATOM     87  C   UNL A   1      47.319  25.455  33.330  1.00  0.00     0.012 A 
ATOM     88  C   UNL A   1      48.402  27.009  31.803  1.00  0.00     0.148 A 
ATOM     89  C   UNL A   1      48.559  24.909  33.661  1.00  0.00     0.002 A 
ATOM     90  C   UNL A   1      49.627  26.425  32.095  1.00  0.00     0.091 A 
ATOM     91  F   UNL A   1      48.296  28.033  30.942  1.00  0.00    -0.205 F 
ATOM     92  C   UNL A   1      49.710  25.385  33.035  1.00  0.00     0.022 A 
BRANCH  90  93
ATOM     93  S   UNL A   1      51.147  26.901  31.264  1.00  0.00     0.127 S 
ATOM     94  O   UNL A   1      50.697  28.023  30.442  1.00  0.00    -0.237 OA
ATOM     95  O   UNL A   1      52.009  27.273  32.386  1.00  0.00    -0.237 OA
ATOM     96  O   UNL A   1      51.588  25.726  30.525  1.00  0.00    -0.744 OA
ENDBRANCH  90  93
ENDBRANCH  63  86
ENDBRANCH  37  38
ENDBRANCH  30  32
ENDBRANCH  29  30
ENDBRANCH  28  29
ENDBRANCH  27  28
ENDBRANCH  26  27
ENDBRANCH  25  26
ENDBRANCH  24  25
ENDBRANCH  23  24
ENDBRANCH   1  23
TORSDOF 27
ENDMDL
