MODEL 1
REMARK VINA RESULT:      -8.8      0.000      0.000
REMARK SMILES NC(=O)c1c(-c2ccc(Cl)cc2)csc1NC(=O)[C@H]1[C@@H](C(=O)OCCOCCOCCOCCOC(=O)c2ccc(-c3c4nc(c(-c5cccc(S(=O)(=O)[O-])c5F)c5ccc([nH]5)c(-c5cccc(S(=O)(=O)[O-])c5F)c5nc(c(-c6cccc(S(=O)(=O)[O-])c6F)c6ccc3[nH]6)C=C5)C=C4)cc2)[C@@H]2CC[C@H]1O2
REMARK SMILES IDX 29 1 28 2 27 3 26 4 25 5 24 6 23 7 21 8 22 9 20 10 19 11
REMARK SMILES IDX 104 12 101 13 103 14 105 15 102 16 17 17 16 18 18 20 15 21
REMARK SMILES IDX 4 22 5 23 13 24 14 25 2 26 1 27 3 30 6 31 7 32 12 33 8 34
REMARK SMILES IDX 11 35 9 36 10 37 30 38 31 39 32 40 33 41 34 42 35 43 36 44
REMARK SMILES IDX 37 45 38 46 39 47 100 48 40 49 99 50 41 51 42 52 43 53 93 54
REMARK SMILES IDX 44 55 98 56 92 57 94 58 45 59 97 60 91 61 90 62 46 64 78 65
REMARK SMILES IDX 58 66 77 67 59 68 62 69 76 70 95 71 60 72 61 73 75 75 96 76
REMARK SMILES IDX 63 77 47 78 48 79 56 80 49 81 51 82 57 83 50 84 52 85 53 86
REMARK SMILES IDX 54 87 55 88 79 89 80 90 88 91 81 92 83 93 89 94 82 95 84 96
REMARK SMILES IDX 85 97 86 98 87 99 64 100 65 101 73 102 66 103 68 104 74 105
REMARK SMILES IDX 67 106 69 107 70 108 71 109 72 110
REMARK H PARENT 16 19 1 28 1 29 94 63 62 74
REMARK Flexibility Score: inf
ROOT
ATOM      1  O   UNL A   1      32.230  34.170  27.888  1.00  0.00    -0.377 OA
ENDROOT
BRANCH   1   2
ATOM      2  C   UNL A   1      32.749  32.896  27.500  1.00  0.00     0.188 C 
BRANCH   2   3
ATOM      3  C   UNL A   1      31.691  31.976  26.881  1.00  0.00     0.188 C 
BRANCH   3   4
ATOM      4  O   UNL A   1      32.161  30.637  26.714  1.00  0.00    -0.376 OA
BRANCH   4   5
ATOM      5  C   UNL A   1      33.391  30.376  27.401  1.00  0.00     0.202 C 
BRANCH   5   6
ATOM      6  C   UNL A   1      34.096  29.116  26.904  1.00  0.00     0.261 C 
BRANCH   6   7
ATOM      7  O   UNL A   1      33.104  28.100  26.629  1.00  0.00    -0.463 OA
BRANCH   7   8
ATOM      8  C   UNL A   1      33.545  26.960  26.048  1.00  0.00     0.312 C 
ATOM      9  O   UNL A   1      34.700  26.796  25.672  1.00  0.00    -0.252 OA
BRANCH   8  10
ATOM     10  C   UNL A   1      32.402  25.988  25.766  1.00  0.00     0.143 C 
ATOM     11  C   UNL A   1      32.149  25.522  24.314  1.00  0.00     0.124 C 
ATOM     12  C   UNL A   1      30.962  26.437  23.901  1.00  0.00     0.132 C 
ATOM     13  C   UNL A   1      31.094  26.737  26.047  1.00  0.00     0.133 C 
ATOM     14  C   UNL A   1      29.655  25.807  24.384  1.00  0.00     0.035 C 
ATOM     15  O   UNL A   1      31.015  27.534  24.841  1.00  0.00    -0.373 OA
ATOM     16  C   UNL A   1      29.863  25.829  25.902  1.00  0.00     0.036 C 
BRANCH  11  17
ATOM     17  C   UNL A   1      33.294  25.499  23.312  1.00  0.00     0.231 C 
ATOM     18  N   UNL A   1      34.299  24.559  23.348  1.00  0.00    -0.317 N 
ATOM     19  H   UNL A   1      35.022  24.714  22.699  1.00  0.00     0.170 HD
ATOM     20  O   UNL A   1      33.339  26.350  22.415  1.00  0.00    -0.274 OA
BRANCH  18  21
ATOM     21  C   UNL A   1      34.471  23.427  24.138  1.00  0.00     0.108 A 
ATOM     22  C   UNL A   1      33.697  22.276  24.195  1.00  0.00     0.082 A 
ATOM     23  C   UNL A   1      34.377  21.221  24.916  1.00  0.00     0.007 A 
ATOM     24  C   UNL A   1      35.424  21.718  25.656  1.00  0.00     0.076 A 
ATOM     25  S   UNL A   1      35.658  23.377  25.363  1.00  0.00    -0.125 S 
BRANCH  22  26
ATOM     26  C   UNL A   1      32.424  22.053  23.544  1.00  0.00     0.252 C 
ATOM     27  N   UNL A   1      32.523  21.821  22.210  1.00  0.00    -0.365 N 
ATOM     28  H   UNL A   1      31.711  21.659  21.677  1.00  0.00     0.159 HD
ATOM     29  H   UNL A   1      33.405  21.817  21.775  1.00  0.00     0.159 HD
ATOM     30  O   UNL A   1      31.332  22.181  24.091  1.00  0.00    -0.269 OA
ENDBRANCH  22  26
BRANCH  23  31
ATOM     31  C   UNL A   1      34.012  19.805  24.913  1.00  0.00    -0.017 A 
ATOM     32  C   UNL A   1      34.813  18.837  24.310  1.00  0.00     0.010 A 
ATOM     33  C   UNL A   1      32.835  19.399  25.569  1.00  0.00     0.010 A 
ATOM     34  C   UNL A   1      34.461  17.486  24.405  1.00  0.00     0.021 A 
ATOM     35  C   UNL A   1      32.520  18.048  25.714  1.00  0.00     0.021 A 
ATOM     36  C   UNL A   1      33.349  17.092  25.143  1.00  0.00     0.041 A 
ATOM     37  Cl  UNL A   1      33.003  15.424  25.372  1.00  0.00    -0.084 Cl
ENDBRANCH  23  31
ENDBRANCH  18  21
ENDBRANCH  11  17
ENDBRANCH   8  10
ENDBRANCH   7   8
ENDBRANCH   6   7
ENDBRANCH   5   6
ENDBRANCH   4   5
ENDBRANCH   3   4
ENDBRANCH   2   3
ENDBRANCH   1   2
BRANCH   1  38
ATOM     38  C   UNL A   1      32.957  34.861  28.903  1.00  0.00     0.188 C 
BRANCH  38  39
ATOM     39  C   UNL A   1      34.253  34.257  29.464  1.00  0.00     0.188 C 
BRANCH  39  40
ATOM     40  O   UNL A   1      34.290  33.679  30.761  1.00  0.00    -0.376 OA
BRANCH  40  41
ATOM     41  C   UNL A   1      34.718  32.338  30.927  1.00  0.00     0.202 C 
BRANCH  41  42
ATOM     42  C   UNL A   1      35.790  31.825  29.967  1.00  0.00     0.261 C 
BRANCH  42  43
ATOM     43  O   UNL A   1      36.984  31.349  30.607  1.00  0.00    -0.460 OA
BRANCH  43  44
ATOM     44  C   UNL A   1      37.952  32.282  30.758  1.00  0.00     0.338 C 
ATOM     45  O   UNL A   1      37.886  33.465  30.460  1.00  0.00    -0.246 OA
BRANCH  44  46
ATOM     46  C   UNL A   1      39.158  31.691  31.371  1.00  0.00     0.060 A 
ATOM     47  C   UNL A   1      40.380  32.348  31.186  1.00  0.00     0.016 A 
ATOM     48  C   UNL A   1      39.116  30.436  31.991  1.00  0.00     0.016 A 
ATOM     49  C   UNL A   1      41.570  31.727  31.575  1.00  0.00     0.010 A 
ATOM     50  C   UNL A   1      40.312  29.809  32.363  1.00  0.00     0.010 A 
ATOM     51  C   UNL A   1      41.546  30.433  32.117  1.00  0.00    -0.014 A 
BRANCH  51  52
ATOM     52  C   UNL A   1      42.815  29.672  32.233  1.00  0.00     0.031 A 
ATOM     53  C   UNL A   1      43.304  28.892  31.046  1.00  0.00     0.074 A 
ATOM     54  C   UNL A   1      43.514  29.627  33.379  1.00  0.00     0.049 A 
ATOM     55  N   UNL A   1      44.426  28.239  30.892  1.00  0.00    -0.248 NA
ATOM     56  C   UNL A   1      42.395  28.819  29.893  1.00  0.00     0.031 C 
ATOM     57  C   UNL A   1      43.100  30.241  34.633  1.00  0.00     0.029 A 
ATOM     58  N   UNL A   1      44.714  29.022  33.675  1.00  0.00    -0.354 N 
ATOM     59  C   UNL A   1      44.343  27.640  29.643  1.00  0.00     0.074 A 
ATOM     60  C   UNL A   1      43.068  28.024  29.073  1.00  0.00     0.031 C 
ATOM     61  C   UNL A   1      44.037  29.989  35.560  1.00  0.00     0.029 A 
ATOM     62  C   UNL A   1      45.140  29.244  34.963  1.00  0.00     0.049 A 
ATOM     63  H   UNL A   1      45.219  28.480  33.025  1.00  0.00     0.167 HD
ATOM     64  C   UNL A   1      45.237  26.833  29.026  1.00  0.00     0.034 A 
ATOM     65  C   UNL A   1      46.295  28.919  35.581  1.00  0.00     0.034 A 
ATOM     66  C   UNL A   1      46.495  26.425  29.589  1.00  0.00     0.049 A 
ATOM     67  C   UNL A   1      47.335  28.130  34.830  1.00  0.00     0.074 A 
ATOM     68  C   UNL A   1      47.470  25.621  29.026  1.00  0.00     0.029 A 
ATOM     69  N   UNL A   1      46.945  26.772  30.853  1.00  0.00    -0.354 N 
ATOM     70  N   UNL A   1      47.311  27.705  33.590  1.00  0.00    -0.248 NA
ATOM     71  C   UNL A   1      48.564  27.781  35.560  1.00  0.00     0.031 C 
ATOM     72  C   UNL A   1      48.502  25.465  29.959  1.00  0.00     0.029 A 
ATOM     73  C   UNL A   1      48.179  26.192  31.092  1.00  0.00     0.049 A 
ATOM     74  H   UNL A   1      46.458  27.345  31.489  1.00  0.00     0.167 HD
ATOM     75  C   UNL A   1      48.513  27.036  33.394  1.00  0.00     0.074 A 
ATOM     76  C   UNL A   1      49.268  27.159  34.624  1.00  0.00     0.031 C 
ATOM     77  C   UNL A   1      48.937  26.346  32.307  1.00  0.00     0.034 A 
BRANCH  64  78
ATOM     78  C   UNL A   1      44.867  26.333  27.658  1.00  0.00     0.023 A 
ATOM     79  C   UNL A   1      45.268  27.061  26.519  1.00  0.00     0.012 A 
ATOM     80  C   UNL A   1      44.131  25.145  27.502  1.00  0.00     0.148 A 
ATOM     81  C   UNL A   1      44.911  26.628  25.243  1.00  0.00     0.002 A 
ATOM     82  C   UNL A   1      43.810  24.701  26.225  1.00  0.00     0.091 A 
ATOM     83  F   UNL A   1      43.735  24.488  28.601  1.00  0.00    -0.205 F 
ATOM     84  C   UNL A   1      44.190  25.446  25.097  1.00  0.00     0.022 A 
BRANCH  82  85
ATOM     85  S   UNL A   1      42.931  23.163  25.933  1.00  0.00     0.127 S 
ATOM     86  O   UNL A   1      43.634  22.248  26.830  1.00  0.00    -0.237 OA
ATOM     87  O   UNL A   1      41.570  23.503  26.349  1.00  0.00    -0.237 OA
ATOM     88  O   UNL A   1      43.077  22.882  24.512  1.00  0.00    -0.744 OA
ENDBRANCH  82  85
ENDBRANCH  64  78
BRANCH  65  89
ATOM     89  C   UNL A   1      46.590  29.447  36.948  1.00  0.00     0.023 A 
ATOM     90  C   UNL A   1      47.024  30.781  37.083  1.00  0.00     0.012 A 
ATOM     91  C   UNL A   1      46.396  28.680  38.108  1.00  0.00     0.148 A 
ATOM     92  C   UNL A   1      47.279  31.331  38.341  1.00  0.00     0.002 A 
ATOM     93  C   UNL A   1      46.571  29.259  39.363  1.00  0.00     0.091 A 
ATOM     94  F   UNL A   1      46.007  27.403  37.979  1.00  0.00    -0.205 F 
ATOM     95  C   UNL A   1      47.035  30.576  39.483  1.00  0.00     0.022 A 
BRANCH  93  96
ATOM     96  S   UNL A   1      46.000  28.416  40.844  1.00  0.00     0.127 S 
ATOM     97  O   UNL A   1      44.632  28.059  40.491  1.00  0.00    -0.237 OA
ATOM     98  O   UNL A   1      46.929  27.290  40.947  1.00  0.00    -0.237 OA
ATOM     99  O   UNL A   1      46.170  29.404  41.906  1.00  0.00    -0.744 OA
ENDBRANCH  93  96
ENDBRANCH  65  89
BRANCH  77 100
ATOM    100  C   UNL A   1      50.268  25.646  32.400  1.00  0.00     0.023 A 
ATOM    101  C   UNL A   1      50.325  24.332  32.905  1.00  0.00     0.012 A 
ATOM    102  C   UNL A   1      51.446  26.257  31.926  1.00  0.00     0.148 A 
ATOM    103  C   UNL A   1      51.537  23.645  32.965  1.00  0.00     0.002 A 
ATOM    104  C   UNL A   1      52.643  25.551  31.950  1.00  0.00     0.091 A 
ATOM    105  F   UNL A   1      51.374  27.514  31.467  1.00  0.00    -0.205 F 
ATOM    106  C   UNL A   1      52.693  24.250  32.478  1.00  0.00     0.022 A 
BRANCH 104 107
ATOM    107  S   UNL A   1      54.167  26.218  31.271  1.00  0.00     0.127 S 
ATOM    108  O   UNL A   1      53.770  26.526  29.899  1.00  0.00    -0.237 OA
ATOM    109  O   UNL A   1      54.398  27.389  32.117  1.00  0.00    -0.237 OA
ATOM    110  O   UNL A   1      55.162  25.165  31.414  1.00  0.00    -0.744 OA
ENDBRANCH 104 107
ENDBRANCH  77 100
ENDBRANCH  51  52
ENDBRANCH  44  46
ENDBRANCH  43  44
ENDBRANCH  42  43
ENDBRANCH  41  42
ENDBRANCH  40  41
ENDBRANCH  39  40
ENDBRANCH  38  39
ENDBRANCH   1  38
TORSDOF 27
ENDMDL
MODEL 2
REMARK VINA RESULT:      -8.2      6.245     12.496
REMARK SMILES NC(=O)c1c(-c2ccc(Cl)cc2)csc1NC(=O)[C@H]1[C@@H](C(=O)OCCOCCOCCOCCOC(=O)c2ccc(-c3c4nc(c(-c5cccc(S(=O)(=O)[O-])c5F)c5ccc([nH]5)c(-c5cccc(S(=O)(=O)[O-])c5F)c5nc(c(-c6cccc(S(=O)(=O)[O-])c6F)c6ccc3[nH]6)C=C5)C=C4)cc2)[C@@H]2CC[C@H]1O2
REMARK SMILES IDX 29 1 28 2 27 3 26 4 25 5 24 6 23 7 21 8 22 9 20 10 19 11
REMARK SMILES IDX 104 12 101 13 103 14 105 15 102 16 17 17 16 18 18 20 15 21
REMARK SMILES IDX 4 22 5 23 13 24 14 25 2 26 1 27 3 30 6 31 7 32 12 33 8 34
REMARK SMILES IDX 11 35 9 36 10 37 30 38 31 39 32 40 33 41 34 42 35 43 36 44
REMARK SMILES IDX 37 45 38 46 39 47 100 48 40 49 99 50 41 51 42 52 43 53 93 54
REMARK SMILES IDX 44 55 98 56 92 57 94 58 45 59 97 60 91 61 90 62 46 64 78 65
REMARK SMILES IDX 58 66 77 67 59 68 62 69 76 70 95 71 60 72 61 73 75 75 96 76
REMARK SMILES IDX 63 77 47 78 48 79 56 80 49 81 51 82 57 83 50 84 52 85 53 86
REMARK SMILES IDX 54 87 55 88 79 89 80 90 88 91 81 92 83 93 89 94 82 95 84 96
REMARK SMILES IDX 85 97 86 98 87 99 64 100 65 101 73 102 66 103 68 104 74 105
REMARK SMILES IDX 67 106 69 107 70 108 71 109 72 110
REMARK H PARENT 16 19 1 28 1 29 94 63 62 74
REMARK Flexibility Score: inf
ROOT
ATOM      1  O   UNL A   1      36.743  32.704  35.575  1.00  0.00    -0.377 OA
ENDROOT
BRANCH   1   2
ATOM      2  C   UNL A   1      37.893  31.857  35.624  1.00  0.00     0.188 C 
BRANCH   2   3
ATOM      3  C   UNL A   1      37.914  30.937  36.850  1.00  0.00     0.188 C 
BRANCH   3   4
ATOM      4  O   UNL A   1      37.446  31.591  38.032  1.00  0.00    -0.376 OA
BRANCH   4   5
ATOM      5  C   UNL A   1      36.726  30.723  38.915  1.00  0.00     0.202 C 
BRANCH   5   6
ATOM      6  C   UNL A   1      35.564  31.420  39.620  1.00  0.00     0.261 C 
BRANCH   6   7
ATOM      7  O   UNL A   1      36.084  32.220  40.706  1.00  0.00    -0.463 OA
BRANCH   7   8
ATOM      8  C   UNL A   1      35.660  31.905  41.952  1.00  0.00     0.312 C 
ATOM      9  O   UNL A   1      34.599  31.336  42.181  1.00  0.00    -0.252 OA
BRANCH   8  10
ATOM     10  C   UNL A   1      36.570  32.496  43.027  1.00  0.00     0.143 C 
ATOM     11  C   UNL A   1      37.976  31.892  43.240  1.00  0.00     0.124 C 
ATOM     12  C   UNL A   1      37.736  30.990  44.484  1.00  0.00     0.132 C 
ATOM     13  C   UNL A   1      35.926  32.185  44.383  1.00  0.00     0.133 C 
ATOM     14  C   UNL A   1      37.855  31.841  45.748  1.00  0.00     0.035 C 
ATOM     15  O   UNL A   1      36.304  30.793  44.509  1.00  0.00    -0.373 OA
ATOM     16  C   UNL A   1      36.696  32.823  45.550  1.00  0.00     0.036 C 
BRANCH  11  17
ATOM     17  C   UNL A   1      38.685  31.190  42.091  1.00  0.00     0.231 C 
ATOM     18  N   UNL A   1      39.397  31.869  41.127  1.00  0.00    -0.317 N 
ATOM     19  H   UNL A   1      39.728  31.302  40.394  1.00  0.00     0.170 HD
ATOM     20  O   UNL A   1      38.638  29.957  42.005  1.00  0.00    -0.274 OA
BRANCH  18  21
ATOM     21  C   UNL A   1      39.731  33.214  41.007  1.00  0.00     0.108 A 
ATOM     22  C   UNL A   1      40.767  33.912  41.612  1.00  0.00     0.082 A 
ATOM     23  C   UNL A   1      40.953  35.211  40.998  1.00  0.00     0.007 A 
ATOM     24  C   UNL A   1      39.861  35.565  40.242  1.00  0.00     0.076 A 
ATOM     25  S   UNL A   1      38.723  34.303  40.165  1.00  0.00    -0.125 S 
BRANCH  22  26
ATOM     26  C   UNL A   1      41.658  33.425  42.643  1.00  0.00     0.252 C 
ATOM     27  N   UNL A   1      41.246  33.711  43.904  1.00  0.00    -0.365 N 
ATOM     28  H   UNL A   1      41.785  33.422  44.676  1.00  0.00     0.159 HD
ATOM     29  H   UNL A   1      40.408  34.207  44.048  1.00  0.00     0.159 HD
ATOM     30  O   UNL A   1      42.752  32.912  42.429  1.00  0.00    -0.269 OA
ENDBRANCH  22  26
BRANCH  23  31
ATOM     31  C   UNL A   1      42.119  36.078  41.159  1.00  0.00    -0.017 A 
ATOM     32  C   UNL A   1      43.000  36.335  40.109  1.00  0.00     0.010 A 
ATOM     33  C   UNL A   1      42.343  36.701  42.400  1.00  0.00     0.010 A 
ATOM     34  C   UNL A   1      44.054  37.237  40.292  1.00  0.00     0.021 A 
ATOM     35  C   UNL A   1      43.358  37.645  42.560  1.00  0.00     0.021 A 
ATOM     36  C   UNL A   1      44.202  37.923  41.494  1.00  0.00     0.041 A 
ATOM     37  Cl  UNL A   1      45.414  39.129  41.664  1.00  0.00    -0.084 Cl
ENDBRANCH  23  31
ENDBRANCH  18  21
ENDBRANCH  11  17
ENDBRANCH   8  10
ENDBRANCH   7   8
ENDBRANCH   6   7
ENDBRANCH   5   6
ENDBRANCH   4   5
ENDBRANCH   3   4
ENDBRANCH   2   3
ENDBRANCH   1   2
BRANCH   1  38
ATOM     38  C   UNL A   1      36.454  33.298  34.309  1.00  0.00     0.188 C 
BRANCH  38  39
ATOM     39  C   UNL A   1      36.031  32.414  33.127  1.00  0.00     0.188 C 
BRANCH  39  40
ATOM     40  O   UNL A   1      36.425  32.729  31.799  1.00  0.00    -0.376 OA
BRANCH  40  41
ATOM     41  C   UNL A   1      35.694  33.686  31.052  1.00  0.00     0.202 C 
BRANCH  41  42
ATOM     42  C   UNL A   1      35.080  33.220  29.734  1.00  0.00     0.261 C 
BRANCH  42  43
ATOM     43  O   UNL A   1      34.739  31.826  29.695  1.00  0.00    -0.460 OA
BRANCH  43  44
ATOM     44  C   UNL A   1      35.046  31.204  28.532  1.00  0.00     0.338 C 
ATOM     45  O   UNL A   1      34.442  31.281  27.474  1.00  0.00    -0.246 OA
BRANCH  44  46
ATOM     46  C   UNL A   1      36.270  30.391  28.683  1.00  0.00     0.060 A 
ATOM     47  C   UNL A   1      36.439  29.670  29.870  1.00  0.00     0.016 A 
ATOM     48  C   UNL A   1      37.302  30.451  27.739  1.00  0.00     0.016 A 
ATOM     49  C   UNL A   1      37.661  29.050  30.140  1.00  0.00     0.010 A 
ATOM     50  C   UNL A   1      38.532  29.843  28.020  1.00  0.00     0.010 A 
ATOM     51  C   UNL A   1      38.731  29.177  29.241  1.00  0.00    -0.014 A 
BRANCH  51  52
ATOM     52  C   UNL A   1      40.095  28.788  29.676  1.00  0.00     0.031 A 
ATOM     53  C   UNL A   1      40.800  27.678  28.949  1.00  0.00     0.074 A 
ATOM     54  C   UNL A   1      40.699  29.370  30.726  1.00  0.00     0.049 A 
ATOM     55  N   UNL A   1      42.023  27.242  29.094  1.00  0.00    -0.248 NA
ATOM     56  C   UNL A   1      40.010  26.950  27.944  1.00  0.00     0.031 C 
ATOM     57  C   UNL A   1      40.090  30.375  31.585  1.00  0.00     0.029 A 
ATOM     58  N   UNL A   1      41.955  29.183  31.255  1.00  0.00    -0.354 N 
ATOM     59  C   UNL A   1      42.140  26.160  28.232  1.00  0.00     0.074 A 
ATOM     60  C   UNL A   1      40.868  26.020  27.554  1.00  0.00     0.031 C 
ATOM     61  C   UNL A   1      40.980  30.723  32.528  1.00  0.00     0.029 A 
ATOM     62  C   UNL A   1      42.235  30.011  32.316  1.00  0.00     0.049 A 
ATOM     63  H   UNL A   1      42.594  28.518  30.906  1.00  0.00     0.167 HD
ATOM     64  C   UNL A   1      43.202  25.346  28.028  1.00  0.00     0.034 A 
ATOM     65  C   UNL A   1      43.376  30.202  33.012  1.00  0.00     0.034 A 
ATOM     66  C   UNL A   1      44.462  25.460  28.712  1.00  0.00     0.049 A 
ATOM     67  C   UNL A   1      44.589  29.373  32.679  1.00  0.00     0.074 A 
ATOM     68  C   UNL A   1      45.599  24.686  28.555  1.00  0.00     0.029 A 
ATOM     69  N   UNL A   1      44.746  26.392  29.696  1.00  0.00    -0.354 N 
ATOM     70  N   UNL A   1      44.734  28.461  31.750  1.00  0.00    -0.248 NA
ATOM     71  C   UNL A   1      45.796  29.605  33.487  1.00  0.00     0.031 C 
ATOM     72  C   UNL A   1      46.565  25.140  29.461  1.00  0.00     0.029 A 
ATOM     73  C   UNL A   1      46.036  26.210  30.163  1.00  0.00     0.049 A 
ATOM     74  H   UNL A   1      44.122  27.082  30.018  1.00  0.00     0.167 HD
ATOM     75  C   UNL A   1      46.042  28.006  31.864  1.00  0.00     0.074 A 
ATOM     76  C   UNL A   1      46.667  28.783  32.915  1.00  0.00     0.031 C 
ATOM     77  C   UNL A   1      46.660  27.008  31.188  1.00  0.00     0.034 A 
BRANCH  64  78
ATOM     78  C   UNL A   1      43.030  24.248  27.018  1.00  0.00     0.023 A 
ATOM     79  C   UNL A   1      43.545  24.415  25.715  1.00  0.00     0.012 A 
ATOM     80  C   UNL A   1      42.367  23.056  27.357  1.00  0.00     0.148 A 
ATOM     81  C   UNL A   1      43.371  23.420  24.755  1.00  0.00     0.002 A 
ATOM     82  C   UNL A   1      42.230  22.054  26.405  1.00  0.00     0.091 A 
ATOM     83  F   UNL A   1      41.860  22.935  28.592  1.00  0.00    -0.205 F 
ATOM     84  C   UNL A   1      42.721  22.238  25.103  1.00  0.00     0.022 A 
BRANCH  82  85
ATOM     85  S   UNL A   1      41.457  20.475  26.772  1.00  0.00     0.127 S 
ATOM     86  O   UNL A   1      40.076  20.878  27.035  1.00  0.00    -0.237 OA
ATOM     87  O   UNL A   1      41.651  19.740  25.522  1.00  0.00    -0.237 OA
ATOM     88  O   UNL A   1      42.178  19.931  27.913  1.00  0.00    -0.744 OA
ENDBRANCH  82  85
ENDBRANCH  64  78
BRANCH  65  89
ATOM     89  C   UNL A   1      43.470  31.310  34.010  1.00  0.00     0.023 A 
ATOM     90  C   UNL A   1      43.811  32.603  33.562  1.00  0.00     0.012 A 
ATOM     91  C   UNL A   1      43.175  31.124  35.371  1.00  0.00     0.148 A 
ATOM     92  C   UNL A   1      43.878  33.677  34.450  1.00  0.00     0.002 A 
ATOM     93  C   UNL A   1      43.160  32.215  36.235  1.00  0.00     0.091 A 
ATOM     94  F   UNL A   1      42.874  29.890  35.802  1.00  0.00    -0.205 F 
ATOM     95  C   UNL A   1      43.534  33.489  35.785  1.00  0.00     0.022 A 
BRANCH  93  96
ATOM     96  S   UNL A   1      42.457  32.065  37.883  1.00  0.00     0.127 S 
ATOM     97  O   UNL A   1      41.104  31.600  37.601  1.00  0.00    -0.237 OA
ATOM     98  O   UNL A   1      43.334  31.079  38.515  1.00  0.00    -0.237 OA
ATOM     99  O   UNL A   1      42.587  33.404  38.451  1.00  0.00    -0.744 OA
ENDBRANCH  93  96
ENDBRANCH  65  89
BRANCH  77 100
ATOM    100  C   UNL A   1      48.077  26.674  31.575  1.00  0.00     0.023 A 
ATOM    101  C   UNL A   1      49.142  27.361  30.959  1.00  0.00     0.012 A 
ATOM    102  C   UNL A   1      48.353  25.738  32.590  1.00  0.00     0.148 A 
ATOM    103  C   UNL A   1      50.462  27.102  31.326  1.00  0.00     0.002 A 
ATOM    104  C   UNL A   1      49.668  25.514  32.980  1.00  0.00     0.091 A 
ATOM    105  F   UNL A   1      47.327  25.081  33.150  1.00  0.00    -0.205 F 
ATOM    106  C   UNL A   1      50.724  26.187  32.343  1.00  0.00     0.022 A 
BRANCH 104 107
ATOM    107  S   UNL A   1      50.096  24.415  34.335  1.00  0.00     0.127 S 
ATOM    108  O   UNL A   1      49.609  23.129  33.840  1.00  0.00    -0.237 OA
ATOM    109  O   UNL A   1      51.553  24.536  34.385  1.00  0.00    -0.237 OA
ATOM    110  O   UNL A   1      49.407  24.938  35.506  1.00  0.00    -0.744 OA
ENDBRANCH 104 107
ENDBRANCH  77 100
ENDBRANCH  51  52
ENDBRANCH  44  46
ENDBRANCH  43  44
ENDBRANCH  42  43
ENDBRANCH  41  42
ENDBRANCH  40  41
ENDBRANCH  39  40
ENDBRANCH  38  39
ENDBRANCH   1  38
TORSDOF 27
ENDMDL
MODEL 3
REMARK VINA RESULT:      -8.1      4.536      7.829
REMARK SMILES NC(=O)c1c(-c2ccc(Cl)cc2)csc1NC(=O)[C@H]1[C@@H](C(=O)OCCOCCOCCOCCOC(=O)c2ccc(-c3c4nc(c(-c5cccc(S(=O)(=O)[O-])c5F)c5ccc([nH]5)c(-c5cccc(S(=O)(=O)[O-])c5F)c5nc(c(-c6cccc(S(=O)(=O)[O-])c6F)c6ccc3[nH]6)C=C5)C=C4)cc2)[C@@H]2CC[C@H]1O2
REMARK SMILES IDX 29 1 28 2 27 3 26 4 25 5 24 6 23 7 21 8 22 9 20 10 19 11
REMARK SMILES IDX 104 12 101 13 103 14 105 15 102 16 17 17 16 18 18 20 15 21
REMARK SMILES IDX 4 22 5 23 13 24 14 25 2 26 1 27 3 30 6 31 7 32 12 33 8 34
REMARK SMILES IDX 11 35 9 36 10 37 30 38 31 39 32 40 33 41 34 42 35 43 36 44
REMARK SMILES IDX 37 45 38 46 39 47 100 48 40 49 99 50 41 51 42 52 43 53 93 54
REMARK SMILES IDX 44 55 98 56 92 57 94 58 45 59 97 60 91 61 90 62 46 64 78 65
REMARK SMILES IDX 58 66 77 67 59 68 62 69 76 70 95 71 60 72 61 73 75 75 96 76
REMARK SMILES IDX 63 77 47 78 48 79 56 80 49 81 51 82 57 83 50 84 52 85 53 86
REMARK SMILES IDX 54 87 55 88 79 89 80 90 88 91 81 92 83 93 89 94 82 95 84 96
REMARK SMILES IDX 85 97 86 98 87 99 64 100 65 101 73 102 66 103 68 104 74 105
REMARK SMILES IDX 67 106 69 107 70 108 71 109 72 110
REMARK H PARENT 16 19 1 28 1 29 94 63 62 74
REMARK Flexibility Score: inf
ROOT
ATOM      1  O   UNL A   1      32.234  33.742  27.575  1.00  0.00    -0.377 OA
ENDROOT
BRANCH   1   2
ATOM      2  C   UNL A   1      32.656  32.389  27.392  1.00  0.00     0.188 C 
BRANCH   2   3
ATOM      3  C   UNL A   1      31.630  31.532  26.644  1.00  0.00     0.188 C 
BRANCH   3   4
ATOM      4  O   UNL A   1      31.842  30.132  26.835  1.00  0.00    -0.376 OA
BRANCH   4   5
ATOM      5  C   UNL A   1      33.064  29.831  27.519  1.00  0.00     0.202 C 
BRANCH   5   6
ATOM      6  C   UNL A   1      33.869  28.724  26.842  1.00  0.00     0.261 C 
BRANCH   6   7
ATOM      7  O   UNL A   1      33.073  28.143  25.784  1.00  0.00    -0.463 OA
BRANCH   7   8
ATOM      8  C   UNL A   1      33.479  26.944  25.305  1.00  0.00     0.312 C 
ATOM      9  O   UNL A   1      34.621  26.721  24.921  1.00  0.00    -0.252 OA
BRANCH   8  10
ATOM     10  C   UNL A   1      32.311  25.975  25.141  1.00  0.00     0.143 C 
ATOM     11  C   UNL A   1      32.024  25.368  23.748  1.00  0.00     0.124 C 
ATOM     12  C   UNL A   1      30.848  26.263  23.262  1.00  0.00     0.132 C 
ATOM     13  C   UNL A   1      31.024  26.777  25.364  1.00  0.00     0.133 C 
ATOM     14  C   UNL A   1      29.537  25.715  23.826  1.00  0.00     0.035 C 
ATOM     15  O   UNL A   1      30.940  27.449  24.084  1.00  0.00    -0.373 OA
ATOM     16  C   UNL A   1      29.772  25.887  25.331  1.00  0.00     0.036 C 
BRANCH  11  17
ATOM     17  C   UNL A   1      33.150  25.219  22.737  1.00  0.00     0.231 C 
ATOM     18  N   UNL A   1      34.157  24.290  22.873  1.00  0.00    -0.317 N 
ATOM     19  H   UNL A   1      34.869  24.362  22.197  1.00  0.00     0.170 HD
ATOM     20  O   UNL A   1      33.176  25.948  21.738  1.00  0.00    -0.274 OA
BRANCH  18  21
ATOM     21  C   UNL A   1      34.347  23.269  23.798  1.00  0.00     0.108 A 
ATOM     22  C   UNL A   1      33.605  22.110  23.982  1.00  0.00     0.082 A 
ATOM     23  C   UNL A   1      34.301  21.171  24.838  1.00  0.00     0.007 A 
ATOM     24  C   UNL A   1      35.319  21.787  25.528  1.00  0.00     0.076 A 
ATOM     25  S   UNL A   1      35.511  23.405  25.039  1.00  0.00    -0.125 S 
BRANCH  22  26
ATOM     26  C   UNL A   1      32.352  21.770  23.343  1.00  0.00     0.252 C 
ATOM     27  N   UNL A   1      31.262  21.993  24.120  1.00  0.00    -0.365 N 
ATOM     28  H   UNL A   1      30.362  21.793  23.775  1.00  0.00     0.159 HD
ATOM     29  H   UNL A   1      31.370  22.355  25.029  1.00  0.00     0.159 HD
ATOM     30  O   UNL A   1      32.257  21.212  22.254  1.00  0.00    -0.269 OA
ENDBRANCH  22  26
BRANCH  23  31
ATOM     31  C   UNL A   1      33.978  19.755  25.001  1.00  0.00    -0.017 A 
ATOM     32  C   UNL A   1      32.851  19.329  25.703  1.00  0.00     0.010 A 
ATOM     33  C   UNL A   1      34.809  18.790  24.403  1.00  0.00     0.010 A 
ATOM     34  C   UNL A   1      32.543  17.965  25.761  1.00  0.00     0.021 A 
ATOM     35  C   UNL A   1      34.465  17.438  24.411  1.00  0.00     0.021 A 
ATOM     36  C   UNL A   1      33.317  17.033  25.079  1.00  0.00     0.041 A 
ATOM     37  Cl  UNL A   1      32.853  15.378  25.040  1.00  0.00    -0.084 Cl
ENDBRANCH  23  31
ENDBRANCH  18  21
ENDBRANCH  11  17
ENDBRANCH   8  10
ENDBRANCH   7   8
ENDBRANCH   6   7
ENDBRANCH   5   6
ENDBRANCH   4   5
ENDBRANCH   3   4
ENDBRANCH   2   3
ENDBRANCH   1   2
BRANCH   1  38
ATOM     38  C   UNL A   1      33.021  34.531  28.467  1.00  0.00     0.188 C 
BRANCH  38  39
ATOM     39  C   UNL A   1      34.274  33.930  29.120  1.00  0.00     0.188 C 
BRANCH  39  40
ATOM     40  O   UNL A   1      34.312  33.650  30.512  1.00  0.00    -0.376 OA
BRANCH  40  41
ATOM     41  C   UNL A   1      34.625  32.344  30.963  1.00  0.00     0.202 C 
BRANCH  41  42
ATOM     42  C   UNL A   1      36.003  31.792  30.602  1.00  0.00     0.261 C 
BRANCH  42  43
ATOM     43  O   UNL A   1      36.921  31.717  31.703  1.00  0.00    -0.460 OA
BRANCH  43  44
ATOM     44  C   UNL A   1      37.599  32.863  31.949  1.00  0.00     0.338 C 
ATOM     45  O   UNL A   1      37.711  33.824  31.205  1.00  0.00    -0.246 OA
BRANCH  44  46
ATOM     46  C   UNL A   1      38.207  32.832  33.294  1.00  0.00     0.060 A 
ATOM     47  C   UNL A   1      39.315  33.654  33.535  1.00  0.00     0.016 A 
ATOM     48  C   UNL A   1      37.791  31.906  34.259  1.00  0.00     0.016 A 
ATOM     49  C   UNL A   1      40.041  33.514  34.719  1.00  0.00     0.010 A 
ATOM     50  C   UNL A   1      38.532  31.757  35.437  1.00  0.00     0.010 A 
ATOM     51  C   UNL A   1      39.685  32.529  35.653  1.00  0.00    -0.014 A 
BRANCH  51  52
ATOM     52  C   UNL A   1      40.633  32.185  36.742  1.00  0.00     0.031 A 
ATOM     53  C   UNL A   1      41.690  31.149  36.483  1.00  0.00     0.074 A 
ATOM     54  C   UNL A   1      40.546  32.741  37.962  1.00  0.00     0.049 A 
ATOM     55  N   UNL A   1      42.676  30.766  37.251  1.00  0.00    -0.248 NA
ATOM     56  C   UNL A   1      41.605  30.436  35.200  1.00  0.00     0.031 C 
ATOM     57  C   UNL A   1      39.507  33.671  38.382  1.00  0.00     0.029 A 
ATOM     58  N   UNL A   1      41.340  32.589  39.075  1.00  0.00    -0.354 N 
ATOM     59  C   UNL A   1      43.306  29.736  36.565  1.00  0.00     0.074 A 
ATOM     60  C   UNL A   1      42.601  29.569  35.311  1.00  0.00     0.031 C 
ATOM     61  C   UNL A   1      39.735  34.013  39.659  1.00  0.00     0.029 A 
ATOM     62  C   UNL A   1      40.957  33.375  40.137  1.00  0.00     0.049 A 
ATOM     63  H   UNL A   1      42.109  31.974  39.109  1.00  0.00     0.167 HD
ATOM     64  C   UNL A   1      44.367  28.986  36.945  1.00  0.00     0.034 A 
ATOM     65  C   UNL A   1      41.538  33.586  41.336  1.00  0.00     0.034 A 
ATOM     66  C   UNL A   1      45.060  29.126  38.196  1.00  0.00     0.049 A 
ATOM     67  C   UNL A   1      42.795  32.835  41.687  1.00  0.00     0.074 A 
ATOM     68  C   UNL A   1      46.157  28.417  38.656  1.00  0.00     0.029 A 
ATOM     69  N   UNL A   1      44.714  30.020  39.197  1.00  0.00    -0.354 N 
ATOM     70  N   UNL A   1      43.473  31.979  40.963  1.00  0.00    -0.248 NA
ATOM     71  C   UNL A   1      43.371  33.084  43.018  1.00  0.00     0.031 C 
ATOM     72  C   UNL A   1      46.461  28.871  39.946  1.00  0.00     0.029 A 
ATOM     73  C   UNL A   1      45.569  29.877  40.276  1.00  0.00     0.049 A 
ATOM     74  H   UNL A   1      43.969  30.661  39.148  1.00  0.00     0.167 HD
ATOM     75  C   UNL A   1      44.549  31.583  41.749  1.00  0.00     0.074 A 
ATOM     76  C   UNL A   1      44.466  32.335  42.984  1.00  0.00     0.031 C 
ATOM     77  C   UNL A   1      45.498  30.651  41.489  1.00  0.00     0.034 A 
BRANCH  64  78
ATOM     78  C   UNL A   1      44.833  27.934  35.980  1.00  0.00     0.023 A 
ATOM     79  C   UNL A   1      45.760  28.275  34.973  1.00  0.00     0.012 A 
ATOM     80  C   UNL A   1      44.359  26.613  36.071  1.00  0.00     0.148 A 
ATOM     81  C   UNL A   1      46.183  27.320  34.051  1.00  0.00     0.002 A 
ATOM     82  C   UNL A   1      44.813  25.659  35.170  1.00  0.00     0.091 A 
ATOM     83  F   UNL A   1      43.455  26.322  37.017  1.00  0.00    -0.205 F 
ATOM     84  C   UNL A   1      45.716  26.012  34.155  1.00  0.00     0.022 A 
BRANCH  82  85
ATOM     85  S   UNL A   1      44.312  23.937  35.257  1.00  0.00     0.127 S 
ATOM     86  O   UNL A   1      44.990  23.374  34.091  1.00  0.00    -0.237 OA
ATOM     87  O   UNL A   1      44.866  23.520  36.546  1.00  0.00    -0.237 OA
ATOM     88  O   UNL A   1      42.857  23.938  35.195  1.00  0.00    -0.744 OA
ENDBRANCH  82  85
ENDBRANCH  64  78
BRANCH  65  89
ATOM     89  C   UNL A   1      41.012  34.645  42.250  1.00  0.00     0.023 A 
ATOM     90  C   UNL A   1      40.114  34.276  43.273  1.00  0.00     0.012 A 
ATOM     91  C   UNL A   1      41.423  35.985  42.165  1.00  0.00     0.148 A 
ATOM     92  C   UNL A   1      39.622  35.222  44.174  1.00  0.00     0.002 A 
ATOM     93  C   UNL A   1      40.995  36.906  43.117  1.00  0.00     0.091 A 
ATOM     94  F   UNL A   1      42.257  36.341  41.177  1.00  0.00    -0.205 F 
ATOM     95  C   UNL A   1      40.076  36.535  44.109  1.00  0.00     0.022 A 
BRANCH  93  96
ATOM     96  S   UNL A   1      41.770  38.524  43.234  1.00  0.00     0.127 S 
ATOM     97  O   UNL A   1      41.120  39.096  44.408  1.00  0.00    -0.237 OA
ATOM     98  O   UNL A   1      43.183  38.189  43.408  1.00  0.00    -0.237 OA
ATOM     99  O   UNL A   1      41.478  39.154  41.949  1.00  0.00    -0.744 OA
ENDBRANCH  93  96
ENDBRANCH  65  89
BRANCH  77 100
ATOM    100  C   UNL A   1      46.512  30.368  42.566  1.00  0.00     0.023 A 
ATOM    101  C   UNL A   1      47.770  31.002  42.516  1.00  0.00     0.012 A 
ATOM    102  C   UNL A   1      46.201  29.535  43.657  1.00  0.00     0.148 A 
ATOM    103  C   UNL A   1      48.713  30.790  43.520  1.00  0.00     0.002 A 
ATOM    104  C   UNL A   1      47.131  29.360  44.676  1.00  0.00     0.091 A 
ATOM    105  F   UNL A   1      45.007  28.925  43.676  1.00  0.00    -0.205 F 
ATOM    106  C   UNL A   1      48.390  29.978  44.604  1.00  0.00     0.022 A 
BRANCH 104 107
ATOM    107  S   UNL A   1      46.773  28.398  46.151  1.00  0.00     0.127 S 
ATOM    108  O   UNL A   1      45.554  29.041  46.636  1.00  0.00    -0.237 OA
ATOM    109  O   UNL A   1      46.579  27.055  45.606  1.00  0.00    -0.237 OA
ATOM    110  O   UNL A   1      47.940  28.537  47.010  1.00  0.00    -0.744 OA
ENDBRANCH 104 107
ENDBRANCH  77 100
ENDBRANCH  51  52
ENDBRANCH  44  46
ENDBRANCH  43  44
ENDBRANCH  42  43
ENDBRANCH  41  42
ENDBRANCH  40  41
ENDBRANCH  39  40
ENDBRANCH  38  39
ENDBRANCH   1  38
TORSDOF 27
ENDMDL
