MODEL 1
REMARK VINA RESULT:      -7.2      0.000      0.000
REMARK SMILES [NH3+][C@@H](CSCc1nccs1)C(=O)OCCOCCOCCOCCOC(=O)c1ccc(-c2c3nc(c(-c4cccc(S(=O)(=O)[O-])c4F)c4ccc([nH]4)c(-c4cccc(S(=O)(=O)[O-])c4F)c4nc(c(-c5cccc(S(=O)(=O)[O-])c5F)c5ccc2[nH]5)C=C4)C=C3)cc1
REMARK SMILES IDX 18 1 17 2 16 3 15 4 14 5 13 6 11 7 12 8 2 9 1 10 3 14 4 15
REMARK SMILES IDX 5 16 6 17 7 18 10 19 8 20 9 21 19 22 20 23 21 24 22 25 23 26
REMARK SMILES IDX 24 27 25 28 26 29 27 30 28 31 29 32 90 33 30 34 89 35 31 36
REMARK SMILES IDX 32 37 33 38 83 39 34 40 88 41 82 42 84 43 35 44 87 45 81 46
REMARK SMILES IDX 80 47 36 49 68 50 48 51 67 52 49 53 52 54 66 55 85 56 50 57
REMARK SMILES IDX 51 58 65 60 86 61 53 62 37 63 38 64 46 65 39 66 41 67 47 68
REMARK SMILES IDX 40 69 42 70 43 71 44 72 45 73 69 74 70 75 78 76 71 77 73 78
REMARK SMILES IDX 79 79 72 80 74 81 75 82 76 83 77 84 54 85 55 86 63 87 56 88
REMARK SMILES IDX 58 89 64 90 57 91 59 92 60 93 61 94 62 95
REMARK H PARENT 1 11 1 12 1 13 84 48 52 59
REMARK Flexibility Score: inf
ROOT
ATOM      1  C   UNL A   1      33.818  22.575  23.863  1.00  0.00     0.188 C 
ENDROOT
BRANCH   1   2
ATOM      2  C   UNL A   1      33.150  21.637  24.879  1.00  0.00     0.188 C 
BRANCH   2   3
ATOM      3  O   UNL A   1      32.300  22.150  25.900  1.00  0.00    -0.376 OA
BRANCH   3   4
ATOM      4  C   UNL A   1      32.073  23.549  26.033  1.00  0.00     0.202 C 
BRANCH   4   5
ATOM      5  C   UNL A   1      30.861  24.260  25.412  1.00  0.00     0.261 C 
BRANCH   5   6
ATOM      6  O   UNL A   1      31.081  25.600  24.970  1.00  0.00    -0.459 OA
BRANCH   6   7
ATOM      7  C   UNL A   1      31.397  25.758  23.655  1.00  0.00     0.365 C 
ATOM      8  O   UNL A   1      31.223  24.914  22.783  1.00  0.00    -0.245 OA
BRANCH   7   9
ATOM      9  C   UNL A   1      32.029  27.131  23.382  1.00  0.00     0.301 C 
BRANCH   9  10
ATOM     10  N   UNL A   1      31.557  27.744  22.128  1.00  0.00    -0.345 N 
ATOM     11  H   UNL A   1      31.484  27.029  21.406  1.00  0.00     0.345 HD
ATOM     12  H   UNL A   1      32.220  28.461  21.830  1.00  0.00     0.345 HD
ATOM     13  H   UNL A   1      30.643  28.170  22.280  1.00  0.00     0.345 HD
ENDBRANCH   9  10
BRANCH   9  14
ATOM     14  C   UNL A   1      31.902  28.034  24.610  1.00  0.00     0.147 C 
BRANCH  14  15
ATOM     15  S   UNL A   1      33.441  28.516  25.484  1.00  0.00    -0.148 SA
BRANCH  15  16
ATOM     16  C   UNL A   1      32.862  29.703  26.755  1.00  0.00     0.137 C 
BRANCH  16  17
ATOM     17  C   UNL A   1      33.953  30.537  27.357  1.00  0.00     0.102 A 
ATOM     18  N   UNL A   1      33.818  31.809  27.695  1.00  0.00    -0.249 NA
ATOM     19  S   UNL A   1      35.515  29.867  27.634  1.00  0.00    -0.126 S 
ATOM     20  C   UNL A   1      34.999  32.272  28.242  1.00  0.00     0.123 A 
ATOM     21  C   UNL A   1      36.036  31.368  28.270  1.00  0.00     0.087 A 
ENDBRANCH  16  17
ENDBRANCH  15  16
ENDBRANCH  14  15
ENDBRANCH   9  14
ENDBRANCH   7   9
ENDBRANCH   6   7
ENDBRANCH   5   6
ENDBRANCH   4   5
ENDBRANCH   3   4
ENDBRANCH   2   3
ENDBRANCH   1   2
BRANCH   1  22
ATOM     22  O   UNL A   1      35.204  22.345  23.704  1.00  0.00    -0.377 OA
BRANCH  22  23
ATOM     23  C   UNL A   1      35.945  22.132  24.904  1.00  0.00     0.188 C 
BRANCH  23  24
ATOM     24  C   UNL A   1      36.671  20.776  25.085  1.00  0.00     0.188 C 
BRANCH  24  25
ATOM     25  O   UNL A   1      38.073  20.868  25.307  1.00  0.00    -0.376 OA
BRANCH  25  26
ATOM     26  C   UNL A   1      38.857  19.687  25.212  1.00  0.00     0.202 C 
BRANCH  26  27
ATOM     27  C   UNL A   1      40.109  19.570  26.100  1.00  0.00     0.261 C 
BRANCH  27  28
ATOM     28  O   UNL A   1      40.971  20.718  26.147  1.00  0.00    -0.460 OA
BRANCH  28  29
ATOM     29  C   UNL A   1      42.264  20.574  25.791  1.00  0.00     0.338 C 
ATOM     30  O   UNL A   1      42.766  19.622  25.216  1.00  0.00    -0.246 OA
BRANCH  29  31
ATOM     31  C   UNL A   1      42.933  21.873  26.022  1.00  0.00     0.060 A 
ATOM     32  C   UNL A   1      43.522  22.123  27.269  1.00  0.00     0.016 A 
ATOM     33  C   UNL A   1      43.014  22.823  25.002  1.00  0.00     0.016 A 
ATOM     34  C   UNL A   1      44.194  23.326  27.500  1.00  0.00     0.010 A 
ATOM     35  C   UNL A   1      43.658  24.039  25.246  1.00  0.00     0.010 A 
ATOM     36  C   UNL A   1      44.238  24.304  26.499  1.00  0.00    -0.014 A 
BRANCH  36  37
ATOM     37  C   UNL A   1      44.773  25.657  26.790  1.00  0.00     0.031 A 
ATOM     38  C   UNL A   1      46.202  25.958  26.434  1.00  0.00     0.074 A 
ATOM     39  C   UNL A   1      44.020  26.584  27.409  1.00  0.00     0.049 A 
ATOM     40  N   UNL A   1      46.915  27.019  26.703  1.00  0.00    -0.248 NA
ATOM     41  C   UNL A   1      46.925  24.923  25.674  1.00  0.00     0.031 C 
ATOM     42  C   UNL A   1      42.620  26.418  27.793  1.00  0.00     0.029 A 
ATOM     43  N   UNL A   1      44.350  27.839  27.865  1.00  0.00    -0.354 N 
ATOM     44  C   UNL A   1      48.181  26.764  26.190  1.00  0.00     0.074 A 
ATOM     45  C   UNL A   1      48.136  25.455  25.576  1.00  0.00     0.031 C 
ATOM     46  C   UNL A   1      42.225  27.507  28.477  1.00  0.00     0.029 A 
ATOM     47  C   UNL A   1      43.353  28.427  28.611  1.00  0.00     0.049 A 
ATOM     48  H   UNL A   1      45.212  28.274  27.677  1.00  0.00     0.167 HD
ATOM     49  C   UNL A   1      49.281  27.549  26.230  1.00  0.00     0.034 A 
ATOM     50  C   UNL A   1      43.369  29.550  29.360  1.00  0.00     0.034 A 
ATOM     51  C   UNL A   1      49.321  28.859  26.822  1.00  0.00     0.049 A 
ATOM     52  C   UNL A   1      44.625  30.385  29.418  1.00  0.00     0.074 A 
ATOM     53  C   UNL A   1      50.372  29.759  26.838  1.00  0.00     0.029 A 
ATOM     54  N   UNL A   1      48.281  29.443  27.525  1.00  0.00    -0.354 N 
ATOM     55  N   UNL A   1      45.770  30.202  28.803  1.00  0.00    -0.248 NA
ATOM     56  C   UNL A   1      44.586  31.595  30.255  1.00  0.00     0.031 C 
ATOM     57  C   UNL A   1      49.984  30.867  27.596  1.00  0.00     0.029 A 
ATOM     58  C   UNL A   1      48.678  30.675  28.013  1.00  0.00     0.049 A 
ATOM     59  H   UNL A   1      47.393  29.040  27.659  1.00  0.00     0.167 HD
ATOM     60  C   UNL A   1      46.572  31.283  29.158  1.00  0.00     0.074 A 
ATOM     61  C   UNL A   1      45.774  32.133  30.014  1.00  0.00     0.031 C 
ATOM     62  C   UNL A   1      47.860  31.539  28.822  1.00  0.00     0.034 A 
BRANCH  49  63
ATOM     63  C   UNL A   1      50.553  27.026  25.620  1.00  0.00     0.023 A 
ATOM     64  C   UNL A   1      51.328  26.078  26.316  1.00  0.00     0.012 A 
ATOM     65  C   UNL A   1      50.913  27.393  24.309  1.00  0.00     0.148 A 
ATOM     66  C   UNL A   1      52.452  25.510  25.717  1.00  0.00     0.002 A 
ATOM     67  C   UNL A   1      52.006  26.790  23.703  1.00  0.00     0.091 A 
ATOM     68  F   UNL A   1      50.169  28.313  23.678  1.00  0.00    -0.205 F 
ATOM     69  C   UNL A   1      52.782  25.854  24.407  1.00  0.00     0.022 A 
BRANCH  67  70
ATOM     70  S   UNL A   1      52.463  27.103  21.994  1.00  0.00     0.127 S 
ATOM     71  O   UNL A   1      53.731  26.381  21.892  1.00  0.00    -0.237 OA
ATOM     72  O   UNL A   1      51.352  26.490  21.266  1.00  0.00    -0.237 OA
ATOM     73  O   UNL A   1      52.561  28.549  21.858  1.00  0.00    -0.744 OA
ENDBRANCH  67  70
ENDBRANCH  49  63
BRANCH  50  74
ATOM     74  C   UNL A   1      42.169  29.946  30.152  1.00  0.00     0.023 A 
ATOM     75  C   UNL A   1      41.240  30.856  29.612  1.00  0.00     0.012 A 
ATOM     76  C   UNL A   1      41.963  29.449  31.455  1.00  0.00     0.148 A 
ATOM     77  C   UNL A   1      40.155  31.300  30.371  1.00  0.00     0.002 A 
ATOM     78  C   UNL A   1      40.846  29.845  32.181  1.00  0.00     0.091 A 
ATOM     79  F   UNL A   1      42.869  28.604  31.966  1.00  0.00    -0.205 F 
ATOM     80  C   UNL A   1      39.952  30.788  31.649  1.00  0.00     0.022 A 
BRANCH  78  81
ATOM     81  S   UNL A   1      40.445  29.129  33.779  1.00  0.00     0.127 S 
ATOM     82  O   UNL A   1      40.115  27.754  33.416  1.00  0.00    -0.237 OA
ATOM     83  O   UNL A   1      41.703  29.290  34.509  1.00  0.00    -0.237 OA
ATOM     84  O   UNL A   1      39.348  29.933  34.302  1.00  0.00    -0.744 OA
ENDBRANCH  78  81
ENDBRANCH  50  74
BRANCH  62  85
ATOM     85  C   UNL A   1      48.492  32.803  29.350  1.00  0.00     0.023 A 
ATOM     86  C   UNL A   1      49.229  32.770  30.550  1.00  0.00     0.012 A 
ATOM     87  C   UNL A   1      48.430  34.001  28.610  1.00  0.00     0.148 A 
ATOM     88  C   UNL A   1      49.869  33.915  31.021  1.00  0.00     0.002 A 
ATOM     89  C   UNL A   1      49.113  35.125  29.060  1.00  0.00     0.091 A 
ATOM     90  F   UNL A   1      47.715  34.015  27.477  1.00  0.00    -0.205 F 
ATOM     91  C   UNL A   1      49.821  35.088  30.271  1.00  0.00     0.022 A 
BRANCH  89  92
ATOM     92  S   UNL A   1      49.191  36.652  28.116  1.00  0.00     0.127 S 
ATOM     93  O   UNL A   1      47.787  37.063  28.097  1.00  0.00    -0.237 OA
ATOM     94  O   UNL A   1      50.058  37.485  28.950  1.00  0.00    -0.237 OA
ATOM     95  O   UNL A   1      49.751  36.299  26.819  1.00  0.00    -0.744 OA
ENDBRANCH  89  92
ENDBRANCH  62  85
ENDBRANCH  36  37
ENDBRANCH  29  31
ENDBRANCH  28  29
ENDBRANCH  27  28
ENDBRANCH  26  27
ENDBRANCH  25  26
ENDBRANCH  24  25
ENDBRANCH  23  24
ENDBRANCH  22  23
ENDBRANCH   1  22
TORSDOF 28
ENDMDL
MODEL 2
REMARK VINA RESULT:      -6.9      6.233      7.574
REMARK SMILES [NH3+][C@@H](CSCc1nccs1)C(=O)OCCOCCOCCOCCOC(=O)c1ccc(-c2c3nc(c(-c4cccc(S(=O)(=O)[O-])c4F)c4ccc([nH]4)c(-c4cccc(S(=O)(=O)[O-])c4F)c4nc(c(-c5cccc(S(=O)(=O)[O-])c5F)c5ccc2[nH]5)C=C4)C=C3)cc1
REMARK SMILES IDX 18 1 17 2 16 3 15 4 14 5 13 6 11 7 12 8 2 9 1 10 3 14 4 15
REMARK SMILES IDX 5 16 6 17 7 18 10 19 8 20 9 21 19 22 20 23 21 24 22 25 23 26
REMARK SMILES IDX 24 27 25 28 26 29 27 30 28 31 29 32 90 33 30 34 89 35 31 36
REMARK SMILES IDX 32 37 33 38 83 39 34 40 88 41 82 42 84 43 35 44 87 45 81 46
REMARK SMILES IDX 80 47 36 49 68 50 48 51 67 52 49 53 52 54 66 55 85 56 50 57
REMARK SMILES IDX 51 58 65 60 86 61 53 62 37 63 38 64 46 65 39 66 41 67 47 68
REMARK SMILES IDX 40 69 42 70 43 71 44 72 45 73 69 74 70 75 78 76 71 77 73 78
REMARK SMILES IDX 79 79 72 80 74 81 75 82 76 83 77 84 54 85 55 86 63 87 56 88
REMARK SMILES IDX 58 89 64 90 57 91 59 92 60 93 61 94 62 95
REMARK H PARENT 1 11 1 12 1 13 84 48 52 59
REMARK Flexibility Score: inf
ROOT
ATOM      1  C   UNL A   1      34.366  21.017  25.912  1.00  0.00     0.188 C 
ENDROOT
BRANCH   1   2
ATOM      2  C   UNL A   1      33.131  20.175  25.557  1.00  0.00     0.188 C 
BRANCH   2   3
ATOM      3  O   UNL A   1      31.996  20.768  24.934  1.00  0.00    -0.376 OA
BRANCH   3   4
ATOM      4  C   UNL A   1      32.126  21.518  23.732  1.00  0.00     0.202 C 
BRANCH   4   5
ATOM      5  C   UNL A   1      31.956  23.044  23.678  1.00  0.00     0.261 C 
BRANCH   5   6
ATOM      6  O   UNL A   1      30.928  23.588  24.508  1.00  0.00    -0.459 OA
BRANCH   6   7
ATOM      7  C   UNL A   1      31.342  24.319  25.580  1.00  0.00     0.365 C 
ATOM      8  O   UNL A   1      32.297  24.041  26.296  1.00  0.00    -0.245 OA
BRANCH   7   9
ATOM      9  C   UNL A   1      30.448  25.546  25.811  1.00  0.00     0.301 C 
BRANCH   9  10
ATOM     10  N   UNL A   1      31.065  26.553  26.692  1.00  0.00    -0.345 N 
ATOM     11  H   UNL A   1      31.720  27.120  26.155  1.00  0.00     0.345 HD
ATOM     12  H   UNL A   1      31.564  26.082  27.448  1.00  0.00     0.345 HD
ATOM     13  H   UNL A   1      30.339  27.151  27.086  1.00  0.00     0.345 HD
ENDBRANCH   9  10
BRANCH   9  14
ATOM     14  C   UNL A   1      29.944  26.102  24.478  1.00  0.00     0.147 C 
BRANCH  14  15
ATOM     15  S   UNL A   1      30.228  27.879  24.127  1.00  0.00    -0.148 SA
BRANCH  15  16
ATOM     16  C   UNL A   1      29.074  28.237  22.749  1.00  0.00     0.137 C 
BRANCH  16  17
ATOM     17  C   UNL A   1      28.638  29.670  22.670  1.00  0.00     0.102 A 
ATOM     18  N   UNL A   1      27.834  30.253  23.545  1.00  0.00    -0.249 NA
ATOM     19  S   UNL A   1      29.164  30.675  21.375  1.00  0.00    -0.126 S 
ATOM     20  C   UNL A   1      27.653  31.578  23.198  1.00  0.00     0.123 A 
ATOM     21  C   UNL A   1      28.279  31.980  22.040  1.00  0.00     0.087 A 
ENDBRANCH  16  17
ENDBRANCH  15  16
ENDBRANCH  14  15
ENDBRANCH   9  14
ENDBRANCH   7   9
ENDBRANCH   6   7
ENDBRANCH   5   6
ENDBRANCH   4   5
ENDBRANCH   3   4
ENDBRANCH   2   3
ENDBRANCH   1   2
BRANCH   1  22
ATOM     22  O   UNL A   1      35.523  20.664  25.182  1.00  0.00    -0.377 OA
BRANCH  22  23
ATOM     23  C   UNL A   1      36.560  21.642  25.139  1.00  0.00     0.188 C 
BRANCH  23  24
ATOM     24  C   UNL A   1      36.252  23.059  25.682  1.00  0.00     0.188 C 
BRANCH  24  25
ATOM     25  O   UNL A   1      37.273  24.025  25.461  1.00  0.00    -0.376 OA
BRANCH  25  26
ATOM     26  C   UNL A   1      38.517  23.867  26.128  1.00  0.00     0.202 C 
BRANCH  26  27
ATOM     27  C   UNL A   1      38.692  24.524  27.509  1.00  0.00     0.261 C 
BRANCH  27  28
ATOM     28  O   UNL A   1      40.035  24.849  27.900  1.00  0.00    -0.460 OA
BRANCH  28  29
ATOM     29  C   UNL A   1      40.323  26.122  28.240  1.00  0.00     0.338 C 
ATOM     30  O   UNL A   1      39.555  27.070  28.256  1.00  0.00    -0.246 OA
BRANCH  29  31
ATOM     31  C   UNL A   1      41.690  26.129  28.806  1.00  0.00     0.060 A 
ATOM     32  C   UNL A   1      42.565  25.082  28.484  1.00  0.00     0.016 A 
ATOM     33  C   UNL A   1      42.120  27.182  29.615  1.00  0.00     0.016 A 
ATOM     34  C   UNL A   1      43.874  25.086  28.973  1.00  0.00     0.010 A 
ATOM     35  C   UNL A   1      43.419  27.167  30.130  1.00  0.00     0.010 A 
ATOM     36  C   UNL A   1      44.298  26.112  29.825  1.00  0.00    -0.014 A 
BRANCH  36  37
ATOM     37  C   UNL A   1      45.613  26.031  30.508  1.00  0.00     0.031 A 
ATOM     38  C   UNL A   1      46.822  26.591  29.811  1.00  0.00     0.074 A 
ATOM     39  C   UNL A   1      45.740  25.422  31.700  1.00  0.00     0.049 A 
ATOM     40  N   UNL A   1      48.080  26.523  30.156  1.00  0.00    -0.248 NA
ATOM     41  C   UNL A   1      46.580  27.324  28.556  1.00  0.00     0.031 C 
ATOM     42  C   UNL A   1      44.644  24.851  32.481  1.00  0.00     0.029 A 
ATOM     43  N   UNL A   1      46.864  25.141  32.441  1.00  0.00    -0.354 N 
ATOM     44  C   UNL A   1      48.785  27.160  29.143  1.00  0.00     0.074 A 
ATOM     45  C   UNL A   1      47.814  27.626  28.177  1.00  0.00     0.031 C 
ATOM     46  C   UNL A   1      45.154  24.239  33.564  1.00  0.00     0.029 A 
ATOM     47  C   UNL A   1      46.613  24.341  33.533  1.00  0.00     0.049 A 
ATOM     48  H   UNL A   1      47.760  25.479  32.214  1.00  0.00     0.167 HD
ATOM     49  C   UNL A   1      50.120  27.338  29.028  1.00  0.00     0.034 A 
ATOM     50  C   UNL A   1      47.464  23.719  34.376  1.00  0.00     0.034 A 
ATOM     51  C   UNL A   1      51.084  26.893  29.998  1.00  0.00     0.049 A 
ATOM     52  C   UNL A   1      48.951  23.905  34.197  1.00  0.00     0.074 A 
ATOM     53  C   UNL A   1      52.452  27.100  30.002  1.00  0.00     0.029 A 
ATOM     54  N   UNL A   1      50.789  26.130  31.115  1.00  0.00    -0.354 N 
ATOM     55  N   UNL A   1      49.595  24.634  33.318  1.00  0.00    -0.248 NA
ATOM     56  C   UNL A   1      49.831  23.197  35.142  1.00  0.00     0.031 C 
ATOM     57  C   UNL A   1      52.992  26.417  31.095  1.00  0.00     0.029 A 
ATOM     58  C   UNL A   1      51.955  25.824  31.796  1.00  0.00     0.049 A 
ATOM     59  H   UNL A   1      49.886  25.846  31.384  1.00  0.00     0.167 HD
ATOM     60  C   UNL A   1      50.946  24.495  33.620  1.00  0.00     0.074 A 
ATOM     61  C   UNL A   1      51.029  23.638  34.783  1.00  0.00     0.031 C 
ATOM     62  C   UNL A   1      52.024  25.013  32.982  1.00  0.00     0.034 A 
BRANCH  49  63
ATOM     63  C   UNL A   1      50.643  28.044  27.807  1.00  0.00     0.023 A 
ATOM     64  C   UNL A   1      51.002  29.404  27.880  1.00  0.00     0.012 A 
ATOM     65  C   UNL A   1      50.881  27.323  26.620  1.00  0.00     0.148 A 
ATOM     66  C   UNL A   1      51.584  30.039  26.783  1.00  0.00     0.002 A 
ATOM     67  C   UNL A   1      51.501  27.951  25.549  1.00  0.00     0.091 A 
ATOM     68  F   UNL A   1      50.510  26.036  26.571  1.00  0.00    -0.205 F 
ATOM     69  C   UNL A   1      51.847  29.311  25.625  1.00  0.00     0.022 A 
BRANCH  67  70
ATOM     70  S   UNL A   1      51.958  27.079  24.046  1.00  0.00     0.127 S 
ATOM     71  O   UNL A   1      52.739  28.096  23.342  1.00  0.00    -0.237 OA
ATOM     72  O   UNL A   1      52.742  25.961  24.569  1.00  0.00    -0.237 OA
ATOM     73  O   UNL A   1      50.709  26.703  23.400  1.00  0.00    -0.744 OA
ENDBRANCH  67  70
ENDBRANCH  49  63
BRANCH  50  74
ATOM     74  C   UNL A   1      46.943  22.829  35.453  1.00  0.00     0.023 A 
ATOM     75  C   UNL A   1      46.674  21.474  35.177  1.00  0.00     0.012 A 
ATOM     76  C   UNL A   1      46.680  23.329  36.744  1.00  0.00     0.148 A 
ATOM     77  C   UNL A   1      46.111  20.648  36.150  1.00  0.00     0.002 A 
ATOM     78  C   UNL A   1      46.179  22.485  37.728  1.00  0.00     0.091 A 
ATOM     79  F   UNL A   1      46.915  24.626  36.986  1.00  0.00    -0.205 F 
ATOM     80  C   UNL A   1      45.873  21.148  37.427  1.00  0.00     0.022 A 
BRANCH  78  81
ATOM     81  S   UNL A   1      45.972  23.022  39.429  1.00  0.00     0.127 S 
ATOM     82  O   UNL A   1      45.416  21.826  40.055  1.00  0.00    -0.237 OA
ATOM     83  O   UNL A   1      47.347  23.340  39.817  1.00  0.00    -0.237 OA
ATOM     84  O   UNL A   1      45.090  24.180  39.367  1.00  0.00    -0.744 OA
ENDBRANCH  78  81
ENDBRANCH  50  74
BRANCH  62  85
ATOM     85  C   UNL A   1      53.392  24.700  33.533  1.00  0.00     0.023 A 
ATOM     86  C   UNL A   1      54.112  23.595  33.038  1.00  0.00     0.012 A 
ATOM     87  C   UNL A   1      54.000  25.554  34.476  1.00  0.00     0.148 A 
ATOM     88  C   UNL A   1      55.402  23.326  33.494  1.00  0.00     0.002 A 
ATOM     89  C   UNL A   1      55.305  25.309  34.888  1.00  0.00     0.091 A 
ATOM     90  F   UNL A   1      53.295  26.594  34.943  1.00  0.00    -0.205 F 
ATOM     91  C   UNL A   1      56.002  24.189  34.408  1.00  0.00     0.022 A 
BRANCH  89  92
ATOM     92  S   UNL A   1      56.197  26.415  35.987  1.00  0.00     0.127 S 
ATOM     93  O   UNL A   1      57.585  26.044  35.721  1.00  0.00    -0.237 OA
ATOM     94  O   UNL A   1      55.809  27.732  35.480  1.00  0.00    -0.237 OA
ATOM     95  O   UNL A   1      55.722  26.119  37.333  1.00  0.00    -0.744 OA
ENDBRANCH  89  92
ENDBRANCH  62  85
ENDBRANCH  36  37
ENDBRANCH  29  31
ENDBRANCH  28  29
ENDBRANCH  27  28
ENDBRANCH  26  27
ENDBRANCH  25  26
ENDBRANCH  24  25
ENDBRANCH  23  24
ENDBRANCH  22  23
ENDBRANCH   1  22
TORSDOF 28
ENDMDL
MODEL 3
REMARK VINA RESULT:      -6.8      5.948     12.735
REMARK SMILES [NH3+][C@@H](CSCc1nccs1)C(=O)OCCOCCOCCOCCOC(=O)c1ccc(-c2c3nc(c(-c4cccc(S(=O)(=O)[O-])c4F)c4ccc([nH]4)c(-c4cccc(S(=O)(=O)[O-])c4F)c4nc(c(-c5cccc(S(=O)(=O)[O-])c5F)c5ccc2[nH]5)C=C4)C=C3)cc1
REMARK SMILES IDX 18 1 17 2 16 3 15 4 14 5 13 6 11 7 12 8 2 9 1 10 3 14 4 15
REMARK SMILES IDX 5 16 6 17 7 18 10 19 8 20 9 21 19 22 20 23 21 24 22 25 23 26
REMARK SMILES IDX 24 27 25 28 26 29 27 30 28 31 29 32 90 33 30 34 89 35 31 36
REMARK SMILES IDX 32 37 33 38 83 39 34 40 88 41 82 42 84 43 35 44 87 45 81 46
REMARK SMILES IDX 80 47 36 49 68 50 48 51 67 52 49 53 52 54 66 55 85 56 50 57
REMARK SMILES IDX 51 58 65 60 86 61 53 62 37 63 38 64 46 65 39 66 41 67 47 68
REMARK SMILES IDX 40 69 42 70 43 71 44 72 45 73 69 74 70 75 78 76 71 77 73 78
REMARK SMILES IDX 79 79 72 80 74 81 75 82 76 83 77 84 54 85 55 86 63 87 56 88
REMARK SMILES IDX 58 89 64 90 57 91 59 92 60 93 61 94 62 95
REMARK H PARENT 1 11 1 12 1 13 84 48 52 59
REMARK Flexibility Score: inf
ROOT
ATOM      1  C   UNL A   1      39.498  34.207  32.728  1.00  0.00     0.188 C 
ENDROOT
BRANCH   1   2
ATOM      2  C   UNL A   1      39.460  35.038  34.019  1.00  0.00     0.188 C 
BRANCH   2   3
ATOM      3  O   UNL A   1      40.645  35.273  34.772  1.00  0.00    -0.376 OA
BRANCH   3   4
ATOM      4  C   UNL A   1      40.674  35.068  36.180  1.00  0.00     0.202 C 
BRANCH   4   5
ATOM      5  C   UNL A   1      39.623  34.226  36.922  1.00  0.00     0.261 C 
BRANCH   5   6
ATOM      6  O   UNL A   1      39.179  34.745  38.177  1.00  0.00    -0.459 OA
BRANCH   6   7
ATOM      7  C   UNL A   1      38.746  33.832  39.089  1.00  0.00     0.365 C 
ATOM      8  O   UNL A   1      37.612  33.369  39.138  1.00  0.00    -0.245 OA
BRANCH   7   9
ATOM      9  C   UNL A   1      39.852  33.452  40.083  1.00  0.00     0.301 C 
BRANCH   9  10
ATOM     10  N   UNL A   1      40.825  34.536  40.309  1.00  0.00    -0.345 N 
ATOM     11  H   UNL A   1      40.826  35.164  39.506  1.00  0.00     0.345 HD
ATOM     12  H   UNL A   1      41.756  34.137  40.431  1.00  0.00     0.345 HD
ATOM     13  H   UNL A   1      40.565  35.056  41.147  1.00  0.00     0.345 HD
ENDBRANCH   9  10
BRANCH   9  14
ATOM     14  C   UNL A   1      39.247  32.874  41.364  1.00  0.00     0.147 C 
BRANCH  14  15
ATOM     15  S   UNL A   1      40.379  32.508  42.759  1.00  0.00    -0.148 SA
BRANCH  15  16
ATOM     16  C   UNL A   1      40.297  30.683  42.915  1.00  0.00     0.137 C 
BRANCH  16  17
ATOM     17  C   UNL A   1      40.041  30.198  44.310  1.00  0.00     0.102 A 
ATOM     18  N   UNL A   1      40.985  29.786  45.141  1.00  0.00    -0.249 NA
ATOM     19  S   UNL A   1      38.436  30.126  44.931  1.00  0.00    -0.126 S 
ATOM     20  C   UNL A   1      40.419  29.432  46.350  1.00  0.00     0.123 A 
ATOM     21  C   UNL A   1      39.047  29.529  46.415  1.00  0.00     0.087 A 
ENDBRANCH  16  17
ENDBRANCH  15  16
ENDBRANCH  14  15
ENDBRANCH   9  14
ENDBRANCH   7   9
ENDBRANCH   6   7
ENDBRANCH   5   6
ENDBRANCH   4   5
ENDBRANCH   3   4
ENDBRANCH   2   3
ENDBRANCH   1   2
BRANCH   1  22
ATOM     22  O   UNL A   1      38.256  34.146  32.056  1.00  0.00    -0.377 OA
BRANCH  22  23
ATOM     23  C   UNL A   1      37.162  33.629  32.809  1.00  0.00     0.188 C 
BRANCH  23  24
ATOM     24  C   UNL A   1      35.822  33.375  32.076  1.00  0.00     0.188 C 
BRANCH  24  25
ATOM     25  O   UNL A   1      35.544  34.264  31.001  1.00  0.00    -0.376 OA
BRANCH  25  26
ATOM     26  C   UNL A   1      34.511  33.927  30.086  1.00  0.00     0.202 C 
BRANCH  26  27
ATOM     27  C   UNL A   1      34.844  32.960  28.936  1.00  0.00     0.261 C 
BRANCH  27  28
ATOM     28  O   UNL A   1      34.697  31.558  29.212  1.00  0.00    -0.460 OA
BRANCH  28  29
ATOM     29  C   UNL A   1      35.139  30.666  28.302  1.00  0.00     0.338 C 
ATOM     30  O   UNL A   1      34.652  30.430  27.209  1.00  0.00    -0.246 OA
BRANCH  29  31
ATOM     31  C   UNL A   1      36.455  30.176  28.769  1.00  0.00     0.060 A 
ATOM     32  C   UNL A   1      37.603  30.506  28.035  1.00  0.00     0.016 A 
ATOM     33  C   UNL A   1      36.560  29.432  29.945  1.00  0.00     0.016 A 
ATOM     34  C   UNL A   1      38.861  30.089  28.477  1.00  0.00     0.010 A 
ATOM     35  C   UNL A   1      37.816  28.989  30.368  1.00  0.00     0.010 A 
ATOM     36  C   UNL A   1      38.972  29.301  29.628  1.00  0.00    -0.014 A 
BRANCH  36  37
ATOM     37  C   UNL A   1      40.270  28.688  30.002  1.00  0.00     0.031 A 
ATOM     38  C   UNL A   1      41.104  29.356  31.059  1.00  0.00     0.074 A 
ATOM     39  C   UNL A   1      40.726  27.589  29.374  1.00  0.00     0.049 A 
ATOM     40  N   UNL A   1      42.316  29.075  31.456  1.00  0.00    -0.248 NA
ATOM     41  C   UNL A   1      40.490  30.497  31.762  1.00  0.00     0.031 C 
ATOM     42  C   UNL A   1      40.007  26.844  28.343  1.00  0.00     0.029 A 
ATOM     43  N   UNL A   1      41.932  26.937  29.485  1.00  0.00    -0.354 N 
ATOM     44  C   UNL A   1      42.630  30.026  32.419  1.00  0.00     0.074 A 
ATOM     45  C   UNL A   1      41.474  30.885  32.561  1.00  0.00     0.031 C 
ATOM     46  C   UNL A   1      40.807  25.870  27.874  1.00  0.00     0.029 A 
ATOM     47  C   UNL A   1      42.104  25.946  28.544  1.00  0.00     0.049 A 
ATOM     48  H   UNL A   1      42.605  27.155  30.169  1.00  0.00     0.167 HD
ATOM     49  C   UNL A   1      43.778  30.172  33.118  1.00  0.00     0.034 A 
ATOM     50  C   UNL A   1      43.199  25.225  28.225  1.00  0.00     0.034 A 
ATOM     51  C   UNL A   1      44.919  29.307  32.992  1.00  0.00     0.049 A 
ATOM     52  C   UNL A   1      44.478  25.439  28.997  1.00  0.00     0.074 A 
ATOM     53  C   UNL A   1      46.096  29.332  33.718  1.00  0.00     0.029 A 
ATOM     54  N   UNL A   1      45.040  28.285  32.066  1.00  0.00    -0.354 N 
ATOM     55  N   UNL A   1      44.712  26.244  30.006  1.00  0.00    -0.248 NA
ATOM     56  C   UNL A   1      45.642  24.629  28.601  1.00  0.00     0.031 C 
ATOM     57  C   UNL A   1      46.951  28.358  33.196  1.00  0.00     0.029 A 
ATOM     58  C   UNL A   1      46.288  27.697  32.175  1.00  0.00     0.049 A 
ATOM     59  H   UNL A   1      44.343  28.018  31.424  1.00  0.00     0.167 HD
ATOM     60  C   UNL A   1      46.033  26.017  30.380  1.00  0.00     0.074 A 
ATOM     61  C   UNL A   1      46.541  24.977  29.511  1.00  0.00     0.031 C 
ATOM     62  C   UNL A   1      46.768  26.628  31.341  1.00  0.00     0.034 A 
BRANCH  49  63
ATOM     63  C   UNL A   1      43.879  31.314  34.092  1.00  0.00     0.023 A 
ATOM     64  C   UNL A   1      44.239  32.597  33.637  1.00  0.00     0.012 A 
ATOM     65  C   UNL A   1      43.505  31.132  35.438  1.00  0.00     0.148 A 
ATOM     66  C   UNL A   1      44.235  33.683  34.512  1.00  0.00     0.002 A 
ATOM     67  C   UNL A   1      43.460  32.225  36.292  1.00  0.00     0.091 A 
ATOM     68  F   UNL A   1      43.187  29.896  35.849  1.00  0.00    -0.205 F 
ATOM     69  C   UNL A   1      43.832  33.500  35.834  1.00  0.00     0.022 A 
BRANCH  67  70
ATOM     70  S   UNL A   1      42.875  32.108  37.986  1.00  0.00     0.127 S 
ATOM     71  O   UNL A   1      42.969  33.501  38.426  1.00  0.00    -0.237 OA
ATOM     72  O   UNL A   1      41.510  31.617  37.804  1.00  0.00    -0.237 OA
ATOM     73  O   UNL A   1      43.774  31.185  38.663  1.00  0.00    -0.744 OA
ENDBRANCH  67  70
ENDBRANCH  49  63
BRANCH  50  74
ATOM     74  C   UNL A   1      43.158  24.249  27.098  1.00  0.00     0.023 A 
ATOM     75  C   UNL A   1      43.732  24.586  25.856  1.00  0.00     0.012 A 
ATOM     76  C   UNL A   1      42.521  23.001  27.241  1.00  0.00     0.148 A 
ATOM     77  C   UNL A   1      43.632  23.718  24.767  1.00  0.00     0.002 A 
ATOM     78  C   UNL A   1      42.480  22.114  26.171  1.00  0.00     0.091 A 
ATOM     79  F   UNL A   1      41.956  22.705  28.419  1.00  0.00    -0.205 F 
ATOM     80  C   UNL A   1      43.016  22.480  24.926  1.00  0.00     0.022 A 
BRANCH  78  81
ATOM     81  S   UNL A   1      41.824  20.451  26.337  1.00  0.00     0.127 S 
ATOM     82  O   UNL A   1      42.266  20.087  27.680  1.00  0.00    -0.237 OA
ATOM     83  O   UNL A   1      40.384  20.677  26.201  1.00  0.00    -0.237 OA
ATOM     84  O   UNL A   1      42.411  19.689  25.242  1.00  0.00    -0.744 OA
ENDBRANCH  78  81
ENDBRANCH  50  74
BRANCH  62  85
ATOM     85  C   UNL A   1      48.194  26.177  31.537  1.00  0.00     0.023 A 
ATOM     86  C   UNL A   1      48.489  25.172  32.478  1.00  0.00     0.012 A 
ATOM     87  C   UNL A   1      49.226  26.686  30.722  1.00  0.00     0.148 A 
ATOM     88  C   UNL A   1      49.793  24.702  32.629  1.00  0.00     0.002 A 
ATOM     89  C   UNL A   1      50.514  26.177  30.842  1.00  0.00     0.091 A 
ATOM     90  F   UNL A   1      48.927  27.649  29.839  1.00  0.00    -0.205 F 
ATOM     91  C   UNL A   1      50.801  25.195  31.804  1.00  0.00     0.022 A 
BRANCH  89  92
ATOM     92  S   UNL A   1      51.858  26.677  29.761  1.00  0.00     0.127 S 
ATOM     93  O   UNL A   1      51.415  26.150  28.471  1.00  0.00    -0.237 OA
ATOM     94  O   UNL A   1      51.814  28.136  29.870  1.00  0.00    -0.237 OA
ATOM     95  O   UNL A   1      53.064  26.063  30.301  1.00  0.00    -0.744 OA
ENDBRANCH  89  92
ENDBRANCH  62  85
ENDBRANCH  36  37
ENDBRANCH  29  31
ENDBRANCH  28  29
ENDBRANCH  27  28
ENDBRANCH  26  27
ENDBRANCH  25  26
ENDBRANCH  24  25
ENDBRANCH  23  24
ENDBRANCH  22  23
ENDBRANCH   1  22
TORSDOF 28
ENDMDL
