MODEL 1
REMARK VINA RESULT:     -10.2      0.000      0.000
REMARK SMILES O=C(OCCOCCOCCOCCOC(=O)[C@@H]1C[N@@H+](CCOc2ccc(F)cc2)C[C@H]1C1CC1)c1ccc(-c2c3nc(c(-c4cccc(S(=O)(=O)[O-])c4F)c4ccc([nH]4)c(-c4cccc(S(=O)(=O)[O-])c4F)c4nc(c(-c5cccc(S(=O)(=O)[O-])c5F)c5ccc2[nH]5)C=C4)C=C3)cc1
REMARK SMILES IDX 10 1 9 2 8 3 7 4 6 5 5 6 4 7 3 8 2 9 1 10 36 11 37 12 98 13
REMARK SMILES IDX 38 14 97 15 39 16 40 17 41 18 91 19 42 20 96 21 90 22 92 23
REMARK SMILES IDX 43 24 95 25 89 26 88 27 44 29 76 30 56 31 75 32 57 33 60 34
REMARK SMILES IDX 74 35 93 36 58 37 59 38 73 40 94 41 61 42 45 43 46 44 54 45
REMARK SMILES IDX 47 46 49 47 55 48 48 49 50 50 51 51 52 52 53 53 77 54 78 55
REMARK SMILES IDX 86 56 79 57 81 58 87 59 80 60 82 61 83 62 84 63 85 64 62 65
REMARK SMILES IDX 63 66 71 67 64 68 66 69 72 70 65 71 67 72 68 73 69 74 70 75
REMARK SMILES IDX 11 76 12 77 13 78 14 79 15 80 16 81 17 82 18 83 19 84 32 85
REMARK SMILES IDX 20 86 31 87 33 89 34 90 35 91 21 92 22 93 23 94 24 95 25 96
REMARK SMILES IDX 30 97 26 98 29 99 27 100 28 101
REMARK H PARENT 92 28 60 39 20 88
REMARK Flexibility Score: inf
ROOT
ATOM      1  C   UNL A   1      32.512  19.760  24.146  1.00  0.00     0.188 C 
ENDROOT
BRANCH   1   2
ATOM      2  O   UNL A   1      32.907  18.382  24.232  1.00  0.00    -0.377 OA
BRANCH   2   3
ATOM      3  C   UNL A   1      34.280  18.136  24.520  1.00  0.00     0.188 C 
BRANCH   3   4
ATOM      4  C   UNL A   1      35.142  19.360  24.833  1.00  0.00     0.188 C 
BRANCH   4   5
ATOM      5  O   UNL A   1      36.508  19.000  24.936  1.00  0.00    -0.376 OA
BRANCH   5   6
ATOM      6  C   UNL A   1      37.427  20.066  25.119  1.00  0.00     0.202 C 
BRANCH   6   7
ATOM      7  C   UNL A   1      38.870  19.594  24.935  1.00  0.00     0.261 C 
BRANCH   7   8
ATOM      8  O   UNL A   1      39.588  19.630  26.180  1.00  0.00    -0.460 OA
BRANCH   8   9
ATOM      9  C   UNL A   1      40.737  20.303  26.456  1.00  0.00     0.338 C 
ATOM     10  O   UNL A   1      41.807  19.739  26.226  1.00  0.00    -0.246 OA
BRANCH   9  11
ATOM     11  C   UNL A   1      40.787  21.716  26.962  1.00  0.00     0.060 A 
ATOM     12  C   UNL A   1      40.217  22.831  26.342  1.00  0.00     0.016 A 
ATOM     13  C   UNL A   1      41.449  21.920  28.188  1.00  0.00     0.016 A 
ATOM     14  C   UNL A   1      40.375  24.109  26.847  1.00  0.00     0.010 A 
ATOM     15  C   UNL A   1      41.613  23.206  28.712  1.00  0.00     0.010 A 
ATOM     16  C   UNL A   1      41.123  24.304  28.001  1.00  0.00    -0.014 A 
BRANCH  16  17
ATOM     17  C   UNL A   1      41.601  25.674  28.240  1.00  0.00     0.031 A 
ATOM     18  C   UNL A   1      42.941  26.034  27.668  1.00  0.00     0.074 A 
ATOM     19  C   UNL A   1      40.774  26.594  28.763  1.00  0.00     0.049 A 
ATOM     20  N   UNL A   1      43.592  27.159  27.735  1.00  0.00    -0.248 NA
ATOM     21  C   UNL A   1      43.636  24.985  26.893  1.00  0.00     0.031 C 
ATOM     22  C   UNL A   1      39.398  26.338  29.196  1.00  0.00     0.029 A 
ATOM     23  N   UNL A   1      40.956  27.930  28.992  1.00  0.00    -0.354 N 
ATOM     24  C   UNL A   1      44.792  26.936  27.071  1.00  0.00     0.074 A 
ATOM     25  C   UNL A   1      44.778  25.578  26.584  1.00  0.00     0.031 C 
ATOM     26  C   UNL A   1      38.859  27.486  29.639  1.00  0.00     0.029 A 
ATOM     27  C   UNL A   1      39.873  28.534  29.585  1.00  0.00     0.049 A 
ATOM     28  H   UNL A   1      41.781  28.412  28.755  1.00  0.00     0.167 HD
ATOM     29  C   UNL A   1      45.813  27.799  26.891  1.00  0.00     0.034 A 
ATOM     30  C   UNL A   1      39.746  29.786  30.066  1.00  0.00     0.034 A 
ATOM     31  C   UNL A   1      45.769  29.153  27.359  1.00  0.00     0.049 A 
ATOM     32  C   UNL A   1      40.926  30.709  29.918  1.00  0.00     0.074 A 
ATOM     33  C   UNL A   1      46.747  30.122  27.278  1.00  0.00     0.029 A 
ATOM     34  N   UNL A   1      44.676  29.722  27.999  1.00  0.00    -0.354 N 
ATOM     35  N   UNL A   1      42.069  30.489  29.308  1.00  0.00    -0.248 NA
ATOM     36  C   UNL A   1      40.812  32.044  30.516  1.00  0.00     0.031 C 
ATOM     37  C   UNL A   1      46.256  31.272  27.902  1.00  0.00     0.029 A 
ATOM     38  C   UNL A   1      44.958  31.030  28.333  1.00  0.00     0.049 A 
ATOM     39  H   UNL A   1      43.827  29.261  28.185  1.00  0.00     0.167 HD
ATOM     40  C   UNL A   1      42.804  31.659  29.434  1.00  0.00     0.074 A 
ATOM     41  C   UNL A   1      41.965  32.596  30.158  1.00  0.00     0.031 C 
ATOM     42  C   UNL A   1      44.064  31.934  29.013  1.00  0.00     0.034 A 
BRANCH  29  43
ATOM     43  C   UNL A   1      47.051  27.295  26.206  1.00  0.00     0.023 A 
ATOM     44  C   UNL A   1      47.219  27.466  24.817  1.00  0.00     0.012 A 
ATOM     45  C   UNL A   1      48.069  26.674  26.956  1.00  0.00     0.148 A 
ATOM     46  C   UNL A   1      48.374  27.006  24.182  1.00  0.00     0.002 A 
ATOM     47  C   UNL A   1      49.236  26.260  26.324  1.00  0.00     0.091 A 
ATOM     48  F   UNL A   1      47.874  26.495  28.270  1.00  0.00    -0.205 F 
ATOM     49  C   UNL A   1      49.385  26.416  24.937  1.00  0.00     0.022 A 
BRANCH  47  50
ATOM     50  S   UNL A   1      50.620  25.551  27.220  1.00  0.00     0.127 S 
ATOM     51  O   UNL A   1      50.723  26.456  28.369  1.00  0.00    -0.237 OA
ATOM     52  O   UNL A   1      50.112  24.214  27.547  1.00  0.00    -0.237 OA
ATOM     53  O   UNL A   1      51.750  25.575  26.314  1.00  0.00    -0.744 OA
ENDBRANCH  47  50
ENDBRANCH  29  43
BRANCH  30  54
ATOM     54  C   UNL A   1      38.483  30.204  30.740  1.00  0.00     0.023 A 
ATOM     55  C   UNL A   1      38.294  29.947  32.110  1.00  0.00     0.012 A 
ATOM     56  C   UNL A   1      37.482  30.907  30.035  1.00  0.00     0.148 A 
ATOM     57  C   UNL A   1      37.133  30.371  32.762  1.00  0.00     0.002 A 
ATOM     58  C   UNL A   1      36.358  31.379  30.702  1.00  0.00     0.091 A 
ATOM     59  F   UNL A   1      37.661  31.121  28.723  1.00  0.00    -0.205 F 
ATOM     60  C   UNL A   1      36.173  31.099  32.063  1.00  0.00     0.022 A 
BRANCH  58  61
ATOM     61  S   UNL A   1      35.139  32.436  29.907  1.00  0.00     0.127 S 
ATOM     62  O   UNL A   1      34.228  32.723  31.011  1.00  0.00    -0.237 OA
ATOM     63  O   UNL A   1      35.957  33.568  29.473  1.00  0.00    -0.237 OA
ATOM     64  O   UNL A   1      34.583  31.645  28.817  1.00  0.00    -0.744 OA
ENDBRANCH  58  61
ENDBRANCH  30  54
BRANCH  42  65
ATOM     65  C   UNL A   1      44.613  33.302  29.303  1.00  0.00     0.023 A 
ATOM     66  C   UNL A   1      45.200  33.559  30.555  1.00  0.00     0.012 A 
ATOM     67  C   UNL A   1      44.701  34.259  28.274  1.00  0.00     0.148 A 
ATOM     68  C   UNL A   1      45.868  34.761  30.781  1.00  0.00     0.002 A 
ATOM     69  C   UNL A   1      45.415  35.426  28.490  1.00  0.00     0.091 A 
ATOM     70  F   UNL A   1      44.121  33.984  27.096  1.00  0.00    -0.205 F 
ATOM     71  C   UNL A   1      45.992  35.683  29.745  1.00  0.00     0.022 A 
BRANCH  69  72
ATOM     72  S   UNL A   1      45.737  36.611  27.179  1.00  0.00     0.127 S 
ATOM     73  O   UNL A   1      46.427  35.781  26.192  1.00  0.00    -0.237 OA
ATOM     74  O   UNL A   1      44.386  37.021  26.797  1.00  0.00    -0.237 OA
ATOM     75  O   UNL A   1      46.548  37.665  27.775  1.00  0.00    -0.744 OA
ENDBRANCH  69  72
ENDBRANCH  42  65
ENDBRANCH  16  17
ENDBRANCH   9  11
ENDBRANCH   8   9
ENDBRANCH   7   8
ENDBRANCH   6   7
ENDBRANCH   5   6
ENDBRANCH   4   5
ENDBRANCH   3   4
ENDBRANCH   2   3
ENDBRANCH   1   2
BRANCH   1  76
ATOM     76  C   UNL A   1      32.057  20.140  22.729  1.00  0.00     0.188 C 
BRANCH  76  77
ATOM     77  O   UNL A   1      32.275  21.489  22.339  1.00  0.00    -0.376 OA
BRANCH  77  78
ATOM     78  C   UNL A   1      32.757  22.360  23.353  1.00  0.00     0.202 C 
BRANCH  78  79
ATOM     79  C   UNL A   1      34.124  23.007  23.084  1.00  0.00     0.261 C 
BRANCH  79  80
ATOM     80  O   UNL A   1      34.243  24.352  23.599  1.00  0.00    -0.463 OA
BRANCH  80  81
ATOM     81  C   UNL A   1      33.730  25.360  22.849  1.00  0.00     0.315 C 
ATOM     82  O   UNL A   1      33.902  25.483  21.640  1.00  0.00    -0.252 OA
BRANCH  81  83
ATOM     83  C   UNL A   1      32.934  26.393  23.644  1.00  0.00     0.163 C 
ATOM     84  C   UNL A   1      33.624  27.758  23.490  1.00  0.00     0.278 C 
ATOM     85  C   UNL A   1      32.799  26.169  25.156  1.00  0.00     0.067 C 
ATOM     86  N   UNL A   1      33.445  28.468  24.771  1.00  0.00    -0.331 N 
ATOM     87  C   UNL A   1      33.560  27.380  25.733  1.00  0.00     0.267 C 
ATOM     88  H   UNL A   1      34.131  29.193  24.981  1.00  0.00     0.348 HD
BRANCH  85  89
ATOM     89  C   UNL A   1      31.410  26.096  25.759  1.00  0.00    -0.001 C 
ATOM     90  C   UNL A   1      30.150  25.715  25.009  1.00  0.00     0.004 C 
ATOM     91  C   UNL A   1      30.629  24.857  26.135  1.00  0.00     0.004 C 
ENDBRANCH  85  89
BRANCH  86  92
ATOM     92  C   UNL A   1      32.249  29.343  24.806  1.00  0.00     0.304 C 
BRANCH  92  93
ATOM     93  C   UNL A   1      31.105  29.387  23.748  1.00  0.00     0.290 C 
BRANCH  93  94
ATOM     94  O   UNL A   1      29.864  29.924  24.225  1.00  0.00    -0.488 OA
BRANCH  94  95
ATOM     95  C   UNL A   1      29.175  30.693  23.326  1.00  0.00     0.119 A 
ATOM     96  C   UNL A   1      28.746  30.024  22.177  1.00  0.00     0.049 A 
ATOM     97  C   UNL A   1      28.916  32.060  23.477  1.00  0.00     0.049 A 
ATOM     98  C   UNL A   1      28.178  30.735  21.123  1.00  0.00     0.043 A 
ATOM     99  C   UNL A   1      28.329  32.772  22.423  1.00  0.00     0.043 A 
ATOM    100  C   UNL A   1      27.976  32.103  21.254  1.00  0.00     0.123 A 
ATOM    101  F   UNL A   1      27.442  32.790  20.236  1.00  0.00    -0.207 F 
ENDBRANCH  94  95
ENDBRANCH  93  94
ENDBRANCH  92  93
ENDBRANCH  86  92
ENDBRANCH  81  83
ENDBRANCH  80  81
ENDBRANCH  79  80
ENDBRANCH  78  79
ENDBRANCH  77  78
ENDBRANCH  76  77
ENDBRANCH   1  76
TORSDOF 28
ENDMDL
MODEL 2
REMARK VINA RESULT:     -10.0      2.327      3.408
REMARK SMILES O=C(OCCOCCOCCOCCOC(=O)[C@@H]1C[N@@H+](CCOc2ccc(F)cc2)C[C@H]1C1CC1)c1ccc(-c2c3nc(c(-c4cccc(S(=O)(=O)[O-])c4F)c4ccc([nH]4)c(-c4cccc(S(=O)(=O)[O-])c4F)c4nc(c(-c5cccc(S(=O)(=O)[O-])c5F)c5ccc2[nH]5)C=C4)C=C3)cc1
REMARK SMILES IDX 10 1 9 2 8 3 7 4 6 5 5 6 4 7 3 8 2 9 1 10 36 11 37 12 98 13
REMARK SMILES IDX 38 14 97 15 39 16 40 17 41 18 91 19 42 20 96 21 90 22 92 23
REMARK SMILES IDX 43 24 95 25 89 26 88 27 44 29 76 30 56 31 75 32 57 33 60 34
REMARK SMILES IDX 74 35 93 36 58 37 59 38 73 40 94 41 61 42 45 43 46 44 54 45
REMARK SMILES IDX 47 46 49 47 55 48 48 49 50 50 51 51 52 52 53 53 77 54 78 55
REMARK SMILES IDX 86 56 79 57 81 58 87 59 80 60 82 61 83 62 84 63 85 64 62 65
REMARK SMILES IDX 63 66 71 67 64 68 66 69 72 70 65 71 67 72 68 73 69 74 70 75
REMARK SMILES IDX 11 76 12 77 13 78 14 79 15 80 16 81 17 82 18 83 19 84 32 85
REMARK SMILES IDX 20 86 31 87 33 89 34 90 35 91 21 92 22 93 23 94 24 95 25 96
REMARK SMILES IDX 30 97 26 98 29 99 27 100 28 101
REMARK H PARENT 92 28 60 39 20 88
REMARK Flexibility Score: inf
ROOT
ATOM      1  C   UNL A   1      32.538  19.616  23.912  1.00  0.00     0.188 C 
ENDROOT
BRANCH   1   2
ATOM      2  O   UNL A   1      32.955  18.268  24.177  1.00  0.00    -0.377 OA
BRANCH   2   3
ATOM      3  C   UNL A   1      34.310  18.095  24.580  1.00  0.00     0.188 C 
BRANCH   3   4
ATOM      4  C   UNL A   1      35.160  19.362  24.682  1.00  0.00     0.188 C 
BRANCH   4   5
ATOM      5  O   UNL A   1      36.520  19.039  24.913  1.00  0.00    -0.376 OA
BRANCH   5   6
ATOM      6  C   UNL A   1      37.420  20.133  24.996  1.00  0.00     0.202 C 
BRANCH   6   7
ATOM      7  C   UNL A   1      38.869  19.673  24.827  1.00  0.00     0.261 C 
BRANCH   7   8
ATOM      8  O   UNL A   1      39.583  19.747  26.073  1.00  0.00    -0.460 OA
BRANCH   8   9
ATOM      9  C   UNL A   1      40.740  20.411  26.329  1.00  0.00     0.338 C 
ATOM     10  O   UNL A   1      41.801  19.858  26.037  1.00  0.00    -0.246 OA
BRANCH   9  11
ATOM     11  C   UNL A   1      40.810  21.805  26.883  1.00  0.00     0.060 A 
ATOM     12  C   UNL A   1      40.145  22.925  26.375  1.00  0.00     0.016 A 
ATOM     13  C   UNL A   1      41.598  21.984  28.036  1.00  0.00     0.016 A 
ATOM     14  C   UNL A   1      40.325  24.187  26.911  1.00  0.00     0.010 A 
ATOM     15  C   UNL A   1      41.785  23.253  28.591  1.00  0.00     0.010 A 
ATOM     16  C   UNL A   1      41.190  24.362  27.983  1.00  0.00    -0.014 A 
BRANCH  16  17
ATOM     17  C   UNL A   1      41.656  25.736  28.223  1.00  0.00     0.031 A 
ATOM     18  C   UNL A   1      42.980  26.117  27.629  1.00  0.00     0.074 A 
ATOM     19  C   UNL A   1      40.828  26.641  28.770  1.00  0.00     0.049 A 
ATOM     20  N   UNL A   1      43.618  27.250  27.692  1.00  0.00    -0.248 NA
ATOM     21  C   UNL A   1      43.673  25.083  26.832  1.00  0.00     0.031 C 
ATOM     22  C   UNL A   1      39.464  26.365  29.228  1.00  0.00     0.029 A 
ATOM     23  N   UNL A   1      40.998  27.978  29.006  1.00  0.00    -0.354 N 
ATOM     24  C   UNL A   1      44.807  27.047  27.003  1.00  0.00     0.074 A 
ATOM     25  C   UNL A   1      44.801  25.693  26.506  1.00  0.00     0.031 C 
ATOM     26  C   UNL A   1      38.920  27.502  29.691  1.00  0.00     0.029 A 
ATOM     27  C   UNL A   1      39.919  28.563  29.625  1.00  0.00     0.049 A 
ATOM     28  H   UNL A   1      41.812  28.471  28.757  1.00  0.00     0.167 HD
ATOM     29  C   UNL A   1      45.814  27.924  26.810  1.00  0.00     0.034 A 
ATOM     30  C   UNL A   1      39.786  29.810  30.118  1.00  0.00     0.034 A 
ATOM     31  C   UNL A   1      45.762  29.274  27.289  1.00  0.00     0.049 A 
ATOM     32  C   UNL A   1      40.951  30.749  29.955  1.00  0.00     0.074 A 
ATOM     33  C   UNL A   1      46.726  30.256  27.197  1.00  0.00     0.029 A 
ATOM     34  N   UNL A   1      44.675  29.824  27.955  1.00  0.00    -0.354 N 
ATOM     35  N   UNL A   1      42.084  30.548  29.320  1.00  0.00    -0.248 NA
ATOM     36  C   UNL A   1      40.832  32.078  30.565  1.00  0.00     0.031 C 
ATOM     37  C   UNL A   1      46.233  31.395  27.839  1.00  0.00     0.029 A 
ATOM     38  C   UNL A   1      44.947  31.133  28.294  1.00  0.00     0.049 A 
ATOM     39  H   UNL A   1      43.835  29.351  28.154  1.00  0.00     0.167 HD
ATOM     40  C   UNL A   1      42.807  31.726  29.441  1.00  0.00     0.074 A 
ATOM     41  C   UNL A   1      41.972  32.647  30.189  1.00  0.00     0.031 C 
ATOM     42  C   UNL A   1      44.055  32.021  28.998  1.00  0.00     0.034 A 
BRANCH  29  43
ATOM     43  C   UNL A   1      47.045  27.441  26.096  1.00  0.00     0.023 A 
ATOM     44  C   UNL A   1      48.019  26.688  26.781  1.00  0.00     0.012 A 
ATOM     45  C   UNL A   1      47.217  27.713  24.725  1.00  0.00     0.148 A 
ATOM     46  C   UNL A   1      49.157  26.232  26.115  1.00  0.00     0.002 A 
ATOM     47  C   UNL A   1      48.330  27.217  24.058  1.00  0.00     0.091 A 
ATOM     48  F   UNL A   1      46.292  28.457  24.102  1.00  0.00    -0.205 F 
ATOM     49  C   UNL A   1      49.306  26.485  24.754  1.00  0.00     0.022 A 
BRANCH  47  50
ATOM     50  S   UNL A   1      48.576  27.433  22.293  1.00  0.00     0.127 S 
ATOM     51  O   UNL A   1      47.332  28.105  21.902  1.00  0.00    -0.237 OA
ATOM     52  O   UNL A   1      49.763  28.293  22.259  1.00  0.00    -0.237 OA
ATOM     53  O   UNL A   1      48.759  26.107  21.739  1.00  0.00    -0.744 OA
ENDBRANCH  47  50
ENDBRANCH  29  43
BRANCH  30  54
ATOM     54  C   UNL A   1      38.531  30.207  30.820  1.00  0.00     0.023 A 
ATOM     55  C   UNL A   1      38.318  29.824  32.157  1.00  0.00     0.012 A 
ATOM     56  C   UNL A   1      37.565  31.012  30.179  1.00  0.00     0.148 A 
ATOM     57  C   UNL A   1      37.165  30.226  32.838  1.00  0.00     0.002 A 
ATOM     58  C   UNL A   1      36.451  31.458  30.880  1.00  0.00     0.091 A 
ATOM     59  F   UNL A   1      37.767  31.346  28.896  1.00  0.00    -0.205 F 
ATOM     60  C   UNL A   1      36.240  31.053  32.206  1.00  0.00     0.022 A 
BRANCH  58  61
ATOM     61  S   UNL A   1      35.280  32.632  30.184  1.00  0.00     0.127 S 
ATOM     62  O   UNL A   1      34.755  31.889  29.042  1.00  0.00    -0.237 OA
ATOM     63  O   UNL A   1      34.339  32.813  31.288  1.00  0.00    -0.237 OA
ATOM     64  O   UNL A   1      36.060  33.820  29.861  1.00  0.00    -0.744 OA
ENDBRANCH  58  61
ENDBRANCH  30  54
BRANCH  42  65
ATOM     65  C   UNL A   1      44.593  33.393  29.288  1.00  0.00     0.023 A 
ATOM     66  C   UNL A   1      45.443  33.582  30.393  1.00  0.00     0.012 A 
ATOM     67  C   UNL A   1      44.395  34.437  28.365  1.00  0.00     0.148 A 
ATOM     68  C   UNL A   1      46.088  34.803  30.578  1.00  0.00     0.002 A 
ATOM     69  C   UNL A   1      45.085  35.628  28.526  1.00  0.00     0.091 A 
ATOM     70  F   UNL A   1      43.570  34.225  27.329  1.00  0.00    -0.205 F 
ATOM     71  C   UNL A   1      45.925  35.816  29.636  1.00  0.00     0.022 A 
BRANCH  69  72
ATOM     72  S   UNL A   1      45.037  36.938  27.299  1.00  0.00     0.127 S 
ATOM     73  O   UNL A   1      45.601  38.063  28.044  1.00  0.00    -0.237 OA
ATOM     74  O   UNL A   1      45.903  36.406  26.247  1.00  0.00    -0.237 OA
ATOM     75  O   UNL A   1      43.639  37.087  26.918  1.00  0.00    -0.744 OA
ENDBRANCH  69  72
ENDBRANCH  42  65
ENDBRANCH  16  17
ENDBRANCH   9  11
ENDBRANCH   8   9
ENDBRANCH   7   8
ENDBRANCH   6   7
ENDBRANCH   5   6
ENDBRANCH   4   5
ENDBRANCH   3   4
ENDBRANCH   2   3
ENDBRANCH   1   2
BRANCH   1  76
ATOM     76  C   UNL A   1      32.096  19.807  22.453  1.00  0.00     0.188 C 
BRANCH  76  77
ATOM     77  O   UNL A   1      31.829  21.142  22.045  1.00  0.00    -0.376 OA
BRANCH  77  78
ATOM     78  C   UNL A   1      32.588  22.153  22.693  1.00  0.00     0.202 C 
BRANCH  78  79
ATOM     79  C   UNL A   1      33.438  23.043  21.773  1.00  0.00     0.261 C 
BRANCH  79  80
ATOM     80  O   UNL A   1      33.865  24.278  22.389  1.00  0.00    -0.463 OA
BRANCH  80  81
ATOM     81  C   UNL A   1      33.268  25.426  21.978  1.00  0.00     0.315 C 
ATOM     82  O   UNL A   1      33.403  25.916  20.861  1.00  0.00    -0.252 OA
BRANCH  81  83
ATOM     83  C   UNL A   1      32.423  26.114  23.048  1.00  0.00     0.163 C 
ATOM     84  C   UNL A   1      30.947  26.017  22.635  1.00  0.00     0.278 C 
ATOM     85  C   UNL A   1      32.681  27.605  23.301  1.00  0.00     0.067 C 
ATOM     86  N   UNL A   1      30.296  27.260  23.093  1.00  0.00    -0.331 N 
ATOM     87  C   UNL A   1      31.347  28.244  22.867  1.00  0.00     0.267 C 
ATOM     88  H   UNL A   1      29.450  27.533  22.594  1.00  0.00     0.348 HD
BRANCH  85  89
ATOM     89  C   UNL A   1      33.039  28.053  24.705  1.00  0.00    -0.001 C 
ATOM     90  C   UNL A   1      33.660  29.387  25.064  1.00  0.00     0.004 C 
ATOM     91  C   UNL A   1      32.300  29.043  25.576  1.00  0.00     0.004 C 
ENDBRANCH  85  89
BRANCH  86  92
ATOM     92  C   UNL A   1      29.682  27.151  24.436  1.00  0.00     0.304 C 
BRANCH  92  93
ATOM     93  C   UNL A   1      29.121  25.853  25.094  1.00  0.00     0.290 C 
BRANCH  93  94
ATOM     94  O   UNL A   1      29.726  25.503  26.346  1.00  0.00    -0.488 OA
BRANCH  94  95
ATOM     95  C   UNL A   1      30.847  24.722  26.255  1.00  0.00     0.119 A 
ATOM     96  C   UNL A   1      30.610  23.355  26.101  1.00  0.00     0.049 A 
ATOM     97  C   UNL A   1      32.160  25.199  26.337  1.00  0.00     0.049 A 
ATOM     98  C   UNL A   1      31.666  22.448  26.158  1.00  0.00     0.043 A 
ATOM     99  C   UNL A   1      33.224  24.288  26.378  1.00  0.00     0.043 A 
ATOM    100  C   UNL A   1      32.963  22.923  26.299  1.00  0.00     0.123 A 
ATOM    101  F   UNL A   1      33.979  22.052  26.367  1.00  0.00    -0.207 F 
ENDBRANCH  94  95
ENDBRANCH  93  94
ENDBRANCH  92  93
ENDBRANCH  86  92
ENDBRANCH  81  83
ENDBRANCH  80  81
ENDBRANCH  79  80
ENDBRANCH  78  79
ENDBRANCH  77  78
ENDBRANCH  76  77
ENDBRANCH   1  76
TORSDOF 28
ENDMDL
MODEL 3
REMARK VINA RESULT:      -9.3      2.742      7.909
REMARK SMILES O=C(OCCOCCOCCOCCOC(=O)[C@@H]1C[N@@H+](CCOc2ccc(F)cc2)C[C@H]1C1CC1)c1ccc(-c2c3nc(c(-c4cccc(S(=O)(=O)[O-])c4F)c4ccc([nH]4)c(-c4cccc(S(=O)(=O)[O-])c4F)c4nc(c(-c5cccc(S(=O)(=O)[O-])c5F)c5ccc2[nH]5)C=C4)C=C3)cc1
REMARK SMILES IDX 10 1 9 2 8 3 7 4 6 5 5 6 4 7 3 8 2 9 1 10 36 11 37 12 98 13
REMARK SMILES IDX 38 14 97 15 39 16 40 17 41 18 91 19 42 20 96 21 90 22 92 23
REMARK SMILES IDX 43 24 95 25 89 26 88 27 44 29 76 30 56 31 75 32 57 33 60 34
REMARK SMILES IDX 74 35 93 36 58 37 59 38 73 40 94 41 61 42 45 43 46 44 54 45
REMARK SMILES IDX 47 46 49 47 55 48 48 49 50 50 51 51 52 52 53 53 77 54 78 55
REMARK SMILES IDX 86 56 79 57 81 58 87 59 80 60 82 61 83 62 84 63 85 64 62 65
REMARK SMILES IDX 63 66 71 67 64 68 66 69 72 70 65 71 67 72 68 73 69 74 70 75
REMARK SMILES IDX 11 76 12 77 13 78 14 79 15 80 16 81 17 82 18 83 19 84 32 85
REMARK SMILES IDX 20 86 31 87 33 89 34 90 35 91 21 92 22 93 23 94 24 95 25 96
REMARK SMILES IDX 30 97 26 98 29 99 27 100 28 101
REMARK H PARENT 92 28 60 39 20 88
REMARK Flexibility Score: inf
ROOT
ATOM      1  C   UNL A   1      32.655  20.987  24.576  1.00  0.00     0.188 C 
ENDROOT
BRANCH   1   2
ATOM      2  O   UNL A   1      32.850  19.812  23.773  1.00  0.00    -0.377 OA
BRANCH   2   3
ATOM      3  C   UNL A   1      33.843  18.897  24.225  1.00  0.00     0.188 C 
BRANCH   3   4
ATOM      4  C   UNL A   1      34.824  19.417  25.277  1.00  0.00     0.188 C 
BRANCH   4   5
ATOM      5  O   UNL A   1      36.074  19.729  24.688  1.00  0.00    -0.376 OA
BRANCH   5   6
ATOM      6  C   UNL A   1      36.395  21.108  24.588  1.00  0.00     0.202 C 
BRANCH   6   7
ATOM      7  C   UNL A   1      37.209  21.578  25.795  1.00  0.00     0.261 C 
BRANCH   7   8
ATOM      8  O   UNL A   1      38.618  21.552  25.511  1.00  0.00    -0.460 OA
BRANCH   8   9
ATOM      9  C   UNL A   1      39.644  21.721  26.385  1.00  0.00     0.338 C 
ATOM     10  O   UNL A   1      40.274  20.722  26.736  1.00  0.00    -0.246 OA
BRANCH   9  11
ATOM     11  C   UNL A   1      40.105  23.053  26.900  1.00  0.00     0.060 A 
ATOM     12  C   UNL A   1      39.648  24.303  26.471  1.00  0.00     0.016 A 
ATOM     13  C   UNL A   1      41.067  23.031  27.928  1.00  0.00     0.016 A 
ATOM     14  C   UNL A   1      40.182  25.483  26.955  1.00  0.00     0.010 A 
ATOM     15  C   UNL A   1      41.614  24.216  28.429  1.00  0.00     0.010 A 
ATOM     16  C   UNL A   1      41.207  25.440  27.892  1.00  0.00    -0.014 A 
BRANCH  16  17
ATOM     17  C   UNL A   1      42.001  26.668  28.041  1.00  0.00     0.031 A 
ATOM     18  C   UNL A   1      41.414  27.756  28.892  1.00  0.00     0.074 A 
ATOM     19  C   UNL A   1      43.269  26.707  27.601  1.00  0.00     0.049 A 
ATOM     20  N   UNL A   1      41.898  28.929  29.183  1.00  0.00    -0.248 NA
ATOM     21  C   UNL A   1      40.109  27.474  29.524  1.00  0.00     0.031 C 
ATOM     22  C   UNL A   1      43.950  25.616  26.899  1.00  0.00     0.029 A 
ATOM     23  N   UNL A   1      44.220  27.686  27.703  1.00  0.00    -0.354 N 
ATOM     24  C   UNL A   1      40.935  29.545  29.972  1.00  0.00     0.074 A 
ATOM     25  C   UNL A   1      39.847  28.615  30.141  1.00  0.00     0.031 C 
ATOM     26  C   UNL A   1      45.213  25.988  26.634  1.00  0.00     0.029 A 
ATOM     27  C   UNL A   1      45.404  27.362  27.084  1.00  0.00     0.049 A 
ATOM     28  H   UNL A   1      44.070  28.537  28.173  1.00  0.00     0.167 HD
ATOM     29  C   UNL A   1      40.968  30.785  30.504  1.00  0.00     0.034 A 
ATOM     30  C   UNL A   1      46.497  28.121  26.873  1.00  0.00     0.034 A 
ATOM     31  C   UNL A   1      42.089  31.663  30.342  1.00  0.00     0.049 A 
ATOM     32  C   UNL A   1      46.480  29.526  27.414  1.00  0.00     0.074 A 
ATOM     33  C   UNL A   1      42.238  32.957  30.795  1.00  0.00     0.029 A 
ATOM     34  N   UNL A   1      43.255  31.324  29.669  1.00  0.00    -0.354 N 
ATOM     35  N   UNL A   1      45.559  30.114  28.144  1.00  0.00    -0.248 NA
ATOM     36  C   UNL A   1      47.639  30.375  27.112  1.00  0.00     0.031 C 
ATOM     37  C   UNL A   1      43.486  33.415  30.365  1.00  0.00     0.029 A 
ATOM     38  C   UNL A   1      44.128  32.391  29.680  1.00  0.00     0.049 A 
ATOM     39  H   UNL A   1      43.431  30.452  29.248  1.00  0.00     0.167 HD
ATOM     40  C   UNL A   1      46.030  31.394  28.400  1.00  0.00     0.074 A 
ATOM     41  C   UNL A   1      47.333  31.487  27.769  1.00  0.00     0.031 C 
ATOM     42  C   UNL A   1      45.438  32.411  29.075  1.00  0.00     0.034 A 
BRANCH  29  43
ATOM     43  C   UNL A   1      39.760  31.261  31.259  1.00  0.00     0.023 A 
ATOM     44  C   UNL A   1      38.618  31.715  30.569  1.00  0.00     0.012 A 
ATOM     45  C   UNL A   1      39.750  31.226  32.668  1.00  0.00     0.148 A 
ATOM     46  C   UNL A   1      37.493  32.148  31.272  1.00  0.00     0.002 A 
ATOM     47  C   UNL A   1      38.610  31.615  33.359  1.00  0.00     0.091 A 
ATOM     48  F   UNL A   1      40.858  30.818  33.302  1.00  0.00    -0.205 F 
ATOM     49  C   UNL A   1      37.485  32.087  32.663  1.00  0.00     0.022 A 
BRANCH  47  50
ATOM     50  S   UNL A   1      38.479  31.509  35.146  1.00  0.00     0.127 S 
ATOM     51  O   UNL A   1      39.618  32.328  35.574  1.00  0.00    -0.237 OA
ATOM     52  O   UNL A   1      37.169  32.122  35.388  1.00  0.00    -0.237 OA
ATOM     53  O   UNL A   1      38.572  30.102  35.481  1.00  0.00    -0.744 OA
ENDBRANCH  47  50
ENDBRANCH  29  43
BRANCH  30  54
ATOM     54  C   UNL A   1      47.652  27.573  26.106  1.00  0.00     0.023 A 
ATOM     55  C   UNL A   1      48.595  26.745  26.744  1.00  0.00     0.012 A 
ATOM     56  C   UNL A   1      47.794  27.829  24.725  1.00  0.00     0.148 A 
ATOM     57  C   UNL A   1      49.659  26.192  26.026  1.00  0.00     0.002 A 
ATOM     58  C   UNL A   1      48.820  27.227  24.005  1.00  0.00     0.091 A 
ATOM     59  F   UNL A   1      46.906  28.642  24.136  1.00  0.00    -0.205 F 
ATOM     60  C   UNL A   1      49.763  26.421  24.656  1.00  0.00     0.022 A 
BRANCH  58  61
ATOM     61  S   UNL A   1      48.949  27.363  22.217  1.00  0.00     0.127 S 
ATOM     62  O   UNL A   1      50.366  27.667  22.042  1.00  0.00    -0.237 OA
ATOM     63  O   UNL A   1      48.546  26.026  21.782  1.00  0.00    -0.237 OA
ATOM     64  O   UNL A   1      48.022  28.421  21.834  1.00  0.00    -0.744 OA
ENDBRANCH  58  61
ENDBRANCH  30  54
BRANCH  42  65
ATOM     65  C   UNL A   1      46.190  33.706  29.187  1.00  0.00     0.023 A 
ATOM     66  C   UNL A   1      47.233  33.820  30.124  1.00  0.00     0.012 A 
ATOM     67  C   UNL A   1      45.974  34.730  28.245  1.00  0.00     0.148 A 
ATOM     68  C   UNL A   1      48.053  34.947  30.124  1.00  0.00     0.002 A 
ATOM     69  C   UNL A   1      46.829  35.820  28.216  1.00  0.00     0.091 A 
ATOM     70  F   UNL A   1      44.964  34.592  27.373  1.00  0.00    -0.205 F 
ATOM     71  C   UNL A   1      47.863  35.934  29.160  1.00  0.00     0.022 A 
BRANCH  69  72
ATOM     72  S   UNL A   1      46.743  37.074  26.934  1.00  0.00     0.127 S 
ATOM     73  O   UNL A   1      45.303  37.316  26.853  1.00  0.00    -0.237 OA
ATOM     74  O   UNL A   1      47.516  38.168  27.522  1.00  0.00    -0.237 OA
ATOM     75  O   UNL A   1      47.339  36.479  25.745  1.00  0.00    -0.744 OA
ENDBRANCH  69  72
ENDBRANCH  42  65
ENDBRANCH  16  17
ENDBRANCH   9  11
ENDBRANCH   8   9
ENDBRANCH   7   8
ENDBRANCH   6   7
ENDBRANCH   5   6
ENDBRANCH   4   5
ENDBRANCH   3   4
ENDBRANCH   2   3
ENDBRANCH   1   2
BRANCH   1  76
ATOM     76  C   UNL A   1      31.904  22.088  23.813  1.00  0.00     0.188 C 
BRANCH  76  77
ATOM     77  O   UNL A   1      32.494  23.380  23.828  1.00  0.00    -0.376 OA
BRANCH  77  78
ATOM     78  C   UNL A   1      33.623  23.538  24.677  1.00  0.00     0.202 C 
BRANCH  78  79
ATOM     79  C   UNL A   1      33.525  24.667  25.714  1.00  0.00     0.261 C 
BRANCH  79  80
ATOM     80  O   UNL A   1      32.224  24.780  26.331  1.00  0.00    -0.463 OA
BRANCH  80  81
ATOM     81  C   UNL A   1      31.681  26.020  26.433  1.00  0.00     0.315 C 
ATOM     82  O   UNL A   1      30.498  26.242  26.671  1.00  0.00    -0.252 OA
BRANCH  81  83
ATOM     83  C   UNL A   1      32.665  27.160  26.180  1.00  0.00     0.163 C 
ATOM     84  C   UNL A   1      32.522  28.183  27.318  1.00  0.00     0.278 C 
ATOM     85  C   UNL A   1      32.497  27.963  24.883  1.00  0.00     0.067 C 
ATOM     86  N   UNL A   1      32.753  29.513  26.722  1.00  0.00    -0.331 N 
ATOM     87  C   UNL A   1      32.131  29.364  25.413  1.00  0.00     0.267 C 
ATOM     88  H   UNL A   1      32.339  30.304  27.216  1.00  0.00     0.348 HD
BRANCH  85  89
ATOM     89  C   UNL A   1      33.673  28.060  23.931  1.00  0.00    -0.001 C 
ATOM     90  C   UNL A   1      33.878  27.196  22.705  1.00  0.00     0.004 C 
ATOM     91  C   UNL A   1      33.695  28.670  22.548  1.00  0.00     0.004 C 
ENDBRANCH  85  89
BRANCH  86  92
ATOM     92  C   UNL A   1      34.160  29.969  26.808  1.00  0.00     0.304 C 
BRANCH  92  93
ATOM     93  C   UNL A   1      34.673  31.261  27.514  1.00  0.00     0.290 C 
BRANCH  93  94
ATOM     94  O   UNL A   1      33.997  31.587  28.736  1.00  0.00    -0.488 OA
BRANCH  94  95
ATOM     95  C   UNL A   1      33.917  32.924  29.021  1.00  0.00     0.119 A 
ATOM     96  C   UNL A   1      34.393  33.294  30.281  1.00  0.00     0.049 A 
ATOM     97  C   UNL A   1      33.377  33.891  28.165  1.00  0.00     0.049 A 
ATOM     98  C   UNL A   1      34.216  34.596  30.743  1.00  0.00     0.043 A 
ATOM     99  C   UNL A   1      33.214  35.205  28.624  1.00  0.00     0.043 A 
ATOM    100  C   UNL A   1      33.626  35.540  29.911  1.00  0.00     0.123 A 
ATOM    101  F   UNL A   1      33.443  36.788  30.359  1.00  0.00    -0.207 F 
ENDBRANCH  94  95
ENDBRANCH  93  94
ENDBRANCH  92  93
ENDBRANCH  86  92
ENDBRANCH  81  83
ENDBRANCH  80  81
ENDBRANCH  79  80
ENDBRANCH  78  79
ENDBRANCH  77  78
ENDBRANCH  76  77
ENDBRANCH   1  76
TORSDOF 28
ENDMDL
