MODEL 1
REMARK VINA RESULT:      -8.8      0.000      0.000
REMARK SMILES CC1(C)[C@H](C(=O)OCCOCCOCCOCCOC(=O)c2ccc(-c3c4nc(c(-c5cccc(S(=O)(=O)[O-])c5F)c5ccc([nH]5)c(-c5cccc(S(=O)(=O)[O-])c5F)c5nc(c(-c6cccc(S(=O)(=O)[O-])c6F)c6ccc3[nH]6)C=C5)C=C4)cc2)[C@@H]1C(=O)Nc1ccc(NC(=O)C2CCC2)cc1
REMARK SMILES IDX 12 1 11 2 10 3 9 4 8 5 7 6 5 7 6 8 4 9 1 10 2 11 3 12 85 13
REMARK SMILES IDX 86 14 87 15 88 16 89 18 90 19 101 20 91 21 100 22 92 23
REMARK SMILES IDX 93 24 94 25 95 27 96 28 97 29 99 30 98 31 13 32 14 33 15 34
REMARK SMILES IDX 16 35 17 36 18 37 19 38 20 39 21 40 22 41 23 42 84 43 24 44
REMARK SMILES IDX 83 45 25 46 26 47 27 48 77 49 28 50 82 51 76 52 78 53 29 54
REMARK SMILES IDX 81 55 75 56 74 57 30 59 62 60 42 61 61 62 43 63 46 64 60 65
REMARK SMILES IDX 79 66 44 67 45 68 59 70 80 71 47 72 31 73 32 74 40 75 33 76
REMARK SMILES IDX 35 77 41 78 34 79 36 80 37 81 38 82 39 83 63 84 64 85 72 86
REMARK SMILES IDX 65 87 67 88 73 89 66 90 68 91 69 92 70 93 71 94 48 95 49 96
REMARK SMILES IDX 57 97 50 98 52 99 58 100 51 101 53 102 54 103 55 104 56 105
REMARK H PARENT 88 17 93 26 78 58 46 69
REMARK Flexibility Score: inf
ROOT
ATOM      1  C   UNL A   1      41.385  25.883  27.705  1.00  0.00     0.188 C 
ENDROOT
BRANCH   1   2
ATOM      2  C   UNL A   1      40.370  25.597  26.589  1.00  0.00     0.188 C 
BRANCH   2   3
ATOM      3  O   UNL A   1      39.179  24.951  27.019  1.00  0.00    -0.376 OA
BRANCH   3   4
ATOM      4  C   UNL A   1      39.045  23.559  26.792  1.00  0.00     0.202 C 
BRANCH   4   5
ATOM      5  C   UNL A   1      38.006  23.097  25.760  1.00  0.00     0.261 C 
BRANCH   5   6
ATOM      6  O   UNL A   1      37.331  21.835  25.933  1.00  0.00    -0.463 OA
BRANCH   6   7
ATOM      7  C   UNL A   1      36.294  21.488  25.154  1.00  0.00     0.310 C 
ATOM      8  O   UNL A   1      35.858  20.361  24.984  1.00  0.00    -0.252 OA
BRANCH   7   9
ATOM      9  C   UNL A   1      35.543  22.603  24.557  1.00  0.00     0.118 C 
ATOM     10  C   UNL A   1      34.007  23.315  22.662  1.00  0.00     0.013 C 
ATOM     11  C   UNL A   1      34.151  22.587  23.980  1.00  0.00    -0.009 C 
ATOM     12  C   UNL A   1      33.297  21.339  24.042  1.00  0.00     0.013 C 
ATOM     13  C   UNL A   1      34.482  23.400  25.262  1.00  0.00     0.100 C 
BRANCH  13  14
ATOM     14  C   UNL A   1      33.745  23.080  26.509  1.00  0.00     0.228 C 
ATOM     15  O   UNL A   1      34.285  22.327  27.317  1.00  0.00    -0.274 OA
ATOM     16  N   UNL A   1      32.507  23.586  26.811  1.00  0.00    -0.326 N 
ATOM     17  H   UNL A   1      32.167  23.313  27.694  1.00  0.00     0.169 HD
BRANCH  16  18
ATOM     18  C   UNL A   1      31.639  24.415  26.099  1.00  0.00     0.041 A 
ATOM     19  C   UNL A   1      31.573  25.733  26.540  1.00  0.00     0.028 A 
ATOM     20  C   UNL A   1      30.922  24.053  24.965  1.00  0.00     0.028 A 
ATOM     21  C   UNL A   1      31.001  26.720  25.734  1.00  0.00     0.028 A 
ATOM     22  C   UNL A   1      30.283  25.052  24.200  1.00  0.00     0.028 A 
ATOM     23  C   UNL A   1      30.410  26.416  24.525  1.00  0.00     0.041 A 
BRANCH  23  24
ATOM     24  N   UNL A   1      29.980  27.350  23.568  1.00  0.00    -0.326 N 
ATOM     25  C   UNL A   1      30.530  28.257  22.685  1.00  0.00     0.227 C 
ATOM     26  H   UNL A   1      28.997  27.359  23.508  1.00  0.00     0.169 HD
ATOM     27  O   UNL A   1      29.663  28.855  22.008  1.00  0.00    -0.274 OA
BRANCH  25  28
ATOM     28  C   UNL A   1      32.010  28.542  22.376  1.00  0.00     0.079 C 
ATOM     29  C   UNL A   1      32.814  29.101  23.609  1.00  0.00     0.013 C 
ATOM     30  C   UNL A   1      33.181  27.542  22.251  1.00  0.00     0.013 C 
ATOM     31  C   UNL A   1      34.088  28.565  22.945  1.00  0.00     0.002 C 
ENDBRANCH  25  28
ENDBRANCH  23  24
ENDBRANCH  16  18
ENDBRANCH  13  14
ENDBRANCH   7   9
ENDBRANCH   6   7
ENDBRANCH   5   6
ENDBRANCH   4   5
ENDBRANCH   3   4
ENDBRANCH   2   3
ENDBRANCH   1   2
BRANCH   1  32
ATOM     32  O   UNL A   1      42.310  24.862  28.038  1.00  0.00    -0.377 OA
BRANCH  32  33
ATOM     33  C   UNL A   1      43.190  24.356  27.038  1.00  0.00     0.188 C 
BRANCH  33  34
ATOM     34  C   UNL A   1      42.881  23.024  26.329  1.00  0.00     0.188 C 
BRANCH  34  35
ATOM     35  O   UNL A   1      43.997  22.155  26.187  1.00  0.00    -0.376 OA
BRANCH  35  36
ATOM     36  C   UNL A   1      45.274  22.711  26.458  1.00  0.00     0.202 C 
BRANCH  36  37
ATOM     37  C   UNL A   1      46.146  22.969  25.223  1.00  0.00     0.261 C 
BRANCH  37  38
ATOM     38  O   UNL A   1      45.915  24.210  24.537  1.00  0.00    -0.460 OA
BRANCH  38  39
ATOM     39  C   UNL A   1      46.856  25.175  24.630  1.00  0.00     0.338 C 
ATOM     40  O   UNL A   1      47.857  25.295  23.947  1.00  0.00    -0.246 OA
BRANCH  39  41
ATOM     41  C   UNL A   1      46.363  26.203  25.571  1.00  0.00     0.060 A 
ATOM     42  C   UNL A   1      47.226  26.668  26.574  1.00  0.00     0.016 A 
ATOM     43  C   UNL A   1      45.070  26.719  25.454  1.00  0.00     0.016 A 
ATOM     44  C   UNL A   1      46.771  27.599  27.506  1.00  0.00     0.010 A 
ATOM     45  C   UNL A   1      44.608  27.634  26.401  1.00  0.00     0.010 A 
ATOM     46  C   UNL A   1      45.440  28.034  27.461  1.00  0.00    -0.014 A 
BRANCH  46  47
ATOM     47  C   UNL A   1      44.846  28.651  28.671  1.00  0.00     0.031 A 
ATOM     48  C   UNL A   1      44.705  27.781  29.894  1.00  0.00     0.074 A 
ATOM     49  C   UNL A   1      44.456  29.937  28.704  1.00  0.00     0.049 A 
ATOM     50  N   UNL A   1      44.241  28.081  31.077  1.00  0.00    -0.248 NA
ATOM     51  C   UNL A   1      45.148  26.382  29.758  1.00  0.00     0.031 C 
ATOM     52  C   UNL A   1      44.539  30.880  27.592  1.00  0.00     0.029 A 
ATOM     53  N   UNL A   1      43.892  30.664  29.723  1.00  0.00    -0.354 N 
ATOM     54  C   UNL A   1      44.318  26.908  31.818  1.00  0.00     0.074 A 
ATOM     55  C   UNL A   1      44.854  25.886  30.948  1.00  0.00     0.031 C 
ATOM     56  C   UNL A   1      44.018  32.057  27.983  1.00  0.00     0.029 A 
ATOM     57  C   UNL A   1      43.556  31.947  29.366  1.00  0.00     0.049 A 
ATOM     58  H   UNL A   1      43.742  30.299  30.626  1.00  0.00     0.167 HD
ATOM     59  C   UNL A   1      43.994  26.699  33.115  1.00  0.00     0.034 A 
ATOM     60  C   UNL A   1      42.934  32.913  30.075  1.00  0.00     0.034 A 
ATOM     61  C   UNL A   1      43.472  27.713  33.986  1.00  0.00     0.049 A 
ATOM     62  C   UNL A   1      42.558  32.647  31.513  1.00  0.00     0.074 A 
ATOM     63  C   UNL A   1      43.150  27.612  35.327  1.00  0.00     0.029 A 
ATOM     64  N   UNL A   1      43.180  29.010  33.598  1.00  0.00    -0.354 N 
ATOM     65  N   UNL A   1      42.764  31.575  32.240  1.00  0.00    -0.248 NA
ATOM     66  C   UNL A   1      41.892  33.741  32.238  1.00  0.00     0.031 C 
ATOM     67  C   UNL A   1      42.640  28.844  35.745  1.00  0.00     0.029 A 
ATOM     68  C   UNL A   1      42.670  29.720  34.671  1.00  0.00     0.049 A 
ATOM     69  H   UNL A   1      43.315  29.374  32.693  1.00  0.00     0.167 HD
ATOM     70  C   UNL A   1      42.290  31.878  33.513  1.00  0.00     0.074 A 
ATOM     71  C   UNL A   1      41.804  33.241  33.464  1.00  0.00     0.031 C 
ATOM     72  C   UNL A   1      42.245  31.094  34.620  1.00  0.00     0.034 A 
BRANCH  59  73
ATOM     73  C   UNL A   1      44.222  25.321  33.670  1.00  0.00     0.023 A 
ATOM     74  C   UNL A   1      43.213  24.344  33.542  1.00  0.00     0.012 A 
ATOM     75  C   UNL A   1      45.441  24.982  34.287  1.00  0.00     0.148 A 
ATOM     76  C   UNL A   1      43.403  23.058  34.047  1.00  0.00     0.002 A 
ATOM     77  C   UNL A   1      45.638  23.687  34.750  1.00  0.00     0.091 A 
ATOM     78  F   UNL A   1      46.374  25.935  34.426  1.00  0.00    -0.205 F 
ATOM     79  C   UNL A   1      44.618  22.728  34.641  1.00  0.00     0.022 A 
BRANCH  77  80
ATOM     80  S   UNL A   1      47.194  23.144  35.465  1.00  0.00     0.127 S 
ATOM     81  O   UNL A   1      46.943  21.719  35.671  1.00  0.00    -0.237 OA
ATOM     82  O   UNL A   1      48.146  23.448  34.396  1.00  0.00    -0.237 OA
ATOM     83  O   UNL A   1      47.373  23.929  36.679  1.00  0.00    -0.744 OA
ENDBRANCH  77  80
ENDBRANCH  59  73
BRANCH  60  84
ATOM     84  C   UNL A   1      42.664  34.241  29.456  1.00  0.00     0.023 A 
ATOM     85  C   UNL A   1      41.400  34.502  28.890  1.00  0.00     0.012 A 
ATOM     86  C   UNL A   1      43.651  35.246  29.418  1.00  0.00     0.148 A 
ATOM     87  C   UNL A   1      41.135  35.724  28.270  1.00  0.00     0.002 A 
ATOM     88  C   UNL A   1      43.363  36.480  28.847  1.00  0.00     0.091 A 
ATOM     89  F   UNL A   1      44.855  34.972  29.941  1.00  0.00    -0.205 F 
ATOM     90  C   UNL A   1      42.113  36.715  28.256  1.00  0.00     0.022 A 
BRANCH  88  91
ATOM     91  S   UNL A   1      44.515  37.858  28.896  1.00  0.00     0.127 S 
ATOM     92  O   UNL A   1      45.622  37.351  28.089  1.00  0.00    -0.237 OA
ATOM     93  O   UNL A   1      43.732  38.925  28.270  1.00  0.00    -0.237 OA
ATOM     94  O   UNL A   1      44.805  38.076  30.306  1.00  0.00    -0.744 OA
ENDBRANCH  88  91
ENDBRANCH  60  84
BRANCH  72  95
ATOM     95  C   UNL A   1      41.685  31.692  35.886  1.00  0.00     0.023 A 
ATOM     96  C   UNL A   1      42.543  32.347  36.791  1.00  0.00     0.012 A 
ATOM     97  C   UNL A   1      40.298  31.680  36.134  1.00  0.00     0.148 A 
ATOM     98  C   UNL A   1      42.034  32.952  37.939  1.00  0.00     0.002 A 
ATOM     99  C   UNL A   1      39.792  32.328  37.256  1.00  0.00     0.091 A 
ATOM    100  F   UNL A   1      39.498  31.039  35.271  1.00  0.00    -0.205 F 
ATOM    101  C   UNL A   1      40.660  32.953  38.166  1.00  0.00     0.022 A 
BRANCH  99 102
ATOM    102  S   UNL A   1      38.029  32.464  37.572  1.00  0.00     0.127 S 
ATOM    103  O   UNL A   1      38.007  33.249  38.806  1.00  0.00    -0.237 OA
ATOM    104  O   UNL A   1      37.553  33.178  36.387  1.00  0.00    -0.237 OA
ATOM    105  O   UNL A   1      37.538  31.098  37.690  1.00  0.00    -0.744 OA
ENDBRANCH  99 102
ENDBRANCH  72  95
ENDBRANCH  46  47
ENDBRANCH  39  41
ENDBRANCH  38  39
ENDBRANCH  37  38
ENDBRANCH  36  37
ENDBRANCH  35  36
ENDBRANCH  34  35
ENDBRANCH  33  34
ENDBRANCH  32  33
ENDBRANCH   1  32
TORSDOF 27
ENDMDL
MODEL 2
REMARK VINA RESULT:      -8.2      1.952      2.169
REMARK SMILES CC1(C)[C@H](C(=O)OCCOCCOCCOCCOC(=O)c2ccc(-c3c4nc(c(-c5cccc(S(=O)(=O)[O-])c5F)c5ccc([nH]5)c(-c5cccc(S(=O)(=O)[O-])c5F)c5nc(c(-c6cccc(S(=O)(=O)[O-])c6F)c6ccc3[nH]6)C=C5)C=C4)cc2)[C@@H]1C(=O)Nc1ccc(NC(=O)C2CCC2)cc1
REMARK SMILES IDX 12 1 11 2 10 3 9 4 8 5 7 6 5 7 6 8 4 9 1 10 2 11 3 12 85 13
REMARK SMILES IDX 86 14 87 15 88 16 89 18 90 19 101 20 91 21 100 22 92 23
REMARK SMILES IDX 93 24 94 25 95 27 96 28 97 29 99 30 98 31 13 32 14 33 15 34
REMARK SMILES IDX 16 35 17 36 18 37 19 38 20 39 21 40 22 41 23 42 84 43 24 44
REMARK SMILES IDX 83 45 25 46 26 47 27 48 77 49 28 50 82 51 76 52 78 53 29 54
REMARK SMILES IDX 81 55 75 56 74 57 30 59 62 60 42 61 61 62 43 63 46 64 60 65
REMARK SMILES IDX 79 66 44 67 45 68 59 70 80 71 47 72 31 73 32 74 40 75 33 76
REMARK SMILES IDX 35 77 41 78 34 79 36 80 37 81 38 82 39 83 63 84 64 85 72 86
REMARK SMILES IDX 65 87 67 88 73 89 66 90 68 91 69 92 70 93 71 94 48 95 49 96
REMARK SMILES IDX 57 97 50 98 52 99 58 100 51 101 53 102 54 103 55 104 56 105
REMARK H PARENT 88 17 93 26 78 58 46 69
REMARK Flexibility Score: inf
ROOT
ATOM      1  C   UNL A   1      41.251  26.203  27.768  1.00  0.00     0.188 C 
ENDROOT
BRANCH   1   2
ATOM      2  C   UNL A   1      40.098  25.813  26.833  1.00  0.00     0.188 C 
BRANCH   2   3
ATOM      3  O   UNL A   1      39.202  24.846  27.363  1.00  0.00    -0.376 OA
BRANCH   3   4
ATOM      4  C   UNL A   1      39.234  23.532  26.833  1.00  0.00     0.202 C 
BRANCH   4   5
ATOM      5  C   UNL A   1      38.126  23.128  25.850  1.00  0.00     0.261 C 
BRANCH   5   6
ATOM      6  O   UNL A   1      37.417  21.886  26.035  1.00  0.00    -0.463 OA
BRANCH   6   7
ATOM      7  C   UNL A   1      36.418  21.527  25.212  1.00  0.00     0.310 C 
ATOM      8  O   UNL A   1      36.027  20.391  24.999  1.00  0.00    -0.252 OA
BRANCH   7   9
ATOM      9  C   UNL A   1      35.650  22.632  24.619  1.00  0.00     0.118 C 
ATOM     10  C   UNL A   1      34.101  23.327  22.728  1.00  0.00     0.013 C 
ATOM     11  C   UNL A   1      34.258  22.597  24.044  1.00  0.00    -0.009 C 
ATOM     12  C   UNL A   1      33.422  21.337  24.103  1.00  0.00     0.013 C 
ATOM     13  C   UNL A   1      34.578  23.411  25.328  1.00  0.00     0.100 C 
BRANCH  13  14
ATOM     14  C   UNL A   1      33.848  23.076  26.575  1.00  0.00     0.228 C 
ATOM     15  O   UNL A   1      34.404  22.336  27.384  1.00  0.00    -0.274 OA
ATOM     16  N   UNL A   1      32.598  23.555  26.875  1.00  0.00    -0.326 N 
ATOM     17  H   UNL A   1      32.264  23.276  27.758  1.00  0.00     0.169 HD
BRANCH  16  18
ATOM     18  C   UNL A   1      31.712  24.364  26.161  1.00  0.00     0.041 A 
ATOM     19  C   UNL A   1      31.605  25.676  26.611  1.00  0.00     0.028 A 
ATOM     20  C   UNL A   1      31.015  23.989  25.019  1.00  0.00     0.028 A 
ATOM     21  C   UNL A   1      31.012  26.652  25.807  1.00  0.00     0.028 A 
ATOM     22  C   UNL A   1      30.355  24.975  24.255  1.00  0.00     0.028 A 
ATOM     23  C   UNL A   1      30.440  26.340  24.591  1.00  0.00     0.041 A 
BRANCH  23  24
ATOM     24  N   UNL A   1      29.991  27.268  23.636  1.00  0.00    -0.326 N 
ATOM     25  C   UNL A   1      30.523  28.186  22.753  1.00  0.00     0.227 C 
ATOM     26  H   UNL A   1      29.008  27.260  23.579  1.00  0.00     0.169 HD
ATOM     27  O   UNL A   1      29.644  28.769  22.079  1.00  0.00    -0.274 OA
BRANCH  25  28
ATOM     28  C   UNL A   1      31.997  28.496  22.439  1.00  0.00     0.079 C 
ATOM     29  C   UNL A   1      32.791  29.081  23.667  1.00  0.00     0.013 C 
ATOM     30  C   UNL A   1      33.187  27.517  22.323  1.00  0.00     0.013 C 
ATOM     31  C   UNL A   1      34.075  28.564  23.006  1.00  0.00     0.002 C 
ENDBRANCH  25  28
ENDBRANCH  23  24
ENDBRANCH  16  18
ENDBRANCH  13  14
ENDBRANCH   7   9
ENDBRANCH   6   7
ENDBRANCH   5   6
ENDBRANCH   4   5
ENDBRANCH   3   4
ENDBRANCH   2   3
ENDBRANCH   1   2
BRANCH   1  32
ATOM     32  O   UNL A   1      42.174  25.194  28.141  1.00  0.00    -0.377 OA
BRANCH  32  33
ATOM     33  C   UNL A   1      43.063  24.658  27.166  1.00  0.00     0.188 C 
BRANCH  33  34
ATOM     34  C   UNL A   1      42.819  23.257  26.574  1.00  0.00     0.188 C 
BRANCH  34  35
ATOM     35  O   UNL A   1      43.955  22.403  26.582  1.00  0.00    -0.376 OA
BRANCH  35  36
ATOM     36  C   UNL A   1      45.209  23.016  26.835  1.00  0.00     0.202 C 
BRANCH  36  37
ATOM     37  C   UNL A   1      46.110  23.181  25.606  1.00  0.00     0.261 C 
BRANCH  37  38
ATOM     38  O   UNL A   1      45.804  24.289  24.744  1.00  0.00    -0.460 OA
BRANCH  38  39
ATOM     39  C   UNL A   1      46.742  25.247  24.577  1.00  0.00     0.338 C 
ATOM     40  O   UNL A   1      47.667  25.241  23.785  1.00  0.00    -0.246 OA
BRANCH  39  41
ATOM     41  C   UNL A   1      46.339  26.422  25.378  1.00  0.00     0.060 A 
ATOM     42  C   UNL A   1      47.307  27.068  26.160  1.00  0.00     0.016 A 
ATOM     43  C   UNL A   1      45.025  26.895  25.344  1.00  0.00     0.016 A 
ATOM     44  C   UNL A   1      46.944  28.147  26.965  1.00  0.00     0.010 A 
ATOM     45  C   UNL A   1      44.658  27.961  26.167  1.00  0.00     0.010 A 
ATOM     46  C   UNL A   1      45.604  28.553  27.020  1.00  0.00    -0.014 A 
BRANCH  46  47
ATOM     47  C   UNL A   1      45.150  29.372  28.169  1.00  0.00     0.031 A 
ATOM     48  C   UNL A   1      45.019  28.682  29.502  1.00  0.00     0.074 A 
ATOM     49  C   UNL A   1      44.875  30.683  28.054  1.00  0.00     0.049 A 
ATOM     50  N   UNL A   1      44.664  29.171  30.660  1.00  0.00    -0.248 NA
ATOM     51  C   UNL A   1      45.330  27.241  29.528  1.00  0.00     0.031 C 
ATOM     52  C   UNL A   1      44.961  31.465  26.824  1.00  0.00     0.029 A 
ATOM     53  N   UNL A   1      44.446  31.583  28.998  1.00  0.00    -0.354 N 
ATOM     54  C   UNL A   1      44.691  28.100  31.544  1.00  0.00     0.074 A 
ATOM     55  C   UNL A   1      45.077  26.930  30.789  1.00  0.00     0.031 C 
ATOM     56  C   UNL A   1      44.571  32.726  27.084  1.00  0.00     0.029 A 
ATOM     57  C   UNL A   1      44.198  32.836  28.493  1.00  0.00     0.049 A 
ATOM     58  H   UNL A   1      44.328  31.351  29.948  1.00  0.00     0.167 HD
ATOM     59  C   UNL A   1      44.440  28.088  32.874  1.00  0.00     0.034 A 
ATOM     60  C   UNL A   1      43.711  33.938  29.103  1.00  0.00     0.034 A 
ATOM     61  C   UNL A   1      44.068  29.248  33.631  1.00  0.00     0.049 A 
ATOM     62  C   UNL A   1      43.412  33.893  30.582  1.00  0.00     0.074 A 
ATOM     63  C   UNL A   1      43.831  29.349  34.989  1.00  0.00     0.029 A 
ATOM     64  N   UNL A   1      43.862  30.507  33.091  1.00  0.00    -0.354 N 
ATOM     65  N   UNL A   1      43.575  32.907  31.432  1.00  0.00    -0.248 NA
ATOM     66  C   UNL A   1      42.893  35.128  31.193  1.00  0.00     0.031 C 
ATOM     67  C   UNL A   1      43.458  30.667  35.269  1.00  0.00     0.029 A 
ATOM     68  C   UNL A   1      43.489  31.392  34.088  1.00  0.00     0.049 A 
ATOM     69  H   UNL A   1      43.966  30.740  32.140  1.00  0.00     0.167 HD
ATOM     70  C   UNL A   1      43.217  33.412  32.678  1.00  0.00     0.074 A 
ATOM     71  C   UNL A   1      42.848  34.798  32.477  1.00  0.00     0.031 C 
ATOM     72  C   UNL A   1      43.181  32.783  33.880  1.00  0.00     0.034 A 
BRANCH  59  73
ATOM     73  C   UNL A   1      44.587  26.776  33.592  1.00  0.00     0.023 A 
ATOM     74  C   UNL A   1      43.453  25.960  33.788  1.00  0.00     0.012 A 
ATOM     75  C   UNL A   1      45.844  26.336  34.045  1.00  0.00     0.148 A 
ATOM     76  C   UNL A   1      43.566  24.738  34.450  1.00  0.00     0.002 A 
ATOM     77  C   UNL A   1      45.955  25.098  34.666  1.00  0.00     0.091 A 
ATOM     78  F   UNL A   1      46.903  27.142  33.877  1.00  0.00    -0.205 F 
ATOM     79  C   UNL A   1      44.817  24.304  34.879  1.00  0.00     0.022 A 
BRANCH  77  80
ATOM     80  S   UNL A   1      47.533  24.419  35.191  1.00  0.00     0.127 S 
ATOM     81  O   UNL A   1      47.132  23.116  35.718  1.00  0.00    -0.237 OA
ATOM     82  O   UNL A   1      48.277  24.365  33.932  1.00  0.00    -0.237 OA
ATOM     83  O   UNL A   1      48.066  25.353  36.172  1.00  0.00    -0.744 OA
ENDBRANCH  77  80
ENDBRANCH  59  73
BRANCH  60  84
ATOM     84  C   UNL A   1      43.514  35.197  28.329  1.00  0.00     0.023 A 
ATOM     85  C   UNL A   1      42.232  35.521  27.841  1.00  0.00     0.012 A 
ATOM     86  C   UNL A   1      44.587  36.071  28.068  1.00  0.00     0.148 A 
ATOM     87  C   UNL A   1      42.030  36.674  27.081  1.00  0.00     0.002 A 
ATOM     88  C   UNL A   1      44.367  37.245  27.357  1.00  0.00     0.091 A 
ATOM     89  F   UNL A   1      45.803  35.735  28.522  1.00  0.00    -0.205 F 
ATOM     90  C   UNL A   1      43.094  37.540  26.846  1.00  0.00     0.022 A 
BRANCH  88  91
ATOM     91  S   UNL A   1      45.649  38.481  27.117  1.00  0.00     0.127 S 
ATOM     92  O   UNL A   1      46.655  37.727  26.373  1.00  0.00    -0.237 OA
ATOM     93  O   UNL A   1      44.941  39.499  26.338  1.00  0.00    -0.237 OA
ATOM     94  O   UNL A   1      46.036  38.910  28.453  1.00  0.00    -0.744 OA
ENDBRANCH  88  91
ENDBRANCH  60  84
BRANCH  72  95
ATOM     95  C   UNL A   1      42.763  33.587  35.085  1.00  0.00     0.023 A 
ATOM     96  C   UNL A   1      41.411  33.604  35.480  1.00  0.00     0.012 A 
ATOM     97  C   UNL A   1      43.722  34.254  35.873  1.00  0.00     0.148 A 
ATOM     98  C   UNL A   1      41.015  34.299  36.623  1.00  0.00     0.002 A 
ATOM     99  C   UNL A   1      43.327  34.903  37.038  1.00  0.00     0.091 A 
ATOM    100  F   UNL A   1      45.001  34.241  35.473  1.00  0.00    -0.205 F 
ATOM    101  C   UNL A   1      41.973  34.937  37.408  1.00  0.00     0.022 A 
BRANCH  99 102
ATOM    102  S   UNL A   1      44.506  35.665  38.159  1.00  0.00     0.127 S 
ATOM    103  O   UNL A   1      45.467  36.254  37.227  1.00  0.00    -0.237 OA
ATOM    104  O   UNL A   1      43.676  36.637  38.872  1.00  0.00    -0.237 OA
ATOM    105  O   UNL A   1      45.020  34.587  38.992  1.00  0.00    -0.744 OA
ENDBRANCH  99 102
ENDBRANCH  72  95
ENDBRANCH  46  47
ENDBRANCH  39  41
ENDBRANCH  38  39
ENDBRANCH  37  38
ENDBRANCH  36  37
ENDBRANCH  35  36
ENDBRANCH  34  35
ENDBRANCH  33  34
ENDBRANCH  32  33
ENDBRANCH   1  32
TORSDOF 27
ENDMDL
MODEL 3
REMARK VINA RESULT:      -8.1      6.546     11.830
REMARK SMILES CC1(C)[C@H](C(=O)OCCOCCOCCOCCOC(=O)c2ccc(-c3c4nc(c(-c5cccc(S(=O)(=O)[O-])c5F)c5ccc([nH]5)c(-c5cccc(S(=O)(=O)[O-])c5F)c5nc(c(-c6cccc(S(=O)(=O)[O-])c6F)c6ccc3[nH]6)C=C5)C=C4)cc2)[C@@H]1C(=O)Nc1ccc(NC(=O)C2CCC2)cc1
REMARK SMILES IDX 12 1 11 2 10 3 9 4 8 5 7 6 5 7 6 8 4 9 1 10 2 11 3 12 85 13
REMARK SMILES IDX 86 14 87 15 88 16 89 18 90 19 101 20 91 21 100 22 92 23
REMARK SMILES IDX 93 24 94 25 95 27 96 28 97 29 99 30 98 31 13 32 14 33 15 34
REMARK SMILES IDX 16 35 17 36 18 37 19 38 20 39 21 40 22 41 23 42 84 43 24 44
REMARK SMILES IDX 83 45 25 46 26 47 27 48 77 49 28 50 82 51 76 52 78 53 29 54
REMARK SMILES IDX 81 55 75 56 74 57 30 59 62 60 42 61 61 62 43 63 46 64 60 65
REMARK SMILES IDX 79 66 44 67 45 68 59 70 80 71 47 72 31 73 32 74 40 75 33 76
REMARK SMILES IDX 35 77 41 78 34 79 36 80 37 81 38 82 39 83 63 84 64 85 72 86
REMARK SMILES IDX 65 87 67 88 73 89 66 90 68 91 69 92 70 93 71 94 48 95 49 96
REMARK SMILES IDX 57 97 50 98 52 99 58 100 51 101 53 102 54 103 55 104 56 105
REMARK H PARENT 88 17 93 26 78 58 46 69
REMARK Flexibility Score: inf
ROOT
ATOM      1  C   UNL A   1      37.385  22.103  25.109  1.00  0.00     0.188 C 
ENDROOT
BRANCH   1   2
ATOM      2  C   UNL A   1      36.080  21.856  24.340  1.00  0.00     0.188 C 
BRANCH   2   3
ATOM      3  O   UNL A   1      35.584  22.983  23.631  1.00  0.00    -0.376 OA
BRANCH   3   4
ATOM      4  C   UNL A   1      34.240  22.962  23.182  1.00  0.00     0.202 C 
BRANCH   4   5
ATOM      5  C   UNL A   1      33.612  24.291  22.737  1.00  0.00     0.261 C 
BRANCH   5   6
ATOM      6  O   UNL A   1      32.720  24.997  23.622  1.00  0.00    -0.463 OA
BRANCH   6   7
ATOM      7  C   UNL A   1      32.780  26.333  23.749  1.00  0.00     0.310 C 
ATOM      8  O   UNL A   1      32.230  27.156  23.034  1.00  0.00    -0.252 OA
BRANCH   7   9
ATOM      9  C   UNL A   1      33.475  26.831  24.946  1.00  0.00     0.118 C 
ATOM     10  C   UNL A   1      34.433  28.875  26.112  1.00  0.00     0.013 C 
ATOM     11  C   UNL A   1      33.200  28.088  25.729  1.00  0.00    -0.009 C 
ATOM     12  C   UNL A   1      32.033  28.986  25.376  1.00  0.00     0.013 C 
ATOM     13  C   UNL A   1      32.974  26.684  26.355  1.00  0.00     0.100 C 
BRANCH  13  14
ATOM     14  C   UNL A   1      31.613  26.336  26.831  1.00  0.00     0.228 C 
ATOM     15  O   UNL A   1      30.916  27.240  27.289  1.00  0.00    -0.274 OA
ATOM     16  N   UNL A   1      31.090  25.069  26.776  1.00  0.00    -0.326 N 
ATOM     17  H   UNL A   1      30.159  25.005  27.092  1.00  0.00     0.169 HD
BRANCH  16  18
ATOM     18  C   UNL A   1      31.632  23.853  26.357  1.00  0.00     0.041 A 
ATOM     19  C   UNL A   1      32.873  23.533  26.896  1.00  0.00     0.028 A 
ATOM     20  C   UNL A   1      31.004  22.929  25.530  1.00  0.00     0.028 A 
ATOM     21  C   UNL A   1      33.367  22.229  26.810  1.00  0.00     0.028 A 
ATOM     22  C   UNL A   1      31.553  21.637  25.390  1.00  0.00     0.028 A 
ATOM     23  C   UNL A   1      32.691  21.243  26.121  1.00  0.00     0.041 A 
BRANCH  23  24
ATOM     24  N   UNL A   1      33.006  19.873  26.134  1.00  0.00    -0.326 N 
ATOM     25  C   UNL A   1      33.202  18.847  25.232  1.00  0.00     0.227 C 
ATOM     26  H   UNL A   1      33.121  19.552  27.057  1.00  0.00     0.169 HD
ATOM     27  O   UNL A   1      33.500  17.767  25.791  1.00  0.00    -0.274 OA
BRANCH  25  28
ATOM     28  C   UNL A   1      33.196  18.886  23.694  1.00  0.00     0.079 C 
ATOM     29  C   UNL A   1      32.915  17.485  23.031  1.00  0.00     0.013 C 
ATOM     30  C   UNL A   1      32.088  19.394  22.745  1.00  0.00     0.013 C 
ATOM     31  C   UNL A   1      32.418  18.239  21.792  1.00  0.00     0.002 C 
ENDBRANCH  25  28
ENDBRANCH  23  24
ENDBRANCH  16  18
ENDBRANCH  13  14
ENDBRANCH   7   9
ENDBRANCH   6   7
ENDBRANCH   5   6
ENDBRANCH   4   5
ENDBRANCH   3   4
ENDBRANCH   2   3
ENDBRANCH   1   2
BRANCH   1  32
ATOM     32  O   UNL A   1      37.843  23.440  25.226  1.00  0.00    -0.377 OA
BRANCH  32  33
ATOM     33  C   UNL A   1      38.066  23.997  26.518  1.00  0.00     0.188 C 
BRANCH  33  34
ATOM     34  C   UNL A   1      39.469  23.960  27.153  1.00  0.00     0.188 C 
BRANCH  34  35
ATOM     35  O   UNL A   1      39.966  22.655  27.419  1.00  0.00    -0.376 OA
BRANCH  35  36
ATOM     36  C   UNL A   1      41.376  22.501  27.422  1.00  0.00     0.202 C 
BRANCH  36  37
ATOM     37  C   UNL A   1      42.170  23.772  27.100  1.00  0.00     0.261 C 
BRANCH  37  38
ATOM     38  O   UNL A   1      42.505  23.972  25.717  1.00  0.00    -0.460 OA
BRANCH  38  39
ATOM     39  C   UNL A   1      42.635  25.239  25.268  1.00  0.00     0.338 C 
ATOM     40  O   UNL A   1      41.742  26.030  25.026  1.00  0.00    -0.246 OA
BRANCH  39  41
ATOM     41  C   UNL A   1      44.070  25.593  25.315  1.00  0.00     0.060 A 
ATOM     42  C   UNL A   1      45.020  24.589  25.080  1.00  0.00     0.016 A 
ATOM     43  C   UNL A   1      44.475  26.906  25.569  1.00  0.00     0.016 A 
ATOM     44  C   UNL A   1      46.379  24.883  25.169  1.00  0.00     0.010 A 
ATOM     45  C   UNL A   1      45.836  27.194  25.679  1.00  0.00     0.010 A 
ATOM     46  C   UNL A   1      46.789  26.172  25.534  1.00  0.00    -0.014 A 
BRANCH  46  47
ATOM     47  C   UNL A   1      48.164  26.367  26.053  1.00  0.00     0.031 A 
ATOM     48  C   UNL A   1      49.220  26.802  25.070  1.00  0.00     0.074 A 
ATOM     49  C   UNL A   1      48.476  26.182  27.348  1.00  0.00     0.049 A 
ATOM     50  N   UNL A   1      50.484  27.061  25.270  1.00  0.00    -0.248 NA
ATOM     51  C   UNL A   1      48.786  26.966  23.671  1.00  0.00     0.031 C 
ATOM     52  C   UNL A   1      47.549  25.762  28.395  1.00  0.00     0.029 A 
ATOM     53  N   UNL A   1      49.681  26.313  27.994  1.00  0.00    -0.354 N 
ATOM     54  C   UNL A   1      50.999  27.399  24.024  1.00  0.00     0.074 A 
ATOM     55  C   UNL A   1      49.918  27.294  23.071  1.00  0.00     0.031 C 
ATOM     56  C   UNL A   1      48.227  25.644  29.551  1.00  0.00     0.029 A 
ATOM     57  C   UNL A   1      49.635  25.969  29.323  1.00  0.00     0.049 A 
ATOM     58  H   UNL A   1      50.501  26.624  27.546  1.00  0.00     0.167 HD
ATOM     59  C   UNL A   1      52.254  27.785  23.699  1.00  0.00     0.034 A 
ATOM     60  C   UNL A   1      50.622  25.912  30.241  1.00  0.00     0.034 A 
ATOM     61  C   UNL A   1      53.329  27.902  24.643  1.00  0.00     0.049 A 
ATOM     62  C   UNL A   1      52.021  26.321  29.848  1.00  0.00     0.074 A 
ATOM     63  C   UNL A   1      54.626  28.323  24.421  1.00  0.00     0.029 A 
ATOM     64  N   UNL A   1      53.233  27.580  25.987  1.00  0.00    -0.354 N 
ATOM     65  N   UNL A   1      52.461  26.771  28.697  1.00  0.00    -0.248 NA
ATOM     66  C   UNL A   1      53.054  26.248  30.895  1.00  0.00     0.031 C 
ATOM     67  C   UNL A   1      55.325  28.234  25.629  1.00  0.00     0.029 A 
ATOM     68  C   UNL A   1      54.454  27.783  26.608  1.00  0.00     0.049 A 
ATOM     69  H   UNL A   1      52.419  27.256  26.436  1.00  0.00     0.167 HD
ATOM     70  C   UNL A   1      53.807  27.069  28.891  1.00  0.00     0.074 A 
ATOM     71  C   UNL A   1      54.105  26.768  30.276  1.00  0.00     0.031 C 
ATOM     72  C   UNL A   1      54.719  27.534  28.001  1.00  0.00     0.034 A 
BRANCH  59  73
ATOM     73  C   UNL A   1      52.519  28.132  22.261  1.00  0.00     0.023 A 
ATOM     74  C   UNL A   1      52.993  27.136  21.381  1.00  0.00     0.012 A 
ATOM     75  C   UNL A   1      52.271  29.428  21.772  1.00  0.00     0.148 A 
ATOM     76  C   UNL A   1      53.244  27.435  20.042  1.00  0.00     0.002 A 
ATOM     77  C   UNL A   1      52.484  29.706  20.427  1.00  0.00     0.091 A 
ATOM     78  F   UNL A   1      51.851  30.367  22.633  1.00  0.00    -0.205 F 
ATOM     79  C   UNL A   1      52.979  28.715  19.565  1.00  0.00     0.022 A 
BRANCH  77  80
ATOM     80  S   UNL A   1      52.106  31.304  19.701  1.00  0.00     0.127 S 
ATOM     81  O   UNL A   1      52.395  31.062  18.289  1.00  0.00    -0.237 OA
ATOM     82  O   UNL A   1      50.684  31.456  20.015  1.00  0.00    -0.237 OA
ATOM     83  O   UNL A   1      52.979  32.263  20.363  1.00  0.00    -0.744 OA
ENDBRANCH  77  80
ENDBRANCH  59  73
BRANCH  60  84
ATOM     84  C   UNL A   1      50.322  25.490  31.639  1.00  0.00     0.023 A 
ATOM     85  C   UNL A   1      50.587  24.165  32.040  1.00  0.00     0.012 A 
ATOM     86  C   UNL A   1      49.772  26.390  32.573  1.00  0.00     0.148 A 
ATOM     87  C   UNL A   1      50.278  23.736  33.331  1.00  0.00     0.002 A 
ATOM     88  C   UNL A   1      49.518  25.971  33.874  1.00  0.00     0.091 A 
ATOM     89  F   UNL A   1      49.506  27.641  32.168  1.00  0.00    -0.205 F 
ATOM     90  C   UNL A   1      49.752  24.640  34.250  1.00  0.00     0.022 A 
BRANCH  88  91
ATOM     91  S   UNL A   1      48.961  27.096  35.159  1.00  0.00     0.127 S 
ATOM     92  O   UNL A   1      49.610  26.541  36.344  1.00  0.00    -0.237 OA
ATOM     93  O   UNL A   1      49.509  28.372  34.696  1.00  0.00    -0.237 OA
ATOM     94  O   UNL A   1      47.507  27.026  35.140  1.00  0.00    -0.744 OA
ENDBRANCH  88  91
ENDBRANCH  60  84
BRANCH  72  95
ATOM     95  C   UNL A   1      56.122  27.784  28.493  1.00  0.00     0.023 A 
ATOM     96  C   UNL A   1      57.099  26.778  28.368  1.00  0.00     0.012 A 
ATOM     97  C   UNL A   1      56.491  29.046  29.001  1.00  0.00     0.148 A 
ATOM     98  C   UNL A   1      58.414  27.012  28.769  1.00  0.00     0.002 A 
ATOM     99  C   UNL A   1      57.814  29.288  29.353  1.00  0.00     0.091 A 
ATOM    100  F   UNL A   1      55.545  29.987  29.130  1.00  0.00    -0.205 F 
ATOM    101  C   UNL A   1      58.775  28.268  29.250  1.00  0.00     0.022 A 
BRANCH  99 102
ATOM    102  S   UNL A   1      58.386  30.905  29.887  1.00  0.00     0.127 S 
ATOM    103  O   UNL A   1      58.025  31.742  28.744  1.00  0.00    -0.237 OA
ATOM    104  O   UNL A   1      57.585  31.139  31.090  1.00  0.00    -0.237 OA
ATOM    105  O   UNL A   1      59.814  30.763  30.134  1.00  0.00    -0.744 OA
ENDBRANCH  99 102
ENDBRANCH  72  95
ENDBRANCH  46  47
ENDBRANCH  39  41
ENDBRANCH  38  39
ENDBRANCH  37  38
ENDBRANCH  36  37
ENDBRANCH  35  36
ENDBRANCH  34  35
ENDBRANCH  33  34
ENDBRANCH  32  33
ENDBRANCH   1  32
TORSDOF 27
ENDMDL
