MODEL 1
REMARK VINA RESULT:     -11.1      0.000      0.000
REMARK SMILES Cc1ccc(C(=O)OCCOCCOCCOCCOC(=O)c2ccc(-c3c4nc(c(-c5cccc(S(=O)(=O)[O-])c5F)c5ccc([nH]5)c(-c5cccc(S(=O)(=O)[O-])c5F)c5nc(c(-c6cccc(S(=O)(=O)[O-])c6F)c6ccc3[nH]6)C=C5)C=C4)cc2)c2c1N[C@H](c1ccccc1F)[C@H]1CC=C[C@@H]21
REMARK SMILES IDX 15 1 14 2 13 3 12 4 11 5 10 6 9 7 8 8 6 9 7 10 5 11 1 12
REMARK SMILES IDX 2 13 3 14 87 15 4 16 86 17 88 18 101 19 89 20 97 22 100 23
REMARK SMILES IDX 98 24 99 25 90 26 91 27 95 28 92 29 94 30 96 31 93 32 16 33
REMARK SMILES IDX 17 34 18 35 19 36 20 37 21 38 22 39 23 40 24 41 85 42 25 43
REMARK SMILES IDX 84 44 26 45 27 46 28 47 78 48 29 49 83 50 77 51 79 52 30 53
REMARK SMILES IDX 82 54 76 55 75 56 31 58 63 59 43 60 62 61 44 62 47 63 61 64
REMARK SMILES IDX 80 65 45 66 46 67 60 69 81 70 48 71 32 72 33 73 41 74 34 75
REMARK SMILES IDX 36 76 42 77 35 78 37 79 38 80 39 81 40 82 64 83 65 84 73 85
REMARK SMILES IDX 66 86 68 87 74 88 67 89 69 90 70 91 71 92 72 93 49 94 50 95
REMARK SMILES IDX 58 96 51 97 53 98 59 99 52 100 54 101 55 102 56 103 57 104
REMARK H PARENT 88 21 79 57 47 68
REMARK Flexibility Score: inf
ROOT
ATOM      1  C   UNL A   1      29.231  29.849  23.335  1.00  0.00     0.188 C 
ENDROOT
BRANCH   1   2
ATOM      2  O   UNL A   1      29.846  29.512  22.100  1.00  0.00    -0.377 OA
BRANCH   2   3
ATOM      3  C   UNL A   1      31.248  29.648  21.967  1.00  0.00     0.188 C 
BRANCH   3   4
ATOM      4  C   UNL A   1      32.167  28.671  22.722  1.00  0.00     0.188 C 
BRANCH   4   5
ATOM      5  O   UNL A   1      33.080  29.258  23.645  1.00  0.00    -0.376 OA
BRANCH   5   6
ATOM      6  C   UNL A   1      32.812  28.969  25.015  1.00  0.00     0.202 C 
BRANCH   6   7
ATOM      7  C   UNL A   1      34.001  28.339  25.741  1.00  0.00     0.261 C 
BRANCH   7   8
ATOM      8  O   UNL A   1      34.187  26.948  25.431  1.00  0.00    -0.460 OA
BRANCH   8   9
ATOM      9  C   UNL A   1      33.116  26.133  25.567  1.00  0.00     0.338 C 
ATOM     10  O   UNL A   1      32.292  26.180  26.462  1.00  0.00    -0.246 OA
BRANCH   9  11
ATOM     11  C   UNL A   1      33.104  25.189  24.414  1.00  0.00     0.065 A 
ATOM     12  C   UNL A   1      33.035  22.828  20.804  1.00  0.00     0.046 C 
ATOM     13  C   UNL A   1      33.025  23.587  22.106  1.00  0.00    -0.028 A 
ATOM     14  C   UNL A   1      32.929  24.982  22.011  1.00  0.00     0.006 A 
ATOM     15  C   UNL A   1      33.122  22.973  23.376  1.00  0.00     0.042 A 
ATOM     16  C   UNL A   1      32.976  25.776  23.149  1.00  0.00     0.016 A 
ATOM     17  C   UNL A   1      33.158  23.777  24.548  1.00  0.00    -0.003 A 
ATOM     18  N   UNL A   1      33.235  21.591  23.478  1.00  0.00    -0.377 N 
ATOM     19  C   UNL A   1      33.046  23.089  25.898  1.00  0.00     0.050 C 
ATOM     20  C   UNL A   1      33.696  20.987  24.716  1.00  0.00     0.117 C 
ATOM     21  H   UNL A   1      33.002  21.021  22.710  1.00  0.00     0.161 HD
ATOM     22  C   UNL A   1      32.842  21.551  25.861  1.00  0.00     0.031 C 
ATOM     23  C   UNL A   1      34.200  23.205  26.854  1.00  0.00    -0.023 C 
ATOM     24  C   UNL A   1      33.295  21.088  27.257  1.00  0.00     0.034 C 
ATOM     25  C   UNL A   1      34.307  22.118  27.629  1.00  0.00    -0.030 C 
BRANCH  20  26
ATOM     26  C   UNL A   1      33.776  19.483  24.530  1.00  0.00     0.010 A 
ATOM     27  C   UNL A   1      32.581  18.793  24.240  1.00  0.00     0.009 A 
ATOM     28  C   UNL A   1      34.954  18.735  24.598  1.00  0.00     0.128 A 
ATOM     29  C   UNL A   1      32.580  17.421  23.984  1.00  0.00     0.001 A 
ATOM     30  C   UNL A   1      34.961  17.365  24.335  1.00  0.00     0.039 A 
ATOM     31  F   UNL A   1      36.125  19.316  24.893  1.00  0.00    -0.207 F 
ATOM     32  C   UNL A   1      33.775  16.708  24.019  1.00  0.00     0.003 A 
ENDBRANCH  20  26
ENDBRANCH   9  11
ENDBRANCH   8   9
ENDBRANCH   7   8
ENDBRANCH   6   7
ENDBRANCH   5   6
ENDBRANCH   4   5
ENDBRANCH   3   4
ENDBRANCH   2   3
ENDBRANCH   1   2
BRANCH   1  33
ATOM     33  C   UNL A   1      28.747  31.293  23.577  1.00  0.00     0.188 C 
BRANCH  33  34
ATOM     34  O   UNL A   1      29.566  32.055  24.457  1.00  0.00    -0.376 OA
BRANCH  34  35
ATOM     35  C   UNL A   1      30.559  31.328  25.167  1.00  0.00     0.202 C 
BRANCH  35  36
ATOM     36  C   UNL A   1      31.012  31.996  26.470  1.00  0.00     0.261 C 
BRANCH  36  37
ATOM     37  O   UNL A   1      32.402  31.839  26.789  1.00  0.00    -0.460 OA
BRANCH  37  38
ATOM     38  C   UNL A   1      33.022  32.854  27.427  1.00  0.00     0.338 C 
ATOM     39  O   UNL A   1      32.575  33.958  27.678  1.00  0.00    -0.246 OA
BRANCH  38  40
ATOM     40  C   UNL A   1      34.295  32.322  27.946  1.00  0.00     0.060 A 
ATOM     41  C   UNL A   1      34.367  30.978  28.331  1.00  0.00     0.016 A 
ATOM     42  C   UNL A   1      35.418  33.149  28.015  1.00  0.00     0.016 A 
ATOM     43  C   UNL A   1      35.570  30.458  28.804  1.00  0.00     0.010 A 
ATOM     44  C   UNL A   1      36.610  32.639  28.527  1.00  0.00     0.010 A 
ATOM     45  C   UNL A   1      36.680  31.302  28.950  1.00  0.00    -0.014 A 
BRANCH  45  46
ATOM     46  C   UNL A   1      37.827  30.865  29.774  1.00  0.00     0.031 A 
ATOM     47  C   UNL A   1      38.776  29.869  29.168  1.00  0.00     0.074 A 
ATOM     48  C   UNL A   1      38.006  31.308  31.031  1.00  0.00     0.049 A 
ATOM     49  N   UNL A   1      39.833  29.311  29.692  1.00  0.00    -0.248 NA
ATOM     50  C   UNL A   1      38.498  29.448  27.782  1.00  0.00     0.031 C 
ATOM     51  C   UNL A   1      37.159  32.279  31.720  1.00  0.00     0.029 A 
ATOM     52  N   UNL A   1      38.961  30.974  31.958  1.00  0.00    -0.354 N 
ATOM     53  C   UNL A   1      40.339  28.471  28.710  1.00  0.00     0.074 A 
ATOM     54  C   UNL A   1      39.479  28.588  27.555  1.00  0.00     0.031 C 
ATOM     55  C   UNL A   1      37.620  32.446  32.973  1.00  0.00     0.029 A 
ATOM     56  C   UNL A   1      38.782  31.582  33.178  1.00  0.00     0.049 A 
ATOM     57  H   UNL A   1      39.704  30.356  31.768  1.00  0.00     0.167 HD
ATOM     58  C   UNL A   1      41.430  27.678  28.760  1.00  0.00     0.034 A 
ATOM     59  C   UNL A   1      39.474  31.444  34.327  1.00  0.00     0.034 A 
ATOM     60  C   UNL A   1      42.285  27.557  29.904  1.00  0.00     0.049 A 
ATOM     61  C   UNL A   1      40.659  30.513  34.370  1.00  0.00     0.074 A 
ATOM     62  C   UNL A   1      43.431  26.796  30.038  1.00  0.00     0.029 A 
ATOM     63  N   UNL A   1      42.077  28.199  31.113  1.00  0.00    -0.354 N 
ATOM     64  N   UNL A   1      41.187  29.806  33.401  1.00  0.00    -0.248 NA
ATOM     65  C   UNL A   1      41.356  30.375  35.659  1.00  0.00     0.031 C 
ATOM     66  C   UNL A   1      43.914  26.970  31.337  1.00  0.00     0.029 A 
ATOM     67  C   UNL A   1      43.071  27.845  32.004  1.00  0.00     0.049 A 
ATOM     68  H   UNL A   1      41.334  28.814  31.307  1.00  0.00     0.167 HD
ATOM     69  C   UNL A   1      42.291  29.164  33.953  1.00  0.00     0.074 A 
ATOM     70  C   UNL A   1      42.362  29.570  35.340  1.00  0.00     0.031 C 
ATOM     71  C   UNL A   1      43.158  28.305  33.365  1.00  0.00     0.034 A 
BRANCH  58  72
ATOM     72  C   UNL A   1      41.791  26.905  27.528  1.00  0.00     0.023 A 
ATOM     73  C   UNL A   1      42.374  27.585  26.441  1.00  0.00     0.012 A 
ATOM     74  C   UNL A   1      41.639  25.507  27.480  1.00  0.00     0.148 A 
ATOM     75  C   UNL A   1      42.803  26.882  25.318  1.00  0.00     0.002 A 
ATOM     76  C   UNL A   1      42.094  24.810  26.368  1.00  0.00     0.091 A 
ATOM     77  F   UNL A   1      41.062  24.893  28.522  1.00  0.00    -0.205 F 
ATOM     78  C   UNL A   1      42.673  25.495  25.286  1.00  0.00     0.022 A 
BRANCH  76  79
ATOM     79  S   UNL A   1      42.016  23.020  26.244  1.00  0.00     0.127 S 
ATOM     80  O   UNL A   1      42.814  22.610  27.398  1.00  0.00    -0.237 OA
ATOM     81  O   UNL A   1      40.580  22.770  26.373  1.00  0.00    -0.237 OA
ATOM     82  O   UNL A   1      42.588  22.679  24.949  1.00  0.00    -0.744 OA
ENDBRANCH  76  79
ENDBRANCH  58  72
BRANCH  59  83
ATOM     83  C   UNL A   1      39.095  32.243  35.524  1.00  0.00     0.023 A 
ATOM     84  C   UNL A   1      38.201  31.690  36.461  1.00  0.00     0.012 A 
ATOM     85  C   UNL A   1      39.625  33.526  35.751  1.00  0.00     0.148 A 
ATOM     86  C   UNL A   1      37.829  32.408  37.598  1.00  0.00     0.002 A 
ATOM     87  C   UNL A   1      39.278  34.223  36.904  1.00  0.00     0.091 A 
ATOM     88  F   UNL A   1      40.464  34.037  34.838  1.00  0.00    -0.205 F 
ATOM     89  C   UNL A   1      38.373  33.669  37.823  1.00  0.00     0.022 A 
BRANCH  87  90
ATOM     90  S   UNL A   1      39.988  35.818  37.327  1.00  0.00     0.127 S 
ATOM     91  O   UNL A   1      39.266  36.150  38.554  1.00  0.00    -0.237 OA
ATOM     92  O   UNL A   1      41.398  35.477  37.516  1.00  0.00    -0.237 OA
ATOM     93  O   UNL A   1      39.721  36.686  36.189  1.00  0.00    -0.744 OA
ENDBRANCH  87  90
ENDBRANCH  59  83
BRANCH  71  94
ATOM     94  C   UNL A   1      44.282  27.744  34.191  1.00  0.00     0.023 A 
ATOM     95  C   UNL A   1      45.448  28.508  34.374  1.00  0.00     0.012 A 
ATOM     96  C   UNL A   1      44.111  26.545  34.910  1.00  0.00     0.148 A 
ATOM     97  C   UNL A   1      46.435  28.085  35.264  1.00  0.00     0.002 A 
ATOM     98  C   UNL A   1      45.083  26.147  35.821  1.00  0.00     0.091 A 
ATOM     99  F   UNL A   1      42.991  25.835  34.713  1.00  0.00    -0.205 F 
ATOM    100  C   UNL A   1      46.247  26.914  35.996  1.00  0.00     0.022 A 
BRANCH  98 101
ATOM    101  S   UNL A   1      44.893  24.703  36.871  1.00  0.00     0.127 S 
ATOM    102  O   UNL A   1      46.225  24.588  37.463  1.00  0.00    -0.237 OA
ATOM    103  O   UNL A   1      43.847  25.131  37.800  1.00  0.00    -0.237 OA
ATOM    104  O   UNL A   1      44.511  23.608  35.990  1.00  0.00    -0.744 OA
ENDBRANCH  98 101
ENDBRANCH  71  94
ENDBRANCH  45  46
ENDBRANCH  38  40
ENDBRANCH  37  38
ENDBRANCH  36  37
ENDBRANCH  35  36
ENDBRANCH  34  35
ENDBRANCH  33  34
ENDBRANCH   1  33
TORSDOF 24
ENDMDL
MODEL 2
REMARK VINA RESULT:     -10.7      1.721      2.390
REMARK SMILES Cc1ccc(C(=O)OCCOCCOCCOCCOC(=O)c2ccc(-c3c4nc(c(-c5cccc(S(=O)(=O)[O-])c5F)c5ccc([nH]5)c(-c5cccc(S(=O)(=O)[O-])c5F)c5nc(c(-c6cccc(S(=O)(=O)[O-])c6F)c6ccc3[nH]6)C=C5)C=C4)cc2)c2c1N[C@H](c1ccccc1F)[C@H]1CC=C[C@@H]21
REMARK SMILES IDX 15 1 14 2 13 3 12 4 11 5 10 6 9 7 8 8 6 9 7 10 5 11 1 12
REMARK SMILES IDX 2 13 3 14 87 15 4 16 86 17 88 18 101 19 89 20 97 22 100 23
REMARK SMILES IDX 98 24 99 25 90 26 91 27 95 28 92 29 94 30 96 31 93 32 16 33
REMARK SMILES IDX 17 34 18 35 19 36 20 37 21 38 22 39 23 40 24 41 85 42 25 43
REMARK SMILES IDX 84 44 26 45 27 46 28 47 78 48 29 49 83 50 77 51 79 52 30 53
REMARK SMILES IDX 82 54 76 55 75 56 31 58 63 59 43 60 62 61 44 62 47 63 61 64
REMARK SMILES IDX 80 65 45 66 46 67 60 69 81 70 48 71 32 72 33 73 41 74 34 75
REMARK SMILES IDX 36 76 42 77 35 78 37 79 38 80 39 81 40 82 64 83 65 84 73 85
REMARK SMILES IDX 66 86 68 87 74 88 67 89 69 90 70 91 71 92 72 93 49 94 50 95
REMARK SMILES IDX 58 96 51 97 53 98 59 99 52 100 54 101 55 102 56 103 57 104
REMARK H PARENT 88 21 79 57 47 68
REMARK Flexibility Score: inf
ROOT
ATOM      1  C   UNL A   1      29.965  29.406  23.416  1.00  0.00     0.188 C 
ENDROOT
BRANCH   1   2
ATOM      2  O   UNL A   1      30.999  29.266  22.453  1.00  0.00    -0.377 OA
BRANCH   2   3
ATOM      3  C   UNL A   1      32.348  29.336  22.872  1.00  0.00     0.188 C 
BRANCH   3   4
ATOM      4  C   UNL A   1      33.104  28.030  23.172  1.00  0.00     0.188 C 
BRANCH   4   5
ATOM      5  O   UNL A   1      33.373  27.763  24.545  1.00  0.00    -0.376 OA
BRANCH   5   6
ATOM      6  C   UNL A   1      32.601  26.707  25.110  1.00  0.00     0.202 C 
BRANCH   6   7
ATOM      7  C   UNL A   1      33.428  25.751  25.972  1.00  0.00     0.261 C 
BRANCH   7   8
ATOM      8  O   UNL A   1      34.742  25.501  25.445  1.00  0.00    -0.460 OA
BRANCH   8   9
ATOM      9  C   UNL A   1      34.827  24.771  24.309  1.00  0.00     0.338 C 
ATOM     10  O   UNL A   1      34.346  25.070  23.231  1.00  0.00    -0.246 OA
BRANCH   9  11
ATOM     11  C   UNL A   1      35.636  23.555  24.600  1.00  0.00     0.065 A 
ATOM     12  C   UNL A   1      38.339  20.318  25.514  1.00  0.00     0.046 C 
ATOM     13  C   UNL A   1      37.350  21.395  25.146  1.00  0.00    -0.028 A 
ATOM     14  C   UNL A   1      37.834  22.711  25.159  1.00  0.00     0.006 A 
ATOM     15  C   UNL A   1      35.999  21.145  24.817  1.00  0.00     0.042 A 
ATOM     16  C   UNL A   1      36.987  23.780  24.898  1.00  0.00     0.016 A 
ATOM     17  C   UNL A   1      35.127  22.232  24.536  1.00  0.00    -0.003 A 
ATOM     18  N   UNL A   1      35.508  19.844  24.820  1.00  0.00    -0.377 N 
ATOM     19  C   UNL A   1      33.747  21.924  23.980  1.00  0.00     0.050 C 
ATOM     20  C   UNL A   1      34.075  19.605  24.847  1.00  0.00     0.117 C 
ATOM     21  H   UNL A   1      36.132  19.083  24.804  1.00  0.00     0.161 HD
ATOM     22  C   UNL A   1      33.441  20.426  23.715  1.00  0.00     0.031 C 
ATOM     23  C   UNL A   1      32.547  22.326  24.790  1.00  0.00    -0.023 C 
ATOM     24  C   UNL A   1      31.903  20.365  23.694  1.00  0.00     0.034 C 
ATOM     25  C   UNL A   1      31.520  21.489  24.597  1.00  0.00    -0.030 C 
BRANCH  20  26
ATOM     26  C   UNL A   1      33.826  18.110  24.900  1.00  0.00     0.010 A 
ATOM     27  C   UNL A   1      34.581  17.288  24.039  1.00  0.00     0.009 A 
ATOM     28  C   UNL A   1      32.921  17.484  25.762  1.00  0.00     0.128 A 
ATOM     29  C   UNL A   1      34.464  15.897  24.077  1.00  0.00     0.001 A 
ATOM     30  C   UNL A   1      32.805  16.095  25.811  1.00  0.00     0.039 A 
ATOM     31  F   UNL A   1      32.150  18.200  26.592  1.00  0.00    -0.207 F 
ATOM     32  C   UNL A   1      33.583  15.299  24.974  1.00  0.00     0.003 A 
ENDBRANCH  20  26
ENDBRANCH   9  11
ENDBRANCH   8   9
ENDBRANCH   7   8
ENDBRANCH   6   7
ENDBRANCH   5   6
ENDBRANCH   4   5
ENDBRANCH   3   4
ENDBRANCH   2   3
ENDBRANCH   1   2
BRANCH   1  33
ATOM     33  C   UNL A   1      29.245  30.761  23.572  1.00  0.00     0.188 C 
BRANCH  33  34
ATOM     34  O   UNL A   1      29.784  31.609  24.580  1.00  0.00    -0.376 OA
BRANCH  34  35
ATOM     35  C   UNL A   1      30.784  31.030  25.408  1.00  0.00     0.202 C 
BRANCH  35  36
ATOM     36  C   UNL A   1      31.243  31.933  26.558  1.00  0.00     0.261 C 
BRANCH  36  37
ATOM     37  O   UNL A   1      32.585  31.710  27.016  1.00  0.00    -0.460 OA
BRANCH  37  38
ATOM     38  C   UNL A   1      33.230  32.739  27.604  1.00  0.00     0.338 C 
ATOM     39  O   UNL A   1      32.798  33.853  27.836  1.00  0.00    -0.246 OA
BRANCH  38  40
ATOM     40  C   UNL A   1      34.516  32.214  28.098  1.00  0.00     0.060 A 
ATOM     41  C   UNL A   1      34.623  30.853  28.410  1.00  0.00     0.016 A 
ATOM     42  C   UNL A   1      35.616  33.065  28.214  1.00  0.00     0.016 A 
ATOM     43  C   UNL A   1      35.839  30.341  28.858  1.00  0.00     0.010 A 
ATOM     44  C   UNL A   1      36.821  32.561  28.702  1.00  0.00     0.010 A 
ATOM     45  C   UNL A   1      36.926  31.205  29.052  1.00  0.00    -0.014 A 
BRANCH  45  46
ATOM     46  C   UNL A   1      38.082  30.755  29.855  1.00  0.00     0.031 A 
ATOM     47  C   UNL A   1      39.030  29.777  29.218  1.00  0.00     0.074 A 
ATOM     48  C   UNL A   1      38.273  31.171  31.120  1.00  0.00     0.049 A 
ATOM     49  N   UNL A   1      40.094  29.211  29.720  1.00  0.00    -0.248 NA
ATOM     50  C   UNL A   1      38.740  29.385  27.826  1.00  0.00     0.031 C 
ATOM     51  C   UNL A   1      37.428  32.123  31.838  1.00  0.00     0.029 A 
ATOM     52  N   UNL A   1      39.238  30.821  32.030  1.00  0.00    -0.354 N 
ATOM     53  C   UNL A   1      40.594  28.396  28.714  1.00  0.00     0.074 A 
ATOM     54  C   UNL A   1      39.722  28.535  27.570  1.00  0.00     0.031 C 
ATOM     55  C   UNL A   1      37.901  32.264  33.090  1.00  0.00     0.029 A 
ATOM     56  C   UNL A   1      39.069  31.401  33.264  1.00  0.00     0.049 A 
ATOM     57  H   UNL A   1      39.981  30.211  31.819  1.00  0.00     0.167 HD
ATOM     58  C   UNL A   1      41.689  27.607  28.735  1.00  0.00     0.034 A 
ATOM     59  C   UNL A   1      39.772  31.240  34.403  1.00  0.00     0.034 A 
ATOM     60  C   UNL A   1      42.555  27.464  29.868  1.00  0.00     0.049 A 
ATOM     61  C   UNL A   1      40.961  30.314  34.414  1.00  0.00     0.074 A 
ATOM     62  C   UNL A   1      43.705  26.706  29.974  1.00  0.00     0.029 A 
ATOM     63  N   UNL A   1      42.357  28.078  31.093  1.00  0.00    -0.354 N 
ATOM     64  N   UNL A   1      41.483  29.631  33.425  1.00  0.00    -0.248 NA
ATOM     65  C   UNL A   1      41.672  30.151  35.693  1.00  0.00     0.031 C 
ATOM     66  C   UNL A   1      44.201  26.853  31.272  1.00  0.00     0.029 A 
ATOM     67  C   UNL A   1      43.361  27.710  31.966  1.00  0.00     0.049 A 
ATOM     68  H   UNL A   1      41.613  28.686  31.308  1.00  0.00     0.167 HD
ATOM     69  C   UNL A   1      42.594  28.981  33.952  1.00  0.00     0.074 A 
ATOM     70  C   UNL A   1      42.678  29.357  35.347  1.00  0.00     0.031 C 
ATOM     71  C   UNL A   1      43.459  28.139  33.336  1.00  0.00     0.034 A 
BRANCH  58  72
ATOM     72  C   UNL A   1      42.041  26.862  27.483  1.00  0.00     0.023 A 
ATOM     73  C   UNL A   1      42.577  27.575  26.394  1.00  0.00     0.012 A 
ATOM     74  C   UNL A   1      41.926  25.461  27.417  1.00  0.00     0.148 A 
ATOM     75  C   UNL A   1      42.998  26.901  25.249  1.00  0.00     0.002 A 
ATOM     76  C   UNL A   1      42.372  24.794  26.284  1.00  0.00     0.091 A 
ATOM     77  F   UNL A   1      41.392  24.816  28.464  1.00  0.00    -0.205 F 
ATOM     78  C   UNL A   1      42.906  25.511  25.199  1.00  0.00     0.022 A 
BRANCH  76  79
ATOM     79  S   UNL A   1      42.341  23.005  26.134  1.00  0.00     0.127 S 
ATOM     80  O   UNL A   1      42.932  22.810  24.810  1.00  0.00    -0.237 OA
ATOM     81  O   UNL A   1      43.192  22.593  27.250  1.00  0.00    -0.237 OA
ATOM     82  O   UNL A   1      40.943  22.614  26.246  1.00  0.00    -0.744 OA
ENDBRANCH  76  79
ENDBRANCH  58  72
BRANCH  59  83
ATOM     83  C   UNL A   1      39.402  32.011  35.622  1.00  0.00     0.023 A 
ATOM     84  C   UNL A   1      39.888  33.323  35.777  1.00  0.00     0.012 A 
ATOM     85  C   UNL A   1      38.560  31.466  36.609  1.00  0.00     0.148 A 
ATOM     86  C   UNL A   1      39.555  34.076  36.903  1.00  0.00     0.002 A 
ATOM     87  C   UNL A   1      38.203  32.234  37.712  1.00  0.00     0.091 A 
ATOM     88  F   UNL A   1      38.120  30.211  36.446  1.00  0.00    -0.205 F 
ATOM     89  C   UNL A   1      38.707  33.535  37.866  1.00  0.00     0.022 A 
BRANCH  87  90
ATOM     90  S   UNL A   1      37.050  31.660  38.966  1.00  0.00     0.127 S 
ATOM     91  O   UNL A   1      36.680  30.343  38.450  1.00  0.00    -0.237 OA
ATOM     92  O   UNL A   1      37.895  31.639  40.160  1.00  0.00    -0.237 OA
ATOM     93  O   UNL A   1      35.977  32.643  38.998  1.00  0.00    -0.744 OA
ENDBRANCH  87  90
ENDBRANCH  59  83
BRANCH  71  94
ATOM     94  C   UNL A   1      44.594  27.565  34.139  1.00  0.00     0.023 A 
ATOM     95  C   UNL A   1      45.887  28.092  33.975  1.00  0.00     0.012 A 
ATOM     96  C   UNL A   1      44.344  26.628  35.161  1.00  0.00     0.148 A 
ATOM     97  C   UNL A   1      46.923  27.692  34.818  1.00  0.00     0.002 A 
ATOM     98  C   UNL A   1      45.373  26.260  36.019  1.00  0.00     0.091 A 
ATOM     99  F   UNL A   1      43.102  26.141  35.291  1.00  0.00    -0.205 F 
ATOM    100  C   UNL A   1      46.664  26.789  35.847  1.00  0.00     0.022 A 
BRANCH  98 101
ATOM    101  S   UNL A   1      45.118  25.172  37.425  1.00  0.00     0.127 S 
ATOM    102  O   UNL A   1      44.860  23.892  36.766  1.00  0.00    -0.237 OA
ATOM    103  O   UNL A   1      46.405  25.253  38.117  1.00  0.00    -0.237 OA
ATOM    104  O   UNL A   1      43.993  25.723  38.167  1.00  0.00    -0.744 OA
ENDBRANCH  98 101
ENDBRANCH  71  94
ENDBRANCH  45  46
ENDBRANCH  38  40
ENDBRANCH  37  38
ENDBRANCH  36  37
ENDBRANCH  35  36
ENDBRANCH  34  35
ENDBRANCH  33  34
ENDBRANCH   1  33
TORSDOF 24
ENDMDL
MODEL 3
REMARK VINA RESULT:     -10.3      1.890      7.487
REMARK SMILES Cc1ccc(C(=O)OCCOCCOCCOCCOC(=O)c2ccc(-c3c4nc(c(-c5cccc(S(=O)(=O)[O-])c5F)c5ccc([nH]5)c(-c5cccc(S(=O)(=O)[O-])c5F)c5nc(c(-c6cccc(S(=O)(=O)[O-])c6F)c6ccc3[nH]6)C=C5)C=C4)cc2)c2c1N[C@H](c1ccccc1F)[C@H]1CC=C[C@@H]21
REMARK SMILES IDX 15 1 14 2 13 3 12 4 11 5 10 6 9 7 8 8 6 9 7 10 5 11 1 12
REMARK SMILES IDX 2 13 3 14 87 15 4 16 86 17 88 18 101 19 89 20 97 22 100 23
REMARK SMILES IDX 98 24 99 25 90 26 91 27 95 28 92 29 94 30 96 31 93 32 16 33
REMARK SMILES IDX 17 34 18 35 19 36 20 37 21 38 22 39 23 40 24 41 85 42 25 43
REMARK SMILES IDX 84 44 26 45 27 46 28 47 78 48 29 49 83 50 77 51 79 52 30 53
REMARK SMILES IDX 82 54 76 55 75 56 31 58 63 59 43 60 62 61 44 62 47 63 61 64
REMARK SMILES IDX 80 65 45 66 46 67 60 69 81 70 48 71 32 72 33 73 41 74 34 75
REMARK SMILES IDX 36 76 42 77 35 78 37 79 38 80 39 81 40 82 64 83 65 84 73 85
REMARK SMILES IDX 66 86 68 87 74 88 67 89 69 90 70 91 71 92 72 93 49 94 50 95
REMARK SMILES IDX 58 96 51 97 53 98 59 99 52 100 54 101 55 102 56 103 57 104
REMARK H PARENT 88 21 79 57 47 68
REMARK Flexibility Score: inf
ROOT
ATOM      1  C   UNL A   1      30.617  28.983  23.705  1.00  0.00     0.188 C 
ENDROOT
BRANCH   1   2
ATOM      2  O   UNL A   1      31.531  28.844  22.627  1.00  0.00    -0.377 OA
BRANCH   2   3
ATOM      3  C   UNL A   1      32.912  29.049  22.862  1.00  0.00     0.188 C 
BRANCH   3   4
ATOM      4  C   UNL A   1      33.741  27.905  23.474  1.00  0.00     0.188 C 
BRANCH   4   5
ATOM      5  O   UNL A   1      33.580  27.694  24.873  1.00  0.00    -0.376 OA
BRANCH   5   6
ATOM      6  C   UNL A   1      32.836  26.529  25.219  1.00  0.00     0.202 C 
BRANCH   6   7
ATOM      7  C   UNL A   1      33.675  25.471  25.939  1.00  0.00     0.261 C 
BRANCH   7   8
ATOM      8  O   UNL A   1      34.972  25.276  25.353  1.00  0.00    -0.460 OA
BRANCH   8   9
ATOM      9  C   UNL A   1      35.036  24.549  24.213  1.00  0.00     0.338 C 
ATOM     10  O   UNL A   1      34.594  24.882  23.128  1.00  0.00    -0.246 OA
BRANCH   9  11
ATOM     11  C   UNL A   1      35.766  23.286  24.511  1.00  0.00     0.065 A 
ATOM     12  C   UNL A   1      38.262  19.887  25.426  1.00  0.00     0.046 C 
ATOM     13  C   UNL A   1      37.341  21.023  25.060  1.00  0.00    -0.028 A 
ATOM     14  C   UNL A   1      37.915  22.302  25.026  1.00  0.00     0.006 A 
ATOM     15  C   UNL A   1      35.965  20.862  24.777  1.00  0.00     0.042 A 
ATOM     16  C   UNL A   1      37.138  23.421  24.763  1.00  0.00     0.016 A 
ATOM     17  C   UNL A   1      35.163  22.001  24.494  1.00  0.00    -0.003 A 
ATOM     18  N   UNL A   1      35.385  19.599  24.827  1.00  0.00    -0.377 N 
ATOM     19  C   UNL A   1      33.749  21.779  23.987  1.00  0.00     0.050 C 
ATOM     20  C   UNL A   1      33.940  19.463  24.902  1.00  0.00     0.117 C 
ATOM     21  H   UNL A   1      35.953  18.796  24.812  1.00  0.00     0.161 HD
ATOM     22  C   UNL A   1      33.330  20.301  23.769  1.00  0.00     0.031 C 
ATOM     23  C   UNL A   1      32.606  22.284  24.822  1.00  0.00    -0.023 C 
ATOM     24  C   UNL A   1      31.792  20.349  23.794  1.00  0.00     0.034 C 
ATOM     25  C   UNL A   1      31.517  21.518  24.680  1.00  0.00    -0.030 C 
BRANCH  20  26
ATOM     26  C   UNL A   1      33.588  17.991  25.000  1.00  0.00     0.010 A 
ATOM     27  C   UNL A   1      32.736  17.587  26.048  1.00  0.00     0.009 A 
ATOM     28  C   UNL A   1      34.028  17.008  24.109  1.00  0.00     0.128 A 
ATOM     29  C   UNL A   1      32.307  16.264  26.165  1.00  0.00     0.001 A 
ATOM     30  C   UNL A   1      33.597  15.686  24.215  1.00  0.00     0.039 A 
ATOM     31  F   UNL A   1      34.860  17.310  23.102  1.00  0.00    -0.207 F 
ATOM     32  C   UNL A   1      32.729  15.314  25.239  1.00  0.00     0.003 A 
ENDBRANCH  20  26
ENDBRANCH   9  11
ENDBRANCH   8   9
ENDBRANCH   7   8
ENDBRANCH   6   7
ENDBRANCH   5   6
ENDBRANCH   4   5
ENDBRANCH   3   4
ENDBRANCH   2   3
ENDBRANCH   1   2
BRANCH   1  33
ATOM     33  C   UNL A   1      29.940  30.344  23.962  1.00  0.00     0.188 C 
BRANCH  33  34
ATOM     34  O   UNL A   1      30.549  31.128  24.983  1.00  0.00    -0.376 OA
BRANCH  34  35
ATOM     35  C   UNL A   1      31.437  30.436  25.850  1.00  0.00     0.202 C 
BRANCH  35  36
ATOM     36  C   UNL A   1      31.979  31.291  27.001  1.00  0.00     0.261 C 
BRANCH  36  37
ATOM     37  O   UNL A   1      33.334  31.015  27.385  1.00  0.00    -0.460 OA
BRANCH  37  38
ATOM     38  C   UNL A   1      34.121  32.061  27.714  1.00  0.00     0.338 C 
ATOM     39  O   UNL A   1      33.828  33.242  27.713  1.00  0.00    -0.246 OA
BRANCH  38  40
ATOM     40  C   UNL A   1      35.368  31.503  28.268  1.00  0.00     0.060 A 
ATOM     41  C   UNL A   1      35.407  30.151  28.632  1.00  0.00     0.016 A 
ATOM     42  C   UNL A   1      36.499  32.312  28.389  1.00  0.00     0.016 A 
ATOM     43  C   UNL A   1      36.586  29.606  29.138  1.00  0.00     0.010 A 
ATOM     44  C   UNL A   1      37.665  31.777  28.933  1.00  0.00     0.010 A 
ATOM     45  C   UNL A   1      37.703  30.432  29.336  1.00  0.00    -0.014 A 
BRANCH  45  46
ATOM     46  C   UNL A   1      38.814  29.965  30.192  1.00  0.00     0.031 A 
ATOM     47  C   UNL A   1      38.956  30.597  31.548  1.00  0.00     0.074 A 
ATOM     48  C   UNL A   1      39.690  29.036  29.771  1.00  0.00     0.049 A 
ATOM     49  N   UNL A   1      39.858  30.385  32.468  1.00  0.00    -0.248 NA
ATOM     50  C   UNL A   1      37.942  31.602  31.920  1.00  0.00     0.031 C 
ATOM     51  C   UNL A   1      39.648  28.347  28.483  1.00  0.00     0.029 A 
ATOM     52  N   UNL A   1      40.805  28.529  30.390  1.00  0.00    -0.354 N 
ATOM     53  C   UNL A   1      39.528  31.230  33.518  1.00  0.00     0.074 A 
ATOM     54  C   UNL A   1      38.344  31.961  33.130  1.00  0.00     0.031 C 
ATOM     55  C   UNL A   1      40.706  27.521  28.397  1.00  0.00     0.029 A 
ATOM     56  C   UNL A   1      41.508  27.636  29.616  1.00  0.00     0.049 A 
ATOM     57  H   UNL A   1      41.077  28.780  31.302  1.00  0.00     0.167 HD
ATOM     58  C   UNL A   1      40.149  31.379  34.707  1.00  0.00     0.034 A 
ATOM     59  C   UNL A   1      42.668  26.997  29.864  1.00  0.00     0.034 A 
ATOM     60  C   UNL A   1      41.326  30.658  35.095  1.00  0.00     0.049 A 
ATOM     61  C   UNL A   1      43.370  27.220  31.179  1.00  0.00     0.074 A 
ATOM     62  C   UNL A   1      42.012  30.723  36.293  1.00  0.00     0.029 A 
ATOM     63  N   UNL A   1      41.997  29.754  34.289  1.00  0.00    -0.354 N 
ATOM     64  N   UNL A   1      42.988  27.943  32.204  1.00  0.00    -0.248 NA
ATOM     65  C   UNL A   1      44.650  26.524  31.383  1.00  0.00     0.031 C 
ATOM     66  C   UNL A   1      43.110  29.863  36.208  1.00  0.00     0.029 A 
ATOM     67  C   UNL A   1      43.097  29.259  34.961  1.00  0.00     0.049 A 
ATOM     68  H   UNL A   1      41.730  29.503  33.376  1.00  0.00     0.167 HD
ATOM     69  C   UNL A   1      43.964  27.767  33.181  1.00  0.00     0.074 A 
ATOM     70  C   UNL A   1      44.951  26.864  32.630  1.00  0.00     0.031 C 
ATOM     71  C   UNL A   1      44.038  28.317  34.417  1.00  0.00     0.034 A 
BRANCH  58  72
ATOM     72  C   UNL A   1      39.550  32.331  35.697  1.00  0.00     0.023 A 
ATOM     73  C   UNL A   1      38.558  31.863  36.579  1.00  0.00     0.012 A 
ATOM     74  C   UNL A   1      40.026  33.650  35.813  1.00  0.00     0.148 A 
ATOM     75  C   UNL A   1      38.045  32.697  37.570  1.00  0.00     0.002 A 
ATOM     76  C   UNL A   1      39.530  34.467  36.819  1.00  0.00     0.091 A 
ATOM     77  F   UNL A   1      40.956  34.070  34.944  1.00  0.00    -0.205 F 
ATOM     78  C   UNL A   1      38.538  33.994  37.697  1.00  0.00     0.022 A 
BRANCH  76  79
ATOM     79  S   UNL A   1      40.127  36.137  37.099  1.00  0.00     0.127 S 
ATOM     80  O   UNL A   1      39.778  36.790  35.839  1.00  0.00    -0.237 OA
ATOM     81  O   UNL A   1      39.325  36.557  38.248  1.00  0.00    -0.237 OA
ATOM     82  O   UNL A   1      41.556  36.019  37.355  1.00  0.00    -0.744 OA
ENDBRANCH  76  79
ENDBRANCH  58  72
BRANCH  59  83
ATOM     83  C   UNL A   1      43.223  26.046  28.862  1.00  0.00     0.023 A 
ATOM     84  C   UNL A   1      42.851  24.690  28.926  1.00  0.00     0.012 A 
ATOM     85  C   UNL A   1      44.092  26.475  27.841  1.00  0.00     0.148 A 
ATOM     86  C   UNL A   1      43.346  23.772  28.000  1.00  0.00     0.002 A 
ATOM     87  C   UNL A   1      44.554  25.562  26.899  1.00  0.00     0.091 A 
ATOM     88  F   UNL A   1      44.442  27.769  27.808  1.00  0.00    -0.205 F 
ATOM     89  C   UNL A   1      44.191  24.209  26.983  1.00  0.00     0.022 A 
BRANCH  87  90
ATOM     90  S   UNL A   1      45.579  26.041  25.502  1.00  0.00     0.127 S 
ATOM     91  O   UNL A   1      44.829  27.171  24.957  1.00  0.00    -0.237 OA
ATOM     92  O   UNL A   1      46.835  26.396  26.162  1.00  0.00    -0.237 OA
ATOM     93  O   UNL A   1      45.653  24.867  24.645  1.00  0.00    -0.744 OA
ENDBRANCH  87  90
ENDBRANCH  59  83
BRANCH  71  94
ATOM     94  C   UNL A   1      45.209  27.959  35.290  1.00  0.00     0.023 A 
ATOM     95  C   UNL A   1      46.347  28.786  35.286  1.00  0.00     0.012 A 
ATOM     96  C   UNL A   1      45.111  26.910  36.224  1.00  0.00     0.148 A 
ATOM     97  C   UNL A   1      47.377  28.571  36.201  1.00  0.00     0.002 A 
ATOM     98  C   UNL A   1      46.125  26.723  37.155  1.00  0.00     0.091 A 
ATOM     99  F   UNL A   1      44.015  26.137  36.202  1.00  0.00    -0.205 F 
ATOM    100  C   UNL A   1      47.260  27.550  37.142  1.00  0.00     0.022 A 
BRANCH  98 101
ATOM    101  S   UNL A   1      46.026  25.493  38.460  1.00  0.00     0.127 S 
ATOM    102  O   UNL A   1      46.461  24.283  37.763  1.00  0.00    -0.237 OA
ATOM    103  O   UNL A   1      46.981  26.007  39.443  1.00  0.00    -0.237 OA
ATOM    104  O   UNL A   1      44.640  25.485  38.906  1.00  0.00    -0.744 OA
ENDBRANCH  98 101
ENDBRANCH  71  94
ENDBRANCH  45  46
ENDBRANCH  38  40
ENDBRANCH  37  38
ENDBRANCH  36  37
ENDBRANCH  35  36
ENDBRANCH  34  35
ENDBRANCH  33  34
ENDBRANCH   1  33
TORSDOF 24
ENDMDL
