MODEL 1
REMARK VINA RESULT:      -9.2      0.000      0.000
REMARK SMILES C[C@@H](C(=O)OCCOCCOCCOCCOC(=O)c1ccc(-c2c3nc(c(-c4cccc(S(=O)(=O)[O-])c4F)c4ccc([nH]4)c(-c4cccc(S(=O)(=O)[O-])c4F)c4nc(c(-c5cccc(S(=O)(=O)[O-])c5F)c5ccc2[nH]5)C=C4)C=C3)cc1)c1ccc(C[C@@H]2CCC[C@@H]2O)cc1Br
REMARK SMILES IDX 10 1 9 2 8 3 7 4 6 5 5 6 3 7 4 8 2 9 1 10 83 11 84 12 95 13
REMARK SMILES IDX 85 14 94 15 96 16 86 17 87 18 88 19 89 20 92 21 90 22 91 23
REMARK SMILES IDX 93 24 11 26 12 27 13 28 14 29 15 30 16 31 17 32 18 33 19 34
REMARK SMILES IDX 20 35 21 36 82 37 22 38 81 39 23 40 24 41 25 42 75 43 26 44
REMARK SMILES IDX 80 45 74 46 76 47 27 48 79 49 73 50 72 51 28 53 60 54 40 55
REMARK SMILES IDX 59 56 41 57 44 58 58 59 77 60 42 61 43 62 57 64 78 65 45 66
REMARK SMILES IDX 29 67 30 68 38 69 31 70 33 71 39 72 32 73 34 74 35 75 36 76
REMARK SMILES IDX 37 77 61 78 62 79 70 80 63 81 65 82 71 83 64 84 66 85 67 86
REMARK SMILES IDX 68 87 69 88 46 89 47 90 55 91 48 92 50 93 56 94 49 95 51 96
REMARK SMILES IDX 52 97 53 98 54 99
REMARK H PARENT 93 25 76 52 44 63
REMARK Flexibility Score: inf
ROOT
ATOM      1  C   UNL A   1      33.600  22.431  27.740  1.00  0.00     0.188 C 
ENDROOT
BRANCH   1   2
ATOM      2  C   UNL A   1      32.827  23.301  26.726  1.00  0.00     0.188 C 
BRANCH   2   3
ATOM      3  O   UNL A   1      33.480  24.374  26.059  1.00  0.00    -0.376 OA
BRANCH   3   4
ATOM      4  C   UNL A   1      34.689  24.124  25.358  1.00  0.00     0.202 C 
BRANCH   4   5
ATOM      5  C   UNL A   1      34.827  24.508  23.869  1.00  0.00     0.261 C 
BRANCH   5   6
ATOM      6  O   UNL A   1      33.641  24.434  23.049  1.00  0.00    -0.463 OA
BRANCH   6   7
ATOM      7  C   UNL A   1      33.253  25.576  22.427  1.00  0.00     0.313 C 
ATOM      8  O   UNL A   1      33.889  26.095  21.512  1.00  0.00    -0.252 OA
BRANCH   7   9
ATOM      9  C   UNL A   1      31.942  26.196  22.975  1.00  0.00     0.127 C 
ATOM     10  C   UNL A   1      30.873  26.695  21.999  1.00  0.00     0.025 C 
BRANCH   9  11
ATOM     11  C   UNL A   1      32.238  27.068  24.207  1.00  0.00    -0.020 A 
ATOM     12  C   UNL A   1      33.337  27.948  24.068  1.00  0.00     0.006 A 
ATOM     13  C   UNL A   1      31.479  27.201  25.383  1.00  0.00     0.022 A 
ATOM     14  C   UNL A   1      33.674  28.882  25.052  1.00  0.00     0.004 A 
ATOM     15  C   UNL A   1      31.728  28.244  26.283  1.00  0.00     0.019 A 
ATOM     16  Br  UNL A   1      30.282  25.928  26.128  1.00  0.00    -0.050 Br
ATOM     17  C   UNL A   1      32.877  29.022  26.181  1.00  0.00    -0.047 A 
BRANCH  17  18
ATOM     18  C   UNL A   1      33.291  29.859  27.360  1.00  0.00     0.041 C 
BRANCH  18  19
ATOM     19  C   UNL A   1      34.715  30.467  27.278  1.00  0.00     0.022 C 
ATOM     20  C   UNL A   1      35.842  29.428  27.217  1.00  0.00     0.007 C 
ATOM     21  C   UNL A   1      35.188  31.394  28.409  1.00  0.00     0.117 C 
ATOM     22  C   UNL A   1      36.438  29.330  28.625  1.00  0.00     0.003 C 
ATOM     23  C   UNL A   1      35.860  30.485  29.432  1.00  0.00     0.032 C 
BRANCH  21  24
ATOM     24  O   UNL A   1      34.160  32.193  28.956  1.00  0.00    -0.393 OA
ATOM     25  H   UNL A   1      34.517  33.064  29.189  1.00  0.00     0.210 HD
ENDBRANCH  21  24
ENDBRANCH  18  19
ENDBRANCH  17  18
ENDBRANCH   9  11
ENDBRANCH   7   9
ENDBRANCH   6   7
ENDBRANCH   5   6
ENDBRANCH   4   5
ENDBRANCH   3   4
ENDBRANCH   2   3
ENDBRANCH   1   2
BRANCH   1  26
ATOM     26  O   UNL A   1      34.098  21.217  27.232  1.00  0.00    -0.377 OA
BRANCH  26  27
ATOM     27  C   UNL A   1      33.351  20.660  26.166  1.00  0.00     0.188 C 
BRANCH  27  28
ATOM     28  C   UNL A   1      34.107  20.416  24.845  1.00  0.00     0.188 C 
BRANCH  28  29
ATOM     29  O   UNL A   1      35.483  20.074  25.001  1.00  0.00    -0.376 OA
BRANCH  29  30
ATOM     30  C   UNL A   1      36.474  21.024  24.633  1.00  0.00     0.202 C 
BRANCH  30  31
ATOM     31  C   UNL A   1      37.898  20.790  25.163  1.00  0.00     0.261 C 
BRANCH  31  32
ATOM     32  O   UNL A   1      38.386  21.761  26.099  1.00  0.00    -0.460 OA
BRANCH  32  33
ATOM     33  C   UNL A   1      39.660  21.634  26.527  1.00  0.00     0.338 C 
ATOM     34  O   UNL A   1      40.392  20.668  26.384  1.00  0.00    -0.246 OA
BRANCH  33  35
ATOM     35  C   UNL A   1      40.102  22.959  27.006  1.00  0.00     0.060 A 
ATOM     36  C   UNL A   1      39.401  24.094  26.577  1.00  0.00     0.016 A 
ATOM     37  C   UNL A   1      41.167  23.077  27.901  1.00  0.00     0.016 A 
ATOM     38  C   UNL A   1      39.782  25.358  27.023  1.00  0.00     0.010 A 
ATOM     39  C   UNL A   1      41.569  24.346  28.320  1.00  0.00     0.010 A 
ATOM     40  C   UNL A   1      40.899  25.491  27.855  1.00  0.00    -0.014 A 
BRANCH  40  41
ATOM     41  C   UNL A   1      41.500  26.830  28.044  1.00  0.00     0.031 A 
ATOM     42  C   UNL A   1      42.806  27.115  27.356  1.00  0.00     0.074 A 
ATOM     43  C   UNL A   1      40.901  27.772  28.793  1.00  0.00     0.049 A 
ATOM     44  N   UNL A   1      43.543  28.193  27.386  1.00  0.00    -0.248 NA
ATOM     45  C   UNL A   1      43.356  26.033  26.520  1.00  0.00     0.031 C 
ATOM     46  C   UNL A   1      39.624  27.618  29.487  1.00  0.00     0.029 A 
ATOM     47  N   UNL A   1      41.309  29.043  29.111  1.00  0.00    -0.354 N 
ATOM     48  C   UNL A   1      44.656  27.908  26.606  1.00  0.00     0.074 A 
ATOM     49  C   UNL A   1      44.504  26.555  26.120  1.00  0.00     0.031 C 
ATOM     50  C   UNL A   1      39.366  28.744  30.174  1.00  0.00     0.029 A 
ATOM     51  C   UNL A   1      40.470  29.685  29.992  1.00  0.00     0.049 A 
ATOM     52  H   UNL A   1      42.123  29.456  28.743  1.00  0.00     0.167 HD
ATOM     53  C   UNL A   1      45.711  28.705  26.315  1.00  0.00     0.034 A 
ATOM     54  C   UNL A   1      40.599  30.882  30.597  1.00  0.00     0.034 A 
ATOM     55  C   UNL A   1      45.852  30.052  26.795  1.00  0.00     0.049 A 
ATOM     56  C   UNL A   1      41.804  31.735  30.287  1.00  0.00     0.074 A 
ATOM     57  C   UNL A   1      46.858  30.959  26.521  1.00  0.00     0.029 A 
ATOM     58  N   UNL A   1      44.972  30.677  27.665  1.00  0.00    -0.354 N 
ATOM     59  N   UNL A   1      42.795  31.499  29.462  1.00  0.00    -0.248 NA
ATOM     60  C   UNL A   1      41.892  33.035  30.969  1.00  0.00     0.031 C 
ATOM     61  C   UNL A   1      46.611  32.119  27.263  1.00  0.00     0.029 A 
ATOM     62  C   UNL A   1      45.424  31.951  27.958  1.00  0.00     0.049 A 
ATOM     63  H   UNL A   1      44.149  30.273  28.023  1.00  0.00     0.167 HD
ATOM     64  C   UNL A   1      43.600  32.634  29.493  1.00  0.00     0.074 A 
ATOM     65  C   UNL A   1      42.971  33.563  30.407  1.00  0.00     0.031 C 
ATOM     66  C   UNL A   1      44.758  32.883  28.831  1.00  0.00     0.034 A 
BRANCH  53  67
ATOM     67  C   UNL A   1      46.795  28.136  25.440  1.00  0.00     0.023 A 
ATOM     68  C   UNL A   1      46.693  28.227  24.037  1.00  0.00     0.012 A 
ATOM     69  C   UNL A   1      47.938  27.546  26.014  1.00  0.00     0.148 A 
ATOM     70  C   UNL A   1      47.696  27.710  23.218  1.00  0.00     0.002 A 
ATOM     71  C   UNL A   1      48.956  27.078  25.193  1.00  0.00     0.091 A 
ATOM     72  F   UNL A   1      48.002  27.446  27.349  1.00  0.00    -0.205 F 
ATOM     73  C   UNL A   1      48.832  27.147  23.796  1.00  0.00     0.022 A 
BRANCH  71  74
ATOM     74  S   UNL A   1      50.492  26.410  25.841  1.00  0.00     0.127 S 
ATOM     75  O   UNL A   1      51.266  26.209  24.618  1.00  0.00    -0.237 OA
ATOM     76  O   UNL A   1      50.965  27.504  26.690  1.00  0.00    -0.237 OA
ATOM     77  O   UNL A   1      50.132  25.195  26.558  1.00  0.00    -0.744 OA
ENDBRANCH  71  74
ENDBRANCH  53  67
BRANCH  54  78
ATOM     78  C   UNL A   1      39.552  31.362  31.544  1.00  0.00     0.023 A 
ATOM     79  C   UNL A   1      39.645  31.035  32.911  1.00  0.00     0.012 A 
ATOM     80  C   UNL A   1      38.463  32.135  31.095  1.00  0.00     0.148 A 
ATOM     81  C   UNL A   1      38.656  31.440  33.808  1.00  0.00     0.002 A 
ATOM     82  C   UNL A   1      37.511  32.584  32.004  1.00  0.00     0.091 A 
ATOM     83  F   UNL A   1      38.384  32.422  29.789  1.00  0.00    -0.205 F 
ATOM     84  C   UNL A   1      37.596  32.222  33.358  1.00  0.00     0.022 A 
BRANCH  82  85
ATOM     85  S   UNL A   1      36.178  33.693  31.538  1.00  0.00     0.127 S 
ATOM     86  O   UNL A   1      34.999  32.870  31.799  1.00  0.00    -0.237 OA
ATOM     87  O   UNL A   1      36.374  34.804  32.470  1.00  0.00    -0.237 OA
ATOM     88  O   UNL A   1      36.414  34.030  30.141  1.00  0.00    -0.744 OA
ENDBRANCH  82  85
ENDBRANCH  54  78
BRANCH  66  89
ATOM     89  C   UNL A   1      45.402  34.233  29.024  1.00  0.00     0.023 A 
ATOM     90  C   UNL A   1      45.071  35.304  28.171  1.00  0.00     0.012 A 
ATOM     91  C   UNL A   1      46.275  34.456  30.107  1.00  0.00     0.148 A 
ATOM     92  C   UNL A   1      45.629  36.567  28.372  1.00  0.00     0.002 A 
ATOM     93  C   UNL A   1      46.783  35.728  30.333  1.00  0.00     0.091 A 
ATOM     94  F   UNL A   1      46.588  33.421  30.899  1.00  0.00    -0.205 F 
ATOM     95  C   UNL A   1      46.475  36.782  29.458  1.00  0.00     0.022 A 
BRANCH  93  96
ATOM     96  S   UNL A   1      47.796  36.123  31.765  1.00  0.00     0.127 S 
ATOM     97  O   UNL A   1      48.939  35.233  31.575  1.00  0.00    -0.237 OA
ATOM     98  O   UNL A   1      48.085  37.542  31.556  1.00  0.00    -0.237 OA
ATOM     99  O   UNL A   1      46.971  35.839  32.932  1.00  0.00    -0.744 OA
ENDBRANCH  93  96
ENDBRANCH  66  89
ENDBRANCH  40  41
ENDBRANCH  33  35
ENDBRANCH  32  33
ENDBRANCH  31  32
ENDBRANCH  30  31
ENDBRANCH  29  30
ENDBRANCH  28  29
ENDBRANCH  27  28
ENDBRANCH  26  27
ENDBRANCH   1  26
TORSDOF 27
ENDMDL
MODEL 2
REMARK VINA RESULT:      -9.0      1.751      2.176
REMARK SMILES C[C@@H](C(=O)OCCOCCOCCOCCOC(=O)c1ccc(-c2c3nc(c(-c4cccc(S(=O)(=O)[O-])c4F)c4ccc([nH]4)c(-c4cccc(S(=O)(=O)[O-])c4F)c4nc(c(-c5cccc(S(=O)(=O)[O-])c5F)c5ccc2[nH]5)C=C4)C=C3)cc1)c1ccc(C[C@@H]2CCC[C@@H]2O)cc1Br
REMARK SMILES IDX 10 1 9 2 8 3 7 4 6 5 5 6 3 7 4 8 2 9 1 10 83 11 84 12 95 13
REMARK SMILES IDX 85 14 94 15 96 16 86 17 87 18 88 19 89 20 92 21 90 22 91 23
REMARK SMILES IDX 93 24 11 26 12 27 13 28 14 29 15 30 16 31 17 32 18 33 19 34
REMARK SMILES IDX 20 35 21 36 82 37 22 38 81 39 23 40 24 41 25 42 75 43 26 44
REMARK SMILES IDX 80 45 74 46 76 47 27 48 79 49 73 50 72 51 28 53 60 54 40 55
REMARK SMILES IDX 59 56 41 57 44 58 58 59 77 60 42 61 43 62 57 64 78 65 45 66
REMARK SMILES IDX 29 67 30 68 38 69 31 70 33 71 39 72 32 73 34 74 35 75 36 76
REMARK SMILES IDX 37 77 61 78 62 79 70 80 63 81 65 82 71 83 64 84 66 85 67 86
REMARK SMILES IDX 68 87 69 88 46 89 47 90 55 91 48 92 50 93 56 94 49 95 51 96
REMARK SMILES IDX 52 97 53 98 54 99
REMARK H PARENT 93 25 76 52 44 63
REMARK Flexibility Score: inf
ROOT
ATOM      1  C   UNL A   1      33.278  22.391  27.799  1.00  0.00     0.188 C 
ENDROOT
BRANCH   1   2
ATOM      2  C   UNL A   1      32.150  22.972  26.918  1.00  0.00     0.188 C 
BRANCH   2   3
ATOM      3  O   UNL A   1      32.337  24.208  26.240  1.00  0.00    -0.376 OA
BRANCH   3   4
ATOM      4  C   UNL A   1      33.304  24.294  25.204  1.00  0.00     0.202 C 
BRANCH   4   5
ATOM      5  C   UNL A   1      32.865  24.447  23.732  1.00  0.00     0.261 C 
BRANCH   5   6
ATOM      6  O   UNL A   1      31.480  24.768  23.479  1.00  0.00    -0.463 OA
BRANCH   6   7
ATOM      7  C   UNL A   1      31.231  25.913  22.794  1.00  0.00     0.313 C 
ATOM      8  O   UNL A   1      31.509  26.061  21.606  1.00  0.00    -0.252 OA
BRANCH   7   9
ATOM      9  C   UNL A   1      30.577  27.039  23.634  1.00  0.00     0.127 C 
ATOM     10  C   UNL A   1      29.615  28.025  22.965  1.00  0.00     0.025 C 
BRANCH   9  11
ATOM     11  C   UNL A   1      31.591  27.612  24.639  1.00  0.00    -0.020 A 
ATOM     12  C   UNL A   1      31.204  27.525  25.996  1.00  0.00     0.006 A 
ATOM     13  C   UNL A   1      32.896  28.074  24.392  1.00  0.00     0.022 A 
ATOM     14  C   UNL A   1      32.054  27.901  27.040  1.00  0.00     0.004 A 
ATOM     15  C   UNL A   1      33.790  28.295  25.446  1.00  0.00     0.019 A 
ATOM     16  Br  UNL A   1      33.580  28.770  22.762  1.00  0.00    -0.050 Br
ATOM     17  C   UNL A   1      33.354  28.310  26.767  1.00  0.00    -0.047 A 
BRANCH  17  18
ATOM     18  C   UNL A   1      34.245  28.913  27.818  1.00  0.00     0.041 C 
BRANCH  18  19
ATOM     19  C   UNL A   1      35.203  30.025  27.320  1.00  0.00     0.022 C 
ATOM     20  C   UNL A   1      36.646  29.886  27.824  1.00  0.00     0.007 C 
ATOM     21  C   UNL A   1      34.879  31.488  27.663  1.00  0.00     0.117 C 
ATOM     22  C   UNL A   1      36.811  30.870  28.987  1.00  0.00     0.003 C 
ATOM     23  C   UNL A   1      35.579  31.765  28.988  1.00  0.00     0.032 C 
BRANCH  21  24
ATOM     24  O   UNL A   1      33.496  31.772  27.687  1.00  0.00    -0.393 OA
ATOM     25  H   UNL A   1      33.229  32.154  26.836  1.00  0.00     0.210 HD
ENDBRANCH  21  24
ENDBRANCH  18  19
ENDBRANCH  17  18
ENDBRANCH   9  11
ENDBRANCH   7   9
ENDBRANCH   6   7
ENDBRANCH   5   6
ENDBRANCH   4   5
ENDBRANCH   3   4
ENDBRANCH   2   3
ENDBRANCH   1   2
BRANCH   1  26
ATOM     26  O   UNL A   1      34.115  21.456  27.161  1.00  0.00    -0.377 OA
BRANCH  26  27
ATOM     27  C   UNL A   1      33.498  20.697  26.137  1.00  0.00     0.188 C 
BRANCH  27  28
ATOM     28  C   UNL A   1      34.223  20.648  24.779  1.00  0.00     0.188 C 
BRANCH  28  29
ATOM     29  O   UNL A   1      35.596  20.268  24.850  1.00  0.00    -0.376 OA
BRANCH  29  30
ATOM     30  C   UNL A   1      36.593  21.280  24.807  1.00  0.00     0.202 C 
BRANCH  30  31
ATOM     31  C   UNL A   1      37.894  21.014  25.582  1.00  0.00     0.261 C 
BRANCH  31  32
ATOM     32  O   UNL A   1      38.686  22.168  25.895  1.00  0.00    -0.460 OA
BRANCH  32  33
ATOM     33  C   UNL A   1      39.907  21.965  26.434  1.00  0.00     0.338 C 
ATOM     34  O   UNL A   1      40.579  20.949  26.368  1.00  0.00    -0.246 OA
BRANCH  33  35
ATOM     35  C   UNL A   1      40.397  23.266  26.929  1.00  0.00     0.060 A 
ATOM     36  C   UNL A   1      39.966  24.433  26.285  1.00  0.00     0.016 A 
ATOM     37  C   UNL A   1      41.236  23.337  28.042  1.00  0.00     0.016 A 
ATOM     38  C   UNL A   1      40.396  25.678  26.738  1.00  0.00     0.010 A 
ATOM     39  C   UNL A   1      41.694  24.583  28.474  1.00  0.00     0.010 A 
ATOM     40  C   UNL A   1      41.302  25.754  27.801  1.00  0.00    -0.014 A 
BRANCH  40  41
ATOM     41  C   UNL A   1      42.013  27.027  28.052  1.00  0.00     0.031 A 
ATOM     42  C   UNL A   1      43.429  27.147  27.561  1.00  0.00     0.074 A 
ATOM     43  C   UNL A   1      41.420  28.052  28.688  1.00  0.00     0.049 A 
ATOM     44  N   UNL A   1      44.268  28.140  27.680  1.00  0.00    -0.248 NA
ATOM     45  C   UNL A   1      43.972  25.984  26.835  1.00  0.00     0.031 C 
ATOM     46  C   UNL A   1      40.046  28.058  29.187  1.00  0.00     0.029 A 
ATOM     47  N   UNL A   1      41.915  29.283  29.039  1.00  0.00    -0.354 N 
ATOM     48  C   UNL A   1      45.445  27.713  27.078  1.00  0.00     0.074 A 
ATOM     49  C   UNL A   1      45.216  26.368  26.600  1.00  0.00     0.031 C 
ATOM     50  C   UNL A   1      39.817  29.229  29.808  1.00  0.00     0.029 A 
ATOM     51  C   UNL A   1      41.033  30.040  29.774  1.00  0.00     0.049 A 
ATOM     52  H   UNL A   1      42.815  29.594  28.788  1.00  0.00     0.167 HD
ATOM     53  C   UNL A   1      46.611  28.382  26.932  1.00  0.00     0.034 A 
ATOM     54  C   UNL A   1      41.205  31.237  30.370  1.00  0.00     0.034 A 
ATOM     55  C   UNL A   1      46.829  29.722  27.402  1.00  0.00     0.049 A 
ATOM     56  C   UNL A   1      42.528  31.945  30.226  1.00  0.00     0.074 A 
ATOM     57  C   UNL A   1      47.959  30.507  27.264  1.00  0.00     0.029 A 
ATOM     58  N   UNL A   1      45.907  30.466  28.122  1.00  0.00    -0.354 N 
ATOM     59  N   UNL A   1      43.597  31.577  29.561  1.00  0.00    -0.248 NA
ATOM     60  C   UNL A   1      42.659  33.251  30.890  1.00  0.00     0.031 C 
ATOM     61  C   UNL A   1      47.736  31.711  27.940  1.00  0.00     0.029 A 
ATOM     62  C   UNL A   1      46.449  31.695  28.455  1.00  0.00     0.049 A 
ATOM     63  H   UNL A   1      45.001  30.165  28.361  1.00  0.00     0.167 HD
ATOM     64  C   UNL A   1      44.508  32.620  29.690  1.00  0.00     0.074 A 
ATOM     65  C   UNL A   1      43.860  33.642  30.484  1.00  0.00     0.031 C 
ATOM     66  C   UNL A   1      45.771  32.721  29.203  1.00  0.00     0.034 A 
BRANCH  53  67
ATOM     67  C   UNL A   1      47.742  27.671  26.238  1.00  0.00     0.023 A 
ATOM     68  C   UNL A   1      48.614  26.843  26.973  1.00  0.00     0.012 A 
ATOM     69  C   UNL A   1      47.912  27.791  24.846  1.00  0.00     0.148 A 
ATOM     70  C   UNL A   1      49.660  26.173  26.339  1.00  0.00     0.002 A 
ATOM     71  C   UNL A   1      48.925  27.081  24.212  1.00  0.00     0.091 A 
ATOM     72  F   UNL A   1      47.088  28.605  24.169  1.00  0.00    -0.205 F 
ATOM     73  C   UNL A   1      49.807  26.283  24.958  1.00  0.00     0.022 A 
BRANCH  71  74
ATOM     74  S   UNL A   1      49.147  27.094  22.430  1.00  0.00     0.127 S 
ATOM     75  O   UNL A   1      50.598  26.967  22.313  1.00  0.00    -0.237 OA
ATOM     76  O   UNL A   1      48.394  25.909  22.022  1.00  0.00    -0.237 OA
ATOM     77  O   UNL A   1      48.593  28.358  21.964  1.00  0.00    -0.744 OA
ENDBRANCH  71  74
ENDBRANCH  53  67
BRANCH  54  78
ATOM     78  C   UNL A   1      40.090  31.857  31.142  1.00  0.00     0.023 A 
ATOM     79  C   UNL A   1      39.260  32.813  30.524  1.00  0.00     0.012 A 
ATOM     80  C   UNL A   1      39.851  31.507  32.486  1.00  0.00     0.148 A 
ATOM     81  C   UNL A   1      38.236  33.435  31.239  1.00  0.00     0.002 A 
ATOM     82  C   UNL A   1      38.793  32.088  33.175  1.00  0.00     0.091 A 
ATOM     83  F   UNL A   1      40.661  30.607  33.061  1.00  0.00    -0.205 F 
ATOM     84  C   UNL A   1      37.996  33.066  32.560  1.00  0.00     0.022 A 
BRANCH  82  85
ATOM     85  S   UNL A   1      38.334  31.590  34.839  1.00  0.00     0.127 S 
ATOM     86  O   UNL A   1      37.037  32.242  35.000  1.00  0.00    -0.237 OA
ATOM     87  O   UNL A   1      38.280  30.133  34.709  1.00  0.00    -0.237 OA
ATOM     88  O   UNL A   1      39.397  32.079  35.705  1.00  0.00    -0.744 OA
ENDBRANCH  82  85
ENDBRANCH  54  78
BRANCH  66  89
ATOM     89  C   UNL A   1      46.525  34.001  29.464  1.00  0.00     0.023 A 
ATOM     90  C   UNL A   1      46.431  35.076  28.559  1.00  0.00     0.012 A 
ATOM     91  C   UNL A   1      47.262  34.161  30.654  1.00  0.00     0.148 A 
ATOM     92  C   UNL A   1      47.090  36.278  28.817  1.00  0.00     0.002 A 
ATOM     93  C   UNL A   1      47.869  35.379  30.931  1.00  0.00     0.091 A 
ATOM     94  F   UNL A   1      47.350  33.122  31.496  1.00  0.00    -0.205 F 
ATOM     95  C   UNL A   1      47.798  36.434  30.007  1.00  0.00     0.022 A 
BRANCH  93  96
ATOM     96  S   UNL A   1      48.714  35.706  32.483  1.00  0.00     0.127 S 
ATOM     97  O   UNL A   1      47.621  36.203  33.318  1.00  0.00    -0.237 OA
ATOM     98  O   UNL A   1      49.207  34.379  32.851  1.00  0.00    -0.237 OA
ATOM     99  O   UNL A   1      49.756  36.677  32.178  1.00  0.00    -0.744 OA
ENDBRANCH  93  96
ENDBRANCH  66  89
ENDBRANCH  40  41
ENDBRANCH  33  35
ENDBRANCH  32  33
ENDBRANCH  31  32
ENDBRANCH  30  31
ENDBRANCH  29  30
ENDBRANCH  28  29
ENDBRANCH  27  28
ENDBRANCH  26  27
ENDBRANCH   1  26
TORSDOF 27
ENDMDL
MODEL 3
REMARK VINA RESULT:      -8.8      2.662      3.794
REMARK SMILES C[C@@H](C(=O)OCCOCCOCCOCCOC(=O)c1ccc(-c2c3nc(c(-c4cccc(S(=O)(=O)[O-])c4F)c4ccc([nH]4)c(-c4cccc(S(=O)(=O)[O-])c4F)c4nc(c(-c5cccc(S(=O)(=O)[O-])c5F)c5ccc2[nH]5)C=C4)C=C3)cc1)c1ccc(C[C@@H]2CCC[C@@H]2O)cc1Br
REMARK SMILES IDX 10 1 9 2 8 3 7 4 6 5 5 6 3 7 4 8 2 9 1 10 83 11 84 12 95 13
REMARK SMILES IDX 85 14 94 15 96 16 86 17 87 18 88 19 89 20 92 21 90 22 91 23
REMARK SMILES IDX 93 24 11 26 12 27 13 28 14 29 15 30 16 31 17 32 18 33 19 34
REMARK SMILES IDX 20 35 21 36 82 37 22 38 81 39 23 40 24 41 25 42 75 43 26 44
REMARK SMILES IDX 80 45 74 46 76 47 27 48 79 49 73 50 72 51 28 53 60 54 40 55
REMARK SMILES IDX 59 56 41 57 44 58 58 59 77 60 42 61 43 62 57 64 78 65 45 66
REMARK SMILES IDX 29 67 30 68 38 69 31 70 33 71 39 72 32 73 34 74 35 75 36 76
REMARK SMILES IDX 37 77 61 78 62 79 70 80 63 81 65 82 71 83 64 84 66 85 67 86
REMARK SMILES IDX 68 87 69 88 46 89 47 90 55 91 48 92 50 93 56 94 49 95 51 96
REMARK SMILES IDX 52 97 53 98 54 99
REMARK H PARENT 93 25 76 52 44 63
REMARK Flexibility Score: inf
ROOT
ATOM      1  C   UNL A   1      33.374  22.475  27.841  1.00  0.00     0.188 C 
ENDROOT
BRANCH   1   2
ATOM      2  C   UNL A   1      32.247  23.069  26.969  1.00  0.00     0.188 C 
BRANCH   2   3
ATOM      3  O   UNL A   1      32.372  24.381  26.435  1.00  0.00    -0.376 OA
BRANCH   3   4
ATOM      4  C   UNL A   1      33.665  24.946  26.273  1.00  0.00     0.202 C 
BRANCH   4   5
ATOM      5  C   UNL A   1      34.467  24.711  24.975  1.00  0.00     0.261 C 
BRANCH   5   6
ATOM      6  O   UNL A   1      34.053  23.621  24.123  1.00  0.00    -0.463 OA
BRANCH   6   7
ATOM      7  C   UNL A   1      33.259  23.934  23.068  1.00  0.00     0.313 C 
ATOM      8  O   UNL A   1      33.684  24.078  21.923  1.00  0.00    -0.252 OA
BRANCH   7   9
ATOM      9  C   UNL A   1      31.761  24.118  23.419  1.00  0.00     0.127 C 
ATOM     10  C   UNL A   1      30.744  23.057  22.987  1.00  0.00     0.025 C 
BRANCH   9  11
ATOM     11  C   UNL A   1      31.353  25.592  23.263  1.00  0.00    -0.020 A 
ATOM     12  C   UNL A   1      32.029  26.296  22.239  1.00  0.00     0.006 A 
ATOM     13  C   UNL A   1      30.307  26.279  23.904  1.00  0.00     0.022 A 
ATOM     14  C   UNL A   1      31.703  27.611  21.896  1.00  0.00     0.004 A 
ATOM     15  C   UNL A   1      29.884  27.533  23.445  1.00  0.00     0.019 A 
ATOM     16  Br  UNL A   1      29.524  25.871  25.586  1.00  0.00    -0.050 Br
ATOM     17  C   UNL A   1      30.633  28.248  22.515  1.00  0.00    -0.047 A 
BRANCH  17  18
ATOM     18  C   UNL A   1      30.358  29.715  22.338  1.00  0.00     0.041 C 
BRANCH  18  19
ATOM     19  C   UNL A   1      28.949  30.187  22.780  1.00  0.00     0.022 C 
ATOM     20  C   UNL A   1      27.986  30.468  21.619  1.00  0.00     0.007 C 
ATOM     21  C   UNL A   1      28.830  31.470  23.618  1.00  0.00     0.117 C 
ATOM     22  C   UNL A   1      27.954  31.987  21.420  1.00  0.00     0.003 C 
ATOM     23  C   UNL A   1      28.668  32.605  22.614  1.00  0.00     0.032 C 
BRANCH  21  24
ATOM     24  O   UNL A   1      29.900  31.662  24.518  1.00  0.00    -0.393 OA
ATOM     25  H   UNL A   1      30.646  31.098  24.260  1.00  0.00     0.210 HD
ENDBRANCH  21  24
ENDBRANCH  18  19
ENDBRANCH  17  18
ENDBRANCH   9  11
ENDBRANCH   7   9
ENDBRANCH   6   7
ENDBRANCH   5   6
ENDBRANCH   4   5
ENDBRANCH   3   4
ENDBRANCH   2   3
ENDBRANCH   1   2
BRANCH   1  26
ATOM     26  O   UNL A   1      34.295  21.659  27.157  1.00  0.00    -0.377 OA
BRANCH  26  27
ATOM     27  C   UNL A   1      33.724  20.756  26.228  1.00  0.00     0.188 C 
BRANCH  27  28
ATOM     28  C   UNL A   1      34.399  20.666  24.846  1.00  0.00     0.188 C 
BRANCH  28  29
ATOM     29  O   UNL A   1      35.769  20.271  24.877  1.00  0.00    -0.376 OA
BRANCH  29  30
ATOM     30  C   UNL A   1      36.774  21.260  24.700  1.00  0.00     0.202 C 
BRANCH  30  31
ATOM     31  C   UNL A   1      37.955  21.242  25.685  1.00  0.00     0.261 C 
BRANCH  31  32
ATOM     32  O   UNL A   1      38.902  22.310  25.549  1.00  0.00    -0.460 OA
BRANCH  32  33
ATOM     33  C   UNL A   1      39.883  22.400  26.472  1.00  0.00     0.338 C 
ATOM     34  O   UNL A   1      40.693  21.538  26.771  1.00  0.00    -0.246 OA
BRANCH  33  35
ATOM     35  C   UNL A   1      39.958  23.809  26.905  1.00  0.00     0.060 A 
ATOM     36  C   UNL A   1      40.324  24.781  25.963  1.00  0.00     0.016 A 
ATOM     37  C   UNL A   1      39.631  24.174  28.212  1.00  0.00     0.016 A 
ATOM     38  C   UNL A   1      40.388  26.122  26.334  1.00  0.00     0.010 A 
ATOM     39  C   UNL A   1      39.729  25.514  28.592  1.00  0.00     0.010 A 
ATOM     40  C   UNL A   1      40.141  26.485  27.662  1.00  0.00    -0.014 A 
BRANCH  40  41
ATOM     41  C   UNL A   1      40.540  27.833  28.126  1.00  0.00     0.031 A 
ATOM     42  C   UNL A   1      42.005  28.169  28.127  1.00  0.00     0.074 A 
ATOM     43  C   UNL A   1      39.630  28.739  28.525  1.00  0.00     0.049 A 
ATOM     44  N   UNL A   1      42.607  29.262  28.510  1.00  0.00    -0.248 NA
ATOM     45  C   UNL A   1      42.917  27.124  27.627  1.00  0.00     0.031 C 
ATOM     46  C   UNL A   1      38.183  28.534  28.545  1.00  0.00     0.029 A 
ATOM     47  N   UNL A   1      39.800  30.010  29.013  1.00  0.00    -0.354 N 
ATOM     48  C   UNL A   1      43.964  29.027  28.331  1.00  0.00     0.074 A 
ATOM     49  C   UNL A   1      44.101  27.685  27.812  1.00  0.00     0.031 C 
ATOM     50  C   UNL A   1      37.597  29.635  29.049  1.00  0.00     0.029 A 
ATOM     51  C   UNL A   1      38.627  30.606  29.412  1.00  0.00     0.049 A 
ATOM     52  H   UNL A   1      40.678  30.453  29.069  1.00  0.00     0.167 HD
ATOM     53  C   UNL A   1      45.005  29.857  28.572  1.00  0.00     0.034 A 
ATOM     54  C   UNL A   1      38.420  31.790  30.024  1.00  0.00     0.034 A 
ATOM     55  C   UNL A   1      44.861  31.194  29.081  1.00  0.00     0.049 A 
ATOM     56  C   UNL A   1      39.601  32.680  30.319  1.00  0.00     0.074 A 
ATOM     57  C   UNL A   1      45.848  32.132  29.317  1.00  0.00     0.029 A 
ATOM     58  N   UNL A   1      43.658  31.772  29.452  1.00  0.00    -0.354 N 
ATOM     59  N   UNL A   1      40.869  32.491  30.045  1.00  0.00    -0.248 NA
ATOM     60  C   UNL A   1      39.318  33.962  30.981  1.00  0.00     0.031 C 
ATOM     61  C   UNL A   1      45.246  33.265  29.875  1.00  0.00     0.029 A 
ATOM     62  C   UNL A   1      43.878  33.049  29.938  1.00  0.00     0.049 A 
ATOM     63  H   UNL A   1      42.777  31.338  29.382  1.00  0.00     0.167 HD
ATOM     64  C   UNL A   1      41.528  33.644  30.460  1.00  0.00     0.074 A 
ATOM     65  C   UNL A   1      40.515  34.532  30.991  1.00  0.00     0.031 C 
ATOM     66  C   UNL A   1      42.852  33.939  30.415  1.00  0.00     0.034 A 
BRANCH  53  67
ATOM     67  C   UNL A   1      46.390  29.339  28.293  1.00  0.00     0.023 A 
ATOM     68  C   UNL A   1      46.923  29.412  26.990  1.00  0.00     0.012 A 
ATOM     69  C   UNL A   1      47.180  28.817  29.335  1.00  0.00     0.148 A 
ATOM     70  C   UNL A   1      48.208  28.941  26.722  1.00  0.00     0.002 A 
ATOM     71  C   UNL A   1      48.478  28.398  29.071  1.00  0.00     0.091 A 
ATOM     72  F   UNL A   1      46.644  28.733  30.562  1.00  0.00    -0.205 F 
ATOM     73  C   UNL A   1      48.989  28.447  27.764  1.00  0.00     0.022 A 
BRANCH  71  74
ATOM     74  S   UNL A   1      49.588  27.820  30.359  1.00  0.00     0.127 S 
ATOM     75  O   UNL A   1      49.041  26.495  30.646  1.00  0.00    -0.237 OA
ATOM     76  O   UNL A   1      50.877  27.811  29.667  1.00  0.00    -0.237 OA
ATOM     77  O   UNL A   1      49.485  28.785  31.444  1.00  0.00    -0.744 OA
ENDBRANCH  71  74
ENDBRANCH  53  67
BRANCH  54  78
ATOM     78  C   UNL A   1      37.037  32.217  30.383  1.00  0.00     0.023 A 
ATOM     79  C   UNL A   1      36.560  32.007  31.692  1.00  0.00     0.012 A 
ATOM     80  C   UNL A   1      36.192  32.825  29.434  1.00  0.00     0.148 A 
ATOM     81  C   UNL A   1      35.256  32.364  32.040  1.00  0.00     0.002 A 
ATOM     82  C   UNL A   1      34.914  33.230  29.802  1.00  0.00     0.091 A 
ATOM     83  F   UNL A   1      36.659  33.001  28.190  1.00  0.00    -0.205 F 
ATOM     84  C   UNL A   1      34.438  32.983  31.099  1.00  0.00     0.022 A 
BRANCH  82  85
ATOM     85  S   UNL A   1      33.833  34.141  28.695  1.00  0.00     0.127 S 
ATOM     86  O   UNL A   1      34.772  35.045  28.036  1.00  0.00    -0.237 OA
ATOM     87  O   UNL A   1      33.306  33.072  27.846  1.00  0.00    -0.237 OA
ATOM     88  O   UNL A   1      32.839  34.778  29.548  1.00  0.00    -0.744 OA
ENDBRANCH  82  85
ENDBRANCH  54  78
BRANCH  66  89
ATOM     89  C   UNL A   1      43.286  35.299  30.902  1.00  0.00     0.023 A 
ATOM     90  C   UNL A   1      43.748  35.465  32.222  1.00  0.00     0.012 A 
ATOM     91  C   UNL A   1      43.312  36.395  30.018  1.00  0.00     0.148 A 
ATOM     92  C   UNL A   1      44.193  36.711  32.665  1.00  0.00     0.002 A 
ATOM     93  C   UNL A   1      43.809  37.619  30.449  1.00  0.00     0.091 A 
ATOM     94  F   UNL A   1      42.857  36.221  28.769  1.00  0.00    -0.205 F 
ATOM     95  C   UNL A   1      44.235  37.783  31.777  1.00  0.00     0.022 A 
BRANCH  93  96
ATOM     96  S   UNL A   1      43.998  39.027  29.348  1.00  0.00     0.127 S 
ATOM     97  O   UNL A   1      43.920  40.148  30.283  1.00  0.00    -0.237 OA
ATOM     98  O   UNL A   1      45.326  38.797  28.780  1.00  0.00    -0.237 OA
ATOM     99  O   UNL A   1      42.905  38.937  28.389  1.00  0.00    -0.744 OA
ENDBRANCH  93  96
ENDBRANCH  66  89
ENDBRANCH  40  41
ENDBRANCH  33  35
ENDBRANCH  32  33
ENDBRANCH  31  32
ENDBRANCH  30  31
ENDBRANCH  29  30
ENDBRANCH  28  29
ENDBRANCH  27  28
ENDBRANCH  26  27
ENDBRANCH   1  26
TORSDOF 27
ENDMDL
