MODEL 1
REMARK VINA RESULT:      -9.1      0.000      0.000
REMARK SMILES CCC[NH2+][C@]1(C(=O)OCCOCCOCCOCCOC(=O)c2ccc(-c3c4nc(c(-c5cccc(S(=O)(=O)[O-])c5F)c5ccc([nH]5)c(-c5cccc(S(=O)(=O)[O-])c5F)c5nc(c(-c6cccc(S(=O)(=O)[O-])c6F)c6ccc3[nH]6)C=C5)C=C4)cc2)CCC[C@H](OC(C)(C)C)C1
REMARK SMILES IDX 14 1 13 2 12 3 11 4 10 5 9 6 8 7 6 8 7 9 5 10 86 11 95 12
REMARK SMILES IDX 87 13 89 14 88 15 4 16 3 19 2 20 1 21 90 22 91 23 92 24
REMARK SMILES IDX 93 25 94 26 15 27 16 28 17 29 18 30 19 31 20 32 21 33 22 34
REMARK SMILES IDX 23 35 24 36 85 37 25 38 84 39 26 40 27 41 28 42 78 43 29 44
REMARK SMILES IDX 83 45 77 46 79 47 30 48 82 49 76 50 75 51 31 53 63 54 43 55
REMARK SMILES IDX 62 56 44 57 47 58 61 59 80 60 45 61 46 62 60 64 81 65 48 66
REMARK SMILES IDX 32 67 33 68 41 69 34 70 36 71 42 72 35 73 37 74 38 75 39 76
REMARK SMILES IDX 40 77 64 78 65 79 73 80 66 81 68 82 74 83 67 84 69 85 70 86
REMARK SMILES IDX 71 87 72 88 49 89 50 90 58 91 51 92 53 93 59 94 52 95 54 96
REMARK SMILES IDX 55 97 56 98 57 99
REMARK H PARENT 4 17 4 18 79 52 47 63
REMARK Flexibility Score: inf
ROOT
ATOM      1  O   UNL A   1      31.998  20.311  25.131  1.00  0.00    -0.377 OA
ENDROOT
BRANCH   1   2
ATOM      2  C   UNL A   1      31.700  21.643  25.514  1.00  0.00     0.188 C 
BRANCH   2   3
ATOM      3  C   UNL A   1      31.438  22.573  24.304  1.00  0.00     0.188 C 
BRANCH   3   4
ATOM      4  O   UNL A   1      31.709  22.134  22.981  1.00  0.00    -0.376 OA
BRANCH   4   5
ATOM      5  C   UNL A   1      33.033  22.233  22.483  1.00  0.00     0.202 C 
BRANCH   5   6
ATOM      6  C   UNL A   1      33.485  23.421  21.608  1.00  0.00     0.261 C 
BRANCH   6   7
ATOM      7  O   UNL A   1      34.051  24.567  22.260  1.00  0.00    -0.459 OA
BRANCH   7   8
ATOM      8  C   UNL A   1      33.449  25.776  22.074  1.00  0.00     0.368 C 
ATOM      9  O   UNL A   1      33.316  26.307  20.975  1.00  0.00    -0.245 OA
BRANCH   8  10
ATOM     10  C   UNL A   1      32.963  26.405  23.431  1.00  0.00     0.196 C 
ATOM     11  C   UNL A   1      33.294  25.348  24.529  1.00  0.00     0.081 C 
ATOM     12  C   UNL A   1      33.799  27.686  23.657  1.00  0.00     0.113 C 
ATOM     13  C   UNL A   1      33.290  25.898  25.951  1.00  0.00     0.010 C 
ATOM     14  C   UNL A   1      33.779  28.224  25.088  1.00  0.00     0.125 C 
ATOM     15  C   UNL A   1      34.194  27.118  26.060  1.00  0.00     0.032 C 
BRANCH  10  16
ATOM     16  N   UNL A   1      31.478  26.627  23.501  1.00  0.00    -0.332 N 
ATOM     17  H   UNL A   1      31.034  25.760  23.199  1.00  0.00     0.347 HD
ATOM     18  H   UNL A   1      31.324  26.913  24.467  1.00  0.00     0.347 HD
BRANCH  16  19
ATOM     19  C   UNL A   1      30.871  27.709  22.722  1.00  0.00     0.261 C 
BRANCH  19  20
ATOM     20  C   UNL A   1      29.586  28.229  23.402  1.00  0.00     0.058 C 
ATOM     21  C   UNL A   1      28.462  27.205  23.528  1.00  0.00     0.010 C 
ENDBRANCH  19  20
ENDBRANCH  16  19
ENDBRANCH  10  16
BRANCH  14  22
ATOM     22  O   UNL A   1      32.464  28.689  25.409  1.00  0.00    -0.372 OA
BRANCH  22  23
ATOM     23  C   UNL A   1      32.305  29.511  26.572  1.00  0.00     0.060 C 
ATOM     24  C   UNL A   1      31.650  30.842  26.204  1.00  0.00     0.042 C 
ATOM     25  C   UNL A   1      31.542  28.773  27.681  1.00  0.00     0.042 C 
ATOM     26  C   UNL A   1      33.720  29.799  27.096  1.00  0.00     0.042 C 
ENDBRANCH  22  23
ENDBRANCH  14  22
ENDBRANCH   8  10
ENDBRANCH   7   8
ENDBRANCH   6   7
ENDBRANCH   5   6
ENDBRANCH   4   5
ENDBRANCH   3   4
ENDBRANCH   2   3
ENDBRANCH   1   2
BRANCH   1  27
ATOM     27  C   UNL A   1      33.216  19.814  25.658  1.00  0.00     0.188 C 
BRANCH  27  28
ATOM     28  C   UNL A   1      34.428  19.822  24.705  1.00  0.00     0.188 C 
BRANCH  28  29
ATOM     29  O   UNL A   1      35.500  20.649  25.141  1.00  0.00    -0.376 OA
BRANCH  29  30
ATOM     30  C   UNL A   1      35.464  22.048  24.938  1.00  0.00     0.202 C 
BRANCH  30  31
ATOM     31  C   UNL A   1      36.020  22.928  26.067  1.00  0.00     0.261 C 
BRANCH  31  32
ATOM     32  O   UNL A   1      37.163  23.719  25.728  1.00  0.00    -0.460 OA
BRANCH  32  33
ATOM     33  C   UNL A   1      38.357  23.276  26.187  1.00  0.00     0.338 C 
ATOM     34  O   UNL A   1      38.862  22.196  25.977  1.00  0.00    -0.246 OA
BRANCH  33  35
ATOM     35  C   UNL A   1      39.053  24.428  26.802  1.00  0.00     0.060 A 
ATOM     36  C   UNL A   1      38.909  24.618  28.183  1.00  0.00     0.016 A 
ATOM     37  C   UNL A   1      39.871  25.274  26.049  1.00  0.00     0.016 A 
ATOM     38  C   UNL A   1      39.559  25.674  28.810  1.00  0.00     0.010 A 
ATOM     39  C   UNL A   1      40.495  26.358  26.674  1.00  0.00     0.010 A 
ATOM     40  C   UNL A   1      40.310  26.580  28.050  1.00  0.00    -0.014 A 
BRANCH  40  41
ATOM     41  C   UNL A   1      40.700  27.860  28.680  1.00  0.00     0.031 A 
ATOM     42  C   UNL A   1      42.168  28.140  28.860  1.00  0.00     0.074 A 
ATOM     43  C   UNL A   1      39.780  28.785  29.003  1.00  0.00     0.049 A 
ATOM     44  N   UNL A   1      42.756  29.212  29.316  1.00  0.00    -0.248 NA
ATOM     45  C   UNL A   1      43.098  27.068  28.460  1.00  0.00     0.031 C 
ATOM     46  C   UNL A   1      38.335  28.631  28.854  1.00  0.00     0.029 A 
ATOM     47  N   UNL A   1      39.934  30.041  29.531  1.00  0.00    -0.354 N 
ATOM     48  C   UNL A   1      44.119  28.944  29.269  1.00  0.00     0.074 A 
ATOM     49  C   UNL A   1      44.273  27.600  28.760  1.00  0.00     0.031 C 
ATOM     50  C   UNL A   1      37.729  29.746  29.302  1.00  0.00     0.029 A 
ATOM     51  C   UNL A   1      38.744  30.681  29.784  1.00  0.00     0.049 A 
ATOM     52  H   UNL A   1      40.813  30.447  29.711  1.00  0.00     0.167 HD
ATOM     53  C   UNL A   1      45.152  29.753  29.600  1.00  0.00     0.034 A 
ATOM     54  C   UNL A   1      38.508  31.877  30.359  1.00  0.00     0.034 A 
ATOM     55  C   UNL A   1      44.995  31.090  30.101  1.00  0.00     0.049 A 
ATOM     56  C   UNL A   1      39.680  32.737  30.760  1.00  0.00     0.074 A 
ATOM     57  C   UNL A   1      45.978  31.997  30.453  1.00  0.00     0.029 A 
ATOM     58  N   UNL A   1      43.778  31.709  30.336  1.00  0.00    -0.354 N 
ATOM     59  N   UNL A   1      40.965  32.511  30.613  1.00  0.00    -0.248 NA
ATOM     60  C   UNL A   1      39.369  34.037  31.372  1.00  0.00     0.031 C 
ATOM     61  C   UNL A   1      45.354  33.154  30.932  1.00  0.00     0.029 A 
ATOM     62  C   UNL A   1      43.983  32.983  30.837  1.00  0.00     0.049 A 
ATOM     63  H   UNL A   1      42.896  31.302  30.170  1.00  0.00     0.167 HD
ATOM     64  C   UNL A   1      41.609  33.653  31.078  1.00  0.00     0.074 A 
ATOM     65  C   UNL A   1      40.572  34.582  31.477  1.00  0.00     0.031 C 
ATOM     66  C   UNL A   1      42.937  33.909  31.186  1.00  0.00     0.034 A 
BRANCH  53  67
ATOM     67  C   UNL A   1      46.548  29.221  29.411  1.00  0.00     0.023 A 
ATOM     68  C   UNL A   1      47.187  28.544  30.470  1.00  0.00     0.012 A 
ATOM     69  C   UNL A   1      47.195  29.327  28.165  1.00  0.00     0.148 A 
ATOM     70  C   UNL A   1      48.458  27.997  30.296  1.00  0.00     0.002 A 
ATOM     71  C   UNL A   1      48.442  28.740  27.987  1.00  0.00     0.091 A 
ATOM     72  F   UNL A   1      46.578  29.996  27.180  1.00  0.00    -0.205 F 
ATOM     73  C   UNL A   1      49.079  28.084  29.053  1.00  0.00     0.022 A 
BRANCH  71  74
ATOM     74  S   UNL A   1      49.292  28.727  26.405  1.00  0.00     0.127 S 
ATOM     75  O   UNL A   1      49.835  30.083  26.350  1.00  0.00    -0.237 OA
ATOM     76  O   UNL A   1      50.291  27.677  26.605  1.00  0.00    -0.237 OA
ATOM     77  O   UNL A   1      48.279  28.426  25.403  1.00  0.00    -0.744 OA
ENDBRANCH  71  74
ENDBRANCH  53  67
BRANCH  54  78
ATOM     78  C   UNL A   1      37.112  32.349  30.585  1.00  0.00     0.023 A 
ATOM     79  C   UNL A   1      36.478  32.110  31.821  1.00  0.00     0.012 A 
ATOM     80  C   UNL A   1      36.394  33.001  29.564  1.00  0.00     0.148 A 
ATOM     81  C   UNL A   1      35.141  32.462  32.016  1.00  0.00     0.002 A 
ATOM     82  C   UNL A   1      35.083  33.404  29.785  1.00  0.00     0.091 A 
ATOM     83  F   UNL A   1      37.004  33.203  28.388  1.00  0.00    -0.205 F 
ATOM     84  C   UNL A   1      34.446  33.114  31.002  1.00  0.00     0.022 A 
BRANCH  82  85
ATOM     85  S   UNL A   1      34.157  34.360  28.580  1.00  0.00     0.127 S 
ATOM     86  O   UNL A   1      32.871  34.525  29.254  1.00  0.00    -0.237 OA
ATOM     87  O   UNL A   1      34.961  35.578  28.478  1.00  0.00    -0.237 OA
ATOM     88  O   UNL A   1      34.139  33.551  27.369  1.00  0.00    -0.744 OA
ENDBRANCH  82  85
ENDBRANCH  54  78
BRANCH  66  89
ATOM     89  C   UNL A   1      43.341  35.263  31.715  1.00  0.00     0.023 A 
ATOM     90  C   UNL A   1      43.549  35.447  33.097  1.00  0.00     0.012 A 
ATOM     91  C   UNL A   1      43.548  36.345  30.837  1.00  0.00     0.148 A 
ATOM     92  C   UNL A   1      43.895  36.699  33.602  1.00  0.00     0.002 A 
ATOM     93  C   UNL A   1      43.950  37.576  31.341  1.00  0.00     0.091 A 
ATOM     94  F   UNL A   1      43.337  36.157  29.526  1.00  0.00    -0.205 F 
ATOM     95  C   UNL A   1      44.104  37.760  32.724  1.00  0.00     0.022 A 
BRANCH  93  96
ATOM     96  S   UNL A   1      44.340  38.970  30.279  1.00  0.00     0.127 S 
ATOM     97  O   UNL A   1      44.321  40.082  31.228  1.00  0.00    -0.237 OA
ATOM     98  O   UNL A   1      45.670  38.618  29.780  1.00  0.00    -0.237 OA
ATOM     99  O   UNL A   1      43.301  38.999  29.258  1.00  0.00    -0.744 OA
ENDBRANCH  93  96
ENDBRANCH  66  89
ENDBRANCH  40  41
ENDBRANCH  33  35
ENDBRANCH  32  33
ENDBRANCH  31  32
ENDBRANCH  30  31
ENDBRANCH  29  30
ENDBRANCH  28  29
ENDBRANCH  27  28
ENDBRANCH   1  27
TORSDOF 28
ENDMDL
MODEL 2
REMARK VINA RESULT:      -9.0      2.320      8.054
REMARK SMILES CCC[NH2+][C@]1(C(=O)OCCOCCOCCOCCOC(=O)c2ccc(-c3c4nc(c(-c5cccc(S(=O)(=O)[O-])c5F)c5ccc([nH]5)c(-c5cccc(S(=O)(=O)[O-])c5F)c5nc(c(-c6cccc(S(=O)(=O)[O-])c6F)c6ccc3[nH]6)C=C5)C=C4)cc2)CCC[C@H](OC(C)(C)C)C1
REMARK SMILES IDX 14 1 13 2 12 3 11 4 10 5 9 6 8 7 6 8 7 9 5 10 86 11 95 12
REMARK SMILES IDX 87 13 89 14 88 15 4 16 3 19 2 20 1 21 90 22 91 23 92 24
REMARK SMILES IDX 93 25 94 26 15 27 16 28 17 29 18 30 19 31 20 32 21 33 22 34
REMARK SMILES IDX 23 35 24 36 85 37 25 38 84 39 26 40 27 41 28 42 78 43 29 44
REMARK SMILES IDX 83 45 77 46 79 47 30 48 82 49 76 50 75 51 31 53 63 54 43 55
REMARK SMILES IDX 62 56 44 57 47 58 61 59 80 60 45 61 46 62 60 64 81 65 48 66
REMARK SMILES IDX 32 67 33 68 41 69 34 70 36 71 42 72 35 73 37 74 38 75 39 76
REMARK SMILES IDX 40 77 64 78 65 79 73 80 66 81 68 82 74 83 67 84 69 85 70 86
REMARK SMILES IDX 71 87 72 88 49 89 50 90 58 91 51 92 53 93 59 94 52 95 54 96
REMARK SMILES IDX 55 97 56 98 57 99
REMARK H PARENT 4 17 4 18 79 52 47 63
REMARK Flexibility Score: inf
ROOT
ATOM      1  O   UNL A   1      32.721  19.973  23.609  1.00  0.00    -0.377 OA
ENDROOT
BRANCH   1   2
ATOM      2  C   UNL A   1      32.521  21.352  23.868  1.00  0.00     0.188 C 
BRANCH   2   3
ATOM      3  C   UNL A   1      32.418  21.672  25.379  1.00  0.00     0.188 C 
BRANCH   3   4
ATOM      4  O   UNL A   1      31.158  21.668  26.036  1.00  0.00    -0.376 OA
BRANCH   4   5
ATOM      5  C   UNL A   1      30.355  22.834  25.987  1.00  0.00     0.202 C 
BRANCH   5   6
ATOM      6  C   UNL A   1      30.573  24.013  26.959  1.00  0.00     0.261 C 
BRANCH   6   7
ATOM      7  O   UNL A   1      30.619  25.341  26.416  1.00  0.00    -0.459 OA
BRANCH   7   8
ATOM      8  C   UNL A   1      31.804  25.792  25.917  1.00  0.00     0.368 C 
ATOM      9  O   UNL A   1      32.895  25.318  26.223  1.00  0.00    -0.245 OA
BRANCH   8  10
ATOM     10  C   UNL A   1      31.603  26.991  24.920  1.00  0.00     0.196 C 
ATOM     11  C   UNL A   1      32.634  26.764  23.773  1.00  0.00     0.081 C 
ATOM     12  C   UNL A   1      30.163  26.879  24.369  1.00  0.00     0.113 C 
ATOM     13  C   UNL A   1      32.348  27.559  22.504  1.00  0.00     0.010 C 
ATOM     14  C   UNL A   1      29.894  27.688  23.100  1.00  0.00     0.125 C 
ATOM     15  C   UNL A   1      30.922  27.321  22.029  1.00  0.00     0.032 C 
BRANCH  10  16
ATOM     16  N   UNL A   1      31.927  28.335  25.511  1.00  0.00    -0.332 N 
ATOM     17  H   UNL A   1      31.123  28.937  25.336  1.00  0.00     0.347 HD
ATOM     18  H   UNL A   1      32.143  28.121  26.485  1.00  0.00     0.347 HD
BRANCH  16  19
ATOM     19  C   UNL A   1      33.112  29.062  25.049  1.00  0.00     0.261 C 
BRANCH  19  20
ATOM     20  C   UNL A   1      34.180  29.146  26.161  1.00  0.00     0.058 C 
ATOM     21  C   UNL A   1      33.678  28.822  27.565  1.00  0.00     0.010 C 
ENDBRANCH  19  20
ENDBRANCH  16  19
ENDBRANCH  10  16
BRANCH  14  22
ATOM     22  O   UNL A   1      29.972  29.086  23.394  1.00  0.00    -0.372 OA
BRANCH  22  23
ATOM     23  C   UNL A   1      28.902  29.930  22.949  1.00  0.00     0.060 C 
ATOM     24  C   UNL A   1      27.588  29.152  22.901  1.00  0.00     0.042 C 
ATOM     25  C   UNL A   1      28.797  31.199  23.805  1.00  0.00     0.042 C 
ATOM     26  C   UNL A   1      29.259  30.363  21.519  1.00  0.00     0.042 C 
ENDBRANCH  22  23
ENDBRANCH  14  22
ENDBRANCH   8  10
ENDBRANCH   7   8
ENDBRANCH   6   7
ENDBRANCH   5   6
ENDBRANCH   4   5
ENDBRANCH   3   4
ENDBRANCH   2   3
ENDBRANCH   1   2
BRANCH   1  27
ATOM     27  C   UNL A   1      33.152  19.227  24.733  1.00  0.00     0.188 C 
BRANCH  27  28
ATOM     28  C   UNL A   1      34.295  18.221  24.490  1.00  0.00     0.188 C 
BRANCH  28  29
ATOM     29  O   UNL A   1      35.586  18.722  24.818  1.00  0.00    -0.376 OA
BRANCH  29  30
ATOM     30  C   UNL A   1      35.942  20.057  24.517  1.00  0.00     0.202 C 
BRANCH  30  31
ATOM     31  C   UNL A   1      36.700  20.835  25.603  1.00  0.00     0.261 C 
BRANCH  31  32
ATOM     32  O   UNL A   1      37.950  21.402  25.198  1.00  0.00    -0.460 OA
BRANCH  32  33
ATOM     33  C   UNL A   1      39.035  21.043  25.925  1.00  0.00     0.338 C 
ATOM     34  O   UNL A   1      39.553  19.949  25.969  1.00  0.00    -0.246 OA
BRANCH  33  35
ATOM     35  C   UNL A   1      39.625  22.280  26.483  1.00  0.00     0.060 A 
ATOM     36  C   UNL A   1      39.065  23.504  26.098  1.00  0.00     0.016 A 
ATOM     37  C   UNL A   1      40.674  22.236  27.406  1.00  0.00     0.016 A 
ATOM     38  C   UNL A   1      39.572  24.692  26.610  1.00  0.00     0.010 A 
ATOM     39  C   UNL A   1      41.208  23.433  27.893  1.00  0.00     0.010 A 
ATOM     40  C   UNL A   1      40.680  24.664  27.466  1.00  0.00    -0.014 A 
BRANCH  40  41
ATOM     41  C   UNL A   1      41.396  25.934  27.719  1.00  0.00     0.031 A 
ATOM     42  C   UNL A   1      40.679  27.008  28.492  1.00  0.00     0.074 A 
ATOM     43  C   UNL A   1      42.678  26.095  27.348  1.00  0.00     0.049 A 
ATOM     44  N   UNL A   1      41.117  28.169  28.898  1.00  0.00    -0.248 NA
ATOM     45  C   UNL A   1      39.280  26.729  28.867  1.00  0.00     0.031 C 
ATOM     46  C   UNL A   1      43.477  25.116  26.614  1.00  0.00     0.029 A 
ATOM     47  N   UNL A   1      43.529  27.154  27.539  1.00  0.00    -0.354 N 
ATOM     48  C   UNL A   1      40.052  28.761  29.566  1.00  0.00     0.074 A 
ATOM     49  C   UNL A   1      38.938  27.843  29.493  1.00  0.00     0.031 C 
ATOM     50  C   UNL A   1      44.702  25.630  26.396  1.00  0.00     0.029 A 
ATOM     51  C   UNL A   1      44.763  26.977  26.959  1.00  0.00     0.049 A 
ATOM     52  H   UNL A   1      43.281  27.962  28.042  1.00  0.00     0.167 HD
ATOM     53  C   UNL A   1      40.012  29.955  30.200  1.00  0.00     0.034 A 
ATOM     54  C   UNL A   1      45.812  27.820  26.880  1.00  0.00     0.034 A 
ATOM     55  C   UNL A   1      41.123  30.863  30.275  1.00  0.00     0.049 A 
ATOM     56  C   UNL A   1      45.720  29.164  27.559  1.00  0.00     0.074 A 
ATOM     57  C   UNL A   1      41.188  32.092  30.906  1.00  0.00     0.029 A 
ATOM     58  N   UNL A   1      42.359  30.649  29.686  1.00  0.00    -0.354 N 
ATOM     59  N   UNL A   1      44.742  29.668  28.274  1.00  0.00    -0.248 NA
ATOM     60  C   UNL A   1      46.895  30.042  27.453  1.00  0.00     0.031 C 
ATOM     61  C   UNL A   1      42.456  32.636  30.672  1.00  0.00     0.029 A 
ATOM     62  C   UNL A   1      43.193  31.726  29.932  1.00  0.00     0.049 A 
ATOM     63  H   UNL A   1      42.608  29.848  29.170  1.00  0.00     0.167 HD
ATOM     64  C   UNL A   1      45.198  30.900  28.732  1.00  0.00     0.074 A 
ATOM     65  C   UNL A   1      46.553  31.049  28.243  1.00  0.00     0.031 C 
ATOM     66  C   UNL A   1      44.554  31.836  29.474  1.00  0.00     0.034 A 
BRANCH  53  67
ATOM     67  C   UNL A   1      38.728  30.342  30.886  1.00  0.00     0.023 A 
ATOM     68  C   UNL A   1      38.535  30.013  32.244  1.00  0.00     0.012 A 
ATOM     69  C   UNL A   1      37.748  31.093  30.209  1.00  0.00     0.148 A 
ATOM     70  C   UNL A   1      37.376  30.410  32.911  1.00  0.00     0.002 A 
ATOM     71  C   UNL A   1      36.618  31.523  30.893  1.00  0.00     0.091 A 
ATOM     72  F   UNL A   1      37.943  31.373  28.912  1.00  0.00    -0.205 F 
ATOM     73  C   UNL A   1      36.426  31.175  32.240  1.00  0.00     0.022 A 
BRANCH  71  74
ATOM     74  S   UNL A   1      35.372  32.578  30.144  1.00  0.00     0.127 S 
ATOM     75  O   UNL A   1      34.317  32.551  31.156  1.00  0.00    -0.237 OA
ATOM     76  O   UNL A   1      36.080  33.853  30.034  1.00  0.00    -0.237 OA
ATOM     77  O   UNL A   1      35.026  31.957  28.873  1.00  0.00    -0.744 OA
ENDBRANCH  71  74
ENDBRANCH  53  67
BRANCH  54  78
ATOM     78  C   UNL A   1      47.048  27.429  26.143  1.00  0.00     0.023 A 
ATOM     79  C   UNL A   1      47.167  27.710  24.767  1.00  0.00     0.012 A 
ATOM     80  C   UNL A   1      48.091  26.742  26.793  1.00  0.00     0.148 A 
ATOM     81  C   UNL A   1      48.276  27.268  24.043  1.00  0.00     0.002 A 
ATOM     82  C   UNL A   1      49.220  26.359  26.080  1.00  0.00     0.091 A 
ATOM     83  F   UNL A   1      47.954  26.466  28.097  1.00  0.00    -0.205 F 
ATOM     84  C   UNL A   1      49.305  26.599  24.700  1.00  0.00     0.022 A 
BRANCH  82  85
ATOM     85  S   UNL A   1      50.645  25.605  26.872  1.00  0.00     0.127 S 
ATOM     86  O   UNL A   1      51.552  25.420  25.742  1.00  0.00    -0.237 OA
ATOM     87  O   UNL A   1      51.047  26.644  27.822  1.00  0.00    -0.237 OA
ATOM     88  O   UNL A   1      50.148  24.386  27.493  1.00  0.00    -0.744 OA
ENDBRANCH  82  85
ENDBRANCH  54  78
BRANCH  66  89
ATOM     89  C   UNL A   1      45.322  33.082  29.837  1.00  0.00     0.023 A 
ATOM     90  C   UNL A   1      46.131  33.101  30.991  1.00  0.00     0.012 A 
ATOM     91  C   UNL A   1      45.268  34.224  29.014  1.00  0.00     0.148 A 
ATOM     92  C   UNL A   1      46.824  34.255  31.353  1.00  0.00     0.002 A 
ATOM     93  C   UNL A   1      46.009  35.351  29.349  1.00  0.00     0.091 A 
ATOM     94  F   UNL A   1      44.487  34.194  27.924  1.00  0.00    -0.205 F 
ATOM     95  C   UNL A   1      46.770  35.376  30.528  1.00  0.00     0.022 A 
BRANCH  93  96
ATOM     96  S   UNL A   1      46.080  36.804  28.296  1.00  0.00     0.127 S 
ATOM     97  O   UNL A   1      46.201  36.206  26.968  1.00  0.00    -0.237 OA
ATOM     98  O   UNL A   1      44.790  37.443  28.562  1.00  0.00    -0.237 OA
ATOM     99  O   UNL A   1      47.236  37.569  28.746  1.00  0.00    -0.744 OA
ENDBRANCH  93  96
ENDBRANCH  66  89
ENDBRANCH  40  41
ENDBRANCH  33  35
ENDBRANCH  32  33
ENDBRANCH  31  32
ENDBRANCH  30  31
ENDBRANCH  29  30
ENDBRANCH  28  29
ENDBRANCH  27  28
ENDBRANCH   1  27
TORSDOF 28
ENDMDL
MODEL 3
REMARK VINA RESULT:      -8.9      2.326      7.760
REMARK SMILES CCC[NH2+][C@]1(C(=O)OCCOCCOCCOCCOC(=O)c2ccc(-c3c4nc(c(-c5cccc(S(=O)(=O)[O-])c5F)c5ccc([nH]5)c(-c5cccc(S(=O)(=O)[O-])c5F)c5nc(c(-c6cccc(S(=O)(=O)[O-])c6F)c6ccc3[nH]6)C=C5)C=C4)cc2)CCC[C@H](OC(C)(C)C)C1
REMARK SMILES IDX 14 1 13 2 12 3 11 4 10 5 9 6 8 7 6 8 7 9 5 10 86 11 95 12
REMARK SMILES IDX 87 13 89 14 88 15 4 16 3 19 2 20 1 21 90 22 91 23 92 24
REMARK SMILES IDX 93 25 94 26 15 27 16 28 17 29 18 30 19 31 20 32 21 33 22 34
REMARK SMILES IDX 23 35 24 36 85 37 25 38 84 39 26 40 27 41 28 42 78 43 29 44
REMARK SMILES IDX 83 45 77 46 79 47 30 48 82 49 76 50 75 51 31 53 63 54 43 55
REMARK SMILES IDX 62 56 44 57 47 58 61 59 80 60 45 61 46 62 60 64 81 65 48 66
REMARK SMILES IDX 32 67 33 68 41 69 34 70 36 71 42 72 35 73 37 74 38 75 39 76
REMARK SMILES IDX 40 77 64 78 65 79 73 80 66 81 68 82 74 83 67 84 69 85 70 86
REMARK SMILES IDX 71 87 72 88 49 89 50 90 58 91 51 92 53 93 59 94 52 95 54 96
REMARK SMILES IDX 55 97 56 98 57 99
REMARK H PARENT 4 17 4 18 79 52 47 63
REMARK Flexibility Score: inf
ROOT
ATOM      1  O   UNL A   1      32.496  21.680  24.138  1.00  0.00    -0.377 OA
ENDROOT
BRANCH   1   2
ATOM      2  C   UNL A   1      33.543  22.581  23.818  1.00  0.00     0.188 C 
BRANCH   2   3
ATOM      3  C   UNL A   1      33.715  22.787  22.293  1.00  0.00     0.188 C 
BRANCH   3   4
ATOM      4  O   UNL A   1      33.294  23.994  21.674  1.00  0.00    -0.376 OA
BRANCH   4   5
ATOM      5  C   UNL A   1      33.064  25.136  22.482  1.00  0.00     0.202 C 
BRANCH   5   6
ATOM      6  C   UNL A   1      34.087  25.603  23.539  1.00  0.00     0.261 C 
BRANCH   6   7
ATOM      7  O   UNL A   1      33.872  26.869  24.178  1.00  0.00    -0.459 OA
BRANCH   7   8
ATOM      8  C   UNL A   1      33.306  26.878  25.418  1.00  0.00     0.368 C 
ATOM      9  O   UNL A   1      33.717  26.203  26.357  1.00  0.00    -0.245 OA
BRANCH   8  10
ATOM     10  C   UNL A   1      32.066  27.843  25.491  1.00  0.00     0.196 C 
ATOM     11  C   UNL A   1      32.241  28.655  26.810  1.00  0.00     0.081 C 
ATOM     12  C   UNL A   1      32.161  28.786  24.269  1.00  0.00     0.113 C 
ATOM     13  C   UNL A   1      31.394  29.920  26.885  1.00  0.00     0.010 C 
ATOM     14  C   UNL A   1      31.300  30.047  24.361  1.00  0.00     0.125 C 
ATOM     15  C   UNL A   1      31.617  30.793  25.658  1.00  0.00     0.032 C 
BRANCH  10  16
ATOM     16  N   UNL A   1      30.748  27.132  25.611  1.00  0.00    -0.332 N 
ATOM     17  H   UNL A   1      30.528  27.080  26.605  1.00  0.00     0.347 HD
ATOM     18  H   UNL A   1      30.123  27.687  25.027  1.00  0.00     0.347 HD
BRANCH  16  19
ATOM     19  C   UNL A   1      30.606  25.777  25.072  1.00  0.00     0.261 C 
BRANCH  19  20
ATOM     20  C   UNL A   1      29.787  25.783  23.763  1.00  0.00     0.058 C 
ATOM     21  C   UNL A   1      28.375  26.349  23.887  1.00  0.00     0.010 C 
ENDBRANCH  19  20
ENDBRANCH  16  19
ENDBRANCH  10  16
BRANCH  14  22
ATOM     22  O   UNL A   1      29.916  29.688  24.331  1.00  0.00    -0.372 OA
BRANCH  22  23
ATOM     23  C   UNL A   1      29.088  30.275  23.317  1.00  0.00     0.060 C 
ATOM     24  C   UNL A   1      27.736  29.567  23.251  1.00  0.00     0.042 C 
ATOM     25  C   UNL A   1      28.944  31.789  23.518  1.00  0.00     0.042 C 
ATOM     26  C   UNL A   1      29.815  30.051  21.982  1.00  0.00     0.042 C 
ENDBRANCH  22  23
ENDBRANCH  14  22
ENDBRANCH   8  10
ENDBRANCH   7   8
ENDBRANCH   6   7
ENDBRANCH   5   6
ENDBRANCH   4   5
ENDBRANCH   3   4
ENDBRANCH   2   3
ENDBRANCH   1   2
BRANCH   1  27
ATOM     27  C   UNL A   1      32.909  20.553  24.890  1.00  0.00     0.188 C 
BRANCH  27  28
ATOM     28  C   UNL A   1      34.409  20.477  25.242  1.00  0.00     0.188 C 
BRANCH  28  29
ATOM     29  O   UNL A   1      35.068  19.330  24.718  1.00  0.00    -0.376 OA
BRANCH  29  30
ATOM     30  C   UNL A   1      36.473  19.197  24.811  1.00  0.00     0.202 C 
BRANCH  30  31
ATOM     31  C   UNL A   1      37.308  20.463  24.570  1.00  0.00     0.261 C 
BRANCH  31  32
ATOM     32  O   UNL A   1      37.772  21.131  25.747  1.00  0.00    -0.460 OA
BRANCH  32  33
ATOM     33  C   UNL A   1      39.056  20.896  26.104  1.00  0.00     0.338 C 
ATOM     34  O   UNL A   1      39.698  19.890  25.895  1.00  0.00    -0.246 OA
BRANCH  33  35
ATOM     35  C   UNL A   1      39.624  22.172  26.593  1.00  0.00     0.060 A 
ATOM     36  C   UNL A   1      39.090  23.362  26.084  1.00  0.00     0.016 A 
ATOM     37  C   UNL A   1      40.624  22.200  27.569  1.00  0.00     0.016 A 
ATOM     38  C   UNL A   1      39.576  24.586  26.528  1.00  0.00     0.010 A 
ATOM     39  C   UNL A   1      41.138  23.431  27.987  1.00  0.00     0.010 A 
ATOM     40  C   UNL A   1      40.639  24.625  27.439  1.00  0.00    -0.014 A 
BRANCH  40  41
ATOM     41  C   UNL A   1      41.347  25.910  27.628  1.00  0.00     0.031 A 
ATOM     42  C   UNL A   1      40.632  27.008  28.370  1.00  0.00     0.074 A 
ATOM     43  C   UNL A   1      42.620  26.068  27.228  1.00  0.00     0.049 A 
ATOM     44  N   UNL A   1      41.067  28.188  28.721  1.00  0.00    -0.248 NA
ATOM     45  C   UNL A   1      39.244  26.732  28.780  1.00  0.00     0.031 C 
ATOM     46  C   UNL A   1      43.416  25.067  26.520  1.00  0.00     0.029 A 
ATOM     47  N   UNL A   1      43.465  27.140  27.361  1.00  0.00    -0.354 N 
ATOM     48  C   UNL A   1      40.008  28.798  29.383  1.00  0.00     0.074 A 
ATOM     49  C   UNL A   1      38.901  27.868  29.367  1.00  0.00     0.031 C 
ATOM     50  C   UNL A   1      44.632  25.582  26.260  1.00  0.00     0.029 A 
ATOM     51  C   UNL A   1      44.690  26.951  26.768  1.00  0.00     0.049 A 
ATOM     52  H   UNL A   1      43.217  27.966  27.836  1.00  0.00     0.167 HD
ATOM     53  C   UNL A   1      39.967  30.016  29.970  1.00  0.00     0.034 A 
ATOM     54  C   UNL A   1      45.730  27.799  26.637  1.00  0.00     0.034 A 
ATOM     55  C   UNL A   1      41.071  30.936  29.988  1.00  0.00     0.049 A 
ATOM     56  C   UNL A   1      45.637  29.169  27.262  1.00  0.00     0.074 A 
ATOM     57  C   UNL A   1      41.136  32.189  30.568  1.00  0.00     0.029 A 
ATOM     58  N   UNL A   1      42.299  30.709  29.387  1.00  0.00    -0.354 N 
ATOM     59  N   UNL A   1      44.666  29.692  27.974  1.00  0.00    -0.248 NA
ATOM     60  C   UNL A   1      46.801  30.052  27.100  1.00  0.00     0.031 C 
ATOM     61  C   UNL A   1      42.394  32.734  30.290  1.00  0.00     0.029 A 
ATOM     62  C   UNL A   1      43.126  31.802  29.574  1.00  0.00     0.049 A 
ATOM     63  H   UNL A   1      42.546  29.890  28.899  1.00  0.00     0.167 HD
ATOM     64  C   UNL A   1      45.119  30.946  28.374  1.00  0.00     0.074 A 
ATOM     65  C   UNL A   1      46.463  31.087  27.855  1.00  0.00     0.031 C 
ATOM     66  C   UNL A   1      44.478  31.905  29.088  1.00  0.00     0.034 A 
BRANCH  53  67
ATOM     67  C   UNL A   1      38.692  30.419  30.662  1.00  0.00     0.023 A 
ATOM     68  C   UNL A   1      38.475  30.038  32.002  1.00  0.00     0.012 A 
ATOM     69  C   UNL A   1      37.746  31.234  30.011  1.00  0.00     0.148 A 
ATOM     70  C   UNL A   1      37.324  30.447  32.677  1.00  0.00     0.002 A 
ATOM     71  C   UNL A   1      36.626  31.675  30.704  1.00  0.00     0.091 A 
ATOM     72  F   UNL A   1      37.963  31.563  28.729  1.00  0.00    -0.205 F 
ATOM     73  C   UNL A   1      36.409  31.275  32.033  1.00  0.00     0.022 A 
BRANCH  71  74
ATOM     74  S   UNL A   1      35.427  32.806  29.993  1.00  0.00     0.127 S 
ATOM     75  O   UNL A   1      34.407  32.851  31.040  1.00  0.00    -0.237 OA
ATOM     76  O   UNL A   1      36.212  34.033  29.853  1.00  0.00    -0.237 OA
ATOM     77  O   UNL A   1      34.998  32.206  28.738  1.00  0.00    -0.744 OA
ENDBRANCH  71  74
ENDBRANCH  53  67
BRANCH  54  78
ATOM     78  C   UNL A   1      46.956  27.390  25.894  1.00  0.00     0.023 A 
ATOM     79  C   UNL A   1      47.998  26.720  26.567  1.00  0.00     0.012 A 
ATOM     80  C   UNL A   1      47.112  27.699  24.529  1.00  0.00     0.148 A 
ATOM     81  C   UNL A   1      49.190  26.414  25.909  1.00  0.00     0.002 A 
ATOM     82  C   UNL A   1      48.277  27.337  23.864  1.00  0.00     0.091 A 
ATOM     83  F   UNL A   1      46.121  28.354  23.909  1.00  0.00    -0.205 F 
ATOM     84  C   UNL A   1      49.328  26.716  24.557  1.00  0.00     0.022 A 
BRANCH  82  85
ATOM     85  S   UNL A   1      48.486  27.575  22.097  1.00  0.00     0.127 S 
ATOM     86  O   UNL A   1      49.697  28.390  22.046  1.00  0.00    -0.237 OA
ATOM     87  O   UNL A   1      48.648  26.200  21.624  1.00  0.00    -0.237 OA
ATOM     88  O   UNL A   1      47.264  28.224  21.642  1.00  0.00    -0.744 OA
ENDBRANCH  82  85
ENDBRANCH  54  78
BRANCH  66  89
ATOM     89  C   UNL A   1      45.241  33.171  29.388  1.00  0.00     0.023 A 
ATOM     90  C   UNL A   1      46.049  33.254  30.539  1.00  0.00     0.012 A 
ATOM     91  C   UNL A   1      45.183  34.270  28.507  1.00  0.00     0.148 A 
ATOM     92  C   UNL A   1      46.737  34.428  30.842  1.00  0.00     0.002 A 
ATOM     93  C   UNL A   1      45.918  35.416  28.784  1.00  0.00     0.091 A 
ATOM     94  F   UNL A   1      44.402  34.181  27.420  1.00  0.00    -0.205 F 
ATOM     95  C   UNL A   1      46.679  35.504  29.961  1.00  0.00     0.022 A 
BRANCH  93  96
ATOM     96  S   UNL A   1      45.983  36.814  27.658  1.00  0.00     0.127 S 
ATOM     97  O   UNL A   1      46.349  37.905  28.559  1.00  0.00    -0.237 OA
ATOM     98  O   UNL A   1      47.039  36.412  26.727  1.00  0.00    -0.237 OA
ATOM     99  O   UNL A   1      44.657  36.911  27.062  1.00  0.00    -0.744 OA
ENDBRANCH  93  96
ENDBRANCH  66  89
ENDBRANCH  40  41
ENDBRANCH  33  35
ENDBRANCH  32  33
ENDBRANCH  31  32
ENDBRANCH  30  31
ENDBRANCH  29  30
ENDBRANCH  28  29
ENDBRANCH  27  28
ENDBRANCH   1  27
TORSDOF 28
ENDMDL
