MODEL 1
REMARK VINA RESULT:     -10.2      0.000      0.000
REMARK SMILES C=C(C)COc1ccc2c(C)c(CC(=O)OCCOCCOCCOCCOC(=O)c3ccc(-c4c5nc(c(-c6cccc(S(=O)(=O)[O-])c6F)c6ccc([nH]6)c(-c6cccc(S(=O)(=O)[O-])c6F)c6nc(c(-c7cccc(S(=O)(=O)[O-])c7F)c7ccc4[nH]7)C=C6)C=C5)cc3)c(=O)oc2c1
REMARK SMILES IDX 21 1 20 2 19 3 18 4 17 5 16 6 14 7 15 8 13 9 12 10 6 11 7 12
REMARK SMILES IDX 98 13 8 14 97 15 9 16 96 17 10 18 94 19 11 20 95 21 5 22
REMARK SMILES IDX 4 23 2 24 1 25 3 26 22 27 23 28 24 29 25 30 26 31 27 32
REMARK SMILES IDX 28 33 29 34 30 35 31 36 32 37 93 38 33 39 92 40 34 41 35 42
REMARK SMILES IDX 36 43 86 44 37 45 91 46 85 47 87 48 38 49 90 50 84 51 83 52
REMARK SMILES IDX 39 54 71 55 51 56 70 57 52 58 55 59 69 60 88 61 53 62 54 63
REMARK SMILES IDX 68 65 89 66 56 67 40 68 41 69 49 70 42 71 44 72 50 73 43 74
REMARK SMILES IDX 45 75 46 76 47 77 48 78 72 79 73 80 81 81 74 82 76 83 82 84
REMARK SMILES IDX 75 85 77 86 78 87 79 88 80 89 57 90 58 91 66 92 59 93 61 94
REMARK SMILES IDX 67 95 60 96 62 97 63 98 64 99 65 100
REMARK H PARENT 87 53 55 64
REMARK Flexibility Score: inf
ROOT
ATOM      1  C   UNL A   1      33.392  26.251  23.409  1.00  0.00     0.188 C 
ENDROOT
BRANCH   1   2
ATOM      2  C   UNL A   1      34.329  25.089  23.802  1.00  0.00     0.188 C 
BRANCH   2   3
ATOM      3  O   UNL A   1      34.775  24.959  25.144  1.00  0.00    -0.376 OA
BRANCH   3   4
ATOM      4  C   UNL A   1      35.952  24.214  25.423  1.00  0.00     0.202 C 
BRANCH   4   5
ATOM      5  C   UNL A   1      35.915  22.678  25.600  1.00  0.00     0.261 C 
BRANCH   5   6
ATOM      6  O   UNL A   1      35.349  21.897  24.527  1.00  0.00    -0.463 OA
BRANCH   6   7
ATOM      7  C   UNL A   1      34.913  20.652  24.831  1.00  0.00     0.310 C 
ATOM      8  O   UNL A   1      35.656  19.687  24.998  1.00  0.00    -0.252 OA
BRANCH   7   9
ATOM      9  C   UNL A   1      33.395  20.530  25.039  1.00  0.00     0.166 C 
BRANCH   9  10
ATOM     10  C   UNL A   1      32.472  21.712  24.771  1.00  0.00     0.052 A 
ATOM     11  C   UNL A   1      29.558  25.829  24.192  1.00  0.00     0.123 A 
ATOM     12  C   UNL A   1      29.980  25.874  25.515  1.00  0.00     0.047 A 
ATOM     13  C   UNL A   1      30.006  24.814  23.356  1.00  0.00     0.094 A 
ATOM     14  C   UNL A   1      30.793  24.846  26.020  1.00  0.00     0.016 A 
ATOM     15  C   UNL A   1      30.799  23.794  23.879  1.00  0.00     0.142 A 
ATOM     16  C   UNL A   1      31.206  23.770  25.209  1.00  0.00     0.021 A 
ATOM     17  O   UNL A   1      31.157  22.774  22.986  1.00  0.00    -0.422 OA
ATOM     18  C   UNL A   1      32.079  22.658  25.663  1.00  0.00    -0.029 A 
ATOM     19  C   UNL A   1      31.947  21.711  23.375  1.00  0.00     0.340 A 
ATOM     20  C   UNL A   1      32.534  22.721  27.101  1.00  0.00     0.046 C 
ATOM     21  O   UNL A   1      32.175  20.776  22.615  1.00  0.00    -0.246 OA
BRANCH  11  22
ATOM     22  O   UNL A   1      28.755  26.823  23.703  1.00  0.00    -0.489 OA
BRANCH  22  23
ATOM     23  C   UNL A   1      29.517  27.893  23.112  1.00  0.00     0.260 C 
BRANCH  23  24
ATOM     24  C   UNL A   1      28.796  29.222  23.170  1.00  0.00    -0.043 C 
ATOM     25  C   UNL A   1      29.456  30.384  23.326  1.00  0.00     0.011 C 
ATOM     26  C   UNL A   1      27.306  29.180  22.979  1.00  0.00     0.042 C 
ENDBRANCH  23  24
ENDBRANCH  22  23
ENDBRANCH  11  22
ENDBRANCH   9  10
ENDBRANCH   7   9
ENDBRANCH   6   7
ENDBRANCH   5   6
ENDBRANCH   4   5
ENDBRANCH   3   4
ENDBRANCH   2   3
ENDBRANCH   1   2
BRANCH   1  27
ATOM     27  O   UNL A   1      34.039  27.484  23.208  1.00  0.00    -0.377 OA
BRANCH  27  28
ATOM     28  C   UNL A   1      33.739  28.548  24.087  1.00  0.00     0.188 C 
BRANCH  28  29
ATOM     29  C   UNL A   1      32.460  28.518  24.947  1.00  0.00     0.188 C 
BRANCH  29  30
ATOM     30  O   UNL A   1      32.659  28.699  26.342  1.00  0.00    -0.376 OA
BRANCH  30  31
ATOM     31  C   UNL A   1      31.720  29.469  27.074  1.00  0.00     0.202 C 
BRANCH  31  32
ATOM     32  C   UNL A   1      31.778  30.992  26.877  1.00  0.00     0.261 C 
BRANCH  32  33
ATOM     33  O   UNL A   1      33.076  31.516  26.587  1.00  0.00    -0.460 OA
BRANCH  33  34
ATOM     34  C   UNL A   1      33.551  32.429  27.459  1.00  0.00     0.338 C 
ATOM     35  O   UNL A   1      32.952  33.402  27.897  1.00  0.00    -0.246 OA
BRANCH  34  36
ATOM     36  C   UNL A   1      34.843  31.941  27.969  1.00  0.00     0.060 A 
ATOM     37  C   UNL A   1      34.949  30.582  28.290  1.00  0.00     0.016 A 
ATOM     38  C   UNL A   1      35.950  32.789  28.080  1.00  0.00     0.016 A 
ATOM     39  C   UNL A   1      36.161  30.068  28.738  1.00  0.00     0.010 A 
ATOM     40  C   UNL A   1      37.158  32.278  28.567  1.00  0.00     0.010 A 
ATOM     41  C   UNL A   1      37.256  30.920  28.920  1.00  0.00    -0.014 A 
BRANCH  41  42
ATOM     42  C   UNL A   1      38.427  30.400  29.658  1.00  0.00     0.031 A 
ATOM     43  C   UNL A   1      38.619  30.833  31.085  1.00  0.00     0.074 A 
ATOM     44  C   UNL A   1      39.255  29.500  29.098  1.00  0.00     0.049 A 
ATOM     45  N   UNL A   1      39.508  30.441  31.957  1.00  0.00    -0.248 NA
ATOM     46  C   UNL A   1      37.671  31.836  31.599  1.00  0.00     0.031 C 
ATOM     47  C   UNL A   1      39.155  28.998  27.728  1.00  0.00     0.029 A 
ATOM     48  N   UNL A   1      40.347  28.854  29.618  1.00  0.00    -0.354 N 
ATOM     49  C   UNL A   1      39.240  31.157  33.116  1.00  0.00     0.074 A 
ATOM     50  C   UNL A   1      38.113  32.019  32.834  1.00  0.00     0.031 C 
ATOM     51  C   UNL A   1      40.161  28.132  27.510  1.00  0.00     0.029 A 
ATOM     52  C   UNL A   1      40.982  28.035  28.716  1.00  0.00     0.049 A 
ATOM     53  H   UNL A   1      40.648  28.966  30.548  1.00  0.00     0.167 HD
ATOM     54  C   UNL A   1      39.869  31.096  34.312  1.00  0.00     0.034 A 
ATOM     55  C   UNL A   1      42.107  27.305  28.848  1.00  0.00     0.034 A 
ATOM     56  C   UNL A   1      40.993  30.242  34.585  1.00  0.00     0.049 A 
ATOM     57  C   UNL A   1      42.811  27.284  30.181  1.00  0.00     0.074 A 
ATOM     58  C   UNL A   1      41.684  30.081  35.772  1.00  0.00     0.029 A 
ATOM     59  N   UNL A   1      41.609  29.423  33.649  1.00  0.00    -0.354 N 
ATOM     60  N   UNL A   1      42.478  27.877  31.303  1.00  0.00    -0.248 NA
ATOM     61  C   UNL A   1      44.026  26.463  30.275  1.00  0.00     0.031 C 
ATOM     62  C   UNL A   1      42.744  29.197  35.543  1.00  0.00     0.029 A 
ATOM     63  C   UNL A   1      42.684  28.769  34.226  1.00  0.00     0.049 A 
ATOM     64  H   UNL A   1      41.322  29.321  32.713  1.00  0.00     0.167 HD
ATOM     65  C   UNL A   1      43.423  27.476  32.243  1.00  0.00     0.074 A 
ATOM     66  C   UNL A   1      44.320  26.565  31.563  1.00  0.00     0.031 C 
ATOM     67  C   UNL A   1      43.548  27.839  33.544  1.00  0.00     0.034 A 
BRANCH  54  68
ATOM     68  C   UNL A   1      39.354  31.982  35.416  1.00  0.00     0.023 A 
ATOM     69  C   UNL A   1      38.411  31.484  36.339  1.00  0.00     0.012 A 
ATOM     70  C   UNL A   1      39.838  33.296  35.564  1.00  0.00     0.148 A 
ATOM     71  C   UNL A   1      37.934  32.290  37.371  1.00  0.00     0.002 A 
ATOM     72  C   UNL A   1      39.395  34.077  36.624  1.00  0.00     0.091 A 
ATOM     73  F   UNL A   1      40.714  33.759  34.661  1.00  0.00    -0.205 F 
ATOM     74  C   UNL A   1      38.434  33.581  37.520  1.00  0.00     0.022 A 
BRANCH  72  75
ATOM     75  S   UNL A   1      40.034  35.723  36.947  1.00  0.00     0.127 S 
ATOM     76  O   UNL A   1      39.650  36.434  35.729  1.00  0.00    -0.237 OA
ATOM     77  O   UNL A   1      39.284  36.112  38.142  1.00  0.00    -0.237 OA
ATOM     78  O   UNL A   1      41.468  35.568  37.151  1.00  0.00    -0.744 OA
ENDBRANCH  72  75
ENDBRANCH  54  68
BRANCH  55  79
ATOM     79  C   UNL A   1      42.633  26.521  27.695  1.00  0.00     0.023 A 
ATOM     80  C   UNL A   1      43.529  27.119  26.786  1.00  0.00     0.012 A 
ATOM     81  C   UNL A   1      42.241  25.184  27.492  1.00  0.00     0.148 A 
ATOM     82  C   UNL A   1      43.996  26.409  25.679  1.00  0.00     0.002 A 
ATOM     83  C   UNL A   1      42.756  24.465  26.420  1.00  0.00     0.091 A 
ATOM     84  F   UNL A   1      41.373  24.640  28.357  1.00  0.00    -0.205 F 
ATOM     85  C   UNL A   1      43.618  25.082  25.501  1.00  0.00     0.022 A 
BRANCH  83  86
ATOM     86  S   UNL A   1      42.420  22.717  26.181  1.00  0.00     0.127 S 
ATOM     87  O   UNL A   1      43.093  22.124  27.335  1.00  0.00    -0.237 OA
ATOM     88  O   UNL A   1      40.959  22.685  26.235  1.00  0.00    -0.237 OA
ATOM     89  O   UNL A   1      42.984  22.382  24.882  1.00  0.00    -0.744 OA
ENDBRANCH  83  86
ENDBRANCH  55  79
BRANCH  67  90
ATOM     90  C   UNL A   1      44.679  27.222  34.329  1.00  0.00     0.023 A 
ATOM     91  C   UNL A   1      45.962  27.806  34.298  1.00  0.00     0.012 A 
ATOM     92  C   UNL A   1      44.460  26.083  35.130  1.00  0.00     0.148 A 
ATOM     93  C   UNL A   1      47.019  27.235  35.005  1.00  0.00     0.002 A 
ATOM     94  C   UNL A   1      45.505  25.553  35.877  1.00  0.00     0.091 A 
ATOM     95  F   UNL A   1      43.238  25.532  35.138  1.00  0.00    -0.205 F 
ATOM     96  C   UNL A   1      46.789  26.115  35.800  1.00  0.00     0.022 A 
BRANCH  94  97
ATOM     97  S   UNL A   1      45.278  24.176  37.007  1.00  0.00     0.127 S 
ATOM     98  O   UNL A   1      45.016  23.073  36.084  1.00  0.00    -0.237 OA
ATOM     99  O   UNL A   1      46.574  24.112  37.683  1.00  0.00    -0.237 OA
ATOM    100  O   UNL A   1      44.165  24.546  37.871  1.00  0.00    -0.744 OA
ENDBRANCH  94  97
ENDBRANCH  67  90
ENDBRANCH  41  42
ENDBRANCH  34  36
ENDBRANCH  33  34
ENDBRANCH  32  33
ENDBRANCH  31  32
ENDBRANCH  30  31
ENDBRANCH  29  30
ENDBRANCH  28  29
ENDBRANCH  27  28
ENDBRANCH   1  27
TORSDOF 27
ENDMDL
MODEL 2
REMARK VINA RESULT:      -9.3      0.626      7.428
REMARK SMILES C=C(C)COc1ccc2c(C)c(CC(=O)OCCOCCOCCOCCOC(=O)c3ccc(-c4c5nc(c(-c6cccc(S(=O)(=O)[O-])c6F)c6ccc([nH]6)c(-c6cccc(S(=O)(=O)[O-])c6F)c6nc(c(-c7cccc(S(=O)(=O)[O-])c7F)c7ccc4[nH]7)C=C6)C=C5)cc3)c(=O)oc2c1
REMARK SMILES IDX 21 1 20 2 19 3 18 4 17 5 16 6 14 7 15 8 13 9 12 10 6 11 7 12
REMARK SMILES IDX 98 13 8 14 97 15 9 16 96 17 10 18 94 19 11 20 95 21 5 22
REMARK SMILES IDX 4 23 2 24 1 25 3 26 22 27 23 28 24 29 25 30 26 31 27 32
REMARK SMILES IDX 28 33 29 34 30 35 31 36 32 37 93 38 33 39 92 40 34 41 35 42
REMARK SMILES IDX 36 43 86 44 37 45 91 46 85 47 87 48 38 49 90 50 84 51 83 52
REMARK SMILES IDX 39 54 71 55 51 56 70 57 52 58 55 59 69 60 88 61 53 62 54 63
REMARK SMILES IDX 68 65 89 66 56 67 40 68 41 69 49 70 42 71 44 72 50 73 43 74
REMARK SMILES IDX 45 75 46 76 47 77 48 78 72 79 73 80 81 81 74 82 76 83 82 84
REMARK SMILES IDX 75 85 77 86 78 87 79 88 80 89 57 90 58 91 66 92 59 93 61 94
REMARK SMILES IDX 67 95 60 96 62 97 63 98 64 99 65 100
REMARK H PARENT 87 53 55 64
REMARK Flexibility Score: inf
ROOT
ATOM      1  C   UNL A   1      33.600  25.997  23.241  1.00  0.00     0.188 C 
ENDROOT
BRANCH   1   2
ATOM      2  C   UNL A   1      34.471  24.862  23.821  1.00  0.00     0.188 C 
BRANCH   2   3
ATOM      3  O   UNL A   1      34.676  24.769  25.223  1.00  0.00    -0.376 OA
BRANCH   3   4
ATOM      4  C   UNL A   1      35.777  24.024  25.723  1.00  0.00     0.202 C 
BRANCH   4   5
ATOM      5  C   UNL A   1      35.768  22.478  25.744  1.00  0.00     0.261 C 
BRANCH   5   6
ATOM      6  O   UNL A   1      35.248  21.800  24.582  1.00  0.00    -0.463 OA
BRANCH   6   7
ATOM      7  C   UNL A   1      34.769  20.546  24.759  1.00  0.00     0.310 C 
ATOM      8  O   UNL A   1      35.476  19.571  25.004  1.00  0.00    -0.252 OA
BRANCH   7   9
ATOM      9  C   UNL A   1      33.238  20.424  24.712  1.00  0.00     0.166 C 
BRANCH   9  10
ATOM     10  C   UNL A   1      32.360  21.661  24.565  1.00  0.00     0.052 A 
ATOM     11  C   UNL A   1      29.582  25.908  24.418  1.00  0.00     0.123 A 
ATOM     12  C   UNL A   1      29.929  25.755  25.754  1.00  0.00     0.047 A 
ATOM     13  C   UNL A   1      30.053  25.006  23.472  1.00  0.00     0.094 A 
ATOM     14  C   UNL A   1      30.687  24.641  26.152  1.00  0.00     0.016 A 
ATOM     15  C   UNL A   1      30.791  23.899  23.888  1.00  0.00     0.142 A 
ATOM     16  C   UNL A   1      31.120  23.676  25.220  1.00  0.00     0.021 A 
ATOM     17  O   UNL A   1      31.175  23.003  22.880  1.00  0.00    -0.422 OA
ATOM     18  C   UNL A   1      31.939  22.485  25.560  1.00  0.00    -0.029 A 
ATOM     19  C   UNL A   1      31.916  21.871  23.157  1.00  0.00     0.340 A 
ATOM     20  C   UNL A   1      32.313  22.332  27.013  1.00  0.00     0.046 C 
ATOM     21  O   UNL A   1      32.164  21.045  22.285  1.00  0.00    -0.246 OA
BRANCH  11  22
ATOM     22  O   UNL A   1      28.832  26.986  24.032  1.00  0.00    -0.489 OA
BRANCH  22  23
ATOM     23  C   UNL A   1      29.294  27.548  22.789  1.00  0.00     0.260 C 
BRANCH  23  24
ATOM     24  C   UNL A   1      28.995  29.028  22.673  1.00  0.00    -0.043 C 
ATOM     25  C   UNL A   1      28.000  29.609  23.366  1.00  0.00     0.011 C 
ATOM     26  C   UNL A   1      29.911  29.824  21.788  1.00  0.00     0.042 C 
ENDBRANCH  23  24
ENDBRANCH  22  23
ENDBRANCH  11  22
ENDBRANCH   9  10
ENDBRANCH   7   9
ENDBRANCH   6   7
ENDBRANCH   5   6
ENDBRANCH   4   5
ENDBRANCH   3   4
ENDBRANCH   2   3
ENDBRANCH   1   2
BRANCH   1  27
ATOM     27  O   UNL A   1      34.282  27.207  23.024  1.00  0.00    -0.377 OA
BRANCH  27  28
ATOM     28  C   UNL A   1      33.685  28.403  23.484  1.00  0.00     0.188 C 
BRANCH  28  29
ATOM     29  C   UNL A   1      32.304  28.377  24.168  1.00  0.00     0.188 C 
BRANCH  29  30
ATOM     30  O   UNL A   1      32.327  28.269  25.585  1.00  0.00    -0.376 OA
BRANCH  30  31
ATOM     31  C   UNL A   1      31.483  29.113  26.350  1.00  0.00     0.202 C 
BRANCH  31  32
ATOM     32  C   UNL A   1      31.765  30.621  26.272  1.00  0.00     0.261 C 
BRANCH  32  33
ATOM     33  O   UNL A   1      33.148  30.982  26.338  1.00  0.00    -0.460 OA
BRANCH  33  34
ATOM     34  C   UNL A   1      33.467  31.920  27.253  1.00  0.00     0.338 C 
ATOM     35  O   UNL A   1      32.768  32.855  27.617  1.00  0.00    -0.246 OA
BRANCH  34  36
ATOM     36  C   UNL A   1      34.723  31.510  27.904  1.00  0.00     0.060 A 
ATOM     37  C   UNL A   1      34.824  30.188  28.354  1.00  0.00     0.016 A 
ATOM     38  C   UNL A   1      35.804  32.390  28.025  1.00  0.00     0.016 A 
ATOM     39  C   UNL A   1      36.004  29.744  28.941  1.00  0.00     0.010 A 
ATOM     40  C   UNL A   1      36.976  31.952  28.649  1.00  0.00     0.010 A 
ATOM     41  C   UNL A   1      37.067  30.634  29.131  1.00  0.00    -0.014 A 
BRANCH  41  42
ATOM     42  C   UNL A   1      38.183  30.209  30.003  1.00  0.00     0.031 A 
ATOM     43  C   UNL A   1      39.173  29.218  29.459  1.00  0.00     0.074 A 
ATOM     44  C   UNL A   1      38.356  30.753  31.221  1.00  0.00     0.049 A 
ATOM     45  N   UNL A   1      40.276  28.769  29.995  1.00  0.00    -0.248 NA
ATOM     46  C   UNL A   1      38.884  28.666  28.124  1.00  0.00     0.031 C 
ATOM     47  C   UNL A   1      37.468  31.733  31.843  1.00  0.00     0.029 A 
ATOM     48  N   UNL A   1      39.342  30.549  32.152  1.00  0.00    -0.354 N 
ATOM     49  C   UNL A   1      40.806  27.874  29.075  1.00  0.00     0.074 A 
ATOM     50  C   UNL A   1      39.897  27.831  27.951  1.00  0.00     0.031 C 
ATOM     51  C   UNL A   1      37.941  32.033  33.065  1.00  0.00     0.029 A 
ATOM     52  C   UNL A   1      39.151  31.254  33.316  1.00  0.00     0.049 A 
ATOM     53  H   UNL A   1      40.112  29.955  32.001  1.00  0.00     0.167 HD
ATOM     54  C   UNL A   1      41.952  27.160  29.154  1.00  0.00     0.034 A 
ATOM     55  C   UNL A   1      39.867  31.252  34.459  1.00  0.00     0.034 A 
ATOM     56  C   UNL A   1      42.849  27.202  30.277  1.00  0.00     0.049 A 
ATOM     57  C   UNL A   1      41.120  30.417  34.534  1.00  0.00     0.074 A 
ATOM     58  C   UNL A   1      44.052  26.542  30.443  1.00  0.00     0.029 A 
ATOM     59  N   UNL A   1      42.627  27.929  31.438  1.00  0.00    -0.354 N 
ATOM     60  N   UNL A   1      41.671  29.664  33.611  1.00  0.00    -0.248 NA
ATOM     61  C   UNL A   1      41.869  30.461  35.797  1.00  0.00     0.031 C 
ATOM     62  C   UNL A   1      44.537  26.834  31.722  1.00  0.00     0.029 A 
ATOM     63  C   UNL A   1      43.661  27.717  32.334  1.00  0.00     0.049 A 
ATOM     64  H   UNL A   1      41.849  28.511  31.600  1.00  0.00     0.167 HD
ATOM     65  C   UNL A   1      42.845  29.171  34.171  1.00  0.00     0.074 A 
ATOM     66  C   UNL A   1      42.940  29.738  35.500  1.00  0.00     0.031 C 
ATOM     67  C   UNL A   1      43.756  28.315  33.642  1.00  0.00     0.034 A 
BRANCH  54  68
ATOM     68  C   UNL A   1      42.298  26.267  27.991  1.00  0.00     0.023 A 
ATOM     69  C   UNL A   1      43.143  26.740  26.966  1.00  0.00     0.012 A 
ATOM     70  C   UNL A   1      41.818  24.944  27.937  1.00  0.00     0.148 A 
ATOM     71  C   UNL A   1      43.479  25.921  25.889  1.00  0.00     0.002 A 
ATOM     72  C   UNL A   1      42.197  24.118  26.886  1.00  0.00     0.091 A 
ATOM     73  F   UNL A   1      40.996  24.523  28.908  1.00  0.00    -0.205 F 
ATOM     74  C   UNL A   1      43.015  24.608  25.855  1.00  0.00     0.022 A 
BRANCH  72  75
ATOM     75  S   UNL A   1      41.717  22.390  26.790  1.00  0.00     0.127 S 
ATOM     76  O   UNL A   1      40.315  22.450  27.200  1.00  0.00    -0.237 OA
ATOM     77  O   UNL A   1      41.927  22.094  25.373  1.00  0.00    -0.237 OA
ATOM     78  O   UNL A   1      42.601  21.675  27.701  1.00  0.00    -0.744 OA
ENDBRANCH  72  75
ENDBRANCH  54  68
BRANCH  55  79
ATOM     79  C   UNL A   1      39.429  32.078  35.619  1.00  0.00     0.023 A 
ATOM     80  C   UNL A   1      38.535  31.543  36.568  1.00  0.00     0.012 A 
ATOM     81  C   UNL A   1      39.893  33.398  35.782  1.00  0.00     0.148 A 
ATOM     82  C   UNL A   1      38.084  32.320  37.636  1.00  0.00     0.002 A 
ATOM     83  C   UNL A   1      39.485  34.145  36.880  1.00  0.00     0.091 A 
ATOM     84  F   UNL A   1      40.728  33.895  34.859  1.00  0.00    -0.205 F 
ATOM     85  C   UNL A   1      38.566  33.616  37.798  1.00  0.00     0.022 A 
BRANCH  83  86
ATOM     86  S   UNL A   1      40.147  35.777  37.234  1.00  0.00     0.127 S 
ATOM     87  O   UNL A   1      39.873  36.487  35.987  1.00  0.00    -0.237 OA
ATOM     88  O   UNL A   1      39.326  36.190  38.372  1.00  0.00    -0.237 OA
ATOM     89  O   UNL A   1      41.554  35.572  37.546  1.00  0.00    -0.744 OA
ENDBRANCH  83  86
ENDBRANCH  55  79
BRANCH  67  90
ATOM     90  C   UNL A   1      44.953  27.967  34.491  1.00  0.00     0.023 A 
ATOM     91  C   UNL A   1      46.124  28.749  34.418  1.00  0.00     0.012 A 
ATOM     92  C   UNL A   1      44.903  26.884  35.393  1.00  0.00     0.148 A 
ATOM     93  C   UNL A   1      47.242  28.426  35.186  1.00  0.00     0.002 A 
ATOM     94  C   UNL A   1      46.002  26.603  36.196  1.00  0.00     0.091 A 
ATOM     95  F   UNL A   1      43.787  26.142  35.441  1.00  0.00    -0.205 F 
ATOM     96  C   UNL A   1      47.178  27.360  36.080  1.00  0.00     0.022 A 
BRANCH  94  97
ATOM     97  S   UNL A   1      45.974  25.315  37.447  1.00  0.00     0.127 S 
ATOM     98  O   UNL A   1      44.836  25.723  38.269  1.00  0.00    -0.237 OA
ATOM     99  O   UNL A   1      45.750  24.111  36.647  1.00  0.00    -0.237 OA
ATOM    100  O   UNL A   1      47.272  25.368  38.106  1.00  0.00    -0.744 OA
ENDBRANCH  94  97
ENDBRANCH  67  90
ENDBRANCH  41  42
ENDBRANCH  34  36
ENDBRANCH  33  34
ENDBRANCH  32  33
ENDBRANCH  31  32
ENDBRANCH  30  31
ENDBRANCH  29  30
ENDBRANCH  28  29
ENDBRANCH  27  28
ENDBRANCH   1  27
TORSDOF 27
ENDMDL
MODEL 3
REMARK VINA RESULT:      -8.7      1.911      2.250
REMARK SMILES C=C(C)COc1ccc2c(C)c(CC(=O)OCCOCCOCCOCCOC(=O)c3ccc(-c4c5nc(c(-c6cccc(S(=O)(=O)[O-])c6F)c6ccc([nH]6)c(-c6cccc(S(=O)(=O)[O-])c6F)c6nc(c(-c7cccc(S(=O)(=O)[O-])c7F)c7ccc4[nH]7)C=C6)C=C5)cc3)c(=O)oc2c1
REMARK SMILES IDX 21 1 20 2 19 3 18 4 17 5 16 6 14 7 15 8 13 9 12 10 6 11 7 12
REMARK SMILES IDX 98 13 8 14 97 15 9 16 96 17 10 18 94 19 11 20 95 21 5 22
REMARK SMILES IDX 4 23 2 24 1 25 3 26 22 27 23 28 24 29 25 30 26 31 27 32
REMARK SMILES IDX 28 33 29 34 30 35 31 36 32 37 93 38 33 39 92 40 34 41 35 42
REMARK SMILES IDX 36 43 86 44 37 45 91 46 85 47 87 48 38 49 90 50 84 51 83 52
REMARK SMILES IDX 39 54 71 55 51 56 70 57 52 58 55 59 69 60 88 61 53 62 54 63
REMARK SMILES IDX 68 65 89 66 56 67 40 68 41 69 49 70 42 71 44 72 50 73 43 74
REMARK SMILES IDX 45 75 46 76 47 77 48 78 72 79 73 80 81 81 74 82 76 83 82 84
REMARK SMILES IDX 75 85 77 86 78 87 79 88 80 89 57 90 58 91 66 92 59 93 61 94
REMARK SMILES IDX 67 95 60 96 62 97 63 98 64 99 65 100
REMARK H PARENT 87 53 55 64
REMARK Flexibility Score: inf
ROOT
ATOM      1  C   UNL A   1      33.540  25.396  22.130  1.00  0.00     0.188 C 
ENDROOT
BRANCH   1   2
ATOM      2  C   UNL A   1      34.470  24.455  22.924  1.00  0.00     0.188 C 
BRANCH   2   3
ATOM      3  O   UNL A   1      34.594  24.600  24.331  1.00  0.00    -0.376 OA
BRANCH   3   4
ATOM      4  C   UNL A   1      35.765  24.130  24.985  1.00  0.00     0.202 C 
BRANCH   4   5
ATOM      5  C   UNL A   1      35.957  22.633  25.325  1.00  0.00     0.261 C 
BRANCH   5   6
ATOM      6  O   UNL A   1      35.637  21.671  24.299  1.00  0.00    -0.463 OA
BRANCH   6   7
ATOM      7  C   UNL A   1      35.223  20.448  24.705  1.00  0.00     0.310 C 
ATOM      8  O   UNL A   1      35.984  19.525  24.989  1.00  0.00    -0.252 OA
BRANCH   7   9
ATOM      9  C   UNL A   1      33.702  20.302  24.870  1.00  0.00     0.166 C 
BRANCH   9  10
ATOM     10  C   UNL A   1      32.793  21.524  24.850  1.00  0.00     0.052 A 
ATOM     11  C   UNL A   1      29.955  25.727  25.098  1.00  0.00     0.123 A 
ATOM     12  C   UNL A   1      30.495  25.585  26.370  1.00  0.00     0.047 A 
ATOM     13  C   UNL A   1      30.298  24.828  24.096  1.00  0.00     0.094 A 
ATOM     14  C   UNL A   1      31.321  24.485  26.656  1.00  0.00     0.016 A 
ATOM     15  C   UNL A   1      31.106  23.734  24.402  1.00  0.00     0.142 A 
ATOM     16  C   UNL A   1      31.629  23.523  25.674  1.00  0.00     0.021 A 
ATOM     17  O   UNL A   1      31.353  22.839  23.352  1.00  0.00    -0.422 OA
ATOM     18  C   UNL A   1      32.507  22.346  25.893  1.00  0.00    -0.029 A 
ATOM     19  C   UNL A   1      32.145  21.720  23.520  1.00  0.00     0.340 A 
ATOM     20  C   UNL A   1      33.091  22.205  27.277  1.00  0.00     0.046 C 
ATOM     21  O   UNL A   1      32.277  20.894  22.624  1.00  0.00    -0.246 OA
BRANCH  11  22
ATOM     22  O   UNL A   1      29.140  26.791  24.822  1.00  0.00    -0.489 OA
BRANCH  22  23
ATOM     23  C   UNL A   1      28.811  26.871  23.423  1.00  0.00     0.260 C 
BRANCH  23  24
ATOM     24  C   UNL A   1      28.500  28.284  22.978  1.00  0.00    -0.043 C 
ATOM     25  C   UNL A   1      27.275  28.821  23.119  1.00  0.00     0.011 C 
ATOM     26  C   UNL A   1      29.652  29.077  22.428  1.00  0.00     0.042 C 
ENDBRANCH  23  24
ENDBRANCH  22  23
ENDBRANCH  11  22
ENDBRANCH   9  10
ENDBRANCH   7   9
ENDBRANCH   6   7
ENDBRANCH   5   6
ENDBRANCH   4   5
ENDBRANCH   3   4
ENDBRANCH   2   3
ENDBRANCH   1   2
BRANCH   1  27
ATOM     27  O   UNL A   1      34.074  26.672  21.877  1.00  0.00    -0.377 OA
BRANCH  27  28
ATOM     28  C   UNL A   1      33.438  27.791  22.462  1.00  0.00     0.188 C 
BRANCH  28  29
ATOM     29  C   UNL A   1      32.557  27.625  23.716  1.00  0.00     0.188 C 
BRANCH  29  30
ATOM     30  O   UNL A   1      33.096  28.166  24.915  1.00  0.00    -0.376 OA
BRANCH  30  31
ATOM     31  C   UNL A   1      32.219  28.777  25.846  1.00  0.00     0.202 C 
BRANCH  31  32
ATOM     32  C   UNL A   1      32.447  30.270  26.127  1.00  0.00     0.261 C 
BRANCH  32  33
ATOM     33  O   UNL A   1      33.798  30.630  26.427  1.00  0.00    -0.460 OA
BRANCH  33  34
ATOM     34  C   UNL A   1      33.963  31.497  27.446  1.00  0.00     0.338 C 
ATOM     35  O   UNL A   1      33.127  32.273  27.890  1.00  0.00    -0.246 OA
BRANCH  34  36
ATOM     36  C   UNL A   1      35.257  31.206  28.085  1.00  0.00     0.060 A 
ATOM     37  C   UNL A   1      35.719  29.885  28.055  1.00  0.00     0.016 A 
ATOM     38  C   UNL A   1      36.033  32.220  28.658  1.00  0.00     0.016 A 
ATOM     39  C   UNL A   1      36.953  29.569  28.612  1.00  0.00     0.010 A 
ATOM     40  C   UNL A   1      37.256  31.894  29.251  1.00  0.00     0.010 A 
ATOM     41  C   UNL A   1      37.706  30.562  29.250  1.00  0.00    -0.014 A 
BRANCH  41  42
ATOM     42  C   UNL A   1      38.863  30.139  30.068  1.00  0.00     0.031 A 
ATOM     43  C   UNL A   1      38.991  30.693  31.459  1.00  0.00     0.074 A 
ATOM     44  C   UNL A   1      39.735  29.222  29.612  1.00  0.00     0.049 A 
ATOM     45  N   UNL A   1      39.858  30.401  32.391  1.00  0.00    -0.248 NA
ATOM     46  C   UNL A   1      37.998  31.705  31.856  1.00  0.00     0.031 C 
ATOM     47  C   UNL A   1      39.699  28.606  28.287  1.00  0.00     0.029 A 
ATOM     48  N   UNL A   1      40.824  28.653  30.222  1.00  0.00    -0.354 N 
ATOM     49  C   UNL A   1      39.529  31.201  33.477  1.00  0.00     0.074 A 
ATOM     50  C   UNL A   1      38.390  32.002  33.086  1.00  0.00     0.031 C 
ATOM     51  C   UNL A   1      40.735  27.756  28.175  1.00  0.00     0.029 A 
ATOM     52  C   UNL A   1      41.514  27.783  29.412  1.00  0.00     0.049 A 
ATOM     53  H   UNL A   1      41.088  28.851  31.149  1.00  0.00     0.167 HD
ATOM     54  C   UNL A   1      40.115  31.256  34.695  1.00  0.00     0.034 A 
ATOM     55  C   UNL A   1      42.653  27.100  29.643  1.00  0.00     0.034 A 
ATOM     56  C   UNL A   1      41.252  30.462  35.075  1.00  0.00     0.049 A 
ATOM     57  C   UNL A   1      43.309  27.210  30.996  1.00  0.00     0.074 A 
ATOM     58  C   UNL A   1      41.903  30.420  36.295  1.00  0.00     0.029 A 
ATOM     59  N   UNL A   1      41.923  29.588  34.232  1.00  0.00    -0.354 N 
ATOM     60  N   UNL A   1      42.919  27.883  32.053  1.00  0.00    -0.248 NA
ATOM     61  C   UNL A   1      44.541  26.436  31.199  1.00  0.00     0.031 C 
ATOM     62  C   UNL A   1      42.994  29.553  36.176  1.00  0.00     0.029 A 
ATOM     63  C   UNL A   1      42.994  29.017  34.898  1.00  0.00     0.049 A 
ATOM     64  H   UNL A   1      41.674  29.401  33.298  1.00  0.00     0.167 HD
ATOM     65  C   UNL A   1      43.839  27.589  33.054  1.00  0.00     0.074 A 
ATOM     66  C   UNL A   1      44.786  26.652  32.484  1.00  0.00     0.031 C 
ATOM     67  C   UNL A   1      43.907  28.061  34.325  1.00  0.00     0.034 A 
BRANCH  54  68
ATOM     68  C   UNL A   1      39.537  32.214  35.703  1.00  0.00     0.023 A 
ATOM     69  C   UNL A   1      38.565  31.768  36.623  1.00  0.00     0.012 A 
ATOM     70  C   UNL A   1      39.988  33.546  35.767  1.00  0.00     0.148 A 
ATOM     71  C   UNL A   1      38.028  32.641  37.568  1.00  0.00     0.002 A 
ATOM     72  C   UNL A   1      39.485  34.397  36.743  1.00  0.00     0.091 A 
ATOM     73  F   UNL A   1      40.893  33.957  34.867  1.00  0.00    -0.205 F 
ATOM     74  C   UNL A   1      38.496  33.951  37.635  1.00  0.00     0.022 A 
BRANCH  72  75
ATOM     75  S   UNL A   1      40.078  36.078  36.962  1.00  0.00     0.127 S 
ATOM     76  O   UNL A   1      41.509  35.862  37.168  1.00  0.00    -0.237 OA
ATOM     77  O   UNL A   1      39.732  36.693  35.680  1.00  0.00    -0.237 OA
ATOM     78  O   UNL A   1      39.358  36.614  38.109  1.00  0.00    -0.744 OA
ENDBRANCH  72  75
ENDBRANCH  54  68
BRANCH  55  79
ATOM     79  C   UNL A   1      43.242  26.241  28.577  1.00  0.00     0.023 A 
ATOM     80  C   UNL A   1      42.845  24.895  28.458  1.00  0.00     0.012 A 
ATOM     81  C   UNL A   1      44.202  26.755  27.684  1.00  0.00     0.148 A 
ATOM     82  C   UNL A   1      43.419  24.068  27.491  1.00  0.00     0.002 A 
ATOM     83  C   UNL A   1      44.726  25.942  26.687  1.00  0.00     0.091 A 
ATOM     84  F   UNL A   1      44.581  28.033  27.826  1.00  0.00    -0.205 F 
ATOM     85  C   UNL A   1      44.351  24.592  26.600  1.00  0.00     0.022 A 
BRANCH  83  86
ATOM     86  S   UNL A   1      45.840  26.564  25.422  1.00  0.00     0.127 S 
ATOM     87  O   UNL A   1      45.878  25.444  24.483  1.00  0.00    -0.237 OA
ATOM     88  O   UNL A   1      45.120  27.744  24.946  1.00  0.00    -0.237 OA
ATOM     89  O   UNL A   1      47.091  26.854  26.107  1.00  0.00    -0.744 OA
ENDBRANCH  83  86
ENDBRANCH  55  79
BRANCH  67  90
ATOM     90  C   UNL A   1      45.026  27.544  35.196  1.00  0.00     0.023 A 
ATOM     91  C   UNL A   1      44.832  26.394  35.988  1.00  0.00     0.012 A 
ATOM     92  C   UNL A   1      46.284  28.178  35.199  1.00  0.00     0.148 A 
ATOM     93  C   UNL A   1      45.852  25.918  36.810  1.00  0.00     0.002 A 
ATOM     94  C   UNL A   1      47.315  27.664  35.978  1.00  0.00     0.091 A 
ATOM     95  F   UNL A   1      46.449  29.278  34.451  1.00  0.00    -0.205 F 
ATOM     96  C   UNL A   1      47.094  26.547  36.798  1.00  0.00     0.022 A 
BRANCH  94  97
ATOM     97  S   UNL A   1      48.975  28.346  35.947  1.00  0.00     0.127 S 
ATOM     98  O   UNL A   1      48.707  29.780  35.847  1.00  0.00    -0.237 OA
ATOM     99  O   UNL A   1      49.512  27.914  37.239  1.00  0.00    -0.237 OA
ATOM    100  O   UNL A   1      49.633  27.751  34.792  1.00  0.00    -0.744 OA
ENDBRANCH  94  97
ENDBRANCH  67  90
ENDBRANCH  41  42
ENDBRANCH  34  36
ENDBRANCH  33  34
ENDBRANCH  32  33
ENDBRANCH  31  32
ENDBRANCH  30  31
ENDBRANCH  29  30
ENDBRANCH  28  29
ENDBRANCH  27  28
ENDBRANCH   1  27
TORSDOF 27
ENDMDL
