MODEL 1
REMARK VINA RESULT:      -6.5      0.000      0.000
REMARK SMILES COc1ccccc1N1C(=O)[C@@H]2[C@@H](C1=O)[C@@](Cc1ccccc1)(C(=O)OCCOCCOCCOCCOC(=O)c1ccc(-c3c4nc(c(-c5cccc(S(=O)(=O)[O-])c5F)c5ccc([nH]5)c(-c5cccc(S(=O)(=O)[O-])c5F)c5nc(c(-c6cccc(S(=O)(=O)[O-])c6F)c6ccc3[nH]6)C=C5)C=C4)cc1)[NH2+][C@H]2c1ccc(C)cc1
REMARK SMILES IDX 33 1 32 2 31 3 30 4 29 5 28 6 27 7 26 8 24 9 25 10 16 11
REMARK SMILES IDX 9 12 10 13 14 14 11 15 12 16 13 17 15 18 105 19 104 20 8 23
REMARK SMILES IDX 3 24 4 25 5 26 7 27 6 28 2 29 1 30 106 31 107 32 112 33
REMARK SMILES IDX 108 34 111 35 109 36 110 37 17 38 18 39 19 40 23 41 20 42
REMARK SMILES IDX 22 43 21 44 34 45 35 46 36 47 37 48 38 49 39 50 40 51 41 52
REMARK SMILES IDX 42 53 103 54 43 55 102 56 44 57 45 58 46 59 96 60 47 61
REMARK SMILES IDX 101 62 95 63 97 64 48 65 100 66 94 67 93 68 49 70 81 71
REMARK SMILES IDX 61 72 80 73 62 74 65 75 79 76 98 77 63 78 64 79 78 81 99 82
REMARK SMILES IDX 66 83 50 84 51 85 59 86 52 87 54 88 60 89 53 90 55 91 56 92
REMARK SMILES IDX 57 93 58 94 82 95 83 96 91 97 84 98 86 99 92 100 85 101
REMARK SMILES IDX 87 102 88 103 89 104 90 105 67 106 68 107 76 108 69 109
REMARK SMILES IDX 71 110 77 111 70 112 72 113 73 114 74 115 75 116
REMARK H PARENT 104 21 104 22 97 69 65 80
REMARK Flexibility Score: inf
ROOT
ATOM      1  C   UNL A   1      44.907  42.329  35.068  1.00  0.00     0.188 C 
ENDROOT
BRANCH   1   2
ATOM      2  O   UNL A   1      44.575  42.769  33.771  1.00  0.00    -0.377 OA
BRANCH   2   3
ATOM      3  C   UNL A   1      43.956  41.827  32.925  1.00  0.00     0.188 C 
BRANCH   3   4
ATOM      4  C   UNL A   1      42.906  42.144  31.839  1.00  0.00     0.188 C 
BRANCH   4   5
ATOM      5  O   UNL A   1      42.022  41.134  31.411  1.00  0.00    -0.376 OA
BRANCH   5   6
ATOM      6  C   UNL A   1      41.400  41.098  30.146  1.00  0.00     0.202 C 
BRANCH   6   7
ATOM      7  C   UNL A   1      41.825  40.226  28.961  1.00  0.00     0.261 C 
BRANCH   7   8
ATOM      8  O   UNL A   1      43.220  40.143  28.645  1.00  0.00    -0.459 OA
BRANCH   8   9
ATOM      9  C   UNL A   1      43.859  39.018  29.097  1.00  0.00     0.369 C 
ATOM     10  O   UNL A   1      44.295  38.927  30.238  1.00  0.00    -0.245 OA
BRANCH   9  11
ATOM     11  C   UNL A   1      44.077  37.933  27.983  1.00  0.00     0.211 C 
ATOM     12  N   UNL A   1      47.602  37.302  28.702  1.00  0.00    -0.246 N 
ATOM     13  C   UNL A   1      47.642  38.191  27.623  1.00  0.00     0.244 C 
ATOM     14  C   UNL A   1      46.307  37.094  29.137  1.00  0.00     0.245 C 
ATOM     15  O   UNL A   1      48.588  38.505  26.923  1.00  0.00    -0.273 OA
ATOM     16  C   UNL A   1      46.252  38.753  27.536  1.00  0.00     0.162 C 
ATOM     17  C   UNL A   1      45.506  37.509  27.968  1.00  0.00     0.172 C 
ATOM     18  O   UNL A   1      45.897  36.635  30.189  1.00  0.00    -0.273 OA
ATOM     19  C   UNL A   1      45.449  39.126  26.307  1.00  0.00     0.228 C 
ATOM     20  N   UNL A   1      44.068  38.597  26.612  1.00  0.00    -0.324 N 
ATOM     21  H   UNL A   1      43.400  39.368  26.611  1.00  0.00     0.347 HD
ATOM     22  H   UNL A   1      43.800  37.915  25.904  1.00  0.00     0.347 HD
BRANCH  12  23
ATOM     23  C   UNL A   1      48.706  36.699  29.322  1.00  0.00     0.094 A 
ATOM     24  C   UNL A   1      49.316  37.246  30.470  1.00  0.00     0.143 A 
ATOM     25  C   UNL A   1      50.495  36.686  30.964  1.00  0.00     0.048 A 
ATOM     26  C   UNL A   1      51.069  35.584  30.334  1.00  0.00     0.004 A 
ATOM     27  C   UNL A   1      49.278  35.573  28.715  1.00  0.00     0.031 A 
ATOM     28  C   UNL A   1      50.466  35.032  29.207  1.00  0.00     0.002 A 
BRANCH  24  29
ATOM     29  O   UNL A   1      48.890  38.360  31.147  1.00  0.00    -0.495 OA
ATOM     30  C   UNL A   1      49.933  39.187  31.656  1.00  0.00     0.278 C 
ENDBRANCH  24  29
ENDBRANCH  12  23
BRANCH  19  31
ATOM     31  C   UNL A   1      45.380  40.599  25.955  1.00  0.00     0.010 A 
ATOM     32  C   UNL A   1      46.519  41.415  25.892  1.00  0.00     0.010 A 
ATOM     33  C   UNL A   1      44.132  41.214  25.770  1.00  0.00     0.010 A 
ATOM     34  C   UNL A   1      46.423  42.790  25.660  1.00  0.00     0.004 A 
ATOM     35  C   UNL A   1      44.035  42.586  25.509  1.00  0.00     0.004 A 
ATOM     36  C   UNL A   1      45.180  43.384  25.449  1.00  0.00    -0.051 A 
ATOM     37  C   UNL A   1      45.090  44.857  25.185  1.00  0.00     0.044 C 
ENDBRANCH  19  31
BRANCH  11  38
ATOM     38  C   UNL A   1      43.172  36.661  27.942  1.00  0.00     0.117 C 
BRANCH  38  39
ATOM     39  C   UNL A   1      43.642  35.326  27.374  1.00  0.00    -0.041 A 
ATOM     40  C   UNL A   1      43.584  35.118  25.983  1.00  0.00     0.004 A 
ATOM     41  C   UNL A   1      44.032  34.236  28.157  1.00  0.00     0.004 A 
ATOM     42  C   UNL A   1      43.898  33.877  25.414  1.00  0.00     0.000 A 
ATOM     43  C   UNL A   1      44.321  32.987  27.598  1.00  0.00     0.000 A 
ATOM     44  C   UNL A   1      44.252  32.805  26.225  1.00  0.00     0.000 A 
ENDBRANCH  38  39
ENDBRANCH  11  38
ENDBRANCH   9  11
ENDBRANCH   8   9
ENDBRANCH   7   8
ENDBRANCH   6   7
ENDBRANCH   5   6
ENDBRANCH   4   5
ENDBRANCH   3   4
ENDBRANCH   2   3
ENDBRANCH   1   2
BRANCH   1  45
ATOM     45  C   UNL A   1      46.421  42.132  35.191  1.00  0.00     0.188 C 
BRANCH  45  46
ATOM     46  O   UNL A   1      46.852  41.903  36.524  1.00  0.00    -0.376 OA
BRANCH  46  47
ATOM     47  C   UNL A   1      47.029  40.575  37.007  1.00  0.00     0.202 C 
BRANCH  47  48
ATOM     48  C   UNL A   1      46.934  39.273  36.173  1.00  0.00     0.261 C 
BRANCH  48  49
ATOM     49  O   UNL A   1      46.016  38.244  36.560  1.00  0.00    -0.460 OA
BRANCH  49  50
ATOM     50  C   UNL A   1      44.797  38.205  35.989  1.00  0.00     0.338 C 
ATOM     51  O   UNL A   1      43.928  39.054  36.053  1.00  0.00    -0.246 OA
BRANCH  50  52
ATOM     52  C   UNL A   1      44.802  37.037  35.075  1.00  0.00     0.060 A 
ATOM     53  C   UNL A   1      44.494  37.232  33.721  1.00  0.00     0.016 A 
ATOM     54  C   UNL A   1      45.177  35.772  35.535  1.00  0.00     0.016 A 
ATOM     55  C   UNL A   1      44.540  36.163  32.827  1.00  0.00     0.010 A 
ATOM     56  C   UNL A   1      45.178  34.690  34.648  1.00  0.00     0.010 A 
ATOM     57  C   UNL A   1      44.827  34.878  33.300  1.00  0.00    -0.014 A 
BRANCH  57  58
ATOM     58  C   UNL A   1      44.501  33.711  32.447  1.00  0.00     0.031 A 
ATOM     59  C   UNL A   1      45.616  33.121  31.628  1.00  0.00     0.074 A 
ATOM     60  C   UNL A   1      43.265  33.183  32.408  1.00  0.00     0.049 A 
ATOM     61  N   UNL A   1      45.587  32.126  30.784  1.00  0.00    -0.248 NA
ATOM     62  C   UNL A   1      46.944  33.741  31.781  1.00  0.00     0.031 C 
ATOM     63  C   UNL A   1      42.113  33.653  33.177  1.00  0.00     0.029 A 
ATOM     64  N   UNL A   1      42.771  32.141  31.663  1.00  0.00    -0.354 N 
ATOM     65  C   UNL A   1      46.876  32.029  30.274  1.00  0.00     0.074 A 
ATOM     66  C   UNL A   1      47.667  33.061  30.905  1.00  0.00     0.031 C 
ATOM     67  C   UNL A   1      41.036  32.922  32.837  1.00  0.00     0.029 A 
ATOM     68  C   UNL A   1      41.416  31.953  31.810  1.00  0.00     0.049 A 
ATOM     69  H   UNL A   1      43.333  31.580  31.080  1.00  0.00     0.167 HD
ATOM     70  C   UNL A   1      47.361  31.157  29.361  1.00  0.00     0.034 A 
ATOM     71  C   UNL A   1      40.583  31.114  31.164  1.00  0.00     0.034 A 
ATOM     72  C   UNL A   1      46.576  30.124  28.746  1.00  0.00     0.049 A 
ATOM     73  C   UNL A   1      41.147  30.173  30.125  1.00  0.00     0.074 A 
ATOM     74  C   UNL A   1      46.986  29.152  27.852  1.00  0.00     0.029 A 
ATOM     75  N   UNL A   1      45.216  29.945  28.941  1.00  0.00    -0.354 N 
ATOM     76  N   UNL A   1      42.391  30.010  29.743  1.00  0.00    -0.248 NA
ATOM     77  C   UNL A   1      40.193  29.278  29.450  1.00  0.00     0.031 C 
ATOM     78  C   UNL A   1      45.862  28.416  27.467  1.00  0.00     0.029 A 
ATOM     79  C   UNL A   1      44.764  28.893  28.165  1.00  0.00     0.049 A 
ATOM     80  H   UNL A   1      44.655  30.486  29.543  1.00  0.00     0.167 HD
ATOM     81  C   UNL A   1      42.375  28.969  28.818  1.00  0.00     0.074 A 
ATOM     82  C   UNL A   1      41.000  28.529  28.712  1.00  0.00     0.031 C 
ATOM     83  C   UNL A   1      43.401  28.432  28.113  1.00  0.00     0.034 A 
BRANCH  70  84
ATOM     84  C   UNL A   1      48.805  31.289  28.958  1.00  0.00     0.023 A 
ATOM     85  C   UNL A   1      49.815  30.685  29.732  1.00  0.00     0.012 A 
ATOM     86  C   UNL A   1      49.149  31.963  27.770  1.00  0.00     0.148 A 
ATOM     87  C   UNL A   1      51.152  30.773  29.342  1.00  0.00     0.002 A 
ATOM     88  C   UNL A   1      50.476  32.003  27.362  1.00  0.00     0.091 A 
ATOM     89  F   UNL A   1      48.173  32.553  27.065  1.00  0.00    -0.205 F 
ATOM     90  C   UNL A   1      51.480  31.419  28.152  1.00  0.00     0.022 A 
BRANCH  88  91
ATOM     91  S   UNL A   1      50.987  32.736  25.805  1.00  0.00     0.127 S 
ATOM     92  O   UNL A   1      52.167  33.500  26.213  1.00  0.00    -0.237 OA
ATOM     93  O   UNL A   1      51.276  31.555  24.992  1.00  0.00    -0.237 OA
ATOM     94  O   UNL A   1      49.860  33.534  25.344  1.00  0.00    -0.744 OA
ENDBRANCH  88  91
ENDBRANCH  70  84
BRANCH  71  95
ATOM     95  C   UNL A   1      39.124  31.103  31.475  1.00  0.00     0.023 A 
ATOM     96  C   UNL A   1      38.639  30.278  32.509  1.00  0.00     0.012 A 
ATOM     97  C   UNL A   1      38.211  31.874  30.730  1.00  0.00     0.148 A 
ATOM     98  C   UNL A   1      37.269  30.190  32.767  1.00  0.00     0.002 A 
ATOM     99  C   UNL A   1      36.852  31.817  31.023  1.00  0.00     0.091 A 
ATOM    100  F   UNL A   1      38.684  32.639  29.735  1.00  0.00    -0.205 F 
ATOM    101  C   UNL A   1      36.377  30.965  32.030  1.00  0.00     0.022 A 
BRANCH  99 102
ATOM    102  S   UNL A   1      35.656  32.856  30.177  1.00  0.00     0.127 S 
ATOM    103  O   UNL A   1      34.394  32.379  30.733  1.00  0.00    -0.237 OA
ATOM    104  O   UNL A   1      36.051  34.198  30.610  1.00  0.00    -0.237 OA
ATOM    105  O   UNL A   1      35.870  32.608  28.757  1.00  0.00    -0.744 OA
ENDBRANCH  99 102
ENDBRANCH  71  95
BRANCH  83 106
ATOM    106  C   UNL A   1      43.101  27.265  27.206  1.00  0.00     0.023 A 
ATOM    107  C   UNL A   1      42.676  27.487  25.881  1.00  0.00     0.012 A 
ATOM    108  C   UNL A   1      43.327  25.946  27.648  1.00  0.00     0.148 A 
ATOM    109  C   UNL A   1      42.443  26.411  25.024  1.00  0.00     0.002 A 
ATOM    110  C   UNL A   1      43.148  24.883  26.771  1.00  0.00     0.091 A 
ATOM    111  F   UNL A   1      43.720  25.755  28.916  1.00  0.00    -0.205 F 
ATOM    112  C   UNL A   1      42.692  25.113  25.463  1.00  0.00     0.022 A 
BRANCH 110 113
ATOM    113  S   UNL A   1      43.542  23.189  27.217  1.00  0.00     0.127 S 
ATOM    114  O   UNL A   1      44.941  23.091  26.803  1.00  0.00    -0.237 OA
ATOM    115  O   UNL A   1      43.334  23.194  28.666  1.00  0.00    -0.237 OA
ATOM    116  O   UNL A   1      42.612  22.348  26.476  1.00  0.00    -0.744 OA
ENDBRANCH 110 113
ENDBRANCH  83 106
ENDBRANCH  57  58
ENDBRANCH  50  52
ENDBRANCH  49  50
ENDBRANCH  48  49
ENDBRANCH  47  48
ENDBRANCH  46  47
ENDBRANCH  45  46
ENDBRANCH   1  45
TORSDOF 28
ENDMDL
MODEL 2
REMARK VINA RESULT:      -6.5      6.564     13.077
REMARK SMILES COc1ccccc1N1C(=O)[C@@H]2[C@@H](C1=O)[C@@](Cc1ccccc1)(C(=O)OCCOCCOCCOCCOC(=O)c1ccc(-c3c4nc(c(-c5cccc(S(=O)(=O)[O-])c5F)c5ccc([nH]5)c(-c5cccc(S(=O)(=O)[O-])c5F)c5nc(c(-c6cccc(S(=O)(=O)[O-])c6F)c6ccc3[nH]6)C=C5)C=C4)cc1)[NH2+][C@H]2c1ccc(C)cc1
REMARK SMILES IDX 33 1 32 2 31 3 30 4 29 5 28 6 27 7 26 8 24 9 25 10 16 11
REMARK SMILES IDX 9 12 10 13 14 14 11 15 12 16 13 17 15 18 105 19 104 20 8 23
REMARK SMILES IDX 3 24 4 25 5 26 7 27 6 28 2 29 1 30 106 31 107 32 112 33
REMARK SMILES IDX 108 34 111 35 109 36 110 37 17 38 18 39 19 40 23 41 20 42
REMARK SMILES IDX 22 43 21 44 34 45 35 46 36 47 37 48 38 49 39 50 40 51 41 52
REMARK SMILES IDX 42 53 103 54 43 55 102 56 44 57 45 58 46 59 96 60 47 61
REMARK SMILES IDX 101 62 95 63 97 64 48 65 100 66 94 67 93 68 49 70 81 71
REMARK SMILES IDX 61 72 80 73 62 74 65 75 79 76 98 77 63 78 64 79 78 81 99 82
REMARK SMILES IDX 66 83 50 84 51 85 59 86 52 87 54 88 60 89 53 90 55 91 56 92
REMARK SMILES IDX 57 93 58 94 82 95 83 96 91 97 84 98 86 99 92 100 85 101
REMARK SMILES IDX 87 102 88 103 89 104 90 105 67 106 68 107 76 108 69 109
REMARK SMILES IDX 71 110 77 111 70 112 72 113 73 114 74 115 75 116
REMARK H PARENT 104 21 104 22 97 69 65 80
REMARK Flexibility Score: inf
ROOT
ATOM      1  C   UNL A   1      43.534  23.011  28.009  1.00  0.00     0.188 C 
ENDROOT
BRANCH   1   2
ATOM      2  O   UNL A   1      42.901  24.198  28.431  1.00  0.00    -0.377 OA
BRANCH   2   3
ATOM      3  C   UNL A   1      41.498  24.241  28.306  1.00  0.00     0.188 C 
BRANCH   3   4
ATOM      4  C   UNL A   1      40.719  24.630  27.031  1.00  0.00     0.188 C 
BRANCH   4   5
ATOM      5  O   UNL A   1      40.011  25.848  26.993  1.00  0.00    -0.376 OA
BRANCH   5   6
ATOM      6  C   UNL A   1      40.604  27.113  26.807  1.00  0.00     0.202 C 
BRANCH   6   7
ATOM      7  C   UNL A   1      40.146  28.423  27.454  1.00  0.00     0.261 C 
BRANCH   7   8
ATOM      8  O   UNL A   1      40.596  28.719  28.782  1.00  0.00    -0.459 OA
BRANCH   8   9
ATOM      9  C   UNL A   1      39.715  29.429  29.555  1.00  0.00     0.369 C 
ATOM     10  O   UNL A   1      38.738  29.997  29.082  1.00  0.00    -0.245 OA
BRANCH   9  11
ATOM     11  C   UNL A   1      40.153  29.539  31.059  1.00  0.00     0.211 C 
ATOM     12  N   UNL A   1      37.821  32.196  31.979  1.00  0.00    -0.246 N 
ATOM     13  C   UNL A   1      39.020  32.879  31.744  1.00  0.00     0.244 C 
ATOM     14  C   UNL A   1      37.940  30.851  31.682  1.00  0.00     0.245 C 
ATOM     15  O   UNL A   1      39.309  34.032  32.005  1.00  0.00    -0.273 OA
ATOM     16  C   UNL A   1      39.889  31.890  31.020  1.00  0.00     0.162 C 
ATOM     17  C   UNL A   1      39.401  30.642  31.723  1.00  0.00     0.172 C 
ATOM     18  O   UNL A   1      37.078  30.012  31.486  1.00  0.00    -0.273 OA
ATOM     19  C   UNL A   1      41.386  31.682  31.124  1.00  0.00     0.228 C 
ATOM     20  N   UNL A   1      41.532  30.179  31.146  1.00  0.00    -0.324 N 
ATOM     21  H   UNL A   1      42.098  29.880  30.351  1.00  0.00     0.347 HD
ATOM     22  H   UNL A   1      41.988  29.893  32.012  1.00  0.00     0.347 HD
BRANCH  12  23
ATOM     23  C   UNL A   1      36.618  32.761  32.424  1.00  0.00     0.094 A 
ATOM     24  C   UNL A   1      35.585  33.127  31.537  1.00  0.00     0.143 A 
ATOM     25  C   UNL A   1      34.468  33.813  32.016  1.00  0.00     0.048 A 
ATOM     26  C   UNL A   1      34.364  34.132  33.368  1.00  0.00     0.004 A 
ATOM     27  C   UNL A   1      36.487  33.063  33.786  1.00  0.00     0.031 A 
ATOM     28  C   UNL A   1      35.375  33.763  34.252  1.00  0.00     0.002 A 
BRANCH  24  29
ATOM     29  O   UNL A   1      35.590  32.928  30.180  1.00  0.00    -0.495 OA
ATOM     30  C   UNL A   1      36.231  33.954  29.427  1.00  0.00     0.278 C 
ENDBRANCH  24  29
ENDBRANCH  12  23
BRANCH  19  31
ATOM     31  C   UNL A   1      42.239  32.275  30.020  1.00  0.00     0.010 A 
ATOM     32  C   UNL A   1      43.067  31.493  29.202  1.00  0.00     0.010 A 
ATOM     33  C   UNL A   1      42.287  33.667  29.848  1.00  0.00     0.010 A 
ATOM     34  C   UNL A   1      43.917  32.070  28.255  1.00  0.00     0.004 A 
ATOM     35  C   UNL A   1      43.116  34.246  28.879  1.00  0.00     0.004 A 
ATOM     36  C   UNL A   1      43.935  33.451  28.074  1.00  0.00    -0.051 A 
ATOM     37  C   UNL A   1      44.839  34.059  27.043  1.00  0.00     0.044 C 
ENDBRANCH  19  31
BRANCH  11  38
ATOM     38  C   UNL A   1      40.115  28.277  31.979  1.00  0.00     0.117 C 
BRANCH  38  39
ATOM     39  C   UNL A   1      40.654  28.274  33.406  1.00  0.00    -0.041 A 
ATOM     40  C   UNL A   1      40.536  29.443  34.181  1.00  0.00     0.004 A 
ATOM     41  C   UNL A   1      41.366  27.212  33.971  1.00  0.00     0.004 A 
ATOM     42  C   UNL A   1      41.108  29.536  35.457  1.00  0.00     0.000 A 
ATOM     43  C   UNL A   1      41.963  27.308  35.232  1.00  0.00     0.000 A 
ATOM     44  C   UNL A   1      41.836  28.472  35.977  1.00  0.00     0.000 A 
ENDBRANCH  38  39
ENDBRANCH  11  38
ENDBRANCH   9  11
ENDBRANCH   8   9
ENDBRANCH   7   8
ENDBRANCH   6   7
ENDBRANCH   5   6
ENDBRANCH   4   5
ENDBRANCH   3   4
ENDBRANCH   2   3
ENDBRANCH   1   2
BRANCH   1  45
ATOM     45  C   UNL A   1      44.729  23.339  27.109  1.00  0.00     0.188 C 
BRANCH  45  46
ATOM     46  O   UNL A   1      44.378  23.491  25.741  1.00  0.00    -0.376 OA
BRANCH  46  47
ATOM     47  C   UNL A   1      44.218  24.789  25.178  1.00  0.00     0.202 C 
BRANCH  47  48
ATOM     48  C   UNL A   1      44.766  26.117  25.757  1.00  0.00     0.261 C 
BRANCH  48  49
ATOM     49  O   UNL A   1      43.943  26.912  26.618  1.00  0.00    -0.460 OA
BRANCH  49  50
ATOM     50  C   UNL A   1      44.444  28.050  27.136  1.00  0.00     0.338 C 
ATOM     51  O   UNL A   1      44.532  29.131  26.586  1.00  0.00    -0.246 OA
BRANCH  50  52
ATOM     52  C   UNL A   1      44.652  27.794  28.583  1.00  0.00     0.060 A 
ATOM     53  C   UNL A   1      43.555  27.421  29.372  1.00  0.00     0.016 A 
ATOM     54  C   UNL A   1      45.932  27.852  29.141  1.00  0.00     0.016 A 
ATOM     55  C   UNL A   1      43.728  27.124  30.723  1.00  0.00     0.010 A 
ATOM     56  C   UNL A   1      46.099  27.600  30.506  1.00  0.00     0.010 A 
ATOM     57  C   UNL A   1      44.991  27.268  31.306  1.00  0.00    -0.014 A 
BRANCH  57  58
ATOM     58  C   UNL A   1      45.095  27.331  32.783  1.00  0.00     0.031 A 
ATOM     59  C   UNL A   1      44.850  28.663  33.437  1.00  0.00     0.074 A 
ATOM     60  C   UNL A   1      45.384  26.245  33.522  1.00  0.00     0.049 A 
ATOM     61  N   UNL A   1      44.910  28.991  34.699  1.00  0.00    -0.248 NA
ATOM     62  C   UNL A   1      44.490  29.779  32.542  1.00  0.00     0.031 C 
ATOM     63  C   UNL A   1      45.615  24.899  33.002  1.00  0.00     0.029 A 
ATOM     64  N   UNL A   1      45.555  26.118  34.878  1.00  0.00    -0.354 N 
ATOM     65  C   UNL A   1      44.640  30.354  34.747  1.00  0.00     0.074 A 
ATOM     66  C   UNL A   1      44.411  30.794  33.389  1.00  0.00     0.031 C 
ATOM     67  C   UNL A   1      45.933  24.086  34.026  1.00  0.00     0.029 A 
ATOM     68  C   UNL A   1      45.954  24.860  35.267  1.00  0.00     0.049 A 
ATOM     69  H   UNL A   1      45.407  26.856  35.513  1.00  0.00     0.167 HD
ATOM     70  C   UNL A   1      44.588  31.168  35.824  1.00  0.00     0.034 A 
ATOM     71  C   UNL A   1      46.319  24.403  36.481  1.00  0.00     0.034 A 
ATOM     72  C   UNL A   1      44.802  30.725  37.173  1.00  0.00     0.049 A 
ATOM     73  C   UNL A   1      46.281  25.344  37.662  1.00  0.00     0.074 A 
ATOM     74  C   UNL A   1      44.714  31.458  38.342  1.00  0.00     0.029 A 
ATOM     75  N   UNL A   1      45.173  29.439  37.531  1.00  0.00    -0.354 N 
ATOM     76  N   UNL A   1      45.906  26.599  37.710  1.00  0.00    -0.248 NA
ATOM     77  C   UNL A   1      46.690  24.793  38.964  1.00  0.00     0.031 C 
ATOM     78  C   UNL A   1      45.081  30.627  39.404  1.00  0.00     0.029 A 
ATOM     79  C   UNL A   1      45.343  29.362  38.901  1.00  0.00     0.049 A 
ATOM     80  H   UNL A   1      45.297  28.691  36.903  1.00  0.00     0.167 HD
ATOM     81  C   UNL A   1      45.991  26.975  39.048  1.00  0.00     0.074 A 
ATOM     82  C   UNL A   1      46.437  25.808  39.779  1.00  0.00     0.031 C 
ATOM     83  C   UNL A   1      45.734  28.177  39.620  1.00  0.00     0.034 A 
BRANCH  70  84
ATOM     84  C   UNL A   1      44.299  32.627  35.592  1.00  0.00     0.023 A 
ATOM     85  C   UNL A   1      42.974  33.104  35.633  1.00  0.00     0.012 A 
ATOM     86  C   UNL A   1      45.359  33.535  35.396  1.00  0.00     0.148 A 
ATOM     87  C   UNL A   1      42.706  34.461  35.455  1.00  0.00     0.002 A 
ATOM     88  C   UNL A   1      45.087  34.890  35.270  1.00  0.00     0.091 A 
ATOM     89  F   UNL A   1      46.608  33.053  35.334  1.00  0.00    -0.205 F 
ATOM     90  C   UNL A   1      43.761  35.354  35.288  1.00  0.00     0.022 A 
BRANCH  88  91
ATOM     91  S   UNL A   1      46.382  36.127  35.136  1.00  0.00     0.127 S 
ATOM     92  O   UNL A   1      46.544  36.226  33.685  1.00  0.00    -0.237 OA
ATOM     93  O   UNL A   1      45.756  37.292  35.761  1.00  0.00    -0.237 OA
ATOM     94  O   UNL A   1      47.529  35.592  35.854  1.00  0.00    -0.744 OA
ENDBRANCH  88  91
ENDBRANCH  70  84
BRANCH  71  95
ATOM     95  C   UNL A   1      46.745  22.985  36.662  1.00  0.00     0.023 A 
ATOM     96  C   UNL A   1      45.771  21.970  36.740  1.00  0.00     0.012 A 
ATOM     97  C   UNL A   1      48.103  22.641  36.796  1.00  0.00     0.148 A 
ATOM     98  C   UNL A   1      46.140  20.646  36.989  1.00  0.00     0.002 A 
ATOM     99  C   UNL A   1      48.467  21.313  36.998  1.00  0.00     0.091 A 
ATOM    100  F   UNL A   1      49.019  23.619  36.741  1.00  0.00    -0.205 F 
ATOM    101  C   UNL A   1      47.486  20.316  37.110  1.00  0.00     0.022 A 
BRANCH  99 102
ATOM    102  S   UNL A   1      50.188  20.801  37.070  1.00  0.00     0.127 S 
ATOM    103  O   UNL A   1      50.068  19.351  37.176  1.00  0.00    -0.237 OA
ATOM    104  O   UNL A   1      50.707  21.284  35.790  1.00  0.00    -0.237 OA
ATOM    105  O   UNL A   1      50.742  21.490  38.228  1.00  0.00    -0.744 OA
ENDBRANCH  99 102
ENDBRANCH  71  95
BRANCH  83 106
ATOM    106  C   UNL A   1      45.864  28.290  41.118  1.00  0.00     0.023 A 
ATOM    107  C   UNL A   1      44.784  27.941  41.952  1.00  0.00     0.012 A 
ATOM    108  C   UNL A   1      47.094  28.661  41.698  1.00  0.00     0.148 A 
ATOM    109  C   UNL A   1      44.915  27.998  43.340  1.00  0.00     0.002 A 
ATOM    110  C   UNL A   1      47.234  28.661  43.080  1.00  0.00     0.091 A 
ATOM    111  F   UNL A   1      48.107  29.001  40.887  1.00  0.00    -0.205 F 
ATOM    112  C   UNL A   1      46.141  28.344  43.903  1.00  0.00     0.022 A 
BRANCH 110 113
ATOM    113  S   UNL A   1      48.802  28.992  43.890  1.00  0.00     0.127 S 
ATOM    114  O   UNL A   1      49.281  30.156  43.147  1.00  0.00    -0.237 OA
ATOM    115  O   UNL A   1      48.386  29.275  45.265  1.00  0.00    -0.237 OA
ATOM    116  O   UNL A   1      49.600  27.783  43.737  1.00  0.00    -0.744 OA
ENDBRANCH 110 113
ENDBRANCH  83 106
ENDBRANCH  57  58
ENDBRANCH  50  52
ENDBRANCH  49  50
ENDBRANCH  48  49
ENDBRANCH  47  48
ENDBRANCH  46  47
ENDBRANCH  45  46
ENDBRANCH   1  45
TORSDOF 28
ENDMDL
MODEL 3
REMARK VINA RESULT:      -6.0      2.322      4.614
REMARK SMILES COc1ccccc1N1C(=O)[C@@H]2[C@@H](C1=O)[C@@](Cc1ccccc1)(C(=O)OCCOCCOCCOCCOC(=O)c1ccc(-c3c4nc(c(-c5cccc(S(=O)(=O)[O-])c5F)c5ccc([nH]5)c(-c5cccc(S(=O)(=O)[O-])c5F)c5nc(c(-c6cccc(S(=O)(=O)[O-])c6F)c6ccc3[nH]6)C=C5)C=C4)cc1)[NH2+][C@H]2c1ccc(C)cc1
REMARK SMILES IDX 33 1 32 2 31 3 30 4 29 5 28 6 27 7 26 8 24 9 25 10 16 11
REMARK SMILES IDX 9 12 10 13 14 14 11 15 12 16 13 17 15 18 105 19 104 20 8 23
REMARK SMILES IDX 3 24 4 25 5 26 7 27 6 28 2 29 1 30 106 31 107 32 112 33
REMARK SMILES IDX 108 34 111 35 109 36 110 37 17 38 18 39 19 40 23 41 20 42
REMARK SMILES IDX 22 43 21 44 34 45 35 46 36 47 37 48 38 49 39 50 40 51 41 52
REMARK SMILES IDX 42 53 103 54 43 55 102 56 44 57 45 58 46 59 96 60 47 61
REMARK SMILES IDX 101 62 95 63 97 64 48 65 100 66 94 67 93 68 49 70 81 71
REMARK SMILES IDX 61 72 80 73 62 74 65 75 79 76 98 77 63 78 64 79 78 81 99 82
REMARK SMILES IDX 66 83 50 84 51 85 59 86 52 87 54 88 60 89 53 90 55 91 56 92
REMARK SMILES IDX 57 93 58 94 82 95 83 96 91 97 84 98 86 99 92 100 85 101
REMARK SMILES IDX 87 102 88 103 89 104 90 105 67 106 68 107 76 108 69 109
REMARK SMILES IDX 71 110 77 111 70 112 72 113 73 114 74 115 75 116
REMARK H PARENT 104 21 104 22 97 69 65 80
REMARK Flexibility Score: inf
ROOT
ATOM      1  C   UNL A   1      50.461  43.570  34.012  1.00  0.00     0.188 C 
ENDROOT
BRANCH   1   2
ATOM      2  O   UNL A   1      49.971  43.825  32.716  1.00  0.00    -0.377 OA
BRANCH   2   3
ATOM      3  C   UNL A   1      50.129  42.792  31.769  1.00  0.00     0.188 C 
BRANCH   3   4
ATOM      4  C   UNL A   1      49.930  41.285  32.040  1.00  0.00     0.188 C 
BRANCH   4   5
ATOM      5  O   UNL A   1      48.699  40.678  31.719  1.00  0.00    -0.376 OA
BRANCH   5   6
ATOM      6  C   UNL A   1      48.423  40.022  30.501  1.00  0.00     0.202 C 
BRANCH   6   7
ATOM      7  C   UNL A   1      47.038  39.607  29.999  1.00  0.00     0.261 C 
BRANCH   7   8
ATOM      8  O   UNL A   1      46.935  39.017  28.697  1.00  0.00    -0.459 OA
BRANCH   8   9
ATOM      9  C   UNL A   1      46.705  39.895  27.671  1.00  0.00     0.369 C 
ATOM     10  O   UNL A   1      47.511  40.763  27.358  1.00  0.00    -0.245 OA
BRANCH   9  11
ATOM     11  C   UNL A   1      45.276  39.754  27.037  1.00  0.00     0.211 C 
ATOM     12  N   UNL A   1      45.693  42.334  24.486  1.00  0.00    -0.246 N 
ATOM     13  C   UNL A   1      45.002  42.993  25.508  1.00  0.00     0.244 C 
ATOM     14  C   UNL A   1      46.036  41.047  24.856  1.00  0.00     0.245 C 
ATOM     15  O   UNL A   1      44.452  44.080  25.486  1.00  0.00    -0.273 OA
ATOM     16  C   UNL A   1      45.133  42.092  26.703  1.00  0.00     0.162 C 
ATOM     17  C   UNL A   1      45.098  40.772  25.963  1.00  0.00     0.172 C 
ATOM     18  O   UNL A   1      46.858  40.286  24.377  1.00  0.00    -0.273 OA
ATOM     19  C   UNL A   1      44.124  41.807  27.796  1.00  0.00     0.228 C 
ATOM     20  N   UNL A   1      44.232  40.313  27.995  1.00  0.00    -0.324 N 
ATOM     21  H   UNL A   1      44.511  40.117  28.956  1.00  0.00     0.347 HD
ATOM     22  H   UNL A   1      43.329  39.878  27.809  1.00  0.00     0.347 HD
BRANCH  12  23
ATOM     23  C   UNL A   1      46.048  42.875  23.242  1.00  0.00     0.094 A 
ATOM     24  C   UNL A   1      45.095  43.437  22.367  1.00  0.00     0.143 A 
ATOM     25  C   UNL A   1      45.477  43.834  21.084  1.00  0.00     0.048 A 
ATOM     26  C   UNL A   1      46.797  43.685  20.666  1.00  0.00     0.004 A 
ATOM     27  C   UNL A   1      47.378  42.758  22.819  1.00  0.00     0.031 A 
ATOM     28  C   UNL A   1      47.747  43.142  21.529  1.00  0.00     0.002 A 
BRANCH  24  29
ATOM     29  O   UNL A   1      43.757  43.583  22.631  1.00  0.00    -0.495 OA
ATOM     30  C   UNL A   1      42.927  42.548  22.110  1.00  0.00     0.278 C 
ENDBRANCH  24  29
ENDBRANCH  12  23
BRANCH  19  31
ATOM     31  C   UNL A   1      44.322  42.526  29.116  1.00  0.00     0.010 A 
ATOM     32  C   UNL A   1      44.252  41.868  30.353  1.00  0.00     0.010 A 
ATOM     33  C   UNL A   1      44.495  43.918  29.132  1.00  0.00     0.010 A 
ATOM     34  C   UNL A   1      44.341  42.566  31.559  1.00  0.00     0.004 A 
ATOM     35  C   UNL A   1      44.614  44.617  30.340  1.00  0.00     0.004 A 
ATOM     36  C   UNL A   1      44.541  43.946  31.563  1.00  0.00    -0.051 A 
ATOM     37  C   UNL A   1      44.653  44.683  32.863  1.00  0.00     0.044 C 
ENDBRANCH  19  31
BRANCH  11  38
ATOM     38  C   UNL A   1      44.790  38.368  26.504  1.00  0.00     0.117 C 
BRANCH  38  39
ATOM     39  C   UNL A   1      43.779  37.501  27.247  1.00  0.00    -0.041 A 
ATOM     40  C   UNL A   1      44.086  36.148  27.485  1.00  0.00     0.004 A 
ATOM     41  C   UNL A   1      42.502  37.932  27.619  1.00  0.00     0.004 A 
ATOM     42  C   UNL A   1      43.154  35.277  28.064  1.00  0.00     0.000 A 
ATOM     43  C   UNL A   1      41.558  37.061  28.172  1.00  0.00     0.000 A 
ATOM     44  C   UNL A   1      41.882  35.731  28.394  1.00  0.00     0.000 A 
ENDBRANCH  38  39
ENDBRANCH  11  38
ENDBRANCH   9  11
ENDBRANCH   8   9
ENDBRANCH   7   8
ENDBRANCH   6   7
ENDBRANCH   5   6
ENDBRANCH   4   5
ENDBRANCH   3   4
ENDBRANCH   2   3
ENDBRANCH   1   2
BRANCH   1  45
ATOM     45  C   UNL A   1      49.760  44.474  35.031  1.00  0.00     0.188 C 
BRANCH  45  46
ATOM     46  O   UNL A   1      48.395  44.140  35.233  1.00  0.00    -0.376 OA
BRANCH  46  47
ATOM     47  C   UNL A   1      47.979  42.778  35.243  1.00  0.00     0.202 C 
BRANCH  47  48
ATOM     48  C   UNL A   1      46.749  42.186  34.511  1.00  0.00     0.261 C 
BRANCH  48  49
ATOM     49  O   UNL A   1      46.281  40.876  34.849  1.00  0.00    -0.460 OA
BRANCH  49  50
ATOM     50  C   UNL A   1      44.986  40.708  35.178  1.00  0.00     0.338 C 
ATOM     51  O   UNL A   1      44.266  41.500  35.755  1.00  0.00    -0.246 OA
BRANCH  50  52
ATOM     52  C   UNL A   1      44.540  39.468  34.497  1.00  0.00     0.060 A 
ATOM     53  C   UNL A   1      44.742  38.233  35.130  1.00  0.00     0.016 A 
ATOM     54  C   UNL A   1      43.863  39.529  33.276  1.00  0.00     0.016 A 
ATOM     55  C   UNL A   1      44.288  37.056  34.538  1.00  0.00     0.010 A 
ATOM     56  C   UNL A   1      43.448  38.344  32.659  1.00  0.00     0.010 A 
ATOM     57  C   UNL A   1      43.690  37.103  33.275  1.00  0.00    -0.014 A 
BRANCH  57  58
ATOM     58  C   UNL A   1      43.566  35.850  32.494  1.00  0.00     0.031 A 
ATOM     59  C   UNL A   1      44.727  35.461  31.620  1.00  0.00     0.074 A 
ATOM     60  C   UNL A   1      42.469  35.073  32.565  1.00  0.00     0.049 A 
ATOM     61  N   UNL A   1      44.857  34.438  30.820  1.00  0.00    -0.248 NA
ATOM     62  C   UNL A   1      45.901  36.352  31.653  1.00  0.00     0.031 C 
ATOM     63  C   UNL A   1      41.295  35.335  33.395  1.00  0.00     0.029 A 
ATOM     64  N   UNL A   1      42.162  33.914  31.899  1.00  0.00    -0.354 N 
ATOM     65  C   UNL A   1      46.103  34.584  30.223  1.00  0.00     0.074 A 
ATOM     66  C   UNL A   1      46.695  35.791  30.754  1.00  0.00     0.031 C 
ATOM     67  C   UNL A   1      40.377  34.378  33.163  1.00  0.00     0.029 A 
ATOM     68  C   UNL A   1      40.889  33.456  32.150  1.00  0.00     0.049 A 
ATOM     69  H   UNL A   1      42.792  33.452  31.300  1.00  0.00     0.167 HD
ATOM     70  C   UNL A   1      46.704  33.786  29.312  1.00  0.00     0.034 A 
ATOM     71  C   UNL A   1      40.214  32.427  31.599  1.00  0.00     0.034 A 
ATOM     72  C   UNL A   1      46.118  32.580  28.797  1.00  0.00     0.049 A 
ATOM     73  C   UNL A   1      40.898  31.571  30.561  1.00  0.00     0.074 A 
ATOM     74  C   UNL A   1      46.668  31.668  27.915  1.00  0.00     0.029 A 
ATOM     75  N   UNL A   1      44.842  32.132  29.096  1.00  0.00    -0.354 N 
ATOM     76  N   UNL A   1      42.122  31.650  30.097  1.00  0.00    -0.248 NA
ATOM     77  C   UNL A   1      40.115  30.462  29.992  1.00  0.00     0.031 C 
ATOM     78  C   UNL A   1      45.703  30.694  27.642  1.00  0.00     0.029 A 
ATOM     79  C   UNL A   1      44.575  30.969  28.397  1.00  0.00     0.049 A 
ATOM     80  H   UNL A   1      44.218  32.576  29.715  1.00  0.00     0.167 HD
ATOM     81  C   UNL A   1      42.269  30.581  29.217  1.00  0.00     0.074 A 
ATOM     82  C   UNL A   1      41.014  29.859  29.228  1.00  0.00     0.031 C 
ATOM     83  C   UNL A   1      43.339  30.232  28.462  1.00  0.00     0.034 A 
BRANCH  70  84
ATOM     84  C   UNL A   1      48.059  34.193  28.801  1.00  0.00     0.023 A 
ATOM     85  C   UNL A   1      49.227  33.734  29.443  1.00  0.00     0.012 A 
ATOM     86  C   UNL A   1      48.169  34.984  27.641  1.00  0.00     0.148 A 
ATOM     87  C   UNL A   1      50.486  34.079  28.951  1.00  0.00     0.002 A 
ATOM     88  C   UNL A   1      49.425  35.281  27.129  1.00  0.00     0.091 A 
ATOM     89  F   UNL A   1      47.045  35.431  27.064  1.00  0.00    -0.205 F 
ATOM     90  C   UNL A   1      50.584  34.840  27.788  1.00  0.00     0.022 A 
BRANCH  88  91
ATOM     91  S   UNL A   1      49.654  36.181  25.592  1.00  0.00     0.127 S 
ATOM     92  O   UNL A   1      51.113  36.204  25.479  1.00  0.00    -0.237 OA
ATOM     93  O   UNL A   1      48.981  35.313  24.627  1.00  0.00    -0.237 OA
ATOM     94  O   UNL A   1      49.026  37.480  25.786  1.00  0.00    -0.744 OA
ENDBRANCH  88  91
ENDBRANCH  70  84
BRANCH  71  95
ATOM     95  C   UNL A   1      38.812  32.130  32.015  1.00  0.00     0.023 A 
ATOM     96  C   UNL A   1      38.570  31.143  32.991  1.00  0.00     0.012 A 
ATOM     97  C   UNL A   1      37.718  32.790  31.424  1.00  0.00     0.148 A 
ATOM     98  C   UNL A   1      37.265  30.790  33.339  1.00  0.00     0.002 A 
ATOM     99  C   UNL A   1      36.420  32.466  31.809  1.00  0.00     0.091 A 
ATOM    100  F   UNL A   1      37.961  33.712  30.482  1.00  0.00    -0.205 F 
ATOM    101  C   UNL A   1      36.191  31.456  32.755  1.00  0.00     0.022 A 
BRANCH  99 102
ATOM    102  S   UNL A   1      34.993  33.347  31.168  1.00  0.00     0.127 S 
ATOM    103  O   UNL A   1      33.896  32.717  31.894  1.00  0.00    -0.237 OA
ATOM    104  O   UNL A   1      35.279  34.728  31.561  1.00  0.00    -0.237 OA
ATOM    105  O   UNL A   1      35.024  33.127  29.727  1.00  0.00    -0.744 OA
ENDBRANCH  99 102
ENDBRANCH  71  95
BRANCH  83 106
ATOM    106  C   UNL A   1      43.238  28.981  27.625  1.00  0.00     0.023 A 
ATOM    107  C   UNL A   1      42.844  29.060  26.275  1.00  0.00     0.012 A 
ATOM    108  C   UNL A   1      43.618  27.735  28.162  1.00  0.00     0.148 A 
ATOM    109  C   UNL A   1      42.794  27.912  25.484  1.00  0.00     0.002 A 
ATOM    110  C   UNL A   1      43.620  26.606  27.354  1.00  0.00     0.091 A 
ATOM    111  F   UNL A   1      43.978  27.678  29.453  1.00  0.00    -0.205 F 
ATOM    112  C   UNL A   1      43.195  26.689  26.018  1.00  0.00     0.022 A 
BRANCH 110 113
ATOM    113  S   UNL A   1      44.217  25.012  27.926  1.00  0.00     0.127 S 
ATOM    114  O   UNL A   1      45.585  25.334  28.330  1.00  0.00    -0.237 OA
ATOM    115  O   UNL A   1      43.306  24.720  29.034  1.00  0.00    -0.237 OA
ATOM    116  O   UNL A   1      44.100  24.105  26.792  1.00  0.00    -0.744 OA
ENDBRANCH 110 113
ENDBRANCH  83 106
ENDBRANCH  57  58
ENDBRANCH  50  52
ENDBRANCH  49  50
ENDBRANCH  48  49
ENDBRANCH  47  48
ENDBRANCH  46  47
ENDBRANCH  45  46
ENDBRANCH   1  45
TORSDOF 28
ENDMDL
