MODEL 1
REMARK VINA RESULT:     -10.8      0.000      0.000
REMARK SMILES O=C(OCCOCCOCCOCCOC(=O)[C@@H]1CCC[C@@H](C(=O)N2CCN3C(=O)NC[C@@H]3C2)C1)c1ccc(-c2c3nc(c(-c4cccc(S(=O)(=O)[O-])c4F)c4ccc([nH]4)c(-c4cccc(S(=O)(=O)[O-])c4F)c4nc(c(-c5cccc(S(=O)(=O)[O-])c5F)c5ccc2[nH]5)C=C4)C=C3)cc1
REMARK SMILES IDX 8 1 7 2 6 3 5 4 4 5 3 6 2 7 1 8 36 9 37 10 98 11 38 12 97 13
REMARK SMILES IDX 39 14 40 15 41 16 91 17 42 18 96 19 90 20 92 21 43 22 95 23
REMARK SMILES IDX 89 24 88 25 44 27 76 28 56 29 75 30 57 31 60 32 74 33 93 34
REMARK SMILES IDX 58 35 59 36 73 38 94 39 61 40 45 41 46 42 54 43 47 44 49 45
REMARK SMILES IDX 55 46 48 47 50 48 51 49 52 50 53 51 77 52 78 53 86 54 79 55
REMARK SMILES IDX 81 56 87 57 80 58 82 59 83 60 84 61 85 62 62 63 63 64 71 65
REMARK SMILES IDX 64 66 66 67 72 68 65 69 67 70 68 71 69 72 70 73 9 74 10 75
REMARK SMILES IDX 11 76 12 77 13 78 14 79 15 80 16 81 17 82 18 83 19 84 35 85
REMARK SMILES IDX 20 86 22 87 21 88 23 89 24 90 25 91 26 92 34 93 27 94 33 95
REMARK SMILES IDX 28 96 32 97 29 98 31 99 30 100
REMARK H PARENT 92 26 60 37 31 101
REMARK Flexibility Score: inf
ROOT
ATOM      1  C   UNL A   1      30.817  26.112  25.599  1.00  0.00     0.188 C 
ENDROOT
BRANCH   1   2
ATOM      2  C   UNL A   1      31.014  27.298  26.510  1.00  0.00     0.188 C 
BRANCH   2   3
ATOM      3  O   UNL A   1      32.340  27.756  26.383  1.00  0.00    -0.376 OA
BRANCH   3   4
ATOM      4  C   UNL A   1      32.926  28.655  27.296  1.00  0.00     0.202 C 
BRANCH   4   5
ATOM      5  C   UNL A   1      32.500  30.106  27.181  1.00  0.00     0.261 C 
BRANCH   5   6
ATOM      6  O   UNL A   1      33.587  30.988  26.824  1.00  0.00    -0.460 OA
BRANCH   6   7
ATOM      7  C   UNL A   1      34.150  31.801  27.759  1.00  0.00     0.338 C 
ATOM      8  O   UNL A   1      33.563  32.558  28.511  1.00  0.00    -0.246 OA
BRANCH   7   9
ATOM      9  C   UNL A   1      35.579  31.437  27.841  1.00  0.00     0.060 A 
ATOM     10  C   UNL A   1      35.973  30.124  27.608  1.00  0.00     0.016 A 
ATOM     11  C   UNL A   1      36.498  32.344  28.347  1.00  0.00     0.016 A 
ATOM     12  C   UNL A   1      37.098  29.619  28.202  1.00  0.00     0.010 A 
ATOM     13  C   UNL A   1      37.751  31.876  28.749  1.00  0.00     0.010 A 
ATOM     14  C   UNL A   1      38.004  30.491  28.783  1.00  0.00    -0.014 A 
BRANCH  14  15
ATOM     15  C   UNL A   1      39.094  29.895  29.578  1.00  0.00     0.031 A 
ATOM     16  C   UNL A   1      39.210  30.308  31.015  1.00  0.00     0.074 A 
ATOM     17  C   UNL A   1      39.843  28.900  29.064  1.00  0.00     0.049 A 
ATOM     18  N   UNL A   1      40.158  30.054  31.872  1.00  0.00    -0.248 NA
ATOM     19  C   UNL A   1      38.111  31.127  31.564  1.00  0.00     0.031 C 
ATOM     20  C   UNL A   1      39.685  28.316  27.725  1.00  0.00     0.029 A 
ATOM     21  N   UNL A   1      40.863  28.174  29.616  1.00  0.00    -0.354 N 
ATOM     22  C   UNL A   1      39.831  30.778  33.011  1.00  0.00     0.074 A 
ATOM     23  C   UNL A   1      38.581  31.453  32.757  1.00  0.00     0.031 C 
ATOM     24  C   UNL A   1      40.543  27.296  27.580  1.00  0.00     0.029 A 
ATOM     25  C   UNL A   1      41.397  27.243  28.755  1.00  0.00     0.049 A 
ATOM     26  H   UNL A   1      41.183  28.305  30.537  1.00  0.00     0.167 HD
ATOM     27  C   UNL A   1      40.534  30.876  34.160  1.00  0.00     0.034 A 
ATOM     28  C   UNL A   1      42.497  26.482  28.884  1.00  0.00     0.034 A 
ATOM     29  C   UNL A   1      41.742  30.136  34.387  1.00  0.00     0.049 A 
ATOM     30  C   UNL A   1      43.287  26.639  30.153  1.00  0.00     0.074 A 
ATOM     31  C   UNL A   1      42.584  30.160  35.479  1.00  0.00     0.029 A 
ATOM     32  N   UNL A   1      42.271  29.221  33.484  1.00  0.00    -0.354 N 
ATOM     33  N   UNL A   1      43.015  27.378  31.205  1.00  0.00    -0.248 NA
ATOM     34  C   UNL A   1      44.528  25.868  30.259  1.00  0.00     0.031 C 
ATOM     35  C   UNL A   1      43.643  29.283  35.221  1.00  0.00     0.029 A 
ATOM     36  C   UNL A   1      43.433  28.676  33.991  1.00  0.00     0.049 A 
ATOM     37  H   UNL A   1      41.876  28.995  32.611  1.00  0.00     0.167 HD
ATOM     38  C   UNL A   1      44.034  27.136  32.114  1.00  0.00     0.074 A 
ATOM     39  C   UNL A   1      44.915  26.165  31.493  1.00  0.00     0.031 C 
ATOM     40  C   UNL A   1      44.239  27.671  33.343  1.00  0.00     0.034 A 
BRANCH  27  41
ATOM     41  C   UNL A   1      40.050  31.867  35.184  1.00  0.00     0.023 A 
ATOM     42  C   UNL A   1      40.529  33.193  35.194  1.00  0.00     0.012 A 
ATOM     43  C   UNL A   1      39.142  31.453  36.177  1.00  0.00     0.148 A 
ATOM     44  C   UNL A   1      40.146  34.075  36.207  1.00  0.00     0.002 A 
ATOM     45  C   UNL A   1      38.726  32.351  37.151  1.00  0.00     0.091 A 
ATOM     46  F   UNL A   1      38.727  30.179  36.170  1.00  0.00    -0.205 F 
ATOM     47  C   UNL A   1      39.241  33.657  37.179  1.00  0.00     0.022 A 
BRANCH  45  48
ATOM     48  S   UNL A   1      37.515  31.925  38.406  1.00  0.00     0.127 S 
ATOM     49  O   UNL A   1      36.430  32.858  38.099  1.00  0.00    -0.237 OA
ATOM     50  O   UNL A   1      37.226  30.527  38.086  1.00  0.00    -0.237 OA
ATOM     51  O   UNL A   1      38.170  32.134  39.689  1.00  0.00    -0.744 OA
ENDBRANCH  45  48
ENDBRANCH  27  41
BRANCH  28  52
ATOM     52  C   UNL A   1      42.924  25.559  27.793  1.00  0.00     0.023 A 
ATOM     53  C   UNL A   1      43.972  25.932  26.931  1.00  0.00     0.012 A 
ATOM     54  C   UNL A   1      42.309  24.302  27.613  1.00  0.00     0.148 A 
ATOM     55  C   UNL A   1      44.378  25.089  25.893  1.00  0.00     0.002 A 
ATOM     56  C   UNL A   1      42.758  23.441  26.617  1.00  0.00     0.091 A 
ATOM     57  F   UNL A   1      41.300  23.964  28.428  1.00  0.00    -0.205 F 
ATOM     58  C   UNL A   1      43.778  23.842  25.743  1.00  0.00     0.022 A 
BRANCH  56  59
ATOM     59  S   UNL A   1      42.130  21.768  26.434  1.00  0.00     0.127 S 
ATOM     60  O   UNL A   1      40.714  22.007  26.164  1.00  0.00    -0.237 OA
ATOM     61  O   UNL A   1      42.901  21.278  25.291  1.00  0.00    -0.237 OA
ATOM     62  O   UNL A   1      42.430  21.095  27.691  1.00  0.00    -0.744 OA
ENDBRANCH  56  59
ENDBRANCH  28  52
BRANCH  40  63
ATOM     63  C   UNL A   1      45.420  27.159  34.114  1.00  0.00     0.023 A 
ATOM     64  C   UNL A   1      46.664  27.812  34.023  1.00  0.00     0.012 A 
ATOM     65  C   UNL A   1      45.262  26.071  34.992  1.00  0.00     0.148 A 
ATOM     66  C   UNL A   1      47.747  27.363  34.773  1.00  0.00     0.002 A 
ATOM     67  C   UNL A   1      46.327  25.670  35.781  1.00  0.00     0.091 A 
ATOM     68  F   UNL A   1      44.071  25.454  35.040  1.00  0.00    -0.205 F 
ATOM     69  C   UNL A   1      47.575  26.302  35.662  1.00  0.00     0.022 A 
BRANCH  67  70
ATOM     70  S   UNL A   1      46.153  24.396  37.033  1.00  0.00     0.127 S 
ATOM     71  O   UNL A   1      46.375  23.180  36.253  1.00  0.00    -0.237 OA
ATOM     72  O   UNL A   1      47.230  24.730  37.965  1.00  0.00    -0.237 OA
ATOM     73  O   UNL A   1      44.813  24.554  37.582  1.00  0.00    -0.744 OA
ENDBRANCH  67  70
ENDBRANCH  40  63
ENDBRANCH  14  15
ENDBRANCH   7   9
ENDBRANCH   6   7
ENDBRANCH   5   6
ENDBRANCH   4   5
ENDBRANCH   3   4
ENDBRANCH   2   3
ENDBRANCH   1   2
BRANCH   1  74
ATOM     74  O   UNL A   1      29.547  26.081  24.976  1.00  0.00    -0.377 OA
BRANCH  74  75
ATOM     75  C   UNL A   1      29.252  26.822  23.791  1.00  0.00     0.188 C 
BRANCH  75  76
ATOM     76  C   UNL A   1      30.388  27.231  22.850  1.00  0.00     0.188 C 
BRANCH  76  77
ATOM     77  O   UNL A   1      30.711  28.596  22.967  1.00  0.00    -0.376 OA
BRANCH  77  78
ATOM     78  C   UNL A   1      32.089  28.943  23.058  1.00  0.00     0.202 C 
BRANCH  78  79
ATOM     79  C   UNL A   1      33.224  28.020  22.538  1.00  0.00     0.261 C 
BRANCH  79  80
ATOM     80  O   UNL A   1      33.863  27.112  23.473  1.00  0.00    -0.463 OA
BRANCH  80  81
ATOM     81  C   UNL A   1      33.885  25.818  23.068  1.00  0.00     0.309 C 
ATOM     82  O   UNL A   1      33.754  25.516  21.879  1.00  0.00    -0.252 OA
BRANCH  81  83
ATOM     83  C   UNL A   1      33.955  24.696  24.143  1.00  0.00     0.100 C 
ATOM     84  C   UNL A   1      34.345  24.813  25.624  1.00  0.00     0.015 C 
ATOM     85  C   UNL A   1      34.815  23.576  23.487  1.00  0.00     0.028 C 
ATOM     86  C   UNL A   1      34.268  23.468  26.361  1.00  0.00     0.002 C 
ATOM     87  C   UNL A   1      34.727  22.230  24.169  1.00  0.00     0.079 C 
ATOM     88  C   UNL A   1      35.092  22.390  25.655  1.00  0.00     0.013 C 
BRANCH  87  89
ATOM     89  C   UNL A   1      33.421  21.441  23.990  1.00  0.00     0.225 C 
ATOM     90  O   UNL A   1      32.490  21.961  23.365  1.00  0.00    -0.275 OA
BRANCH  89  91
ATOM     91  N   UNL A   1      33.386  20.086  24.264  1.00  0.00    -0.339 N 
ATOM     92  C   UNL A   1      32.231  19.169  24.051  1.00  0.00     0.141 C 
ATOM     93  C   UNL A   1      34.572  19.553  24.930  1.00  0.00     0.146 C 
ATOM     94  C   UNL A   1      32.567  17.676  23.847  1.00  0.00     0.143 C 
ATOM     95  C   UNL A   1      34.954  18.195  24.387  1.00  0.00     0.125 C 
ATOM     96  N   UNL A   1      33.823  17.297  24.462  1.00  0.00    -0.317 N 
ATOM     97  C   UNL A   1      36.021  17.493  25.218  1.00  0.00     0.144 C 
ATOM     98  C   UNL A   1      34.179  16.079  24.988  1.00  0.00     0.317 C 
ATOM     99  N   UNL A   1      35.501  16.161  25.382  1.00  0.00    -0.336 N 
ATOM    100  O   UNL A   1      33.478  15.075  25.099  1.00  0.00    -0.249 OA
ATOM    101  H   UNL A   1      36.024  15.403  25.732  1.00  0.00     0.165 HD
ENDBRANCH  89  91
ENDBRANCH  87  89
ENDBRANCH  81  83
ENDBRANCH  80  81
ENDBRANCH  79  80
ENDBRANCH  78  79
ENDBRANCH  77  78
ENDBRANCH  76  77
ENDBRANCH  75  76
ENDBRANCH  74  75
ENDBRANCH   1  74
TORSDOF 25
ENDMDL
MODEL 2
REMARK VINA RESULT:     -10.8      1.306      7.366
REMARK SMILES O=C(OCCOCCOCCOCCOC(=O)[C@@H]1CCC[C@@H](C(=O)N2CCN3C(=O)NC[C@@H]3C2)C1)c1ccc(-c2c3nc(c(-c4cccc(S(=O)(=O)[O-])c4F)c4ccc([nH]4)c(-c4cccc(S(=O)(=O)[O-])c4F)c4nc(c(-c5cccc(S(=O)(=O)[O-])c5F)c5ccc2[nH]5)C=C4)C=C3)cc1
REMARK SMILES IDX 8 1 7 2 6 3 5 4 4 5 3 6 2 7 1 8 36 9 37 10 98 11 38 12 97 13
REMARK SMILES IDX 39 14 40 15 41 16 91 17 42 18 96 19 90 20 92 21 43 22 95 23
REMARK SMILES IDX 89 24 88 25 44 27 76 28 56 29 75 30 57 31 60 32 74 33 93 34
REMARK SMILES IDX 58 35 59 36 73 38 94 39 61 40 45 41 46 42 54 43 47 44 49 45
REMARK SMILES IDX 55 46 48 47 50 48 51 49 52 50 53 51 77 52 78 53 86 54 79 55
REMARK SMILES IDX 81 56 87 57 80 58 82 59 83 60 84 61 85 62 62 63 63 64 71 65
REMARK SMILES IDX 64 66 66 67 72 68 65 69 67 70 68 71 69 72 70 73 9 74 10 75
REMARK SMILES IDX 11 76 12 77 13 78 14 79 15 80 16 81 17 82 18 83 19 84 35 85
REMARK SMILES IDX 20 86 22 87 21 88 23 89 24 90 25 91 26 92 34 93 27 94 33 95
REMARK SMILES IDX 28 96 32 97 29 98 31 99 30 100
REMARK H PARENT 92 26 60 37 31 101
REMARK Flexibility Score: inf
ROOT
ATOM      1  C   UNL A   1      31.165  25.514  26.127  1.00  0.00     0.188 C 
ENDROOT
BRANCH   1   2
ATOM      2  C   UNL A   1      30.733  26.781  26.822  1.00  0.00     0.188 C 
BRANCH   2   3
ATOM      3  O   UNL A   1      31.611  27.822  26.458  1.00  0.00    -0.376 OA
BRANCH   3   4
ATOM      4  C   UNL A   1      31.904  28.904  27.312  1.00  0.00     0.202 C 
BRANCH   4   5
ATOM      5  C   UNL A   1      31.866  30.286  26.688  1.00  0.00     0.261 C 
BRANCH   5   6
ATOM      6  O   UNL A   1      33.173  30.892  26.578  1.00  0.00    -0.460 OA
BRANCH   6   7
ATOM      7  C   UNL A   1      33.712  31.562  27.632  1.00  0.00     0.338 C 
ATOM      8  O   UNL A   1      33.112  32.245  28.442  1.00  0.00    -0.246 OA
BRANCH   7   9
ATOM      9  C   UNL A   1      35.122  31.135  27.739  1.00  0.00     0.060 A 
ATOM     10  C   UNL A   1      35.423  29.796  27.963  1.00  0.00     0.016 A 
ATOM     11  C   UNL A   1      36.130  32.083  27.823  1.00  0.00     0.016 A 
ATOM     12  C   UNL A   1      36.572  29.441  28.618  1.00  0.00     0.010 A 
ATOM     13  C   UNL A   1      37.389  31.685  28.278  1.00  0.00     0.010 A 
ATOM     14  C   UNL A   1      37.572  30.384  28.786  1.00  0.00    -0.014 A 
BRANCH  14  15
ATOM     15  C   UNL A   1      38.700  30.018  29.663  1.00  0.00     0.031 A 
ATOM     16  C   UNL A   1      39.779  29.155  29.081  1.00  0.00     0.074 A 
ATOM     17  C   UNL A   1      38.821  30.579  30.882  1.00  0.00     0.049 A 
ATOM     18  N   UNL A   1      40.781  28.574  29.677  1.00  0.00    -0.248 NA
ATOM     19  C   UNL A   1      39.720  28.903  27.627  1.00  0.00     0.031 C 
ATOM     20  C   UNL A   1      37.901  31.565  31.464  1.00  0.00     0.029 A 
ATOM     21  N   UNL A   1      39.787  30.432  31.840  1.00  0.00    -0.354 N 
ATOM     22  C   UNL A   1      41.393  27.797  28.701  1.00  0.00     0.074 A 
ATOM     23  C   UNL A   1      40.677  28.005  27.465  1.00  0.00     0.031 C 
ATOM     24  C   UNL A   1      38.372  31.966  32.653  1.00  0.00     0.029 A 
ATOM     25  C   UNL A   1      39.545  31.171  32.975  1.00  0.00     0.049 A 
ATOM     26  H   UNL A   1      40.577  29.856  31.728  1.00  0.00     0.167 HD
ATOM     27  C   UNL A   1      42.451  26.971  28.843  1.00  0.00     0.034 A 
ATOM     28  C   UNL A   1      40.170  31.150  34.165  1.00  0.00     0.034 A 
ATOM     29  C   UNL A   1      43.166  26.846  30.080  1.00  0.00     0.049 A 
ATOM     30  C   UNL A   1      41.318  30.192  34.313  1.00  0.00     0.074 A 
ATOM     31  C   UNL A   1      44.230  26.023  30.389  1.00  0.00     0.029 A 
ATOM     32  N   UNL A   1      42.880  27.587  31.220  1.00  0.00    -0.354 N 
ATOM     33  N   UNL A   1      41.854  29.404  33.409  1.00  0.00    -0.248 NA
ATOM     34  C   UNL A   1      41.947  30.114  35.635  1.00  0.00     0.031 C 
ATOM     35  C   UNL A   1      44.565  26.244  31.730  1.00  0.00     0.029 A 
ATOM     36  C   UNL A   1      43.742  27.240  32.240  1.00  0.00     0.049 A 
ATOM     37  H   UNL A   1      42.166  28.263  31.291  1.00  0.00     0.167 HD
ATOM     38  C   UNL A   1      42.907  28.760  34.041  1.00  0.00     0.074 A 
ATOM     39  C   UNL A   1      42.942  29.269  35.400  1.00  0.00     0.031 C 
ATOM     40  C   UNL A   1      43.760  27.824  33.558  1.00  0.00     0.034 A 
BRANCH  27  41
ATOM     41  C   UNL A   1      42.815  26.105  27.668  1.00  0.00     0.023 A 
ATOM     42  C   UNL A   1      43.611  26.605  26.617  1.00  0.00     0.012 A 
ATOM     43  C   UNL A   1      42.314  24.791  27.590  1.00  0.00     0.148 A 
ATOM     44  C   UNL A   1      43.861  25.824  25.487  1.00  0.00     0.002 A 
ATOM     45  C   UNL A   1      42.610  24.003  26.486  1.00  0.00     0.091 A 
ATOM     46  F   UNL A   1      41.530  24.347  28.582  1.00  0.00    -0.205 F 
ATOM     47  C   UNL A   1      43.368  24.523  25.424  1.00  0.00     0.022 A 
BRANCH  45  48
ATOM     48  S   UNL A   1      42.074  22.295  26.345  1.00  0.00     0.127 S 
ATOM     49  O   UNL A   1      42.803  21.853  25.156  1.00  0.00    -0.237 OA
ATOM     50  O   UNL A   1      42.555  21.722  27.603  1.00  0.00    -0.237 OA
ATOM     51  O   UNL A   1      40.626  22.335  26.207  1.00  0.00    -0.744 OA
ENDBRANCH  45  48
ENDBRANCH  27  41
BRANCH  28  52
ATOM     52  C   UNL A   1      39.708  32.015  35.289  1.00  0.00     0.023 A 
ATOM     53  C   UNL A   1      38.805  31.504  36.240  1.00  0.00     0.012 A 
ATOM     54  C   UNL A   1      40.171  33.340  35.435  1.00  0.00     0.148 A 
ATOM     55  C   UNL A   1      38.348  32.301  37.293  1.00  0.00     0.002 A 
ATOM     56  C   UNL A   1      39.759  34.109  36.518  1.00  0.00     0.091 A 
ATOM     57  F   UNL A   1      41.016  33.824  34.513  1.00  0.00    -0.205 F 
ATOM     58  C   UNL A   1      38.832  33.598  37.436  1.00  0.00     0.022 A 
BRANCH  56  59
ATOM     59  S   UNL A   1      40.431  35.742  36.850  1.00  0.00     0.127 S 
ATOM     60  O   UNL A   1      40.080  35.929  38.256  1.00  0.00    -0.237 OA
ATOM     61  O   UNL A   1      41.857  35.541  36.592  1.00  0.00    -0.237 OA
ATOM     62  O   UNL A   1      39.772  36.638  35.909  1.00  0.00    -0.744 OA
ENDBRANCH  56  59
ENDBRANCH  28  52
BRANCH  40  63
ATOM     63  C   UNL A   1      44.841  27.352  34.485  1.00  0.00     0.023 A 
ATOM     64  C   UNL A   1      46.014  28.112  34.653  1.00  0.00     0.012 A 
ATOM     65  C   UNL A   1      44.645  26.187  35.249  1.00  0.00     0.148 A 
ATOM     66  C   UNL A   1      46.996  27.696  35.548  1.00  0.00     0.002 A 
ATOM     67  C   UNL A   1      45.600  25.813  36.182  1.00  0.00     0.091 A 
ATOM     68  F   UNL A   1      43.529  25.470  35.051  1.00  0.00    -0.205 F 
ATOM     69  C   UNL A   1      46.783  26.556  36.322  1.00  0.00     0.022 A 
BRANCH  67  70
ATOM     70  S   UNL A   1      45.344  24.432  37.299  1.00  0.00     0.127 S 
ATOM     71  O   UNL A   1      44.846  23.402  36.388  1.00  0.00    -0.237 OA
ATOM     72  O   UNL A   1      46.694  24.195  37.811  1.00  0.00    -0.237 OA
ATOM     73  O   UNL A   1      44.394  24.897  38.300  1.00  0.00    -0.744 OA
ENDBRANCH  67  70
ENDBRANCH  40  63
ENDBRANCH  14  15
ENDBRANCH   7   9
ENDBRANCH   6   7
ENDBRANCH   5   6
ENDBRANCH   4   5
ENDBRANCH   3   4
ENDBRANCH   2   3
ENDBRANCH   1   2
BRANCH   1  74
ATOM     74  O   UNL A   1      30.220  25.030  25.191  1.00  0.00    -0.377 OA
BRANCH  74  75
ATOM     75  C   UNL A   1      29.667  25.850  24.162  1.00  0.00     0.188 C 
BRANCH  75  76
ATOM     76  C   UNL A   1      30.590  26.482  23.118  1.00  0.00     0.188 C 
BRANCH  76  77
ATOM     77  O   UNL A   1      30.568  27.888  23.169  1.00  0.00    -0.376 OA
BRANCH  77  78
ATOM     78  C   UNL A   1      31.815  28.564  23.293  1.00  0.00     0.202 C 
BRANCH  78  79
ATOM     79  C   UNL A   1      33.088  28.128  22.518  1.00  0.00     0.261 C 
BRANCH  79  80
ATOM     80  O   UNL A   1      34.048  27.269  23.186  1.00  0.00    -0.463 OA
BRANCH  80  81
ATOM     81  C   UNL A   1      33.960  25.960  22.843  1.00  0.00     0.309 C 
ATOM     82  O   UNL A   1      33.719  25.616  21.682  1.00  0.00    -0.252 OA
BRANCH  81  83
ATOM     83  C   UNL A   1      34.046  24.883  23.961  1.00  0.00     0.100 C 
ATOM     84  C   UNL A   1      34.496  25.051  25.420  1.00  0.00     0.015 C 
ATOM     85  C   UNL A   1      34.854  23.715  23.321  1.00  0.00     0.028 C 
ATOM     86  C   UNL A   1      34.417  23.741  26.216  1.00  0.00     0.002 C 
ATOM     87  C   UNL A   1      34.761  22.402  24.063  1.00  0.00     0.079 C 
ATOM     88  C   UNL A   1      35.188  22.614  25.525  1.00  0.00     0.013 C 
BRANCH  87  89
ATOM     89  C   UNL A   1      33.431  21.638  23.968  1.00  0.00     0.225 C 
ATOM     90  O   UNL A   1      32.511  22.124  23.301  1.00  0.00    -0.275 OA
BRANCH  89  91
ATOM     91  N   UNL A   1      33.360  20.317  24.370  1.00  0.00    -0.339 N 
ATOM     92  C   UNL A   1      32.124  19.490  24.477  1.00  0.00     0.141 C 
ATOM     93  C   UNL A   1      34.617  19.737  24.835  1.00  0.00     0.146 C 
ATOM     94  C   UNL A   1      32.307  17.963  24.353  1.00  0.00     0.143 C 
ATOM     95  C   UNL A   1      34.785  18.313  24.358  1.00  0.00     0.125 C 
ATOM     96  N   UNL A   1      33.633  17.524  24.739  1.00  0.00    -0.317 N 
ATOM     97  C   UNL A   1      35.948  17.588  25.024  1.00  0.00     0.144 C 
ATOM     98  C   UNL A   1      34.004  16.325  25.297  1.00  0.00     0.317 C 
ATOM     99  N   UNL A   1      35.382  16.323  25.413  1.00  0.00    -0.336 N 
ATOM    100  O   UNL A   1      33.273  15.398  25.639  1.00  0.00    -0.249 OA
ATOM    101  H   UNL A   1      35.911  15.552  25.722  1.00  0.00     0.165 HD
ENDBRANCH  89  91
ENDBRANCH  87  89
ENDBRANCH  81  83
ENDBRANCH  80  81
ENDBRANCH  79  80
ENDBRANCH  78  79
ENDBRANCH  77  78
ENDBRANCH  76  77
ENDBRANCH  75  76
ENDBRANCH  74  75
ENDBRANCH   1  74
TORSDOF 25
ENDMDL
MODEL 3
REMARK VINA RESULT:     -10.3      2.441      7.934
REMARK SMILES O=C(OCCOCCOCCOCCOC(=O)[C@@H]1CCC[C@@H](C(=O)N2CCN3C(=O)NC[C@@H]3C2)C1)c1ccc(-c2c3nc(c(-c4cccc(S(=O)(=O)[O-])c4F)c4ccc([nH]4)c(-c4cccc(S(=O)(=O)[O-])c4F)c4nc(c(-c5cccc(S(=O)(=O)[O-])c5F)c5ccc2[nH]5)C=C4)C=C3)cc1
REMARK SMILES IDX 8 1 7 2 6 3 5 4 4 5 3 6 2 7 1 8 36 9 37 10 98 11 38 12 97 13
REMARK SMILES IDX 39 14 40 15 41 16 91 17 42 18 96 19 90 20 92 21 43 22 95 23
REMARK SMILES IDX 89 24 88 25 44 27 76 28 56 29 75 30 57 31 60 32 74 33 93 34
REMARK SMILES IDX 58 35 59 36 73 38 94 39 61 40 45 41 46 42 54 43 47 44 49 45
REMARK SMILES IDX 55 46 48 47 50 48 51 49 52 50 53 51 77 52 78 53 86 54 79 55
REMARK SMILES IDX 81 56 87 57 80 58 82 59 83 60 84 61 85 62 62 63 63 64 71 65
REMARK SMILES IDX 64 66 66 67 72 68 65 69 67 70 68 71 69 72 70 73 9 74 10 75
REMARK SMILES IDX 11 76 12 77 13 78 14 79 15 80 16 81 17 82 18 83 19 84 35 85
REMARK SMILES IDX 20 86 22 87 21 88 23 89 24 90 25 91 26 92 34 93 27 94 33 95
REMARK SMILES IDX 28 96 32 97 29 98 31 99 30 100
REMARK H PARENT 92 26 60 37 31 101
REMARK Flexibility Score: inf
ROOT
ATOM      1  C   UNL A   1      32.201  25.831  26.245  1.00  0.00     0.188 C 
ENDROOT
BRANCH   1   2
ATOM      2  C   UNL A   1      31.486  26.908  27.021  1.00  0.00     0.188 C 
BRANCH   2   3
ATOM      3  O   UNL A   1      31.968  28.166  26.605  1.00  0.00    -0.376 OA
BRANCH   3   4
ATOM      4  C   UNL A   1      31.660  29.361  27.286  1.00  0.00     0.202 C 
BRANCH   4   5
ATOM      5  C   UNL A   1      32.161  30.646  26.652  1.00  0.00     0.261 C 
BRANCH   5   6
ATOM      6  O   UNL A   1      33.586  30.829  26.796  1.00  0.00    -0.460 OA
BRANCH   6   7
ATOM      7  C   UNL A   1      34.081  31.641  27.770  1.00  0.00     0.338 C 
ATOM      8  O   UNL A   1      33.445  32.414  28.463  1.00  0.00    -0.246 OA
BRANCH   7   9
ATOM      9  C   UNL A   1      35.492  31.255  27.977  1.00  0.00     0.060 A 
ATOM     10  C   UNL A   1      35.813  29.929  28.246  1.00  0.00     0.016 A 
ATOM     11  C   UNL A   1      36.466  32.233  28.108  1.00  0.00     0.016 A 
ATOM     12  C   UNL A   1      36.925  29.619  28.982  1.00  0.00     0.010 A 
ATOM     13  C   UNL A   1      37.703  31.878  28.651  1.00  0.00     0.010 A 
ATOM     14  C   UNL A   1      37.887  30.592  29.196  1.00  0.00    -0.014 A 
BRANCH  14  15
ATOM     15  C   UNL A   1      38.964  30.274  30.152  1.00  0.00     0.031 A 
ATOM     16  C   UNL A   1      40.088  29.409  29.667  1.00  0.00     0.074 A 
ATOM     17  C   UNL A   1      39.003  30.878  31.356  1.00  0.00     0.049 A 
ATOM     18  N   UNL A   1      41.060  28.863  30.342  1.00  0.00    -0.248 NA
ATOM     19  C   UNL A   1      40.121  29.106  28.221  1.00  0.00     0.031 C 
ATOM     20  C   UNL A   1      38.036  31.869  31.847  1.00  0.00     0.029 A 
ATOM     21  N   UNL A   1      39.910  30.778  32.375  1.00  0.00    -0.354 N 
ATOM     22  C   UNL A   1      41.740  28.064  29.432  1.00  0.00     0.074 A 
ATOM     23  C   UNL A   1      41.098  28.218  28.149  1.00  0.00     0.031 C 
ATOM     24  C   UNL A   1      38.428  32.317  33.047  1.00  0.00     0.029 A 
ATOM     25  C   UNL A   1      39.590  31.551  33.467  1.00  0.00     0.049 A 
ATOM     26  H   UNL A   1      40.713  30.211  32.330  1.00  0.00     0.167 HD
ATOM     27  C   UNL A   1      42.798  27.259  29.667  1.00  0.00     0.034 A 
ATOM     28  C   UNL A   1      40.142  31.581  34.693  1.00  0.00     0.034 A 
ATOM     29  C   UNL A   1      43.439  27.187  30.949  1.00  0.00     0.049 A 
ATOM     30  C   UNL A   1      41.291  30.647  34.943  1.00  0.00     0.074 A 
ATOM     31  C   UNL A   1      44.493  26.392  31.350  1.00  0.00     0.029 A 
ATOM     32  N   UNL A   1      43.073  27.963  32.043  1.00  0.00    -0.354 N 
ATOM     33  N   UNL A   1      41.892  29.837  34.101  1.00  0.00    -0.248 NA
ATOM     34  C   UNL A   1      41.840  30.623  36.302  1.00  0.00     0.031 C 
ATOM     35  C   UNL A   1      44.742  26.664  32.700  1.00  0.00     0.029 A 
ATOM     36  C   UNL A   1      43.877  27.663  33.124  1.00  0.00     0.049 A 
ATOM     37  H   UNL A   1      42.348  28.629  32.046  1.00  0.00     0.167 HD
ATOM     38  C   UNL A   1      42.913  29.231  34.817  1.00  0.00     0.074 A 
ATOM     39  C   UNL A   1      42.858  29.786  36.158  1.00  0.00     0.031 C 
ATOM     40  C   UNL A   1      43.806  28.292  34.419  1.00  0.00     0.034 A 
BRANCH  27  41
ATOM     41  C   UNL A   1      43.245  26.360  28.547  1.00  0.00     0.023 A 
ATOM     42  C   UNL A   1      42.712  25.062  28.400  1.00  0.00     0.012 A 
ATOM     43  C   UNL A   1      44.244  26.800  27.657  1.00  0.00     0.148 A 
ATOM     44  C   UNL A   1      43.204  24.203  27.416  1.00  0.00     0.002 A 
ATOM     45  C   UNL A   1      44.692  25.957  26.649  1.00  0.00     0.091 A 
ATOM     46  F   UNL A   1      44.763  28.022  27.836  1.00  0.00    -0.205 F 
ATOM     47  C   UNL A   1      44.186  24.652  26.537  1.00  0.00     0.022 A 
BRANCH  45  48
ATOM     48  S   UNL A   1      45.908  26.468  25.430  1.00  0.00     0.127 S 
ATOM     49  O   UNL A   1      45.996  25.278  24.583  1.00  0.00    -0.237 OA
ATOM     50  O   UNL A   1      45.247  27.614  24.805  1.00  0.00    -0.237 OA
ATOM     51  O   UNL A   1      47.116  26.792  26.174  1.00  0.00    -0.744 OA
ENDBRANCH  45  48
ENDBRANCH  27  41
BRANCH  28  52
ATOM     52  C   UNL A   1      39.600  32.476  35.756  1.00  0.00     0.023 A 
ATOM     53  C   UNL A   1      38.649  31.983  36.669  1.00  0.00     0.012 A 
ATOM     54  C   UNL A   1      40.034  33.813  35.881  1.00  0.00     0.148 A 
ATOM     55  C   UNL A   1      38.118  32.809  37.663  1.00  0.00     0.002 A 
ATOM     56  C   UNL A   1      39.548  34.612  36.910  1.00  0.00     0.091 A 
ATOM     57  F   UNL A   1      40.926  34.278  34.996  1.00  0.00    -0.205 F 
ATOM     58  C   UNL A   1      38.574  34.118  37.789  1.00  0.00     0.022 A 
BRANCH  56  59
ATOM     59  S   UNL A   1      40.174  36.266  37.224  1.00  0.00     0.127 S 
ATOM     60  O   UNL A   1      41.568  35.998  37.569  1.00  0.00    -0.237 OA
ATOM     61  O   UNL A   1      39.974  36.917  35.929  1.00  0.00    -0.237 OA
ATOM     62  O   UNL A   1      39.349  36.803  38.298  1.00  0.00    -0.744 OA
ENDBRANCH  56  59
ENDBRANCH  28  52
BRANCH  40  63
ATOM     63  C   UNL A   1      44.835  27.869  35.427  1.00  0.00     0.023 A 
ATOM     64  C   UNL A   1      46.144  28.383  35.363  1.00  0.00     0.012 A 
ATOM     65  C   UNL A   1      44.467  27.017  36.484  1.00  0.00     0.148 A 
ATOM     66  C   UNL A   1      47.085  28.024  36.324  1.00  0.00     0.002 A 
ATOM     67  C   UNL A   1      45.391  26.714  37.471  1.00  0.00     0.091 A 
ATOM     68  F   UNL A   1      43.219  26.524  36.506  1.00  0.00    -0.205 F 
ATOM     69  C   UNL A   1      46.705  27.203  37.385  1.00  0.00     0.022 A 
BRANCH  67  70
ATOM     70  S   UNL A   1      44.947  25.767  38.928  1.00  0.00     0.127 S 
ATOM     71  O   UNL A   1      45.974  26.186  39.880  1.00  0.00    -0.237 OA
ATOM     72  O   UNL A   1      43.602  26.263  39.222  1.00  0.00    -0.237 OA
ATOM     73  O   UNL A   1      44.996  24.367  38.527  1.00  0.00    -0.744 OA
ENDBRANCH  67  70
ENDBRANCH  40  63
ENDBRANCH  14  15
ENDBRANCH   7   9
ENDBRANCH   6   7
ENDBRANCH   5   6
ENDBRANCH   4   5
ENDBRANCH   3   4
ENDBRANCH   2   3
ENDBRANCH   1   2
BRANCH   1  74
ATOM     74  O   UNL A   1      31.345  25.062  25.421  1.00  0.00    -0.377 OA
BRANCH  74  75
ATOM     75  C   UNL A   1      30.538  25.643  24.395  1.00  0.00     0.188 C 
BRANCH  75  76
ATOM     76  C   UNL A   1      30.324  24.887  23.082  1.00  0.00     0.188 C 
BRANCH  76  77
ATOM     77  O   UNL A   1      31.128  25.391  22.041  1.00  0.00    -0.376 OA
BRANCH  77  78
ATOM     78  C   UNL A   1      32.059  26.418  22.364  1.00  0.00     0.202 C 
BRANCH  78  79
ATOM     79  C   UNL A   1      33.597  26.211  22.292  1.00  0.00     0.261 C 
BRANCH  79  80
ATOM     80  O   UNL A   1      34.108  24.864  22.118  1.00  0.00    -0.463 OA
BRANCH  80  81
ATOM     81  C   UNL A   1      34.204  24.150  23.267  1.00  0.00     0.309 C 
ATOM     82  O   UNL A   1      34.829  24.583  24.240  1.00  0.00    -0.252 OA
BRANCH  81  83
ATOM     83  C   UNL A   1      33.615  22.712  23.310  1.00  0.00     0.100 C 
ATOM     84  C   UNL A   1      32.354  22.173  22.618  1.00  0.00     0.015 C 
ATOM     85  C   UNL A   1      33.541  22.362  24.826  1.00  0.00     0.028 C 
ATOM     86  C   UNL A   1      32.124  20.680  22.893  1.00  0.00     0.002 C 
ATOM     87  C   UNL A   1      33.354  20.893  25.127  1.00  0.00     0.079 C 
ATOM     88  C   UNL A   1      32.104  20.380  24.393  1.00  0.00     0.013 C 
BRANCH  87  89
ATOM     89  C   UNL A   1      34.563  19.973  24.893  1.00  0.00     0.225 C 
ATOM     90  O   UNL A   1      34.428  18.985  24.162  1.00  0.00    -0.275 OA
BRANCH  89  91
ATOM     91  N   UNL A   1      35.831  20.391  25.251  1.00  0.00    -0.339 N 
ATOM     92  C   UNL A   1      37.099  19.627  25.070  1.00  0.00     0.141 C 
ATOM     93  C   UNL A   1      35.891  21.658  25.974  1.00  0.00     0.146 C 
ATOM     94  C   UNL A   1      38.394  20.459  24.967  1.00  0.00     0.143 C 
ATOM     95  C   UNL A   1      37.061  22.502  25.526  1.00  0.00     0.125 C 
ATOM     96  N   UNL A   1      38.288  21.743  25.632  1.00  0.00    -0.317 N 
ATOM     97  C   UNL A   1      37.312  23.709  26.422  1.00  0.00     0.144 C 
ATOM     98  C   UNL A   1      39.282  22.471  26.240  1.00  0.00     0.317 C 
ATOM     99  N   UNL A   1      38.731  23.668  26.658  1.00  0.00    -0.336 N 
ATOM    100  O   UNL A   1      40.457  22.149  26.399  1.00  0.00    -0.249 OA
ATOM    101  H   UNL A   1      39.245  24.402  27.065  1.00  0.00     0.165 HD
ENDBRANCH  89  91
ENDBRANCH  87  89
ENDBRANCH  81  83
ENDBRANCH  80  81
ENDBRANCH  79  80
ENDBRANCH  78  79
ENDBRANCH  77  78
ENDBRANCH  76  77
ENDBRANCH  75  76
ENDBRANCH  74  75
ENDBRANCH   1  74
TORSDOF 25
ENDMDL
