MODEL 1
REMARK VINA RESULT:      -7.5      0.000      0.000
REMARK SMILES O=C(CSc1cc(-c2ccccc2)nc(-c2ccccc2F)n1)OCCOCCOCCOCCOC(=O)c1ccc(-c2c3nc(c(-c4cccc(S(=O)(=O)[O-])c4F)c4ccc([nH]4)c(-c4cccc(S(=O)(=O)[O-])c4F)c4nc(c(-c5cccc(S(=O)(=O)[O-])c5F)c5ccc2[nH]5)C=C4)C=C3)cc1
REMARK SMILES IDX 30 1 29 2 28 3 27 4 26 5 25 6 24 7 2 8 1 9 3 10 4 11 5 12
REMARK SMILES IDX 6 13 23 14 7 15 15 16 14 17 8 18 9 19 13 20 10 21 12 22
REMARK SMILES IDX 11 23 16 24 17 25 21 26 18 27 20 28 22 29 19 30 31 31 32 32
REMARK SMILES IDX 33 33 34 34 35 35 36 36 37 37 38 38 39 39 40 40 101 41 41 42
REMARK SMILES IDX 100 43 42 44 43 45 44 46 94 47 45 48 99 49 93 50 95 51 46 52
REMARK SMILES IDX 98 53 92 54 91 55 47 57 79 58 59 59 78 60 60 61 63 62 77 63
REMARK SMILES IDX 96 64 61 65 62 66 76 68 97 69 64 70 48 71 49 72 57 73 50 74
REMARK SMILES IDX 52 75 58 76 51 77 53 78 54 79 55 80 56 81 80 82 81 83 89 84
REMARK SMILES IDX 82 85 84 86 90 87 83 88 85 89 86 90 87 91 88 92 65 93 66 94
REMARK SMILES IDX 74 95 67 96 69 97 75 98 68 99 70 100 71 101 72 102 73 103
REMARK H PARENT 95 56 63 67
REMARK Flexibility Score: inf
ROOT
ATOM      1  O   UNL A   1      40.902  43.483  20.175  1.00  0.00    -0.377 OA
ENDROOT
BRANCH   1   2
ATOM      2  C   UNL A   1      40.979  44.079  18.889  1.00  0.00     0.188 C 
BRANCH   2   3
ATOM      3  C   UNL A   1      42.361  44.602  18.493  1.00  0.00     0.188 C 
BRANCH   3   4
ATOM      4  O   UNL A   1      42.515  45.983  18.212  1.00  0.00    -0.376 OA
BRANCH   4   5
ATOM      5  C   UNL A   1      43.676  46.645  17.743  1.00  0.00     0.202 C 
BRANCH   5   6
ATOM      6  C   UNL A   1      44.753  47.190  18.674  1.00  0.00     0.261 C 
BRANCH   6   7
ATOM      7  O   UNL A   1      45.009  46.469  19.887  1.00  0.00    -0.463 OA
BRANCH   7   8
ATOM      8  C   UNL A   1      45.876  46.790  20.866  1.00  0.00     0.316 C 
ATOM      9  O   UNL A   1      46.743  47.637  20.642  1.00  0.00    -0.251 OA
BRANCH   8  10
ATOM     10  C   UNL A   1      45.896  46.008  22.164  1.00  0.00     0.199 C 
BRANCH  10  11
ATOM     11  S   UNL A   1      45.791  44.212  21.944  1.00  0.00    -0.094 SA
BRANCH  11  12
ATOM     12  C   UNL A   1      46.226  43.870  23.616  1.00  0.00     0.101 A 
ATOM     13  C   UNL A   1      46.241  42.565  24.003  1.00  0.00     0.064 A 
ATOM     14  N   UNL A   1      46.796  44.865  24.298  1.00  0.00    -0.222 NA
ATOM     15  C   UNL A   1      46.931  42.306  25.159  1.00  0.00     0.075 A 
ATOM     16  C   UNL A   1      47.490  44.516  25.393  1.00  0.00     0.163 A 
ATOM     17  N   UNL A   1      47.560  43.259  25.875  1.00  0.00    -0.228 NA
BRANCH  15  18
ATOM     18  C   UNL A   1      46.922  40.937  25.655  1.00  0.00     0.000 A 
ATOM     19  C   UNL A   1      46.951  39.883  24.735  1.00  0.00     0.010 A 
ATOM     20  C   UNL A   1      47.111  40.657  27.021  1.00  0.00     0.010 A 
ATOM     21  C   UNL A   1      47.215  38.584  25.159  1.00  0.00     0.001 A 
ATOM     22  C   UNL A   1      47.368  39.354  27.445  1.00  0.00     0.001 A 
ATOM     23  C   UNL A   1      47.434  38.322  26.510  1.00  0.00     0.000 A 
ENDBRANCH  15  18
BRANCH  16  24
ATOM     24  C   UNL A   1      48.206  45.600  26.066  1.00  0.00     0.055 A 
ATOM     25  C   UNL A   1      47.917  45.925  27.409  1.00  0.00     0.015 A 
ATOM     26  C   UNL A   1      49.158  46.386  25.409  1.00  0.00     0.134 A 
ATOM     27  C   UNL A   1      48.586  46.959  28.070  1.00  0.00     0.001 A 
ATOM     28  C   UNL A   1      49.826  47.426  26.061  1.00  0.00     0.040 A 
ATOM     29  F   UNL A   1      49.435  46.186  24.110  1.00  0.00    -0.206 F 
ATOM     30  C   UNL A   1      49.548  47.706  27.397  1.00  0.00     0.003 A 
ENDBRANCH  16  24
ENDBRANCH  11  12
ENDBRANCH  10  11
ENDBRANCH   8  10
ENDBRANCH   7   8
ENDBRANCH   6   7
ENDBRANCH   5   6
ENDBRANCH   4   5
ENDBRANCH   3   4
ENDBRANCH   2   3
ENDBRANCH   1   2
BRANCH   1  31
ATOM     31  C   UNL A   1      42.084  42.812  20.573  1.00  0.00     0.188 C 
BRANCH  31  32
ATOM     32  C   UNL A   1      42.350  42.833  22.095  1.00  0.00     0.188 C 
BRANCH  32  33
ATOM     33  O   UNL A   1      42.315  41.654  22.884  1.00  0.00    -0.376 OA
BRANCH  33  34
ATOM     34  C   UNL A   1      42.004  41.700  24.266  1.00  0.00     0.202 C 
BRANCH  34  35
ATOM     35  C   UNL A   1      43.050  41.534  25.382  1.00  0.00     0.261 C 
BRANCH  35  36
ATOM     36  O   UNL A   1      43.038  40.306  26.109  1.00  0.00    -0.460 OA
BRANCH  36  37
ATOM     37  C   UNL A   1      43.445  40.380  27.395  1.00  0.00     0.338 C 
ATOM     38  O   UNL A   1      43.358  41.342  28.143  1.00  0.00    -0.246 OA
BRANCH  37  39
ATOM     39  C   UNL A   1      43.809  39.020  27.837  1.00  0.00     0.060 A 
ATOM     40  C   UNL A   1      43.735  37.971  26.906  1.00  0.00     0.016 A 
ATOM     41  C   UNL A   1      44.257  38.784  29.138  1.00  0.00     0.016 A 
ATOM     42  C   UNL A   1      44.082  36.677  27.278  1.00  0.00     0.010 A 
ATOM     43  C   UNL A   1      44.555  37.479  29.527  1.00  0.00     0.010 A 
ATOM     44  C   UNL A   1      44.427  36.420  28.608  1.00  0.00    -0.014 A 
BRANCH  44  45
ATOM     45  C   UNL A   1      44.349  35.034  29.112  1.00  0.00     0.031 A 
ATOM     46  C   UNL A   1      45.619  34.232  29.107  1.00  0.00     0.074 A 
ATOM     47  C   UNL A   1      43.197  34.499  29.547  1.00  0.00     0.049 A 
ATOM     48  N   UNL A   1      45.809  32.973  29.394  1.00  0.00    -0.248 NA
ATOM     49  C   UNL A   1      46.844  34.951  28.711  1.00  0.00     0.031 C 
ATOM     50  C   UNL A   1      41.915  35.195  29.628  1.00  0.00     0.029 A 
ATOM     51  N   UNL A   1      42.921  33.224  29.969  1.00  0.00    -0.354 N 
ATOM     52  C   UNL A   1      47.160  32.740  29.170  1.00  0.00     0.074 A 
ATOM     53  C   UNL A   1      47.744  33.982  28.722  1.00  0.00     0.031 C 
ATOM     54  C   UNL A   1      40.975  34.323  30.032  1.00  0.00     0.029 A 
ATOM     55  C   UNL A   1      41.585  33.004  30.203  1.00  0.00     0.049 A 
ATOM     56  H   UNL A   1      43.611  32.533  30.093  1.00  0.00     0.167 HD
ATOM     57  C   UNL A   1      47.855  31.590  29.327  1.00  0.00     0.034 A 
ATOM     58  C   UNL A   1      40.932  31.859  30.483  1.00  0.00     0.034 A 
ATOM     59  C   UNL A   1      47.266  30.361  29.775  1.00  0.00     0.049 A 
ATOM     60  C   UNL A   1      41.720  30.579  30.613  1.00  0.00     0.074 A 
ATOM     61  C   UNL A   1      47.883  29.145  30.004  1.00  0.00     0.029 A 
ATOM     62  N   UNL A   1      45.918  30.185  30.042  1.00  0.00    -0.354 N 
ATOM     63  N   UNL A   1      43.011  30.386  30.489  1.00  0.00    -0.248 NA
ATOM     64  C   UNL A   1      40.963  29.364  30.952  1.00  0.00     0.031 C 
ATOM     65  C   UNL A   1      46.899  28.222  30.369  1.00  0.00     0.029 A 
ATOM     66  C   UNL A   1      45.677  28.876  30.421  1.00  0.00     0.049 A 
ATOM     67  H   UNL A   1      45.231  30.887  29.973  1.00  0.00     0.167 HD
ATOM     68  C   UNL A   1      43.227  29.042  30.778  1.00  0.00     0.074 A 
ATOM     69  C   UNL A   1      41.934  28.471  31.092  1.00  0.00     0.031 C 
ATOM     70  C   UNL A   1      44.389  28.341  30.782  1.00  0.00     0.034 A 
BRANCH  57  71
ATOM     71  C   UNL A   1      49.323  31.616  28.996  1.00  0.00     0.023 A 
ATOM     72  C   UNL A   1      50.277  31.755  30.024  1.00  0.00     0.012 A 
ATOM     73  C   UNL A   1      49.757  31.481  27.663  1.00  0.00     0.148 A 
ATOM     74  C   UNL A   1      51.639  31.802  29.727  1.00  0.00     0.002 A 
ATOM     75  C   UNL A   1      51.117  31.474  27.381  1.00  0.00     0.091 A 
ATOM     76  F   UNL A   1      48.833  31.379  26.697  1.00  0.00    -0.205 F 
ATOM     77  C   UNL A   1      52.058  31.651  28.408  1.00  0.00     0.022 A 
BRANCH  75  78
ATOM     78  S   UNL A   1      51.757  31.203  25.726  1.00  0.00     0.127 S 
ATOM     79  O   UNL A   1      51.273  29.853  25.438  1.00  0.00    -0.237 OA
ATOM     80  O   UNL A   1      51.096  32.263  24.965  1.00  0.00    -0.237 OA
ATOM     81  O   UNL A   1      53.203  31.339  25.825  1.00  0.00    -0.744 OA
ENDBRANCH  75  78
ENDBRANCH  57  71
BRANCH  58  82
ATOM     82  C   UNL A   1      39.454  31.871  30.674  1.00  0.00     0.023 A 
ATOM     83  C   UNL A   1      38.615  31.412  29.641  1.00  0.00     0.012 A 
ATOM     84  C   UNL A   1      38.879  32.318  31.880  1.00  0.00     0.148 A 
ATOM     85  C   UNL A   1      37.228  31.427  29.792  1.00  0.00     0.002 A 
ATOM     86  C   UNL A   1      37.500  32.277  32.045  1.00  0.00     0.091 A 
ATOM     87  F   UNL A   1      39.695  32.760  32.846  1.00  0.00    -0.205 F 
ATOM     88  C   UNL A   1      36.671  31.850  30.997  1.00  0.00     0.022 A 
BRANCH  86  89
ATOM     89  S   UNL A   1      36.699  32.684  33.600  1.00  0.00     0.127 S 
ATOM     90  O   UNL A   1      37.251  31.671  34.496  1.00  0.00    -0.237 OA
ATOM     91  O   UNL A   1      37.182  34.044  33.837  1.00  0.00    -0.237 OA
ATOM     92  O   UNL A   1      35.268  32.587  33.347  1.00  0.00    -0.744 OA
ENDBRANCH  86  89
ENDBRANCH  58  82
BRANCH  70  93
ATOM     93  C   UNL A   1      44.341  26.894  31.200  1.00  0.00     0.023 A 
ATOM     94  C   UNL A   1      44.253  25.875  30.232  1.00  0.00     0.012 A 
ATOM     95  C   UNL A   1      44.481  26.547  32.559  1.00  0.00     0.148 A 
ATOM     96  C   UNL A   1      44.272  24.533  30.614  1.00  0.00     0.002 A 
ATOM     97  C   UNL A   1      44.555  25.210  32.927  1.00  0.00     0.091 A 
ATOM     98  F   UNL A   1      44.549  27.533  33.466  1.00  0.00    -0.205 F 
ATOM     99  C   UNL A   1      44.437  24.201  31.957  1.00  0.00     0.022 A 
BRANCH  97 100
ATOM    100  S   UNL A   1      44.871  24.691  34.618  1.00  0.00     0.127 S 
ATOM    101  O   UNL A   1      45.174  23.272  34.441  1.00  0.00    -0.237 OA
ATOM    102  O   UNL A   1      46.019  25.520  34.985  1.00  0.00    -0.237 OA
ATOM    103  O   UNL A   1      43.652  24.980  35.363  1.00  0.00    -0.744 OA
ENDBRANCH  97 100
ENDBRANCH  70  93
ENDBRANCH  44  45
ENDBRANCH  37  39
ENDBRANCH  36  37
ENDBRANCH  35  36
ENDBRANCH  34  35
ENDBRANCH  33  34
ENDBRANCH  32  33
ENDBRANCH  31  32
ENDBRANCH   1  31
TORSDOF 27
ENDMDL
MODEL 2
REMARK VINA RESULT:      -7.0      6.406     13.174
REMARK SMILES O=C(CSc1cc(-c2ccccc2)nc(-c2ccccc2F)n1)OCCOCCOCCOCCOC(=O)c1ccc(-c2c3nc(c(-c4cccc(S(=O)(=O)[O-])c4F)c4ccc([nH]4)c(-c4cccc(S(=O)(=O)[O-])c4F)c4nc(c(-c5cccc(S(=O)(=O)[O-])c5F)c5ccc2[nH]5)C=C4)C=C3)cc1
REMARK SMILES IDX 30 1 29 2 28 3 27 4 26 5 25 6 24 7 2 8 1 9 3 10 4 11 5 12
REMARK SMILES IDX 6 13 23 14 7 15 15 16 14 17 8 18 9 19 13 20 10 21 12 22
REMARK SMILES IDX 11 23 16 24 17 25 21 26 18 27 20 28 22 29 19 30 31 31 32 32
REMARK SMILES IDX 33 33 34 34 35 35 36 36 37 37 38 38 39 39 40 40 101 41 41 42
REMARK SMILES IDX 100 43 42 44 43 45 44 46 94 47 45 48 99 49 93 50 95 51 46 52
REMARK SMILES IDX 98 53 92 54 91 55 47 57 79 58 59 59 78 60 60 61 63 62 77 63
REMARK SMILES IDX 96 64 61 65 62 66 76 68 97 69 64 70 48 71 49 72 57 73 50 74
REMARK SMILES IDX 52 75 58 76 51 77 53 78 54 79 55 80 56 81 80 82 81 83 89 84
REMARK SMILES IDX 82 85 84 86 90 87 83 88 85 89 86 90 87 91 88 92 65 93 66 94
REMARK SMILES IDX 74 95 67 96 69 97 75 98 68 99 70 100 71 101 72 102 73 103
REMARK H PARENT 95 56 63 67
REMARK Flexibility Score: inf
ROOT
ATOM      1  O   UNL A   1      32.997  35.287  31.495  1.00  0.00    -0.377 OA
ENDROOT
BRANCH   1   2
ATOM      2  C   UNL A   1      33.165  36.382  32.382  1.00  0.00     0.188 C 
BRANCH   2   3
ATOM      3  C   UNL A   1      34.395  36.304  33.289  1.00  0.00     0.188 C 
BRANCH   3   4
ATOM      4  O   UNL A   1      34.991  35.039  33.525  1.00  0.00    -0.376 OA
BRANCH   4   5
ATOM      5  C   UNL A   1      36.194  34.535  32.972  1.00  0.00     0.202 C 
BRANCH   5   6
ATOM      6  C   UNL A   1      37.478  34.381  33.780  1.00  0.00     0.261 C 
BRANCH   6   7
ATOM      7  O   UNL A   1      37.351  34.128  35.186  1.00  0.00    -0.463 OA
BRANCH   7   8
ATOM      8  C   UNL A   1      37.774  33.046  35.868  1.00  0.00     0.316 C 
ATOM      9  O   UNL A   1      37.267  32.794  36.963  1.00  0.00    -0.251 OA
BRANCH   8  10
ATOM     10  C   UNL A   1      38.966  32.248  35.381  1.00  0.00     0.199 C 
BRANCH  10  11
ATOM     11  S   UNL A   1      38.943  30.507  35.884  1.00  0.00    -0.094 SA
BRANCH  11  12
ATOM     12  C   UNL A   1      40.351  30.092  34.911  1.00  0.00     0.101 A 
ATOM     13  C   UNL A   1      41.093  31.120  34.416  1.00  0.00     0.064 A 
ATOM     14  N   UNL A   1      40.764  28.825  34.971  1.00  0.00    -0.222 NA
ATOM     15  C   UNL A   1      42.355  30.783  34.000  1.00  0.00     0.075 A 
ATOM     16  C   UNL A   1      42.029  28.592  34.586  1.00  0.00     0.163 A 
ATOM     17  N   UNL A   1      42.847  29.530  34.068  1.00  0.00    -0.228 NA
BRANCH  15  18
ATOM     18  C   UNL A   1      43.168  31.831  33.399  1.00  0.00     0.000 A 
ATOM     19  C   UNL A   1      42.712  33.153  33.450  1.00  0.00     0.010 A 
ATOM     20  C   UNL A   1      44.486  31.578  32.977  1.00  0.00     0.010 A 
ATOM     21  C   UNL A   1      43.567  34.207  33.138  1.00  0.00     0.001 A 
ATOM     22  C   UNL A   1      45.339  32.634  32.657  1.00  0.00     0.001 A 
ATOM     23  C   UNL A   1      44.881  33.947  32.753  1.00  0.00     0.000 A 
ENDBRANCH  15  18
BRANCH  16  24
ATOM     24  C   UNL A   1      42.508  27.221  34.766  1.00  0.00     0.055 A 
ATOM     25  C   UNL A   1      43.279  26.593  33.765  1.00  0.00     0.015 A 
ATOM     26  C   UNL A   1      42.188  26.462  35.898  1.00  0.00     0.134 A 
ATOM     27  C   UNL A   1      43.743  25.283  33.915  1.00  0.00     0.001 A 
ATOM     28  C   UNL A   1      42.643  25.149  36.051  1.00  0.00     0.040 A 
ATOM     29  F   UNL A   1      41.398  26.964  36.860  1.00  0.00    -0.206 F 
ATOM     30  C   UNL A   1      43.431  24.563  35.064  1.00  0.00     0.003 A 
ENDBRANCH  16  24
ENDBRANCH  11  12
ENDBRANCH  10  11
ENDBRANCH   8  10
ENDBRANCH   7   8
ENDBRANCH   6   7
ENDBRANCH   5   6
ENDBRANCH   4   5
ENDBRANCH   3   4
ENDBRANCH   2   3
ENDBRANCH   1   2
BRANCH   1  31
ATOM     31  C   UNL A   1      32.896  35.657  30.132  1.00  0.00     0.188 C 
BRANCH  31  32
ATOM     32  C   UNL A   1      33.626  34.708  29.155  1.00  0.00     0.188 C 
BRANCH  32  33
ATOM     33  O   UNL A   1      34.949  34.252  29.392  1.00  0.00    -0.376 OA
BRANCH  33  34
ATOM     34  C   UNL A   1      35.385  32.983  28.936  1.00  0.00     0.202 C 
BRANCH  34  35
ATOM     35  C   UNL A   1      35.276  31.695  29.769  1.00  0.00     0.261 C 
BRANCH  35  36
ATOM     36  O   UNL A   1      36.107  31.594  30.926  1.00  0.00    -0.460 OA
BRANCH  36  37
ATOM     37  C   UNL A   1      36.765  30.424  31.077  1.00  0.00     0.338 C 
ATOM     38  O   UNL A   1      36.282  29.335  31.346  1.00  0.00    -0.246 OA
BRANCH  37  39
ATOM     39  C   UNL A   1      38.158  30.623  30.632  1.00  0.00     0.060 A 
ATOM     40  C   UNL A   1      38.459  30.446  29.272  1.00  0.00     0.016 A 
ATOM     41  C   UNL A   1      39.149  31.020  31.533  1.00  0.00     0.016 A 
ATOM     42  C   UNL A   1      39.757  30.636  28.810  1.00  0.00     0.010 A 
ATOM     43  C   UNL A   1      40.459  31.160  31.080  1.00  0.00     0.010 A 
ATOM     44  C   UNL A   1      40.770  30.928  29.727  1.00  0.00    -0.014 A 
BRANCH  44  45
ATOM     45  C   UNL A   1      42.176  30.684  29.342  1.00  0.00     0.031 A 
ATOM     46  C   UNL A   1      42.591  29.253  29.143  1.00  0.00     0.074 A 
ATOM     47  C   UNL A   1      43.054  31.686  29.186  1.00  0.00     0.049 A 
ATOM     48  N   UNL A   1      43.775  28.757  28.906  1.00  0.00    -0.248 NA
ATOM     49  C   UNL A   1      41.521  28.243  29.234  1.00  0.00     0.031 C 
ATOM     50  C   UNL A   1      42.751  33.109  29.320  1.00  0.00     0.029 A 
ATOM     51  N   UNL A   1      44.397  31.646  28.913  1.00  0.00    -0.354 N 
ATOM     52  C   UNL A   1      43.600  27.380  28.867  1.00  0.00     0.074 A 
ATOM     53  C   UNL A   1      42.200  27.115  29.105  1.00  0.00     0.031 C 
ATOM     54  C   UNL A   1      43.891  33.808  29.174  1.00  0.00     0.029 A 
ATOM     55  C   UNL A   1      45.002  32.879  28.970  1.00  0.00     0.049 A 
ATOM     56  H   UNL A   1      44.882  30.817  28.698  1.00  0.00     0.167 HD
ATOM     57  C   UNL A   1      44.525  26.418  28.650  1.00  0.00     0.034 A 
ATOM     58  C   UNL A   1      46.307  33.206  28.905  1.00  0.00     0.034 A 
ATOM     59  C   UNL A   1      45.913  26.690  28.413  1.00  0.00     0.049 A 
ATOM     60  C   UNL A   1      47.329  32.115  28.702  1.00  0.00     0.074 A 
ATOM     61  C   UNL A   1      46.932  25.794  28.144  1.00  0.00     0.029 A 
ATOM     62  N   UNL A   1      46.484  27.953  28.436  1.00  0.00    -0.354 N 
ATOM     63  N   UNL A   1      47.143  30.822  28.574  1.00  0.00    -0.248 NA
ATOM     64  C   UNL A   1      48.736  32.530  28.604  1.00  0.00     0.031 C 
ATOM     65  C   UNL A   1      48.127  26.513  28.047  1.00  0.00     0.029 A 
ATOM     66  C   UNL A   1      47.844  27.862  28.201  1.00  0.00     0.049 A 
ATOM     67  H   UNL A   1      45.994  28.792  28.596  1.00  0.00     0.167 HD
ATOM     68  C   UNL A   1      48.401  30.277  28.337  1.00  0.00     0.074 A 
ATOM     69  C   UNL A   1      49.339  31.380  28.331  1.00  0.00     0.031 C 
ATOM     70  C   UNL A   1      48.752  28.980  28.145  1.00  0.00     0.034 A 
BRANCH  57  71
ATOM     71  C   UNL A   1      44.057  24.987  28.673  1.00  0.00     0.023 A 
ATOM     72  C   UNL A   1      44.086  24.253  29.877  1.00  0.00     0.012 A 
ATOM     73  C   UNL A   1      43.568  24.377  27.502  1.00  0.00     0.148 A 
ATOM     74  C   UNL A   1      43.674  22.921  29.905  1.00  0.00     0.002 A 
ATOM     75  C   UNL A   1      43.110  23.067  27.551  1.00  0.00     0.091 A 
ATOM     76  F   UNL A   1      43.576  25.082  26.362  1.00  0.00    -0.205 F 
ATOM     77  C   UNL A   1      43.177  22.332  28.746  1.00  0.00     0.022 A 
BRANCH  75  78
ATOM     78  S   UNL A   1      42.375  22.248  26.132  1.00  0.00     0.127 S 
ATOM     79  O   UNL A   1      41.015  21.994  26.607  1.00  0.00    -0.237 OA
ATOM     80  O   UNL A   1      42.477  23.279  25.098  1.00  0.00    -0.237 OA
ATOM     81  O   UNL A   1      43.182  21.062  25.887  1.00  0.00    -0.744 OA
ENDBRANCH  75  78
ENDBRANCH  57  71
BRANCH  58  82
ATOM     82  C   UNL A   1      46.725  34.633  29.016  1.00  0.00     0.023 A 
ATOM     83  C   UNL A   1      47.058  35.164  30.277  1.00  0.00     0.012 A 
ATOM     84  C   UNL A   1      46.809  35.459  27.878  1.00  0.00     0.148 A 
ATOM     85  C   UNL A   1      47.437  36.500  30.407  1.00  0.00     0.002 A 
ATOM     86  C   UNL A   1      47.242  36.773  28.007  1.00  0.00     0.091 A 
ATOM     87  F   UNL A   1      46.477  34.937  26.690  1.00  0.00    -0.205 F 
ATOM     88  C   UNL A   1      47.539  37.302  29.273  1.00  0.00     0.022 A 
BRANCH  86  89
ATOM     89  S   UNL A   1      47.522  37.844  26.594  1.00  0.00     0.127 S 
ATOM     90  O   UNL A   1      48.390  38.871  27.163  1.00  0.00    -0.237 OA
ATOM     91  O   UNL A   1      48.179  36.933  25.656  1.00  0.00    -0.237 OA
ATOM     92  O   UNL A   1      46.204  38.298  26.172  1.00  0.00    -0.744 OA
ENDBRANCH  86  89
ENDBRANCH  58  82
BRANCH  70  93
ATOM     93  C   UNL A   1      50.196  28.675  27.842  1.00  0.00     0.023 A 
ATOM     94  C   UNL A   1      50.675  28.737  26.519  1.00  0.00     0.012 A 
ATOM     95  C   UNL A   1      51.099  28.419  28.894  1.00  0.00     0.148 A 
ATOM     96  C   UNL A   1      52.026  28.517  26.245  1.00  0.00     0.002 A 
ATOM     97  C   UNL A   1      52.451  28.256  28.620  1.00  0.00     0.091 A 
ATOM     98  F   UNL A   1      50.620  28.350  30.145  1.00  0.00    -0.205 F 
ATOM     99  C   UNL A   1      52.914  28.291  27.294  1.00  0.00     0.022 A 
BRANCH  97 100
ATOM    100  S   UNL A   1      53.681  28.064  29.915  1.00  0.00     0.127 S 
ATOM    101  O   UNL A   1      53.436  29.249  30.734  1.00  0.00    -0.237 OA
ATOM    102  O   UNL A   1      53.282  26.800  30.535  1.00  0.00    -0.237 OA
ATOM    103  O   UNL A   1      54.973  28.027  29.242  1.00  0.00    -0.744 OA
ENDBRANCH  97 100
ENDBRANCH  70  93
ENDBRANCH  44  45
ENDBRANCH  37  39
ENDBRANCH  36  37
ENDBRANCH  35  36
ENDBRANCH  34  35
ENDBRANCH  33  34
ENDBRANCH  32  33
ENDBRANCH  31  32
ENDBRANCH   1  31
TORSDOF 27
ENDMDL
MODEL 3
REMARK VINA RESULT:      -6.9      7.697     13.945
REMARK SMILES O=C(CSc1cc(-c2ccccc2)nc(-c2ccccc2F)n1)OCCOCCOCCOCCOC(=O)c1ccc(-c2c3nc(c(-c4cccc(S(=O)(=O)[O-])c4F)c4ccc([nH]4)c(-c4cccc(S(=O)(=O)[O-])c4F)c4nc(c(-c5cccc(S(=O)(=O)[O-])c5F)c5ccc2[nH]5)C=C4)C=C3)cc1
REMARK SMILES IDX 30 1 29 2 28 3 27 4 26 5 25 6 24 7 2 8 1 9 3 10 4 11 5 12
REMARK SMILES IDX 6 13 23 14 7 15 15 16 14 17 8 18 9 19 13 20 10 21 12 22
REMARK SMILES IDX 11 23 16 24 17 25 21 26 18 27 20 28 22 29 19 30 31 31 32 32
REMARK SMILES IDX 33 33 34 34 35 35 36 36 37 37 38 38 39 39 40 40 101 41 41 42
REMARK SMILES IDX 100 43 42 44 43 45 44 46 94 47 45 48 99 49 93 50 95 51 46 52
REMARK SMILES IDX 98 53 92 54 91 55 47 57 79 58 59 59 78 60 60 61 63 62 77 63
REMARK SMILES IDX 96 64 61 65 62 66 76 68 97 69 64 70 48 71 49 72 57 73 50 74
REMARK SMILES IDX 52 75 58 76 51 77 53 78 54 79 55 80 56 81 80 82 81 83 89 84
REMARK SMILES IDX 82 85 84 86 90 87 83 88 85 89 86 90 87 91 88 92 65 93 66 94
REMARK SMILES IDX 74 95 67 96 69 97 75 98 68 99 70 100 71 101 72 102 73 103
REMARK H PARENT 95 56 63 67
REMARK Flexibility Score: inf
ROOT
ATOM      1  O   UNL A   1      47.716  31.823  29.330  1.00  0.00    -0.377 OA
ENDROOT
BRANCH   1   2
ATOM      2  C   UNL A   1      47.036  32.004  28.098  1.00  0.00     0.188 C 
BRANCH   2   3
ATOM      3  C   UNL A   1      46.267  30.782  27.592  1.00  0.00     0.188 C 
BRANCH   3   4
ATOM      4  O   UNL A   1      46.762  30.084  26.461  1.00  0.00    -0.376 OA
BRANCH   4   5
ATOM      5  C   UNL A   1      46.263  28.881  25.903  1.00  0.00     0.202 C 
BRANCH   5   6
ATOM      6  C   UNL A   1      45.647  27.769  26.744  1.00  0.00     0.261 C 
BRANCH   6   7
ATOM      7  O   UNL A   1      44.271  27.909  27.123  1.00  0.00    -0.463 OA
BRANCH   7   8
ATOM      8  C   UNL A   1      43.248  27.085  26.823  1.00  0.00     0.316 C 
ATOM      9  O   UNL A   1      43.430  26.179  26.007  1.00  0.00    -0.251 OA
BRANCH   8  10
ATOM     10  C   UNL A   1      41.855  27.366  27.349  1.00  0.00     0.199 C 
BRANCH  10  11
ATOM     11  S   UNL A   1      40.987  28.691  26.468  1.00  0.00    -0.094 SA
BRANCH  11  12
ATOM     12  C   UNL A   1      39.956  29.080  27.842  1.00  0.00     0.101 A 
ATOM     13  C   UNL A   1      40.570  29.377  29.020  1.00  0.00     0.064 A 
ATOM     14  N   UNL A   1      38.678  29.349  27.570  1.00  0.00    -0.222 NA
ATOM     15  C   UNL A   1      39.789  30.028  29.939  1.00  0.00     0.075 A 
ATOM     16  C   UNL A   1      38.000  30.029  28.508  1.00  0.00     0.163 A 
ATOM     17  N   UNL A   1      38.503  30.362  29.713  1.00  0.00    -0.228 NA
BRANCH  15  18
ATOM     18  C   UNL A   1      40.376  30.309  31.242  1.00  0.00     0.000 A 
ATOM     19  C   UNL A   1      40.627  29.244  32.114  1.00  0.00     0.010 A 
ATOM     20  C   UNL A   1      40.897  31.580  31.547  1.00  0.00     0.010 A 
ATOM     21  C   UNL A   1      41.425  29.428  33.241  1.00  0.00     0.001 A 
ATOM     22  C   UNL A   1      41.689  31.764  32.679  1.00  0.00     0.001 A 
ATOM     23  C   UNL A   1      41.963  30.684  33.516  1.00  0.00     0.000 A 
ENDBRANCH  15  18
BRANCH  16  24
ATOM     24  C   UNL A   1      36.636  30.420  28.150  1.00  0.00     0.055 A 
ATOM     25  C   UNL A   1      35.705  29.455  27.711  1.00  0.00     0.015 A 
ATOM     26  C   UNL A   1      36.210  31.753  28.176  1.00  0.00     0.134 A 
ATOM     27  C   UNL A   1      34.398  29.806  27.360  1.00  0.00     0.001 A 
ATOM     28  C   UNL A   1      34.908  32.113  27.820  1.00  0.00     0.040 A 
ATOM     29  F   UNL A   1      37.059  32.737  28.512  1.00  0.00    -0.206 F 
ATOM     30  C   UNL A   1      33.997  31.138  27.423  1.00  0.00     0.003 A 
ENDBRANCH  16  24
ENDBRANCH  11  12
ENDBRANCH  10  11
ENDBRANCH   8  10
ENDBRANCH   7   8
ENDBRANCH   6   7
ENDBRANCH   5   6
ENDBRANCH   4   5
ENDBRANCH   3   4
ENDBRANCH   2   3
ENDBRANCH   1   2
BRANCH   1  31
ATOM     31  C   UNL A   1      48.738  32.773  29.572  1.00  0.00     0.188 C 
BRANCH  31  32
ATOM     32  C   UNL A   1      48.264  34.054  30.294  1.00  0.00     0.188 C 
BRANCH  32  33
ATOM     33  O   UNL A   1      48.240  35.319  29.650  1.00  0.00    -0.376 OA
BRANCH  33  34
ATOM     34  C   UNL A   1      47.164  36.221  29.835  1.00  0.00     0.202 C 
BRANCH  34  35
ATOM     35  C   UNL A   1      47.343  37.681  30.286  1.00  0.00     0.261 C 
BRANCH  35  36
ATOM     36  O   UNL A   1      46.625  38.098  31.447  1.00  0.00    -0.460 OA
BRANCH  36  37
ATOM     37  C   UNL A   1      45.295  38.274  31.286  1.00  0.00     0.338 C 
ATOM     38  O   UNL A   1      44.708  38.552  30.252  1.00  0.00    -0.246 OA
BRANCH  37  39
ATOM     39  C   UNL A   1      44.624  37.844  32.528  1.00  0.00     0.060 A 
ATOM     40  C   UNL A   1      44.960  36.593  33.071  1.00  0.00     0.016 A 
ATOM     41  C   UNL A   1      43.708  38.675  33.173  1.00  0.00     0.016 A 
ATOM     42  C   UNL A   1      44.359  36.155  34.247  1.00  0.00     0.010 A 
ATOM     43  C   UNL A   1      43.068  38.217  34.323  1.00  0.00     0.010 A 
ATOM     44  C   UNL A   1      43.364  36.939  34.836  1.00  0.00    -0.014 A 
BRANCH  44  45
ATOM     45  C   UNL A   1      42.422  36.307  35.784  1.00  0.00     0.031 A 
ATOM     46  C   UNL A   1      42.709  36.479  37.249  1.00  0.00     0.074 A 
ATOM     47  C   UNL A   1      41.362  35.599  35.366  1.00  0.00     0.049 A 
ATOM     48  N   UNL A   1      42.111  35.949  38.280  1.00  0.00    -0.248 NA
ATOM     49  C   UNL A   1      43.836  37.365  37.594  1.00  0.00     0.031 C 
ATOM     50  C   UNL A   1      40.970  35.397  33.973  1.00  0.00     0.029 A 
ATOM     51  N   UNL A   1      40.440  34.885  36.088  1.00  0.00    -0.354 N 
ATOM     52  C   UNL A   1      42.815  36.398  39.390  1.00  0.00     0.074 A 
ATOM     53  C   UNL A   1      43.886  37.242  38.910  1.00  0.00     0.031 C 
ATOM     54  C   UNL A   1      39.910  34.571  33.939  1.00  0.00     0.029 A 
ATOM     55  C   UNL A   1      39.574  34.163  35.303  1.00  0.00     0.049 A 
ATOM     56  H   UNL A   1      40.401  34.889  37.071  1.00  0.00     0.167 HD
ATOM     57  C   UNL A   1      42.589  36.134  40.697  1.00  0.00     0.034 A 
ATOM     58  C   UNL A   1      38.646  33.249  35.651  1.00  0.00     0.034 A 
ATOM     59  C   UNL A   1      41.522  35.296  41.164  1.00  0.00     0.049 A 
ATOM     60  C   UNL A   1      38.436  32.937  37.112  1.00  0.00     0.074 A 
ATOM     61  C   UNL A   1      41.178  34.989  42.467  1.00  0.00     0.029 A 
ATOM     62  N   UNL A   1      40.639  34.614  40.343  1.00  0.00    -0.354 N 
ATOM     63  N   UNL A   1      39.046  33.437  38.160  1.00  0.00    -0.248 NA
ATOM     64  C   UNL A   1      37.389  31.958  37.439  1.00  0.00     0.031 C 
ATOM     65  C   UNL A   1      40.112  34.086  42.433  1.00  0.00     0.029 A 
ATOM     66  C   UNL A   1      39.756  33.874  41.109  1.00  0.00     0.049 A 
ATOM     67  H   UNL A   1      40.638  34.650  39.359  1.00  0.00     0.167 HD
ATOM     68  C   UNL A   1      38.428  32.868  39.270  1.00  0.00     0.074 A 
ATOM     69  C   UNL A   1      37.391  31.993  38.765  1.00  0.00     0.031 C 
ATOM     70  C   UNL A   1      38.695  33.050  40.587  1.00  0.00     0.034 A 
BRANCH  57  71
ATOM     71  C   UNL A   1      43.525  36.750  41.702  1.00  0.00     0.023 A 
ATOM     72  C   UNL A   1      44.707  36.078  42.073  1.00  0.00     0.012 A 
ATOM     73  C   UNL A   1      43.240  38.010  42.263  1.00  0.00     0.148 A 
ATOM     74  C   UNL A   1      45.571  36.630  43.018  1.00  0.00     0.002 A 
ATOM     75  C   UNL A   1      44.132  38.578  43.164  1.00  0.00     0.091 A 
ATOM     76  F   UNL A   1      42.097  38.620  41.919  1.00  0.00    -0.205 F 
ATOM     77  C   UNL A   1      45.288  37.884  43.555  1.00  0.00     0.022 A 
BRANCH  75  78
ATOM     78  S   UNL A   1      43.899  40.223  43.846  1.00  0.00     0.127 S 
ATOM     79  O   UNL A   1      43.933  41.051  42.641  1.00  0.00    -0.237 OA
ATOM     80  O   UNL A   1      42.581  40.109  44.471  1.00  0.00    -0.237 OA
ATOM     81  O   UNL A   1      44.997  40.432  44.778  1.00  0.00    -0.744 OA
ENDBRANCH  75  78
ENDBRANCH  57  71
BRANCH  58  82
ATOM     82  C   UNL A   1      37.834  32.574  34.600  1.00  0.00     0.023 A 
ATOM     83  C   UNL A   1      38.151  31.257  34.214  1.00  0.00     0.012 A 
ATOM     84  C   UNL A   1      36.739  33.222  33.995  1.00  0.00     0.148 A 
ATOM     85  C   UNL A   1      37.414  30.610  33.221  1.00  0.00     0.002 A 
ATOM     86  C   UNL A   1      35.974  32.552  33.048  1.00  0.00     0.091 A 
ATOM     87  F   UNL A   1      36.461  34.478  34.369  1.00  0.00    -0.205 F 
ATOM     88  C   UNL A   1      36.320  31.252  32.646  1.00  0.00     0.022 A 
BRANCH  86  89
ATOM     89  S   UNL A   1      34.477  33.249  32.343  1.00  0.00     0.127 S 
ATOM     90  O   UNL A   1      34.857  34.647  32.155  1.00  0.00    -0.237 OA
ATOM     91  O   UNL A   1      34.343  32.477  31.107  1.00  0.00    -0.237 OA
ATOM     92  O   UNL A   1      33.427  33.009  33.322  1.00  0.00    -0.744 OA
ENDBRANCH  86  89
ENDBRANCH  58  82
BRANCH  70  93
ATOM     93  C   UNL A   1      37.817  32.348  41.591  1.00  0.00     0.023 A 
ATOM     94  C   UNL A   1      38.274  31.192  42.252  1.00  0.00     0.012 A 
ATOM     95  C   UNL A   1      36.568  32.899  41.944  1.00  0.00     0.148 A 
ATOM     96  C   UNL A   1      37.487  30.577  43.227  1.00  0.00     0.002 A 
ATOM     97  C   UNL A   1      35.816  32.315  42.954  1.00  0.00     0.091 A 
ATOM     98  F   UNL A   1      36.146  33.993  41.292  1.00  0.00    -0.205 F 
ATOM     99  C   UNL A   1      36.268  31.145  43.587  1.00  0.00     0.022 A 
BRANCH  97 100
ATOM    100  S   UNL A   1      34.284  33.034  43.555  1.00  0.00     0.127 S 
ATOM    101  O   UNL A   1      34.715  34.380  43.928  1.00  0.00    -0.237 OA
ATOM    102  O   UNL A   1      33.428  32.974  42.370  1.00  0.00    -0.237 OA
ATOM    103  O   UNL A   1      33.848  32.191  44.660  1.00  0.00    -0.744 OA
ENDBRANCH  97 100
ENDBRANCH  70  93
ENDBRANCH  44  45
ENDBRANCH  37  39
ENDBRANCH  36  37
ENDBRANCH  35  36
ENDBRANCH  34  35
ENDBRANCH  33  34
ENDBRANCH  32  33
ENDBRANCH  31  32
ENDBRANCH   1  31
TORSDOF 27
ENDMDL
