MODEL 1
REMARK VINA RESULT:      -7.6      0.000      0.000
REMARK SMILES O=C(CCC(=O)N1CCC(c2nnc3ccccn23)CC1)OCCOCCOCCOCCOC(=O)c1ccc(-c2c3nc(c(-c4cccc(S(=O)(=O)[O-])c4F)c4ccc([nH]4)c(-c4cccc(S(=O)(=O)[O-])c4F)c4nc(c(-c5cccc(S(=O)(=O)[O-])c5F)c5ccc2[nH]5)C=C4)C=C3)cc1
REMARK SMILES IDX 28 1 27 2 26 3 25 4 24 5 23 6 22 7 2 8 1 9 3 10 4 11 5 12
REMARK SMILES IDX 6 13 7 14 8 15 21 16 9 17 20 18 10 19 11 20 12 21 19 22
REMARK SMILES IDX 13 23 14 24 18 25 15 26 17 27 16 28 29 29 30 30 31 31 32 32
REMARK SMILES IDX 33 33 34 34 35 35 36 36 37 37 38 38 99 39 39 40 98 41 40 42
REMARK SMILES IDX 41 43 42 44 92 45 43 46 97 47 91 48 93 49 44 50 96 51 90 52
REMARK SMILES IDX 89 53 45 55 77 56 57 57 76 58 58 59 61 60 75 61 94 62 59 63
REMARK SMILES IDX 60 64 74 66 95 67 62 68 46 69 47 70 55 71 48 72 50 73 56 74
REMARK SMILES IDX 49 75 51 76 52 77 53 78 54 79 78 80 79 81 87 82 80 83 82 84
REMARK SMILES IDX 88 85 81 86 83 87 84 88 85 89 86 90 63 91 64 92 72 93 65 94
REMARK SMILES IDX 67 95 73 96 66 97 68 98 69 99 70 100 71 101
REMARK H PARENT 93 54 61 65
REMARK Flexibility Score: inf
ROOT
ATOM      1  O   UNL A   1      33.680  34.683  30.909  1.00  0.00    -0.377 OA
ENDROOT
BRANCH   1   2
ATOM      2  C   UNL A   1      33.548  35.195  29.586  1.00  0.00     0.188 C 
BRANCH   2   3
ATOM      3  C   UNL A   1      33.600  34.131  28.467  1.00  0.00     0.188 C 
BRANCH   3   4
ATOM      4  O   UNL A   1      34.867  33.998  27.837  1.00  0.00    -0.376 OA
BRANCH   4   5
ATOM      5  C   UNL A   1      35.498  32.735  27.746  1.00  0.00     0.202 C 
BRANCH   5   6
ATOM      6  C   UNL A   1      36.769  32.557  28.566  1.00  0.00     0.261 C 
BRANCH   6   7
ATOM      7  O   UNL A   1      37.179  31.181  28.671  1.00  0.00    -0.463 OA
BRANCH   7   8
ATOM      8  C   UNL A   1      37.818  30.618  29.711  1.00  0.00     0.306 C 
ATOM      9  O   UNL A   1      37.253  30.457  30.789  1.00  0.00    -0.252 OA
BRANCH   8  10
ATOM     10  C   UNL A   1      39.194  30.113  29.478  1.00  0.00     0.132 C 
BRANCH  10  11
ATOM     11  C   UNL A   1      39.189  29.178  28.289  1.00  0.00     0.112 C 
BRANCH  11  12
ATOM     12  C   UNL A   1      39.517  27.739  28.631  1.00  0.00     0.223 C 
ATOM     13  O   UNL A   1      39.250  27.349  29.774  1.00  0.00    -0.275 OA
ATOM     14  N   UNL A   1      40.073  26.892  27.684  1.00  0.00    -0.343 N 
ATOM     15  C   UNL A   1      39.993  25.464  27.941  1.00  0.00     0.120 C 
ATOM     16  C   UNL A   1      40.787  27.220  26.435  1.00  0.00     0.120 C 
ATOM     17  C   UNL A   1      41.377  24.867  28.050  1.00  0.00     0.033 C 
ATOM     18  C   UNL A   1      42.209  26.600  26.405  1.00  0.00     0.033 C 
ATOM     19  C   UNL A   1      42.182  25.105  26.762  1.00  0.00     0.062 C 
BRANCH  19  20
ATOM     20  C   UNL A   1      43.529  24.482  26.987  1.00  0.00     0.140 A 
ATOM     21  N   UNL A   1      44.101  24.242  28.154  1.00  0.00    -0.134 NA
ATOM     22  N   UNL A   1      44.198  23.780  26.001  1.00  0.00    -0.286 N 
ATOM     23  N   UNL A   1      45.125  23.339  27.955  1.00  0.00    -0.130 NA
ATOM     24  C   UNL A   1      45.175  23.058  26.669  1.00  0.00     0.160 A 
ATOM     25  C   UNL A   1      43.964  23.666  24.630  1.00  0.00     0.095 A 
ATOM     26  C   UNL A   1      46.004  22.201  25.889  1.00  0.00     0.050 A 
ATOM     27  C   UNL A   1      44.717  22.824  23.904  1.00  0.00     0.019 A 
ATOM     28  C   UNL A   1      45.782  22.084  24.563  1.00  0.00     0.005 A 
ENDBRANCH  19  20
ENDBRANCH  11  12
ENDBRANCH  10  11
ENDBRANCH   8  10
ENDBRANCH   7   8
ENDBRANCH   6   7
ENDBRANCH   5   6
ENDBRANCH   4   5
ENDBRANCH   3   4
ENDBRANCH   2   3
ENDBRANCH   1   2
BRANCH   1  29
ATOM     29  C   UNL A   1      34.187  33.355  30.976  1.00  0.00     0.188 C 
BRANCH  29  30
ATOM     30  C   UNL A   1      34.748  32.906  32.348  1.00  0.00     0.188 C 
BRANCH  30  31
ATOM     31  O   UNL A   1      34.251  33.395  33.592  1.00  0.00    -0.376 OA
BRANCH  31  32
ATOM     32  C   UNL A   1      35.026  34.295  34.361  1.00  0.00     0.202 C 
BRANCH  32  33
ATOM     33  C   UNL A   1      36.471  34.576  33.935  1.00  0.00     0.261 C 
BRANCH  33  34
ATOM     34  O   UNL A   1      37.459  33.693  34.475  1.00  0.00    -0.460 OA
BRANCH  34  35
ATOM     35  C   UNL A   1      38.702  34.222  34.601  1.00  0.00     0.338 C 
ATOM     36  O   UNL A   1      39.006  35.281  35.111  1.00  0.00    -0.246 OA
BRANCH  35  37
ATOM     37  C   UNL A   1      39.687  33.216  34.151  1.00  0.00     0.060 A 
ATOM     38  C   UNL A   1      40.976  33.233  34.705  1.00  0.00     0.016 A 
ATOM     39  C   UNL A   1      39.343  32.275  33.179  1.00  0.00     0.016 A 
ATOM     40  C   UNL A   1      41.934  32.321  34.275  1.00  0.00     0.010 A 
ATOM     41  C   UNL A   1      40.320  31.400  32.707  1.00  0.00     0.010 A 
ATOM     42  C   UNL A   1      41.624  31.448  33.228  1.00  0.00    -0.014 A 
BRANCH  42  43
ATOM     43  C   UNL A   1      42.712  30.782  32.484  1.00  0.00     0.031 A 
ATOM     44  C   UNL A   1      43.329  31.533  31.344  1.00  0.00     0.074 A 
ATOM     45  C   UNL A   1      43.070  29.517  32.749  1.00  0.00     0.049 A 
ATOM     46  N   UNL A   1      44.187  31.125  30.450  1.00  0.00    -0.248 NA
ATOM     47  C   UNL A   1      42.874  32.923  31.159  1.00  0.00     0.031 C 
ATOM     48  C   UNL A   1      42.495  28.695  33.804  1.00  0.00     0.029 A 
ATOM     49  N   UNL A   1      43.988  28.700  32.139  1.00  0.00    -0.354 N 
ATOM     50  C   UNL A   1      44.295  32.168  29.539  1.00  0.00     0.074 A 
ATOM     51  C   UNL A   1      43.458  33.245  30.018  1.00  0.00     0.031 C 
ATOM     52  C   UNL A   1      43.090  27.491  33.789  1.00  0.00     0.029 A 
ATOM     53  C   UNL A   1      44.050  27.441  32.688  1.00  0.00     0.049 A 
ATOM     54  H   UNL A   1      44.548  28.988  31.382  1.00  0.00     0.167 HD
ATOM     55  C   UNL A   1      44.994  32.202  28.382  1.00  0.00     0.034 A 
ATOM     56  C   UNL A   1      44.786  26.371  32.326  1.00  0.00     0.034 A 
ATOM     57  C   UNL A   1      45.814  31.118  27.918  1.00  0.00     0.049 A 
ATOM     58  C   UNL A   1      45.647  26.471  31.093  1.00  0.00     0.074 A 
ATOM     59  C   UNL A   1      46.596  31.059  26.781  1.00  0.00     0.029 A 
ATOM     60  N   UNL A   1      45.933  29.891  28.555  1.00  0.00    -0.354 N 
ATOM     61  N   UNL A   1      45.818  27.491  30.287  1.00  0.00    -0.248 NA
ATOM     62  C   UNL A   1      46.407  25.271  30.710  1.00  0.00     0.031 C 
ATOM     63  C   UNL A   1      47.156  29.780  26.707  1.00  0.00     0.029 A 
ATOM     64  C   UNL A   1      46.769  29.062  27.829  1.00  0.00     0.049 A 
ATOM     65  H   UNL A   1      45.489  29.648  29.399  1.00  0.00     0.167 HD
ATOM     66  C   UNL A   1      46.697  27.061  29.301  1.00  0.00     0.074 A 
ATOM     67  C   UNL A   1      47.058  25.697  29.635  1.00  0.00     0.031 C 
ATOM     68  C   UNL A   1      47.143  27.721  28.204  1.00  0.00     0.034 A 
BRANCH  55  69
ATOM     69  C   UNL A   1      44.840  33.428  27.522  1.00  0.00     0.023 A 
ATOM     70  C   UNL A   1      43.879  33.464  26.492  1.00  0.00     0.012 A 
ATOM     71  C   UNL A   1      45.673  34.545  27.730  1.00  0.00     0.148 A 
ATOM     72  C   UNL A   1      43.789  34.570  25.646  1.00  0.00     0.002 A 
ATOM     73  C   UNL A   1      45.537  35.666  26.920  1.00  0.00     0.091 A 
ATOM     74  F   UNL A   1      46.603  34.482  28.693  1.00  0.00    -0.205 F 
ATOM     75  C   UNL A   1      44.610  35.672  25.865  1.00  0.00     0.022 A 
BRANCH  73  76
ATOM     76  S   UNL A   1      46.487  37.166  27.187  1.00  0.00     0.127 S 
ATOM     77  O   UNL A   1      46.034  37.571  28.517  1.00  0.00    -0.237 OA
ATOM     78  O   UNL A   1      47.862  36.670  27.137  1.00  0.00    -0.237 OA
ATOM     79  O   UNL A   1      46.128  38.066  26.101  1.00  0.00    -0.744 OA
ENDBRANCH  73  76
ENDBRANCH  55  69
BRANCH  56  80
ATOM     80  C   UNL A   1      44.754  25.134  33.158  1.00  0.00     0.023 A 
ATOM     81  C   UNL A   1      43.770  24.156  32.908  1.00  0.00     0.012 A 
ATOM     82  C   UNL A   1      45.733  24.881  34.136  1.00  0.00     0.148 A 
ATOM     83  C   UNL A   1      43.762  22.952  33.616  1.00  0.00     0.002 A 
ATOM     84  C   UNL A   1      45.771  23.648  34.775  1.00  0.00     0.091 A 
ATOM     85  F   UNL A   1      46.638  25.836  34.391  1.00  0.00    -0.205 F 
ATOM     86  C   UNL A   1      44.774  22.691  34.533  1.00  0.00     0.022 A 
BRANCH  84  87
ATOM     87  S   UNL A   1      47.151  23.144  35.806  1.00  0.00     0.127 S 
ATOM     88  O   UNL A   1      46.896  23.889  37.035  1.00  0.00    -0.237 OA
ATOM     89  O   UNL A   1      46.932  21.698  35.899  1.00  0.00    -0.237 OA
ATOM     90  O   UNL A   1      48.351  23.521  35.073  1.00  0.00    -0.744 OA
ENDBRANCH  84  87
ENDBRANCH  56  80
BRANCH  68  91
ATOM     91  C   UNL A   1      48.099  27.001  27.289  1.00  0.00     0.023 A 
ATOM     92  C   UNL A   1      47.612  26.275  26.185  1.00  0.00     0.012 A 
ATOM     93  C   UNL A   1      49.488  27.146  27.467  1.00  0.00     0.148 A 
ATOM     94  C   UNL A   1      48.497  25.687  25.280  1.00  0.00     0.002 A 
ATOM     95  C   UNL A   1      50.362  26.604  26.534  1.00  0.00     0.091 A 
ATOM     96  F   UNL A   1      49.926  27.827  28.535  1.00  0.00    -0.205 F 
ATOM     97  C   UNL A   1      49.869  25.864  25.447  1.00  0.00     0.022 A 
BRANCH  95  98
ATOM     98  S   UNL A   1      52.137  26.865  26.612  1.00  0.00     0.127 S 
ATOM     99  O   UNL A   1      52.624  25.878  25.648  1.00  0.00    -0.237 OA
ATOM    100  O   UNL A   1      52.262  28.256  26.179  1.00  0.00    -0.237 OA
ATOM    101  O   UNL A   1      52.522  26.621  27.996  1.00  0.00    -0.744 OA
ENDBRANCH  95  98
ENDBRANCH  68  91
ENDBRANCH  42  43
ENDBRANCH  35  37
ENDBRANCH  34  35
ENDBRANCH  33  34
ENDBRANCH  32  33
ENDBRANCH  31  32
ENDBRANCH  30  31
ENDBRANCH  29  30
ENDBRANCH   1  29
TORSDOF 26
ENDMDL
MODEL 2
REMARK VINA RESULT:      -7.2      2.984     12.542
REMARK SMILES O=C(CCC(=O)N1CCC(c2nnc3ccccn23)CC1)OCCOCCOCCOCCOC(=O)c1ccc(-c2c3nc(c(-c4cccc(S(=O)(=O)[O-])c4F)c4ccc([nH]4)c(-c4cccc(S(=O)(=O)[O-])c4F)c4nc(c(-c5cccc(S(=O)(=O)[O-])c5F)c5ccc2[nH]5)C=C4)C=C3)cc1
REMARK SMILES IDX 28 1 27 2 26 3 25 4 24 5 23 6 22 7 2 8 1 9 3 10 4 11 5 12
REMARK SMILES IDX 6 13 7 14 8 15 21 16 9 17 20 18 10 19 11 20 12 21 19 22
REMARK SMILES IDX 13 23 14 24 18 25 15 26 17 27 16 28 29 29 30 30 31 31 32 32
REMARK SMILES IDX 33 33 34 34 35 35 36 36 37 37 38 38 99 39 39 40 98 41 40 42
REMARK SMILES IDX 41 43 42 44 92 45 43 46 97 47 91 48 93 49 44 50 96 51 90 52
REMARK SMILES IDX 89 53 45 55 77 56 57 57 76 58 58 59 61 60 75 61 94 62 59 63
REMARK SMILES IDX 60 64 74 66 95 67 62 68 46 69 47 70 55 71 48 72 50 73 56 74
REMARK SMILES IDX 49 75 51 76 52 77 53 78 54 79 78 80 79 81 87 82 80 83 82 84
REMARK SMILES IDX 88 85 81 86 83 87 84 88 85 89 86 90 63 91 64 92 72 93 65 94
REMARK SMILES IDX 67 95 73 96 66 97 68 98 69 99 70 100 71 101
REMARK H PARENT 93 54 61 65
REMARK Flexibility Score: inf
ROOT
ATOM      1  O   UNL A   1      49.845  26.223  28.452  1.00  0.00    -0.377 OA
ENDROOT
BRANCH   1   2
ATOM      2  C   UNL A   1      48.995  25.080  28.391  1.00  0.00     0.188 C 
BRANCH   2   3
ATOM      3  C   UNL A   1      47.797  25.211  27.424  1.00  0.00     0.188 C 
BRANCH   3   4
ATOM      4  O   UNL A   1      47.541  24.053  26.641  1.00  0.00    -0.376 OA
BRANCH   4   5
ATOM      5  C   UNL A   1      46.610  24.094  25.577  1.00  0.00     0.202 C 
BRANCH   5   6
ATOM      6  C   UNL A   1      45.589  25.224  25.620  1.00  0.00     0.261 C 
BRANCH   6   7
ATOM      7  O   UNL A   1      44.570  25.020  26.616  1.00  0.00    -0.463 OA
BRANCH   7   8
ATOM      8  C   UNL A   1      44.317  25.815  27.670  1.00  0.00     0.306 C 
ATOM      9  O   UNL A   1      44.869  26.907  27.787  1.00  0.00    -0.252 OA
BRANCH   8  10
ATOM     10  C   UNL A   1      43.279  25.369  28.632  1.00  0.00     0.132 C 
BRANCH  10  11
ATOM     11  C   UNL A   1      41.948  25.977  28.250  1.00  0.00     0.112 C 
BRANCH  11  12
ATOM     12  C   UNL A   1      41.600  27.238  29.015  1.00  0.00     0.223 C 
ATOM     13  O   UNL A   1      41.946  27.298  30.201  1.00  0.00    -0.275 OA
ATOM     14  N   UNL A   1      40.942  28.287  28.394  1.00  0.00    -0.343 N 
ATOM     15  C   UNL A   1      40.994  29.585  29.047  1.00  0.00     0.120 C 
ATOM     16  C   UNL A   1      40.141  28.292  27.154  1.00  0.00     0.120 C 
ATOM     17  C   UNL A   1      39.604  30.048  29.417  1.00  0.00     0.033 C 
ATOM     18  C   UNL A   1      38.702  28.815  27.400  1.00  0.00     0.033 C 
ATOM     19  C   UNL A   1      38.707  30.145  28.172  1.00  0.00     0.062 C 
BRANCH  19  20
ATOM     20  C   UNL A   1      37.363  30.601  28.658  1.00  0.00     0.140 A 
ATOM     21  N   UNL A   1      36.289  29.849  28.829  1.00  0.00    -0.134 NA
ATOM     22  N   UNL A   1      37.176  31.811  29.302  1.00  0.00    -0.286 N 
ATOM     23  N   UNL A   1      35.403  30.540  29.630  1.00  0.00    -0.130 NA
ATOM     24  C   UNL A   1      35.939  31.708  29.918  1.00  0.00     0.160 A 
ATOM     25  C   UNL A   1      38.017  32.915  29.452  1.00  0.00     0.095 A 
ATOM     26  C   UNL A   1      35.502  32.817  30.699  1.00  0.00     0.050 A 
ATOM     27  C   UNL A   1      37.622  33.940  30.224  1.00  0.00     0.019 A 
ATOM     28  C   UNL A   1      36.310  33.886  30.850  1.00  0.00     0.005 A 
ENDBRANCH  19  20
ENDBRANCH  11  12
ENDBRANCH  10  11
ENDBRANCH   8  10
ENDBRANCH   7   8
ENDBRANCH   6   7
ENDBRANCH   5   6
ENDBRANCH   4   5
ENDBRANCH   3   4
ENDBRANCH   2   3
ENDBRANCH   1   2
BRANCH   1  29
ATOM     29  C   UNL A   1      51.212  25.954  28.161  1.00  0.00     0.188 C 
BRANCH  29  30
ATOM     30  C   UNL A   1      51.494  25.207  26.834  1.00  0.00     0.188 C 
BRANCH  30  31
ATOM     31  O   UNL A   1      51.226  25.768  25.550  1.00  0.00    -0.376 OA
BRANCH  31  32
ATOM     32  C   UNL A   1      52.294  26.178  24.718  1.00  0.00     0.202 C 
BRANCH  32  33
ATOM     33  C   UNL A   1      52.810  27.616  24.832  1.00  0.00     0.261 C 
BRANCH  33  34
ATOM     34  O   UNL A   1      52.266  28.386  25.908  1.00  0.00    -0.460 OA
BRANCH  34  35
ATOM     35  C   UNL A   1      51.353  29.323  25.546  1.00  0.00     0.338 C 
ATOM     36  O   UNL A   1      51.308  29.947  24.505  1.00  0.00    -0.246 OA
BRANCH  35  37
ATOM     37  C   UNL A   1      50.293  29.366  26.575  1.00  0.00     0.060 A 
ATOM     38  C   UNL A   1      49.036  28.817  26.277  1.00  0.00     0.016 A 
ATOM     39  C   UNL A   1      50.535  29.957  27.816  1.00  0.00     0.016 A 
ATOM     40  C   UNL A   1      48.008  28.874  27.212  1.00  0.00     0.010 A 
ATOM     41  C   UNL A   1      49.488  30.066  28.730  1.00  0.00     0.010 A 
ATOM     42  C   UNL A   1      48.217  29.558  28.413  1.00  0.00    -0.014 A 
BRANCH  42  43
ATOM     43  C   UNL A   1      47.056  29.991  29.219  1.00  0.00     0.031 A 
ATOM     44  C   UNL A   1      46.562  29.053  30.276  1.00  0.00     0.074 A 
ATOM     45  C   UNL A   1      46.405  31.133  28.952  1.00  0.00     0.049 A 
ATOM     46  N   UNL A   1      45.487  29.125  31.012  1.00  0.00    -0.248 NA
ATOM     47  C   UNL A   1      47.368  27.839  30.497  1.00  0.00     0.031 C 
ATOM     48  C   UNL A   1      46.784  32.082  27.915  1.00  0.00     0.029 A 
ATOM     49  N   UNL A   1      45.279  31.675  29.519  1.00  0.00    -0.354 N 
ATOM     50  C   UNL A   1      45.432  27.922  31.704  1.00  0.00     0.074 A 
ATOM     51  C   UNL A   1      46.608  27.164  31.342  1.00  0.00     0.031 C 
ATOM     52  C   UNL A   1      45.919  33.109  27.931  1.00  0.00     0.029 A 
ATOM     53  C   UNL A   1      44.896  32.863  28.945  1.00  0.00     0.049 A 
ATOM     54  H   UNL A   1      44.794  31.253  30.265  1.00  0.00     0.167 HD
ATOM     55  C   UNL A   1      44.460  27.474  32.531  1.00  0.00     0.034 A 
ATOM     56  C   UNL A   1      43.829  33.647  29.201  1.00  0.00     0.034 A 
ATOM     57  C   UNL A   1      43.294  28.239  32.873  1.00  0.00     0.049 A 
ATOM     58  C   UNL A   1      42.815  33.179  30.213  1.00  0.00     0.074 A 
ATOM     59  C   UNL A   1      42.265  27.900  33.731  1.00  0.00     0.029 A 
ATOM     60  N   UNL A   1      42.988  29.486  32.349  1.00  0.00    -0.354 N 
ATOM     61  N   UNL A   1      42.816  32.083  30.934  1.00  0.00    -0.248 NA
ATOM     62  C   UNL A   1      41.647  34.043  30.438  1.00  0.00     0.031 C 
ATOM     63  C   UNL A   1      41.315  28.924  33.693  1.00  0.00     0.029 A 
ATOM     64  C   UNL A   1      41.780  29.929  32.857  1.00  0.00     0.049 A 
ATOM     65  H   UNL A   1      43.549  29.984  31.711  1.00  0.00     0.167 HD
ATOM     66  C   UNL A   1      41.653  32.121  31.693  1.00  0.00     0.074 A 
ATOM     67  C   UNL A   1      40.992  33.371  31.376  1.00  0.00     0.031 C 
ATOM     68  C   UNL A   1      41.161  31.195  32.554  1.00  0.00     0.034 A 
BRANCH  55  69
ATOM     69  C   UNL A   1      44.602  26.072  33.061  1.00  0.00     0.023 A 
ATOM     70  C   UNL A   1      44.242  24.966  32.265  1.00  0.00     0.012 A 
ATOM     71  C   UNL A   1      45.078  25.856  34.369  1.00  0.00     0.148 A 
ATOM     72  C   UNL A   1      44.300  23.672  32.783  1.00  0.00     0.002 A 
ATOM     73  C   UNL A   1      45.189  24.560  34.857  1.00  0.00     0.091 A 
ATOM     74  F   UNL A   1      45.386  26.920  35.124  1.00  0.00    -0.205 F 
ATOM     75  C   UNL A   1      44.781  23.469  34.073  1.00  0.00     0.022 A 
BRANCH  73  76
ATOM     76  S   UNL A   1      45.884  24.196  36.472  1.00  0.00     0.127 S 
ATOM     77  O   UNL A   1      44.815  24.645  37.363  1.00  0.00    -0.237 OA
ATOM     78  O   UNL A   1      46.056  22.744  36.411  1.00  0.00    -0.237 OA
ATOM     79  O   UNL A   1      47.127  24.950  36.553  1.00  0.00    -0.744 OA
ENDBRANCH  73  76
ENDBRANCH  55  69
BRANCH  56  80
ATOM     80  C   UNL A   1      43.689  34.959  28.506  1.00  0.00     0.023 A 
ATOM     81  C   UNL A   1      43.045  35.015  27.253  1.00  0.00     0.012 A 
ATOM     82  C   UNL A   1      44.114  36.158  29.107  1.00  0.00     0.148 A 
ATOM     83  C   UNL A   1      42.829  36.237  26.614  1.00  0.00     0.002 A 
ATOM     84  C   UNL A   1      43.819  37.375  28.508  1.00  0.00     0.091 A 
ATOM     85  F   UNL A   1      44.761  36.086  30.278  1.00  0.00    -0.205 F 
ATOM     86  C   UNL A   1      43.196  37.418  27.251  1.00  0.00     0.022 A 
BRANCH  84  87
ATOM     87  S   UNL A   1      44.062  38.943  29.349  1.00  0.00     0.127 S 
ATOM     88  O   UNL A   1      43.017  39.768  28.753  1.00  0.00    -0.237 OA
ATOM     89  O   UNL A   1      43.833  38.562  30.745  1.00  0.00    -0.237 OA
ATOM     90  O   UNL A   1      45.431  39.342  29.055  1.00  0.00    -0.744 OA
ENDBRANCH  84  87
ENDBRANCH  56  80
BRANCH  68  91
ATOM     91  C   UNL A   1      39.859  31.499  33.246  1.00  0.00     0.023 A 
ATOM     92  C   UNL A   1      38.642  31.062  32.690  1.00  0.00     0.012 A 
ATOM     93  C   UNL A   1      39.862  32.120  34.511  1.00  0.00     0.148 A 
ATOM     94  C   UNL A   1      37.442  31.256  33.375  1.00  0.00     0.002 A 
ATOM     95  C   UNL A   1      38.670  32.262  35.210  1.00  0.00     0.091 A 
ATOM     96  F   UNL A   1      41.031  32.542  35.011  1.00  0.00    -0.205 F 
ATOM     97  C   UNL A   1      37.458  31.842  34.639  1.00  0.00     0.022 A 
BRANCH  95  98
ATOM     98  S   UNL A   1      38.608  32.912  36.883  1.00  0.00     0.127 S 
ATOM     99  O   UNL A   1      38.889  34.330  36.660  1.00  0.00    -0.237 OA
ATOM    100  O   UNL A   1      37.231  32.616  37.277  1.00  0.00    -0.237 OA
ATOM    101  O   UNL A   1      39.625  32.190  37.635  1.00  0.00    -0.744 OA
ENDBRANCH  95  98
ENDBRANCH  68  91
ENDBRANCH  42  43
ENDBRANCH  35  37
ENDBRANCH  34  35
ENDBRANCH  33  34
ENDBRANCH  32  33
ENDBRANCH  31  32
ENDBRANCH  30  31
ENDBRANCH  29  30
ENDBRANCH   1  29
TORSDOF 26
ENDMDL
MODEL 3
REMARK VINA RESULT:      -6.7      3.334     12.735
REMARK SMILES O=C(CCC(=O)N1CCC(c2nnc3ccccn23)CC1)OCCOCCOCCOCCOC(=O)c1ccc(-c2c3nc(c(-c4cccc(S(=O)(=O)[O-])c4F)c4ccc([nH]4)c(-c4cccc(S(=O)(=O)[O-])c4F)c4nc(c(-c5cccc(S(=O)(=O)[O-])c5F)c5ccc2[nH]5)C=C4)C=C3)cc1
REMARK SMILES IDX 28 1 27 2 26 3 25 4 24 5 23 6 22 7 2 8 1 9 3 10 4 11 5 12
REMARK SMILES IDX 6 13 7 14 8 15 21 16 9 17 20 18 10 19 11 20 12 21 19 22
REMARK SMILES IDX 13 23 14 24 18 25 15 26 17 27 16 28 29 29 30 30 31 31 32 32
REMARK SMILES IDX 33 33 34 34 35 35 36 36 37 37 38 38 99 39 39 40 98 41 40 42
REMARK SMILES IDX 41 43 42 44 92 45 43 46 97 47 91 48 93 49 44 50 96 51 90 52
REMARK SMILES IDX 89 53 45 55 77 56 57 57 76 58 58 59 61 60 75 61 94 62 59 63
REMARK SMILES IDX 60 64 74 66 95 67 62 68 46 69 47 70 55 71 48 72 50 73 56 74
REMARK SMILES IDX 49 75 51 76 52 77 53 78 54 79 78 80 79 81 87 82 80 83 82 84
REMARK SMILES IDX 88 85 81 86 83 87 84 88 85 89 86 90 63 91 64 92 72 93 65 94
REMARK SMILES IDX 67 95 73 96 66 97 68 98 69 99 70 100 71 101
REMARK H PARENT 93 54 61 65
REMARK Flexibility Score: inf
ROOT
ATOM      1  O   UNL A   1      49.448  26.216  28.599  1.00  0.00    -0.377 OA
ENDROOT
BRANCH   1   2
ATOM      2  C   UNL A   1      48.393  25.259  28.676  1.00  0.00     0.188 C 
BRANCH   2   3
ATOM      3  C   UNL A   1      47.020  25.764  28.180  1.00  0.00     0.188 C 
BRANCH   3   4
ATOM      4  O   UNL A   1      46.295  24.826  27.395  1.00  0.00    -0.376 OA
BRANCH   4   5
ATOM      5  C   UNL A   1      45.241  25.252  26.554  1.00  0.00     0.202 C 
BRANCH   5   6
ATOM      6  C   UNL A   1      44.621  26.604  26.885  1.00  0.00     0.261 C 
BRANCH   6   7
ATOM      7  O   UNL A   1      43.677  26.535  27.970  1.00  0.00    -0.463 OA
BRANCH   7   8
ATOM      8  C   UNL A   1      43.512  27.450  28.940  1.00  0.00     0.306 C 
ATOM      9  O   UNL A   1      44.087  28.534  28.893  1.00  0.00    -0.252 OA
BRANCH   8  10
ATOM     10  C   UNL A   1      42.539  27.140  30.017  1.00  0.00     0.132 C 
BRANCH  10  11
ATOM     11  C   UNL A   1      41.177  27.671  29.629  1.00  0.00     0.112 C 
BRANCH  11  12
ATOM     12  C   UNL A   1      40.829  29.005  30.257  1.00  0.00     0.223 C 
ATOM     13  O   UNL A   1      41.313  29.254  31.368  1.00  0.00    -0.275 OA
ATOM     14  N   UNL A   1      40.020  29.914  29.594  1.00  0.00    -0.343 N 
ATOM     15  C   UNL A   1      40.051  31.292  30.055  1.00  0.00     0.120 C 
ATOM     16  C   UNL A   1      39.075  29.694  28.482  1.00  0.00     0.120 C 
ATOM     17  C   UNL A   1      38.686  31.720  30.541  1.00  0.00     0.033 C 
ATOM     18  C   UNL A   1      37.640  30.159  28.845  1.00  0.00     0.033 C 
ATOM     19  C   UNL A   1      37.637  31.584  29.425  1.00  0.00     0.062 C 
BRANCH  19  20
ATOM     20  C   UNL A   1      36.332  32.024  30.020  1.00  0.00     0.140 A 
ATOM     21  N   UNL A   1      35.932  31.840  31.266  1.00  0.00    -0.134 NA
ATOM     22  N   UNL A   1      35.521  32.969  29.418  1.00  0.00    -0.286 N 
ATOM     23  N   UNL A   1      34.881  32.701  31.512  1.00  0.00    -0.130 NA
ATOM     24  C   UNL A   1      34.644  33.380  30.410  1.00  0.00     0.160 A 
ATOM     25  C   UNL A   1      35.554  33.535  28.142  1.00  0.00     0.095 A 
ATOM     26  C   UNL A   1      33.704  34.397  30.072  1.00  0.00     0.050 A 
ATOM     27  C   UNL A   1      34.697  34.523  27.840  1.00  0.00     0.019 A 
ATOM     28  C   UNL A   1      33.732  34.949  28.842  1.00  0.00     0.005 A 
ENDBRANCH  19  20
ENDBRANCH  11  12
ENDBRANCH  10  11
ENDBRANCH   8  10
ENDBRANCH   7   8
ENDBRANCH   6   7
ENDBRANCH   5   6
ENDBRANCH   4   5
ENDBRANCH   3   4
ENDBRANCH   2   3
ENDBRANCH   1   2
BRANCH   1  29
ATOM     29  C   UNL A   1      50.676  25.695  28.103  1.00  0.00     0.188 C 
BRANCH  29  30
ATOM     30  C   UNL A   1      50.680  25.248  26.620  1.00  0.00     0.188 C 
BRANCH  30  31
ATOM     31  O   UNL A   1      50.469  26.147  25.533  1.00  0.00    -0.376 OA
BRANCH  31  32
ATOM     32  C   UNL A   1      51.568  26.606  24.769  1.00  0.00     0.202 C 
BRANCH  32  33
ATOM     33  C   UNL A   1      52.212  27.948  25.132  1.00  0.00     0.261 C 
BRANCH  33  34
ATOM     34  O   UNL A   1      51.745  28.551  26.343  1.00  0.00    -0.460 OA
BRANCH  34  35
ATOM     35  C   UNL A   1      51.038  29.699  26.182  1.00  0.00     0.338 C 
ATOM     36  O   UNL A   1      51.090  30.474  25.249  1.00  0.00    -0.246 OA
BRANCH  35  37
ATOM     37  C   UNL A   1      50.045  29.793  27.274  1.00  0.00     0.060 A 
ATOM     38  C   UNL A   1      48.766  29.251  27.075  1.00  0.00     0.016 A 
ATOM     39  C   UNL A   1      50.371  30.425  28.474  1.00  0.00     0.016 A 
ATOM     40  C   UNL A   1      47.800  29.356  28.070  1.00  0.00     0.010 A 
ATOM     41  C   UNL A   1      49.386  30.581  29.447  1.00  0.00     0.010 A 
ATOM     42  C   UNL A   1      48.091  30.080  29.230  1.00  0.00    -0.014 A 
BRANCH  42  43
ATOM     43  C   UNL A   1      46.989  30.558  30.090  1.00  0.00     0.031 A 
ATOM     44  C   UNL A   1      46.625  29.717  31.274  1.00  0.00     0.074 A 
ATOM     45  C   UNL A   1      46.273  31.647  29.772  1.00  0.00     0.049 A 
ATOM     46  N   UNL A   1      45.615  29.832  32.093  1.00  0.00    -0.248 NA
ATOM     47  C   UNL A   1      47.493  28.556  31.539  1.00  0.00     0.031 C 
ATOM     48  C   UNL A   1      46.525  32.497  28.616  1.00  0.00     0.029 A 
ATOM     49  N   UNL A   1      45.181  32.210  30.382  1.00  0.00    -0.354 N 
ATOM     50  C   UNL A   1      45.666  28.704  32.902  1.00  0.00     0.074 A 
ATOM     51  C   UNL A   1      46.835  27.948  32.512  1.00  0.00     0.031 C 
ATOM     52  C   UNL A   1      45.626  33.495  28.609  1.00  0.00     0.029 A 
ATOM     53  C   UNL A   1      44.704  33.323  29.731  1.00  0.00     0.049 A 
ATOM     54  H   UNL A   1      44.779  31.852  31.206  1.00  0.00     0.167 HD
ATOM     55  C   UNL A   1      44.788  28.313  33.853  1.00  0.00     0.034 A 
ATOM     56  C   UNL A   1      43.634  34.097  30.003  1.00  0.00     0.034 A 
ATOM     57  C   UNL A   1      43.627  29.074  34.221  1.00  0.00     0.049 A 
ATOM     58  C   UNL A   1      42.731  33.703  31.143  1.00  0.00     0.074 A 
ATOM     59  C   UNL A   1      42.690  28.793  35.198  1.00  0.00     0.029 A 
ATOM     60  N   UNL A   1      43.229  30.253  33.607  1.00  0.00    -0.354 N 
ATOM     61  N   UNL A   1      42.836  32.687  31.965  1.00  0.00    -0.248 NA
ATOM     62  C   UNL A   1      41.554  34.551  31.386  1.00  0.00     0.031 C 
ATOM     63  C   UNL A   1      41.701  29.779  35.145  1.00  0.00     0.029 A 
ATOM     64  C   UNL A   1      42.053  30.708  34.176  1.00  0.00     0.049 A 
ATOM     65  H   UNL A   1      43.713  30.699  32.875  1.00  0.00     0.167 HD
ATOM     66  C   UNL A   1      41.742  32.767  32.819  1.00  0.00     0.074 A 
ATOM     67  C   UNL A   1      41.008  33.958  32.441  1.00  0.00     0.031 C 
ATOM     68  C   UNL A   1      41.363  31.918  33.806  1.00  0.00     0.034 A 
BRANCH  55  69
ATOM     69  C   UNL A   1      45.029  26.977  34.503  1.00  0.00     0.023 A 
ATOM     70  C   UNL A   1      45.803  26.880  35.677  1.00  0.00     0.012 A 
ATOM     71  C   UNL A   1      44.497  25.806  33.928  1.00  0.00     0.148 A 
ATOM     72  C   UNL A   1      46.091  25.634  36.235  1.00  0.00     0.002 A 
ATOM     73  C   UNL A   1      44.739  24.574  34.523  1.00  0.00     0.091 A 
ATOM     74  F   UNL A   1      43.789  25.912  32.794  1.00  0.00    -0.205 F 
ATOM     75  C   UNL A   1      45.552  24.485  35.664  1.00  0.00     0.022 A 
BRANCH  73  76
ATOM     76  S   UNL A   1      44.011  23.051  33.913  1.00  0.00     0.127 S 
ATOM     77  O   UNL A   1      45.001  22.060  34.332  1.00  0.00    -0.237 OA
ATOM     78  O   UNL A   1      42.748  22.999  34.649  1.00  0.00    -0.237 OA
ATOM     79  O   UNL A   1      43.866  23.224  32.475  1.00  0.00    -0.744 OA
ENDBRANCH  73  76
ENDBRANCH  55  69
BRANCH  56  80
ATOM     80  C   UNL A   1      43.385  35.326  29.198  1.00  0.00     0.023 A 
ATOM     81  C   UNL A   1      42.537  35.259  28.074  1.00  0.00     0.012 A 
ATOM     82  C   UNL A   1      43.912  36.574  29.580  1.00  0.00     0.148 A 
ATOM     83  C   UNL A   1      42.221  36.409  27.347  1.00  0.00     0.002 A 
ATOM     84  C   UNL A   1      43.525  37.724  28.905  1.00  0.00     0.091 A 
ATOM     85  F   UNL A   1      44.749  36.616  30.625  1.00  0.00    -0.205 F 
ATOM     86  C   UNL A   1      42.698  37.643  27.775  1.00  0.00     0.022 A 
BRANCH  84  87
ATOM     87  S   UNL A   1      43.916  39.369  29.511  1.00  0.00     0.127 S 
ATOM     88  O   UNL A   1      43.282  40.217  28.507  1.00  0.00    -0.237 OA
ATOM     89  O   UNL A   1      43.260  39.360  30.821  1.00  0.00    -0.237 OA
ATOM     90  O   UNL A   1      45.369  39.434  29.570  1.00  0.00    -0.744 OA
ENDBRANCH  84  87
ENDBRANCH  56  80
BRANCH  68  91
ATOM     91  C   UNL A   1      40.114  32.252  34.580  1.00  0.00     0.023 A 
ATOM     92  C   UNL A   1      38.892  31.633  34.255  1.00  0.00     0.012 A 
ATOM     93  C   UNL A   1      40.188  33.096  35.705  1.00  0.00     0.148 A 
ATOM     94  C   UNL A   1      37.755  31.866  35.028  1.00  0.00     0.002 A 
ATOM     95  C   UNL A   1      39.065  33.281  36.501  1.00  0.00     0.091 A 
ATOM     96  F   UNL A   1      41.358  33.687  35.984  1.00  0.00    -0.205 F 
ATOM     97  C   UNL A   1      37.845  32.676  36.158  1.00  0.00     0.022 A 
BRANCH  95  98
ATOM     98  S   UNL A   1      39.112  34.225  38.028  1.00  0.00     0.127 S 
ATOM     99  O   UNL A   1      40.349  33.737  38.639  1.00  0.00    -0.237 OA
ATOM    100  O   UNL A   1      39.174  35.601  37.538  1.00  0.00    -0.237 OA
ATOM    101  O   UNL A   1      37.891  33.889  38.749  1.00  0.00    -0.744 OA
ENDBRANCH  95  98
ENDBRANCH  68  91
ENDBRANCH  42  43
ENDBRANCH  35  37
ENDBRANCH  34  35
ENDBRANCH  33  34
ENDBRANCH  32  33
ENDBRANCH  31  32
ENDBRANCH  30  31
ENDBRANCH  29  30
ENDBRANCH   1  29
TORSDOF 26
ENDMDL
