MODEL 1
REMARK VINA RESULT:      -7.2      0.000      0.000
REMARK SMILES COCCN(C(=O)N1CC[C@H](C(=O)OCCOCCOCCOCCOC(=O)c2ccc(-c3c4nc(c(-c5cccc(S(=O)(=O)[O-])c5F)c5ccc([nH]5)c(-c5cccc(S(=O)(=O)[O-])c5F)c5nc(c(-c6cccc(S(=O)(=O)[O-])c6F)c6ccc3[nH]6)C=C5)C=C4)cc2)[C@H]1C)[C@@H](C)COC
REMARK SMILES IDX 19 1 18 2 17 3 16 4 15 5 14 6 12 7 13 8 11 9 8 10 9 11 92 12
REMARK SMILES IDX 10 13 93 14 6 15 7 16 5 17 4 18 3 19 2 20 1 21 94 22 95 23
REMARK SMILES IDX 96 24 97 25 98 26 20 27 21 28 22 29 23 30 24 31 25 32 26 33
REMARK SMILES IDX 27 34 28 35 29 36 30 37 91 38 31 39 90 40 32 41 33 42 34 43
REMARK SMILES IDX 84 44 35 45 89 46 83 47 85 48 36 49 88 50 82 51 81 52 37 54
REMARK SMILES IDX 69 55 49 56 68 57 50 58 53 59 67 60 86 61 51 62 52 63 66 65
REMARK SMILES IDX 87 66 54 67 38 68 39 69 47 70 40 71 42 72 48 73 41 74 43 75
REMARK SMILES IDX 44 76 45 77 46 78 70 79 71 80 79 81 72 82 74 83 80 84 73 85
REMARK SMILES IDX 75 86 76 87 77 88 78 89 55 90 56 91 64 92 57 93 59 94 65 95
REMARK SMILES IDX 58 96 60 97 61 98 62 99 63 100
REMARK H PARENT 85 53 53 64
REMARK Flexibility Score: inf
ROOT
ATOM      1  C   UNL A   1      36.357  21.989  24.241  1.00  0.00     0.188 C 
ENDROOT
BRANCH   1   2
ATOM      2  C   UNL A   1      35.158  21.293  24.910  1.00  0.00     0.188 C 
BRANCH   2   3
ATOM      3  O   UNL A   1      33.985  20.957  24.174  1.00  0.00    -0.376 OA
BRANCH   3   4
ATOM      4  C   UNL A   1      32.733  21.497  24.558  1.00  0.00     0.202 C 
BRANCH   4   5
ATOM      5  C   UNL A   1      32.416  22.960  24.181  1.00  0.00     0.261 C 
BRANCH   5   6
ATOM      6  O   UNL A   1      33.513  23.781  23.712  1.00  0.00    -0.463 OA
BRANCH   6   7
ATOM      7  C   UNL A   1      33.466  24.136  22.409  1.00  0.00     0.311 C 
ATOM      8  O   UNL A   1      33.522  23.330  21.481  1.00  0.00    -0.252 OA
BRANCH   7   9
ATOM      9  C   UNL A   1      33.367  25.633  22.122  1.00  0.00     0.123 C 
ATOM     10  N   UNL A   1      31.795  27.224  23.108  1.00  0.00    -0.321 N 
ATOM     11  C   UNL A   1      31.182  26.667  21.906  1.00  0.00     0.122 C 
ATOM     12  C   UNL A   1      33.212  26.751  23.203  1.00  0.00     0.098 C 
ATOM     13  C   UNL A   1      32.254  25.942  21.119  1.00  0.00     0.039 C 
ATOM     14  C   UNL A   1      34.204  27.845  22.765  1.00  0.00     0.032 C 
BRANCH  10  15
ATOM     15  C   UNL A   1      30.881  27.615  24.081  1.00  0.00     0.320 C 
ATOM     16  O   UNL A   1      29.677  27.511  23.808  1.00  0.00    -0.248 OA
BRANCH  15  17
ATOM     17  N   UNL A   1      31.240  28.154  25.307  1.00  0.00    -0.317 N 
BRANCH  17  18
ATOM     18  C   UNL A   1      31.219  27.448  26.597  1.00  0.00     0.150 C 
BRANCH  18  19
ATOM     19  C   UNL A   1      32.163  26.233  26.692  1.00  0.00     0.181 C 
BRANCH  19  20
ATOM     20  O   UNL A   1      31.483  24.977  26.550  1.00  0.00    -0.383 OA
ATOM     21  C   UNL A   1      30.074  25.093  26.429  1.00  0.00     0.194 C 
ENDBRANCH  19  20
ENDBRANCH  18  19
ENDBRANCH  17  18
BRANCH  17  22
ATOM     22  C   UNL A   1      31.818  29.546  25.261  1.00  0.00     0.109 C 
ATOM     23  C   UNL A   1      30.776  30.640  24.958  1.00  0.00     0.033 C 
BRANCH  22  24
ATOM     24  C   UNL A   1      32.671  30.011  26.481  1.00  0.00     0.184 C 
BRANCH  24  25
ATOM     25  O   UNL A   1      34.084  29.847  26.390  1.00  0.00    -0.383 OA
ATOM     26  C   UNL A   1      34.645  29.053  27.422  1.00  0.00     0.194 C 
ENDBRANCH  24  25
ENDBRANCH  22  24
ENDBRANCH  17  22
ENDBRANCH  15  17
ENDBRANCH  10  15
ENDBRANCH   7   9
ENDBRANCH   6   7
ENDBRANCH   5   6
ENDBRANCH   4   5
ENDBRANCH   3   4
ENDBRANCH   2   3
ENDBRANCH   1   2
BRANCH   1  27
ATOM     27  O   UNL A   1      37.612  21.504  24.658  1.00  0.00    -0.377 OA
BRANCH  27  28
ATOM     28  C   UNL A   1      37.645  20.110  24.886  1.00  0.00     0.188 C 
BRANCH  28  29
ATOM     29  C   UNL A   1      38.942  19.556  25.500  1.00  0.00     0.188 C 
BRANCH  29  30
ATOM     30  O   UNL A   1      40.020  20.428  25.767  1.00  0.00    -0.376 OA
BRANCH  30  31
ATOM     31  C   UNL A   1      40.061  21.446  26.751  1.00  0.00     0.202 C 
BRANCH  31  32
ATOM     32  C   UNL A   1      41.237  22.371  27.100  1.00  0.00     0.261 C 
BRANCH  32  33
ATOM     33  O   UNL A   1      41.256  23.670  26.520  1.00  0.00    -0.460 OA
BRANCH  33  34
ATOM     34  C   UNL A   1      42.391  23.966  25.843  1.00  0.00     0.338 C 
ATOM     35  O   UNL A   1      42.872  23.349  24.913  1.00  0.00    -0.246 OA
BRANCH  34  36
ATOM     36  C   UNL A   1      42.866  25.299  26.259  1.00  0.00     0.060 A 
ATOM     37  C   UNL A   1      43.600  25.369  27.449  1.00  0.00     0.016 A 
ATOM     38  C   UNL A   1      42.572  26.454  25.529  1.00  0.00     0.016 A 
ATOM     39  C   UNL A   1      43.991  26.602  27.951  1.00  0.00     0.010 A 
ATOM     40  C   UNL A   1      42.937  27.697  26.053  1.00  0.00     0.010 A 
ATOM     41  C   UNL A   1      43.598  27.771  27.292  1.00  0.00    -0.014 A 
BRANCH  41  42
ATOM     42  C   UNL A   1      43.667  29.036  28.053  1.00  0.00     0.031 A 
ATOM     43  C   UNL A   1      44.934  29.844  27.968  1.00  0.00     0.074 A 
ATOM     44  C   UNL A   1      42.598  29.505  28.718  1.00  0.00     0.049 A 
ATOM     45  N   UNL A   1      45.208  31.013  28.481  1.00  0.00    -0.248 NA
ATOM     46  C   UNL A   1      46.040  29.257  27.189  1.00  0.00     0.031 C 
ATOM     47  C   UNL A   1      41.309  28.823  28.832  1.00  0.00     0.029 A 
ATOM     48  N   UNL A   1      42.431  30.668  29.422  1.00  0.00    -0.354 N 
ATOM     49  C   UNL A   1      46.519  31.289  28.112  1.00  0.00     0.074 A 
ATOM     50  C   UNL A   1      46.994  30.161  27.345  1.00  0.00     0.031 C 
ATOM     51  C   UNL A   1      40.488  29.575  29.585  1.00  0.00     0.029 A 
ATOM     52  C   UNL A   1      41.199  30.775  30.019  1.00  0.00     0.049 A 
ATOM     53  H   UNL A   1      43.127  31.360  29.493  1.00  0.00     0.167 HD
ATOM     54  C   UNL A   1      47.257  32.392  28.377  1.00  0.00     0.034 A 
ATOM     55  C   UNL A   1      40.713  31.729  30.838  1.00  0.00     0.034 A 
ATOM     56  C   UNL A   1      46.773  33.515  29.133  1.00  0.00     0.049 A 
ATOM     57  C   UNL A   1      41.569  32.929  31.149  1.00  0.00     0.074 A 
ATOM     58  C   UNL A   1      47.429  34.693  29.437  1.00  0.00     0.029 A 
ATOM     59  N   UNL A   1      45.517  33.591  29.715  1.00  0.00    -0.354 N 
ATOM     60  N   UNL A   1      42.775  33.218  30.723  1.00  0.00    -0.248 NA
ATOM     61  C   UNL A   1      40.981  33.955  32.023  1.00  0.00     0.031 C 
ATOM     62  C   UNL A   1      46.585  35.465  30.241  1.00  0.00     0.029 A 
ATOM     63  C   UNL A   1      45.382  34.791  30.391  1.00  0.00     0.049 A 
ATOM     64  H   UNL A   1      44.823  32.894  29.657  1.00  0.00     0.167 HD
ATOM     65  C   UNL A   1      43.072  34.475  31.238  1.00  0.00     0.074 A 
ATOM     66  C   UNL A   1      41.912  34.897  31.996  1.00  0.00     0.031 C 
ATOM     67  C   UNL A   1      44.201  35.214  31.099  1.00  0.00     0.034 A 
BRANCH  54  68
ATOM     68  C   UNL A   1      48.668  32.431  27.851  1.00  0.00     0.023 A 
ATOM     69  C   UNL A   1      48.940  33.018  26.599  1.00  0.00     0.012 A 
ATOM     70  C   UNL A   1      49.730  31.922  28.621  1.00  0.00     0.148 A 
ATOM     71  C   UNL A   1      50.244  33.065  26.106  1.00  0.00     0.002 A 
ATOM     72  C   UNL A   1      51.033  32.018  28.146  1.00  0.00     0.091 A 
ATOM     73  F   UNL A   1      49.448  31.343  29.797  1.00  0.00    -0.205 F 
ATOM     74  C   UNL A   1      51.290  32.576  26.884  1.00  0.00     0.022 A 
BRANCH  72  75
ATOM     75  S   UNL A   1      52.454  31.490  29.109  1.00  0.00     0.127 S 
ATOM     76  O   UNL A   1      52.231  30.048  29.199  1.00  0.00    -0.237 OA
ATOM     77  O   UNL A   1      53.570  31.883  28.247  1.00  0.00    -0.237 OA
ATOM     78  O   UNL A   1      52.377  32.212  30.372  1.00  0.00    -0.744 OA
ENDBRANCH  72  75
ENDBRANCH  54  68
BRANCH  55  79
ATOM     79  C   UNL A   1      39.340  31.599  31.402  1.00  0.00     0.023 A 
ATOM     80  C   UNL A   1      39.114  30.778  32.523  1.00  0.00     0.012 A 
ATOM     81  C   UNL A   1      38.258  32.296  30.831  1.00  0.00     0.148 A 
ATOM     82  C   UNL A   1      37.828  30.626  33.044  1.00  0.00     0.002 A 
ATOM     83  C   UNL A   1      36.991  32.187  31.391  1.00  0.00     0.091 A 
ATOM     84  F   UNL A   1      38.492  33.061  29.756  1.00  0.00    -0.205 F 
ATOM     85  C   UNL A   1      36.770  31.337  32.485  1.00  0.00     0.022 A 
BRANCH  83  86
ATOM     86  S   UNL A   1      35.597  33.162  30.815  1.00  0.00     0.127 S 
ATOM     87  O   UNL A   1      35.860  33.243  29.380  1.00  0.00    -0.237 OA
ATOM     88  O   UNL A   1      34.465  32.315  31.188  1.00  0.00    -0.237 OA
ATOM     89  O   UNL A   1      35.669  34.423  31.540  1.00  0.00    -0.744 OA
ENDBRANCH  83  86
ENDBRANCH  55  79
BRANCH  67  90
ATOM     90  C   UNL A   1      44.222  36.586  31.725  1.00  0.00     0.023 A 
ATOM     91  C   UNL A   1      44.646  36.755  33.057  1.00  0.00     0.012 A 
ATOM     92  C   UNL A   1      43.880  37.718  30.958  1.00  0.00     0.148 A 
ATOM     93  C   UNL A   1      44.687  38.026  33.630  1.00  0.00     0.002 A 
ATOM     94  C   UNL A   1      43.978  38.985  31.518  1.00  0.00     0.091 A 
ATOM     95  F   UNL A   1      43.464  37.536  29.696  1.00  0.00    -0.205 F 
ATOM     96  C   UNL A   1      44.366  39.140  32.859  1.00  0.00     0.022 A 
BRANCH  94  97
ATOM     97  S   UNL A   1      43.685  40.481  30.568  1.00  0.00     0.127 S 
ATOM     98  O   UNL A   1      42.497  41.022  31.224  1.00  0.00    -0.237 OA
ATOM     99  O   UNL A   1      44.913  41.242  30.805  1.00  0.00    -0.237 OA
ATOM    100  O   UNL A   1      43.496  40.052  29.189  1.00  0.00    -0.744 OA
ENDBRANCH  94  97
ENDBRANCH  67  90
ENDBRANCH  41  42
ENDBRANCH  34  36
ENDBRANCH  33  34
ENDBRANCH  32  33
ENDBRANCH  31  32
ENDBRANCH  30  31
ENDBRANCH  29  30
ENDBRANCH  28  29
ENDBRANCH  27  28
ENDBRANCH   1  27
TORSDOF 31
ENDMDL
MODEL 2
REMARK VINA RESULT:      -7.1      2.180      3.075
REMARK SMILES COCCN(C(=O)N1CC[C@H](C(=O)OCCOCCOCCOCCOC(=O)c2ccc(-c3c4nc(c(-c5cccc(S(=O)(=O)[O-])c5F)c5ccc([nH]5)c(-c5cccc(S(=O)(=O)[O-])c5F)c5nc(c(-c6cccc(S(=O)(=O)[O-])c6F)c6ccc3[nH]6)C=C5)C=C4)cc2)[C@H]1C)[C@@H](C)COC
REMARK SMILES IDX 19 1 18 2 17 3 16 4 15 5 14 6 12 7 13 8 11 9 8 10 9 11 92 12
REMARK SMILES IDX 10 13 93 14 6 15 7 16 5 17 4 18 3 19 2 20 1 21 94 22 95 23
REMARK SMILES IDX 96 24 97 25 98 26 20 27 21 28 22 29 23 30 24 31 25 32 26 33
REMARK SMILES IDX 27 34 28 35 29 36 30 37 91 38 31 39 90 40 32 41 33 42 34 43
REMARK SMILES IDX 84 44 35 45 89 46 83 47 85 48 36 49 88 50 82 51 81 52 37 54
REMARK SMILES IDX 69 55 49 56 68 57 50 58 53 59 67 60 86 61 51 62 52 63 66 65
REMARK SMILES IDX 87 66 54 67 38 68 39 69 47 70 40 71 42 72 48 73 41 74 43 75
REMARK SMILES IDX 44 76 45 77 46 78 70 79 71 80 79 81 72 82 74 83 80 84 73 85
REMARK SMILES IDX 75 86 76 87 77 88 78 89 55 90 56 91 64 92 57 93 59 94 65 95
REMARK SMILES IDX 58 96 60 97 61 98 62 99 63 100
REMARK H PARENT 85 53 53 64
REMARK Flexibility Score: inf
ROOT
ATOM      1  C   UNL A   1      36.519  22.173  25.409  1.00  0.00     0.188 C 
ENDROOT
BRANCH   1   2
ATOM      2  C   UNL A   1      35.380  21.678  26.319  1.00  0.00     0.188 C 
BRANCH   2   3
ATOM      3  O   UNL A   1      34.240  21.008  25.790  1.00  0.00    -0.376 OA
BRANCH   3   4
ATOM      4  C   UNL A   1      32.939  21.412  26.181  1.00  0.00     0.202 C 
BRANCH   4   5
ATOM      5  C   UNL A   1      32.506  22.867  25.904  1.00  0.00     0.261 C 
BRANCH   5   6
ATOM      6  O   UNL A   1      33.356  23.664  25.043  1.00  0.00    -0.463 OA
BRANCH   6   7
ATOM      7  C   UNL A   1      33.167  23.497  23.715  1.00  0.00     0.311 C 
ATOM      8  O   UNL A   1      33.516  22.491  23.099  1.00  0.00    -0.252 OA
BRANCH   7   9
ATOM      9  C   UNL A   1      32.508  24.662  22.978  1.00  0.00     0.123 C 
ATOM     10  N   UNL A   1      31.554  26.683  23.966  1.00  0.00    -0.321 N 
ATOM     11  C   UNL A   1      30.501  25.674  23.894  1.00  0.00     0.122 C 
ATOM     12  C   UNL A   1      32.773  26.176  23.262  1.00  0.00     0.098 C 
ATOM     13  C   UNL A   1      30.983  24.551  22.999  1.00  0.00     0.039 C 
ATOM     14  C   UNL A   1      32.922  26.806  21.863  1.00  0.00     0.032 C 
BRANCH  10  15
ATOM     15  C   UNL A   1      31.396  27.594  25.006  1.00  0.00     0.320 C 
ATOM     16  O   UNL A   1      31.157  27.137  26.133  1.00  0.00    -0.248 OA
BRANCH  15  17
ATOM     17  N   UNL A   1      31.443  28.969  24.843  1.00  0.00    -0.317 N 
BRANCH  17  18
ATOM     18  C   UNL A   1      32.532  29.852  25.289  1.00  0.00     0.150 C 
BRANCH  18  19
ATOM     19  C   UNL A   1      32.470  30.268  26.772  1.00  0.00     0.181 C 
BRANCH  19  20
ATOM     20  O   UNL A   1      33.677  29.975  27.491  1.00  0.00    -0.383 OA
ATOM     21  C   UNL A   1      34.465  28.951  26.905  1.00  0.00     0.194 C 
ENDBRANCH  19  20
ENDBRANCH  18  19
ENDBRANCH  17  18
BRANCH  17  22
ATOM     22  C   UNL A   1      30.329  29.566  24.021  1.00  0.00     0.109 C 
ATOM     23  C   UNL A   1      30.003  31.027  24.387  1.00  0.00     0.033 C 
BRANCH  22  24
ATOM     24  C   UNL A   1      30.446  29.467  22.470  1.00  0.00     0.184 C 
BRANCH  24  25
ATOM     25  O   UNL A   1      29.246  29.228  21.738  1.00  0.00    -0.383 OA
ATOM     26  C   UNL A   1      28.546  30.403  21.369  1.00  0.00     0.194 C 
ENDBRANCH  24  25
ENDBRANCH  22  24
ENDBRANCH  17  22
ENDBRANCH  15  17
ENDBRANCH  10  15
ENDBRANCH   7   9
ENDBRANCH   6   7
ENDBRANCH   5   6
ENDBRANCH   4   5
ENDBRANCH   3   4
ENDBRANCH   2   3
ENDBRANCH   1   2
BRANCH   1  27
ATOM     27  O   UNL A   1      37.673  21.364  25.438  1.00  0.00    -0.377 OA
BRANCH  27  28
ATOM     28  C   UNL A   1      37.439  20.014  25.097  1.00  0.00     0.188 C 
BRANCH  28  29
ATOM     29  C   UNL A   1      38.604  19.042  25.349  1.00  0.00     0.188 C 
BRANCH  29  30
ATOM     30  O   UNL A   1      39.930  19.528  25.378  1.00  0.00    -0.376 OA
BRANCH  30  31
ATOM     31  C   UNL A   1      40.806  19.533  26.490  1.00  0.00     0.202 C 
BRANCH  31  32
ATOM     32  C   UNL A   1      42.267  20.006  26.537  1.00  0.00     0.261 C 
BRANCH  32  33
ATOM     33  O   UNL A   1      42.516  21.406  26.464  1.00  0.00    -0.460 OA
BRANCH  33  34
ATOM     34  C   UNL A   1      43.563  21.749  25.677  1.00  0.00     0.338 C 
ATOM     35  O   UNL A   1      43.944  21.181  24.673  1.00  0.00    -0.246 OA
BRANCH  34  36
ATOM     36  C   UNL A   1      44.066  23.071  26.097  1.00  0.00     0.060 A 
ATOM     37  C   UNL A   1      44.371  23.234  27.454  1.00  0.00     0.016 A 
ATOM     38  C   UNL A   1      44.201  24.134  25.200  1.00  0.00     0.016 A 
ATOM     39  C   UNL A   1      44.753  24.477  27.935  1.00  0.00     0.010 A 
ATOM     40  C   UNL A   1      44.554  25.394  25.692  1.00  0.00     0.010 A 
ATOM     41  C   UNL A   1      44.775  25.575  27.069  1.00  0.00    -0.014 A 
BRANCH  41  42
ATOM     42  C   UNL A   1      44.776  26.922  27.678  1.00  0.00     0.031 A 
ATOM     43  C   UNL A   1      46.092  27.641  27.800  1.00  0.00     0.074 A 
ATOM     44  C   UNL A   1      43.627  27.530  28.017  1.00  0.00     0.049 A 
ATOM     45  N   UNL A   1      46.339  28.850  28.228  1.00  0.00    -0.248 NA
ATOM     46  C   UNL A   1      47.292  26.899  27.372  1.00  0.00     0.031 C 
ATOM     47  C   UNL A   1      42.294  26.941  27.904  1.00  0.00     0.029 A 
ATOM     48  N   UNL A   1      43.403  28.782  28.527  1.00  0.00    -0.354 N 
ATOM     49  C   UNL A   1      47.718  29.004  28.147  1.00  0.00     0.074 A 
ATOM     50  C   UNL A   1      48.258  27.762  27.643  1.00  0.00     0.031 C 
ATOM     51  C   UNL A   1      41.389  27.827  28.355  1.00  0.00     0.029 A 
ATOM     52  C   UNL A   1      42.081  29.032  28.804  1.00  0.00     0.049 A 
ATOM     53  H   UNL A   1      44.120  29.438  28.681  1.00  0.00     0.167 HD
ATOM     54  C   UNL A   1      48.467  30.089  28.451  1.00  0.00     0.034 A 
ATOM     55  C   UNL A   1      41.505  30.108  29.375  1.00  0.00     0.034 A 
ATOM     56  C   UNL A   1      47.920  31.324  28.941  1.00  0.00     0.049 A 
ATOM     57  C   UNL A   1      42.366  31.290  29.740  1.00  0.00     0.074 A 
ATOM     58  C   UNL A   1      48.586  32.494  29.256  1.00  0.00     0.029 A 
ATOM     59  N   UNL A   1      46.576  31.544  29.202  1.00  0.00    -0.354 N 
ATOM     60  N   UNL A   1      43.656  31.455  29.578  1.00  0.00    -0.248 NA
ATOM     61  C   UNL A   1      41.684  32.450  30.332  1.00  0.00     0.031 C 
ATOM     62  C   UNL A   1      47.650  33.409  29.749  1.00  0.00     0.029 A 
ATOM     63  C   UNL A   1      46.393  32.826  29.688  1.00  0.00     0.049 A 
ATOM     64  H   UNL A   1      45.858  30.885  29.063  1.00  0.00     0.167 HD
ATOM     65  C   UNL A   1      43.934  32.750  30.003  1.00  0.00     0.074 A 
ATOM     66  C   UNL A   1      42.672  33.329  30.417  1.00  0.00     0.031 C 
ATOM     67  C   UNL A   1      45.122  33.401  30.049  1.00  0.00     0.034 A 
BRANCH  54  68
ATOM     68  C   UNL A   1      49.958  29.983  28.268  1.00  0.00     0.023 A 
ATOM     69  C   UNL A   1      50.753  29.383  29.265  1.00  0.00     0.012 A 
ATOM     70  C   UNL A   1      50.565  30.443  27.083  1.00  0.00     0.148 A 
ATOM     71  C   UNL A   1      52.134  29.275  29.101  1.00  0.00     0.002 A 
ATOM     72  C   UNL A   1      51.934  30.286  26.905  1.00  0.00     0.091 A 
ATOM     73  F   UNL A   1      49.795  31.035  26.158  1.00  0.00    -0.205 F 
ATOM     74  C   UNL A   1      52.722  29.715  27.918  1.00  0.00     0.022 A 
BRANCH  72  75
ATOM     75  S   UNL A   1      52.770  30.747  25.385  1.00  0.00     0.127 S 
ATOM     76  O   UNL A   1      52.920  29.450  24.726  1.00  0.00    -0.237 OA
ATOM     77  O   UNL A   1      51.795  31.641  24.758  1.00  0.00    -0.237 OA
ATOM     78  O   UNL A   1      54.015  31.389  25.786  1.00  0.00    -0.744 OA
ENDBRANCH  72  75
ENDBRANCH  54  68
BRANCH  55  79
ATOM     79  C   UNL A   1      40.035  30.127  29.614  1.00  0.00     0.023 A 
ATOM     80  C   UNL A   1      39.146  30.252  28.530  1.00  0.00     0.012 A 
ATOM     81  C   UNL A   1      39.516  30.013  30.919  1.00  0.00     0.148 A 
ATOM     82  C   UNL A   1      37.767  30.299  28.743  1.00  0.00     0.002 A 
ATOM     83  C   UNL A   1      38.142  30.001  31.119  1.00  0.00     0.091 A 
ATOM     84  F   UNL A   1      40.380  29.909  31.938  1.00  0.00    -0.205 F 
ATOM     85  C   UNL A   1      37.265  30.165  30.035  1.00  0.00     0.022 A 
BRANCH  83  86
ATOM     86  S   UNL A   1      37.406  29.706  32.731  1.00  0.00     0.127 S 
ATOM     87  O   UNL A   1      36.037  30.173  32.525  1.00  0.00    -0.237 OA
ATOM     88  O   UNL A   1      37.550  28.257  32.865  1.00  0.00    -0.237 OA
ATOM     89  O   UNL A   1      38.199  30.480  33.676  1.00  0.00    -0.744 OA
ENDBRANCH  83  86
ENDBRANCH  55  79
BRANCH  67  90
ATOM     90  C   UNL A   1      45.116  34.839  30.504  1.00  0.00     0.023 A 
ATOM     91  C   UNL A   1      45.323  35.159  31.860  1.00  0.00     0.012 A 
ATOM     92  C   UNL A   1      44.968  35.878  29.563  1.00  0.00     0.148 A 
ATOM     93  C   UNL A   1      45.340  36.488  32.278  1.00  0.00     0.002 A 
ATOM     94  C   UNL A   1      45.043  37.201  29.979  1.00  0.00     0.091 A 
ATOM     95  F   UNL A   1      44.756  35.554  28.279  1.00  0.00    -0.205 F 
ATOM     96  C   UNL A   1      45.213  37.508  31.339  1.00  0.00     0.022 A 
BRANCH  94  97
ATOM     97  S   UNL A   1      44.994  38.575  28.824  1.00  0.00     0.127 S 
ATOM     98  O   UNL A   1      44.114  38.054  27.780  1.00  0.00    -0.237 OA
ATOM     99  O   UNL A   1      44.409  39.642  29.639  1.00  0.00    -0.237 OA
ATOM    100  O   UNL A   1      46.373  38.811  28.419  1.00  0.00    -0.744 OA
ENDBRANCH  94  97
ENDBRANCH  67  90
ENDBRANCH  41  42
ENDBRANCH  34  36
ENDBRANCH  33  34
ENDBRANCH  32  33
ENDBRANCH  31  32
ENDBRANCH  30  31
ENDBRANCH  29  30
ENDBRANCH  28  29
ENDBRANCH  27  28
ENDBRANCH   1  27
TORSDOF 31
ENDMDL
MODEL 3
REMARK VINA RESULT:      -7.1      2.544      8.436
REMARK SMILES COCCN(C(=O)N1CC[C@H](C(=O)OCCOCCOCCOCCOC(=O)c2ccc(-c3c4nc(c(-c5cccc(S(=O)(=O)[O-])c5F)c5ccc([nH]5)c(-c5cccc(S(=O)(=O)[O-])c5F)c5nc(c(-c6cccc(S(=O)(=O)[O-])c6F)c6ccc3[nH]6)C=C5)C=C4)cc2)[C@H]1C)[C@@H](C)COC
REMARK SMILES IDX 19 1 18 2 17 3 16 4 15 5 14 6 12 7 13 8 11 9 8 10 9 11 92 12
REMARK SMILES IDX 10 13 93 14 6 15 7 16 5 17 4 18 3 19 2 20 1 21 94 22 95 23
REMARK SMILES IDX 96 24 97 25 98 26 20 27 21 28 22 29 23 30 24 31 25 32 26 33
REMARK SMILES IDX 27 34 28 35 29 36 30 37 91 38 31 39 90 40 32 41 33 42 34 43
REMARK SMILES IDX 84 44 35 45 89 46 83 47 85 48 36 49 88 50 82 51 81 52 37 54
REMARK SMILES IDX 69 55 49 56 68 57 50 58 53 59 67 60 86 61 51 62 52 63 66 65
REMARK SMILES IDX 87 66 54 67 38 68 39 69 47 70 40 71 42 72 48 73 41 74 43 75
REMARK SMILES IDX 44 76 45 77 46 78 70 79 71 80 79 81 72 82 74 83 80 84 73 85
REMARK SMILES IDX 75 86 76 87 77 88 78 89 55 90 56 91 64 92 57 93 59 94 65 95
REMARK SMILES IDX 58 96 60 97 61 98 62 99 63 100
REMARK H PARENT 85 53 53 64
REMARK Flexibility Score: inf
ROOT
ATOM      1  C   UNL A   1      31.702  22.544  25.842  1.00  0.00     0.188 C 
ENDROOT
BRANCH   1   2
ATOM      2  C   UNL A   1      30.644  22.952  26.882  1.00  0.00     0.188 C 
BRANCH   2   3
ATOM      3  O   UNL A   1      30.044  24.244  26.870  1.00  0.00    -0.376 OA
BRANCH   3   4
ATOM      4  C   UNL A   1      30.641  25.292  26.126  1.00  0.00     0.202 C 
BRANCH   4   5
ATOM      5  C   UNL A   1      29.950  26.671  26.113  1.00  0.00     0.261 C 
BRANCH   5   6
ATOM      6  O   UNL A   1      30.779  27.836  26.344  1.00  0.00    -0.463 OA
BRANCH   6   7
ATOM      7  C   UNL A   1      31.820  27.659  27.187  1.00  0.00     0.311 C 
ATOM      8  O   UNL A   1      31.694  27.457  28.393  1.00  0.00    -0.252 OA
BRANCH   7   9
ATOM      9  C   UNL A   1      33.213  27.752  26.564  1.00  0.00     0.123 C 
ATOM     10  N   UNL A   1      33.768  27.737  24.184  1.00  0.00    -0.321 N 
ATOM     11  C   UNL A   1      33.765  26.356  24.657  1.00  0.00     0.122 C 
ATOM     12  C   UNL A   1      33.601  28.658  25.352  1.00  0.00     0.098 C 
ATOM     13  C   UNL A   1      33.747  26.374  26.171  1.00  0.00     0.039 C 
ATOM     14  C   UNL A   1      34.940  29.297  25.767  1.00  0.00     0.032 C 
BRANCH  10  15
ATOM     15  C   UNL A   1      33.444  27.877  22.839  1.00  0.00     0.320 C 
ATOM     16  O   UNL A   1      34.290  28.397  22.098  1.00  0.00    -0.248 OA
BRANCH  15  17
ATOM     17  N   UNL A   1      32.221  27.513  22.297  1.00  0.00    -0.317 N 
BRANCH  17  18
ATOM     18  C   UNL A   1      31.160  28.436  21.869  1.00  0.00     0.150 C 
BRANCH  18  19
ATOM     19  C   UNL A   1      30.888  29.610  22.830  1.00  0.00     0.181 C 
BRANCH  19  20
ATOM     20  O   UNL A   1      29.590  29.551  23.440  1.00  0.00    -0.383 OA
ATOM     21  C   UNL A   1      28.516  29.544  22.513  1.00  0.00     0.194 C 
ENDBRANCH  19  20
ENDBRANCH  18  19
ENDBRANCH  17  18
BRANCH  17  22
ATOM     22  C   UNL A   1      32.047  26.041  22.017  1.00  0.00     0.109 C 
ATOM     23  C   UNL A   1      30.744  25.452  22.592  1.00  0.00     0.033 C 
BRANCH  22  24
ATOM     24  C   UNL A   1      32.183  25.570  20.537  1.00  0.00     0.184 C 
BRANCH  24  25
ATOM     25  O   UNL A   1      33.286  24.724  20.219  1.00  0.00    -0.383 OA
ATOM     26  C   UNL A   1      33.266  23.470  20.878  1.00  0.00     0.194 C 
ENDBRANCH  24  25
ENDBRANCH  22  24
ENDBRANCH  17  22
ENDBRANCH  15  17
ENDBRANCH  10  15
ENDBRANCH   7   9
ENDBRANCH   6   7
ENDBRANCH   5   6
ENDBRANCH   4   5
ENDBRANCH   3   4
ENDBRANCH   2   3
ENDBRANCH   1   2
BRANCH   1  27
ATOM     27  O   UNL A   1      32.743  21.748  26.359  1.00  0.00    -0.377 OA
BRANCH  27  28
ATOM     28  C   UNL A   1      33.693  21.343  25.395  1.00  0.00     0.188 C 
BRANCH  28  29
ATOM     29  C   UNL A   1      34.745  20.326  25.869  1.00  0.00     0.188 C 
BRANCH  29  30
ATOM     30  O   UNL A   1      35.589  19.698  24.926  1.00  0.00    -0.376 OA
BRANCH  30  31
ATOM     31  C   UNL A   1      36.656  20.298  24.215  1.00  0.00     0.202 C 
BRANCH  31  32
ATOM     32  C   UNL A   1      37.530  21.483  24.653  1.00  0.00     0.261 C 
BRANCH  32  33
ATOM     33  O   UNL A   1      37.855  21.597  26.034  1.00  0.00    -0.460 OA
BRANCH  33  34
ATOM     34  C   UNL A   1      39.168  21.425  26.318  1.00  0.00     0.338 C 
ATOM     35  O   UNL A   1      39.872  20.489  25.995  1.00  0.00    -0.246 OA
BRANCH  34  36
ATOM     36  C   UNL A   1      39.698  22.669  26.908  1.00  0.00     0.060 A 
ATOM     37  C   UNL A   1      38.970  23.842  26.679  1.00  0.00     0.016 A 
ATOM     38  C   UNL A   1      40.892  22.697  27.632  1.00  0.00     0.016 A 
ATOM     39  C   UNL A   1      39.462  25.062  27.120  1.00  0.00     0.010 A 
ATOM     40  C   UNL A   1      41.404  23.930  28.047  1.00  0.00     0.010 A 
ATOM     41  C   UNL A   1      40.714  25.116  27.740  1.00  0.00    -0.014 A 
BRANCH  41  42
ATOM     42  C   UNL A   1      41.379  26.434  27.816  1.00  0.00     0.031 A 
ATOM     43  C   UNL A   1      40.688  27.531  28.581  1.00  0.00     0.074 A 
ATOM     44  C   UNL A   1      42.609  26.621  27.309  1.00  0.00     0.049 A 
ATOM     45  N   UNL A   1      41.100  28.741  28.848  1.00  0.00    -0.248 NA
ATOM     46  C   UNL A   1      39.354  27.217  29.125  1.00  0.00     0.031 C 
ATOM     47  C   UNL A   1      43.385  25.616  26.584  1.00  0.00     0.029 A 
ATOM     48  N   UNL A   1      43.418  27.727  27.328  1.00  0.00    -0.354 N 
ATOM     49  C   UNL A   1      40.071  29.339  29.566  1.00  0.00     0.074 A 
ATOM     50  C   UNL A   1      39.008  28.367  29.680  1.00  0.00     0.031 C 
ATOM     51  C   UNL A   1      44.555  26.161  26.208  1.00  0.00     0.029 A 
ATOM     52  C   UNL A   1      44.598  27.554  26.647  1.00  0.00     0.049 A 
ATOM     53  H   UNL A   1      43.177  28.564  27.785  1.00  0.00     0.167 HD
ATOM     54  C   UNL A   1      40.021  30.583  30.096  1.00  0.00     0.034 A 
ATOM     55  C   UNL A   1      45.589  28.431  26.394  1.00  0.00     0.034 A 
ATOM     56  C   UNL A   1      41.089  31.540  29.986  1.00  0.00     0.049 A 
ATOM     57  C   UNL A   1      45.493  29.823  26.963  1.00  0.00     0.074 A 
ATOM     58  C   UNL A   1      41.152  32.819  30.508  1.00  0.00     0.029 A 
ATOM     59  N   UNL A   1      42.272  31.328  29.296  1.00  0.00    -0.354 N 
ATOM     60  N   UNL A   1      44.554  30.349  27.712  1.00  0.00    -0.248 NA
ATOM     61  C   UNL A   1      46.614  30.733  26.683  1.00  0.00     0.031 C 
ATOM     62  C   UNL A   1      42.358  33.396  30.096  1.00  0.00     0.029 A 
ATOM     63  C   UNL A   1      43.068  32.457  29.365  1.00  0.00     0.049 A 
ATOM     64  H   UNL A   1      42.510  30.496  28.826  1.00  0.00     0.167 HD
ATOM     65  C   UNL A   1      44.990  31.630  28.032  1.00  0.00     0.074 A 
ATOM     66  C   UNL A   1      46.285  31.795  27.404  1.00  0.00     0.031 C 
ATOM     67  C   UNL A   1      44.376  32.585  28.775  1.00  0.00     0.034 A 
BRANCH  54  68
ATOM     68  C   UNL A   1      38.771  30.979  30.834  1.00  0.00     0.023 A 
ATOM     69  C   UNL A   1      38.692  30.816  32.232  1.00  0.00     0.012 A 
ATOM     70  C   UNL A   1      37.687  31.554  30.143  1.00  0.00     0.148 A 
ATOM     71  C   UNL A   1      37.539  31.186  32.925  1.00  0.00     0.002 A 
ATOM     72  C   UNL A   1      36.562  31.967  30.848  1.00  0.00     0.091 A 
ATOM     73  F   UNL A   1      37.770  31.676  28.811  1.00  0.00    -0.205 F 
ATOM     74  C   UNL A   1      36.481  31.771  32.236  1.00  0.00     0.022 A 
BRANCH  72  75
ATOM     75  S   UNL A   1      35.182  32.804  30.061  1.00  0.00     0.127 S 
ATOM     76  O   UNL A   1      34.713  31.784  29.125  1.00  0.00    -0.237 OA
ATOM     77  O   UNL A   1      34.288  33.051  31.193  1.00  0.00    -0.237 OA
ATOM     78  O   UNL A   1      35.734  34.005  29.448  1.00  0.00    -0.744 OA
ENDBRANCH  72  75
ENDBRANCH  54  68
BRANCH  55  79
ATOM     79  C   UNL A   1      46.766  28.013  25.583  1.00  0.00     0.023 A 
ATOM     80  C   UNL A   1      46.744  28.157  24.183  1.00  0.00     0.012 A 
ATOM     81  C   UNL A   1      47.914  27.480  26.202  1.00  0.00     0.148 A 
ATOM     82  C   UNL A   1      47.830  27.743  23.410  1.00  0.00     0.002 A 
ATOM     83  C   UNL A   1      49.014  27.126  25.432  1.00  0.00     0.091 A 
ATOM     84  F   UNL A   1      47.909  27.340  27.535  1.00  0.00    -0.205 F 
ATOM     85  C   UNL A   1      48.968  27.237  24.034  1.00  0.00     0.022 A 
BRANCH  83  86
ATOM     86  S   UNL A   1      50.565  26.585  26.160  1.00  0.00     0.127 S 
ATOM     87  O   UNL A   1      50.830  27.650  27.125  1.00  0.00    -0.237 OA
ATOM     88  O   UNL A   1      50.187  25.300  26.747  1.00  0.00    -0.237 OA
ATOM     89  O   UNL A   1      51.508  26.488  25.055  1.00  0.00    -0.744 OA
ENDBRANCH  83  86
ENDBRANCH  55  79
BRANCH  67  90
ATOM     90  C   UNL A   1      45.119  33.876  29.009  1.00  0.00     0.023 A 
ATOM     91  C   UNL A   1      46.201  33.922  29.909  1.00  0.00     0.012 A 
ATOM     92  C   UNL A   1      44.778  35.031  28.276  1.00  0.00     0.148 A 
ATOM     93  C   UNL A   1      46.903  35.110  30.109  1.00  0.00     0.002 A 
ATOM     94  C   UNL A   1      45.519  36.194  28.439  1.00  0.00     0.091 A 
ATOM     95  F   UNL A   1      43.736  34.971  27.435  1.00  0.00    -0.205 F 
ATOM     96  C   UNL A   1      46.572  36.240  29.367  1.00  0.00     0.022 A 
BRANCH  94  97
ATOM     97  S   UNL A   1      45.228  37.664  27.450  1.00  0.00     0.127 S 
ATOM     98  O   UNL A   1      46.349  37.619  26.513  1.00  0.00    -0.237 OA
ATOM     99  O   UNL A   1      43.922  37.381  26.852  1.00  0.00    -0.237 OA
ATOM    100  O   UNL A   1      45.237  38.785  28.380  1.00  0.00    -0.744 OA
ENDBRANCH  94  97
ENDBRANCH  67  90
ENDBRANCH  41  42
ENDBRANCH  34  36
ENDBRANCH  33  34
ENDBRANCH  32  33
ENDBRANCH  31  32
ENDBRANCH  30  31
ENDBRANCH  29  30
ENDBRANCH  28  29
ENDBRANCH  27  28
ENDBRANCH   1  27
TORSDOF 31
ENDMDL
