MODEL 1
REMARK VINA RESULT:     -11.4      0.000      0.000
REMARK SMILES Cc1cc2c(=O)cc(-c3ccc(F)cc3)oc2c(C(=O)OCCOCCOCCOCCOC(=O)c2ccc(-c3c4nc(c(-c5cccc(S(=O)(=O)[O-])c5F)c5ccc([nH]5)c(-c5cccc(S(=O)(=O)[O-])c5F)c5nc(c(-c6cccc(S(=O)(=O)[O-])c6F)c6ccc3[nH]6)C=C5)C=C4)cc2)c1C
REMARK SMILES IDX 28 1 27 2 26 3 25 4 24 5 23 6 22 7 21 8 19 9 20 10 18 11
REMARK SMILES IDX 1 12 2 13 3 14 99 15 4 16 100 17 5 18 17 19 6 20 7 21 16 22
REMARK SMILES IDX 8 23 9 24 10 25 15 26 11 27 14 28 12 29 13 30 29 31 30 32
REMARK SMILES IDX 31 33 32 34 33 35 34 36 35 37 36 38 37 39 98 40 38 41 97 42
REMARK SMILES IDX 39 43 40 44 41 45 91 46 42 47 96 48 90 49 92 50 43 51 95 52
REMARK SMILES IDX 89 53 88 54 44 56 76 57 56 58 75 59 57 60 60 61 74 62 93 63
REMARK SMILES IDX 58 64 59 65 73 67 94 68 61 69 45 70 46 71 54 72 47 73 49 74
REMARK SMILES IDX 55 75 48 76 50 77 51 78 52 79 53 80 77 81 78 82 86 83 79 84
REMARK SMILES IDX 81 85 87 86 80 87 82 88 83 89 84 90 85 91 62 92 63 93 71 94
REMARK SMILES IDX 64 95 66 96 72 97 65 98 67 99 68 100 69 101 70 102
REMARK H PARENT 92 55 60 66
REMARK Flexibility Score: inf
ROOT
ATOM      1  C   UNL A   1      33.652  33.113  28.069  1.00  0.00     0.188 C 
ENDROOT
BRANCH   1   2
ATOM      2  O   UNL A   1      34.113  31.874  28.582  1.00  0.00    -0.377 OA
BRANCH   2   3
ATOM      3  C   UNL A   1      34.582  30.889  27.670  1.00  0.00     0.188 C 
BRANCH   3   4
ATOM      4  C   UNL A   1      33.735  29.680  27.200  1.00  0.00     0.188 C 
BRANCH   4   5
ATOM      5  O   UNL A   1      34.409  28.727  26.384  1.00  0.00    -0.376 OA
BRANCH   5   6
ATOM      6  C   UNL A   1      33.831  27.431  26.303  1.00  0.00     0.202 C 
BRANCH   6   7
ATOM      7  C   UNL A   1      32.474  27.344  26.997  1.00  0.00     0.261 C 
BRANCH   7   8
ATOM      8  O   UNL A   1      31.569  26.467  26.313  1.00  0.00    -0.460 OA
BRANCH   8   9
ATOM      9  C   UNL A   1      31.827  25.143  26.363  1.00  0.00     0.342 C 
ATOM     10  O   UNL A   1      31.389  24.352  27.180  1.00  0.00    -0.246 OA
BRANCH   9  11
ATOM     11  C   UNL A   1      32.657  24.770  25.183  1.00  0.00     0.106 A 
ATOM     12  C   UNL A   1      35.737  22.691  24.160  1.00  0.00     0.044 C 
ATOM     13  C   UNL A   1      34.519  23.578  24.131  1.00  0.00    -0.046 A 
ATOM     14  C   UNL A   1      34.064  24.024  22.883  1.00  0.00     0.019 A 
ATOM     15  C   UNL A   1      33.809  23.938  25.302  1.00  0.00    -0.030 A 
ATOM     16  C   UNL A   1      32.975  24.892  22.792  1.00  0.00     0.066 A 
ATOM     17  C   UNL A   1      34.340  23.531  26.659  1.00  0.00     0.046 C 
ATOM     18  C   UNL A   1      32.586  25.424  21.478  1.00  0.00     0.193 A 
ATOM     19  C   UNL A   1      32.279  25.293  23.931  1.00  0.00     0.153 A 
ATOM     20  O   UNL A   1      33.075  25.026  20.429  1.00  0.00    -0.289 OA
ATOM     21  C   UNL A   1      31.595  26.504  21.480  1.00  0.00     0.100 A 
ATOM     22  O   UNL A   1      31.287  26.252  23.863  1.00  0.00    -0.455 OA
ATOM     23  C   UNL A   1      31.034  26.856  22.643  1.00  0.00     0.138 A 
BRANCH  23  24
ATOM     24  C   UNL A   1      30.101  27.992  22.667  1.00  0.00     0.018 A 
ATOM     25  C   UNL A   1      30.500  29.245  22.177  1.00  0.00     0.015 A 
ATOM     26  C   UNL A   1      28.774  27.810  23.084  1.00  0.00     0.015 A 
ATOM     27  C   UNL A   1      29.581  30.295  22.095  1.00  0.00     0.040 A 
ATOM     28  C   UNL A   1      27.858  28.861  23.001  1.00  0.00     0.040 A 
ATOM     29  C   UNL A   1      28.268  30.091  22.503  1.00  0.00     0.123 A 
ATOM     30  F   UNL A   1      27.381  31.091  22.403  1.00  0.00    -0.207 F 
ENDBRANCH  23  24
ENDBRANCH   9  11
ENDBRANCH   8   9
ENDBRANCH   7   8
ENDBRANCH   6   7
ENDBRANCH   5   6
ENDBRANCH   4   5
ENDBRANCH   3   4
ENDBRANCH   2   3
ENDBRANCH   1   2
BRANCH   1  31
ATOM     31  C   UNL A   1      34.675  34.257  28.191  1.00  0.00     0.188 C 
BRANCH  31  32
ATOM     32  O   UNL A   1      34.286  35.245  29.146  1.00  0.00    -0.376 OA
BRANCH  32  33
ATOM     33  C   UNL A   1      33.584  34.772  30.288  1.00  0.00     0.202 C 
BRANCH  33  34
ATOM     34  C   UNL A   1      34.364  34.709  31.610  1.00  0.00     0.261 C 
BRANCH  34  35
ATOM     35  O   UNL A   1      35.601  33.980  31.588  1.00  0.00    -0.460 OA
BRANCH  35  36
ATOM     36  C   UNL A   1      35.576  32.652  31.838  1.00  0.00     0.338 C 
ATOM     37  O   UNL A   1      34.650  32.003  32.289  1.00  0.00    -0.246 OA
BRANCH  36  38
ATOM     38  C   UNL A   1      36.827  32.099  31.276  1.00  0.00     0.060 A 
ATOM     39  C   UNL A   1      37.631  31.263  32.056  1.00  0.00     0.016 A 
ATOM     40  C   UNL A   1      37.237  32.481  29.991  1.00  0.00     0.016 A 
ATOM     41  C   UNL A   1      38.844  30.799  31.545  1.00  0.00     0.010 A 
ATOM     42  C   UNL A   1      38.460  32.027  29.490  1.00  0.00     0.010 A 
ATOM     43  C   UNL A   1      39.263  31.170  30.257  1.00  0.00    -0.014 A 
BRANCH  43  44
ATOM     44  C   UNL A   1      40.445  30.511  29.653  1.00  0.00     0.031 A 
ATOM     45  C   UNL A   1      40.391  29.125  29.087  1.00  0.00     0.074 A 
ATOM     46  C   UNL A   1      41.602  31.201  29.643  1.00  0.00     0.049 A 
ATOM     47  N   UNL A   1      41.337  28.457  28.477  1.00  0.00    -0.248 NA
ATOM     48  C   UNL A   1      39.125  28.389  29.219  1.00  0.00     0.031 C 
ATOM     49  C   UNL A   1      41.780  32.541  30.207  1.00  0.00     0.029 A 
ATOM     50  N   UNL A   1      42.840  30.873  29.157  1.00  0.00    -0.354 N 
ATOM     51  C   UNL A   1      40.790  27.224  28.152  1.00  0.00     0.074 A 
ATOM     52  C   UNL A   1      39.428  27.228  28.647  1.00  0.00     0.031 C 
ATOM     53  C   UNL A   1      43.054  32.922  30.035  1.00  0.00     0.029 A 
ATOM     54  C   UNL A   1      43.783  31.851  29.361  1.00  0.00     0.049 A 
ATOM     55  H   UNL A   1      43.035  30.020  28.705  1.00  0.00     0.167 HD
ATOM     56  C   UNL A   1      41.367  26.195  27.487  1.00  0.00     0.034 A 
ATOM     57  C   UNL A   1      45.089  31.889  29.040  1.00  0.00     0.034 A 
ATOM     58  C   UNL A   1      42.719  26.202  26.986  1.00  0.00     0.049 A 
ATOM     59  C   UNL A   1      45.702  30.734  28.307  1.00  0.00     0.074 A 
ATOM     60  C   UNL A   1      43.361  25.229  26.239  1.00  0.00     0.029 A 
ATOM     61  N   UNL A   1      43.640  27.216  27.194  1.00  0.00    -0.354 N 
ATOM     62  N   UNL A   1      45.128  29.636  27.882  1.00  0.00    -0.248 NA
ATOM     63  C   UNL A   1      47.133  30.831  27.986  1.00  0.00     0.031 C 
ATOM     64  C   UNL A   1      44.675  25.648  26.008  1.00  0.00     0.029 A 
ATOM     65  C   UNL A   1      44.848  26.887  26.604  1.00  0.00     0.049 A 
ATOM     66  H   UNL A   1      43.462  28.048  27.688  1.00  0.00     0.167 HD
ATOM     67  C   UNL A   1      46.122  28.915  27.232  1.00  0.00     0.074 A 
ATOM     68  C   UNL A   1      47.330  29.711  27.301  1.00  0.00     0.031 C 
ATOM     69  C   UNL A   1      46.040  27.695  26.648  1.00  0.00     0.034 A 
BRANCH  56  70
ATOM     70  C   UNL A   1      40.531  24.982  27.187  1.00  0.00     0.023 A 
ATOM     71  C   UNL A   1      39.283  25.156  26.556  1.00  0.00     0.012 A 
ATOM     72  C   UNL A   1      41.026  23.681  27.399  1.00  0.00     0.148 A 
ATOM     73  C   UNL A   1      38.537  24.054  26.143  1.00  0.00     0.002 A 
ATOM     74  C   UNL A   1      40.287  22.586  26.963  1.00  0.00     0.091 A 
ATOM     75  F   UNL A   1      42.214  23.542  28.006  1.00  0.00    -0.205 F 
ATOM     76  C   UNL A   1      39.042  22.771  26.338  1.00  0.00     0.022 A 
BRANCH  74  77
ATOM     77  S   UNL A   1      40.866  20.892  27.120  1.00  0.00     0.127 S 
ATOM     78  O   UNL A   1      40.854  20.712  28.570  1.00  0.00    -0.237 OA
ATOM     79  O   UNL A   1      39.830  20.147  26.404  1.00  0.00    -0.237 OA
ATOM     80  O   UNL A   1      42.184  20.857  26.502  1.00  0.00    -0.744 OA
ENDBRANCH  74  77
ENDBRANCH  56  70
BRANCH  57  81
ATOM     81  C   UNL A   1      45.874  33.108  29.361  1.00  0.00     0.023 A 
ATOM     82  C   UNL A   1      46.595  33.161  30.569  1.00  0.00     0.012 A 
ATOM     83  C   UNL A   1      45.980  34.168  28.440  1.00  0.00     0.148 A 
ATOM     84  C   UNL A   1      47.407  34.255  30.858  1.00  0.00     0.002 A 
ATOM     85  C   UNL A   1      46.821  35.239  28.719  1.00  0.00     0.091 A 
ATOM     86  F   UNL A   1      45.284  34.088  27.299  1.00  0.00    -0.205 F 
ATOM     87  C   UNL A   1      47.528  35.288  29.932  1.00  0.00     0.022 A 
BRANCH  85  88
ATOM     88  S   UNL A   1      47.125  36.564  27.547  1.00  0.00     0.127 S 
ATOM     89  O   UNL A   1      47.259  35.827  26.293  1.00  0.00    -0.237 OA
ATOM     90  O   UNL A   1      45.902  37.357  27.670  1.00  0.00    -0.237 OA
ATOM     91  O   UNL A   1      48.332  37.234  28.009  1.00  0.00    -0.744 OA
ENDBRANCH  85  88
ENDBRANCH  57  81
BRANCH  69  92
ATOM     92  C   UNL A   1      47.291  27.123  26.042  1.00  0.00     0.023 A 
ATOM     93  C   UNL A   1      47.559  27.350  24.680  1.00  0.00     0.012 A 
ATOM     94  C   UNL A   1      48.242  26.453  26.836  1.00  0.00     0.148 A 
ATOM     95  C   UNL A   1      48.753  26.911  24.110  1.00  0.00     0.002 A 
ATOM     96  C   UNL A   1      49.445  26.046  26.270  1.00  0.00     0.091 A 
ATOM     97  F   UNL A   1      47.957  26.238  28.128  1.00  0.00    -0.205 F 
ATOM     98  C   UNL A   1      49.700  26.270  24.906  1.00  0.00     0.022 A 
BRANCH  96  99
ATOM     99  S   UNL A   1      50.757  25.275  27.226  1.00  0.00     0.127 S 
ATOM    100  O   UNL A   1      50.056  24.144  27.832  1.00  0.00    -0.237 OA
ATOM    101  O   UNL A   1      51.722  24.911  26.188  1.00  0.00    -0.237 OA
ATOM    102  O   UNL A   1      51.223  26.289  28.162  1.00  0.00    -0.744 OA
ENDBRANCH  96  99
ENDBRANCH  69  92
ENDBRANCH  43  44
ENDBRANCH  36  38
ENDBRANCH  35  36
ENDBRANCH  34  35
ENDBRANCH  33  34
ENDBRANCH  32  33
ENDBRANCH  31  32
ENDBRANCH   1  31
TORSDOF 24
ENDMDL
MODEL 2
REMARK VINA RESULT:     -10.8      3.142      6.129
REMARK SMILES Cc1cc2c(=O)cc(-c3ccc(F)cc3)oc2c(C(=O)OCCOCCOCCOCCOC(=O)c2ccc(-c3c4nc(c(-c5cccc(S(=O)(=O)[O-])c5F)c5ccc([nH]5)c(-c5cccc(S(=O)(=O)[O-])c5F)c5nc(c(-c6cccc(S(=O)(=O)[O-])c6F)c6ccc3[nH]6)C=C5)C=C4)cc2)c1C
REMARK SMILES IDX 28 1 27 2 26 3 25 4 24 5 23 6 22 7 21 8 19 9 20 10 18 11
REMARK SMILES IDX 1 12 2 13 3 14 99 15 4 16 100 17 5 18 17 19 6 20 7 21 16 22
REMARK SMILES IDX 8 23 9 24 10 25 15 26 11 27 14 28 12 29 13 30 29 31 30 32
REMARK SMILES IDX 31 33 32 34 33 35 34 36 35 37 36 38 37 39 98 40 38 41 97 42
REMARK SMILES IDX 39 43 40 44 41 45 91 46 42 47 96 48 90 49 92 50 43 51 95 52
REMARK SMILES IDX 89 53 88 54 44 56 76 57 56 58 75 59 57 60 60 61 74 62 93 63
REMARK SMILES IDX 58 64 59 65 73 67 94 68 61 69 45 70 46 71 54 72 47 73 49 74
REMARK SMILES IDX 55 75 48 76 50 77 51 78 52 79 53 80 77 81 78 82 86 83 79 84
REMARK SMILES IDX 81 85 87 86 80 87 82 88 83 89 84 90 85 91 62 92 63 93 71 94
REMARK SMILES IDX 64 95 66 96 72 97 65 98 67 99 68 100 69 101 70 102
REMARK H PARENT 92 55 60 66
REMARK Flexibility Score: inf
ROOT
ATOM      1  C   UNL A   1      34.398  33.321  28.505  1.00  0.00     0.188 C 
ENDROOT
BRANCH   1   2
ATOM      2  O   UNL A   1      34.172  31.934  28.696  1.00  0.00    -0.377 OA
BRANCH   2   3
ATOM      3  C   UNL A   1      33.766  31.149  27.582  1.00  0.00     0.188 C 
BRANCH   3   4
ATOM      4  C   UNL A   1      34.339  29.745  27.265  1.00  0.00     0.188 C 
BRANCH   4   5
ATOM      5  O   UNL A   1      33.440  28.829  26.650  1.00  0.00    -0.376 OA
BRANCH   5   6
ATOM      6  C   UNL A   1      32.448  28.246  27.485  1.00  0.00     0.202 C 
BRANCH   6   7
ATOM      7  C   UNL A   1      31.549  27.265  26.739  1.00  0.00     0.261 C 
BRANCH   7   8
ATOM      8  O   UNL A   1      31.815  25.902  27.099  1.00  0.00    -0.460 OA
BRANCH   8   9
ATOM      9  C   UNL A   1      31.298  24.938  26.309  1.00  0.00     0.342 C 
ATOM     10  O   UNL A   1      30.195  24.431  26.416  1.00  0.00    -0.246 OA
BRANCH   9  11
ATOM     11  C   UNL A   1      32.255  24.659  25.201  1.00  0.00     0.106 A 
ATOM     12  C   UNL A   1      35.443  22.662  24.361  1.00  0.00     0.044 C 
ATOM     13  C   UNL A   1      34.229  23.552  24.270  1.00  0.00    -0.046 A 
ATOM     14  C   UNL A   1      33.912  24.098  23.019  1.00  0.00     0.019 A 
ATOM     15  C   UNL A   1      33.392  23.817  25.380  1.00  0.00    -0.030 A 
ATOM     16  C   UNL A   1      32.834  24.972  22.878  1.00  0.00     0.066 A 
ATOM     17  C   UNL A   1      33.773  23.301  26.750  1.00  0.00     0.046 C 
ATOM     18  C   UNL A   1      32.589  25.610  21.576  1.00  0.00     0.193 A 
ATOM     19  C   UNL A   1      32.014  25.282  23.962  1.00  0.00     0.153 A 
ATOM     20  O   UNL A   1      33.193  25.296  20.559  1.00  0.00    -0.289 OA
ATOM     21  C   UNL A   1      31.597  26.688  21.556  1.00  0.00     0.100 A 
ATOM     22  O   UNL A   1      31.029  26.246  23.862  1.00  0.00    -0.455 OA
ATOM     23  C   UNL A   1      30.908  26.947  22.674  1.00  0.00     0.138 A 
BRANCH  23  24
ATOM     24  C   UNL A   1      29.971  28.079  22.686  1.00  0.00     0.018 A 
ATOM     25  C   UNL A   1      30.330  29.301  22.095  1.00  0.00     0.015 A 
ATOM     26  C   UNL A   1      28.674  27.920  23.196  1.00  0.00     0.015 A 
ATOM     27  C   UNL A   1      29.401  30.341  22.006  1.00  0.00     0.040 A 
ATOM     28  C   UNL A   1      27.747  28.962  23.106  1.00  0.00     0.040 A 
ATOM     29  C   UNL A   1      28.118  30.159  22.508  1.00  0.00     0.123 A 
ATOM     30  F   UNL A   1      27.219  31.148  22.401  1.00  0.00    -0.207 F 
ENDBRANCH  23  24
ENDBRANCH   9  11
ENDBRANCH   8   9
ENDBRANCH   7   8
ENDBRANCH   6   7
ENDBRANCH   5   6
ENDBRANCH   4   5
ENDBRANCH   3   4
ENDBRANCH   2   3
ENDBRANCH   1   2
BRANCH   1  31
ATOM     31  C   UNL A   1      34.024  34.187  29.721  1.00  0.00     0.188 C 
BRANCH  31  32
ATOM     32  O   UNL A   1      34.040  33.453  30.947  1.00  0.00    -0.376 OA
BRANCH  32  33
ATOM     33  C   UNL A   1      35.231  33.546  31.718  1.00  0.00     0.202 C 
BRANCH  33  34
ATOM     34  C   UNL A   1      35.765  32.244  32.334  1.00  0.00     0.261 C 
BRANCH  34  35
ATOM     35  O   UNL A   1      36.445  31.347  31.442  1.00  0.00    -0.460 OA
BRANCH  35  36
ATOM     36  C   UNL A   1      37.374  30.506  31.950  1.00  0.00     0.338 C 
ATOM     37  O   UNL A   1      37.178  29.499  32.604  1.00  0.00    -0.246 OA
BRANCH  36  38
ATOM     38  C   UNL A   1      38.675  30.940  31.396  1.00  0.00     0.060 A 
ATOM     39  C   UNL A   1      38.934  30.791  30.031  1.00  0.00     0.016 A 
ATOM     40  C   UNL A   1      39.667  31.425  32.259  1.00  0.00     0.016 A 
ATOM     41  C   UNL A   1      40.188  31.138  29.524  1.00  0.00     0.010 A 
ATOM     42  C   UNL A   1      40.926  31.757  31.750  1.00  0.00     0.010 A 
ATOM     43  C   UNL A   1      41.188  31.631  30.378  1.00  0.00    -0.014 A 
BRANCH  43  44
ATOM     44  C   UNL A   1      42.436  32.185  29.800  1.00  0.00     0.031 A 
ATOM     45  C   UNL A   1      43.644  31.339  29.533  1.00  0.00     0.074 A 
ATOM     46  C   UNL A   1      42.462  33.504  29.531  1.00  0.00     0.049 A 
ATOM     47  N   UNL A   1      44.775  31.688  28.975  1.00  0.00    -0.248 NA
ATOM     48  C   UNL A   1      43.585  29.928  29.942  1.00  0.00     0.031 C 
ATOM     49  C   UNL A   1      41.357  34.431  29.791  1.00  0.00     0.029 A 
ATOM     50  N   UNL A   1      43.444  34.293  28.994  1.00  0.00    -0.354 N 
ATOM     51  C   UNL A   1      45.567  30.549  28.965  1.00  0.00     0.074 A 
ATOM     52  C   UNL A   1      44.791  29.495  29.588  1.00  0.00     0.031 C 
ATOM     53  C   UNL A   1      41.725  35.665  29.414  1.00  0.00     0.029 A 
ATOM     54  C   UNL A   1      43.089  35.617  28.898  1.00  0.00     0.049 A 
ATOM     55  H   UNL A   1      44.319  33.946  28.706  1.00  0.00     0.167 HD
ATOM     56  C   UNL A   1      46.816  30.396  28.464  1.00  0.00     0.034 A 
ATOM     57  C   UNL A   1      43.780  36.678  28.441  1.00  0.00     0.034 A 
ATOM     58  C   UNL A   1      47.578  31.446  27.835  1.00  0.00     0.049 A 
ATOM     59  C   UNL A   1      45.163  36.480  27.897  1.00  0.00     0.074 A 
ATOM     60  C   UNL A   1      48.824  31.359  27.236  1.00  0.00     0.029 A 
ATOM     61  N   UNL A   1      47.181  32.769  27.737  1.00  0.00    -0.354 N 
ATOM     62  N   UNL A   1      45.838  35.365  27.764  1.00  0.00    -0.248 NA
ATOM     63  C   UNL A   1      45.868  37.675  27.417  1.00  0.00     0.031 C 
ATOM     64  C   UNL A   1      49.187  32.633  26.790  1.00  0.00     0.029 A 
ATOM     65  C   UNL A   1      48.162  33.512  27.102  1.00  0.00     0.049 A 
ATOM     66  H   UNL A   1      46.327  33.129  28.069  1.00  0.00     0.167 HD
ATOM     67  C   UNL A   1      47.044  35.721  27.174  1.00  0.00     0.074 A 
ATOM     68  C   UNL A   1      46.998  37.152  26.954  1.00  0.00     0.031 C 
ATOM     69  C   UNL A   1      48.099  34.931  26.859  1.00  0.00     0.034 A 
BRANCH  56  70
ATOM     70  C   UNL A   1      47.437  29.027  28.503  1.00  0.00     0.023 A 
ATOM     71  C   UNL A   1      48.188  28.654  29.636  1.00  0.00     0.012 A 
ATOM     72  C   UNL A   1      47.171  28.074  27.501  1.00  0.00     0.148 A 
ATOM     73  C   UNL A   1      48.669  27.353  29.770  1.00  0.00     0.002 A 
ATOM     74  C   UNL A   1      47.635  26.771  27.653  1.00  0.00     0.091 A 
ATOM     75  F   UNL A   1      46.459  28.455  26.431  1.00  0.00    -0.205 F 
ATOM     76  C   UNL A   1      48.386  26.411  28.785  1.00  0.00     0.022 A 
BRANCH  74  77
ATOM     77  S   UNL A   1      47.286  25.466  26.468  1.00  0.00     0.127 S 
ATOM     78  O   UNL A   1      48.202  25.805  25.381  1.00  0.00    -0.237 OA
ATOM     79  O   UNL A   1      47.650  24.265  27.220  1.00  0.00    -0.237 OA
ATOM     80  O   UNL A   1      45.871  25.582  26.145  1.00  0.00    -0.744 OA
ENDBRANCH  74  77
ENDBRANCH  56  70
BRANCH  57  81
ATOM     81  C   UNL A   1      43.125  38.011  28.427  1.00  0.00     0.023 A 
ATOM     82  C   UNL A   1      42.246  38.331  27.375  1.00  0.00     0.012 A 
ATOM     83  C   UNL A   1      43.298  38.918  29.489  1.00  0.00     0.148 A 
ATOM     84  C   UNL A   1      41.552  39.540  27.379  1.00  0.00     0.002 A 
ATOM     85  C   UNL A   1      42.575  40.104  29.505  1.00  0.00     0.091 A 
ATOM     86  F   UNL A   1      44.140  38.584  30.477  1.00  0.00    -0.205 F 
ATOM     87  C   UNL A   1      41.709  40.421  28.446  1.00  0.00     0.022 A 
BRANCH  85  88
ATOM     88  S   UNL A   1      42.627  41.254  30.883  1.00  0.00     0.127 S 
ATOM     89  O   UNL A   1      41.461  42.093  30.615  1.00  0.00    -0.237 OA
ATOM     90  O   UNL A   1      42.490  40.353  32.028  1.00  0.00    -0.237 OA
ATOM     91  O   UNL A   1      43.915  41.927  30.790  1.00  0.00    -0.744 OA
ENDBRANCH  85  88
ENDBRANCH  57  81
BRANCH  69  92
ATOM     92  C   UNL A   1      49.309  35.586  26.254  1.00  0.00     0.023 A 
ATOM     93  C   UNL A   1      49.548  35.445  24.874  1.00  0.00     0.012 A 
ATOM     94  C   UNL A   1      50.146  36.417  27.024  1.00  0.00     0.148 A 
ATOM     95  C   UNL A   1      50.610  36.114  24.268  1.00  0.00     0.002 A 
ATOM     96  C   UNL A   1      51.183  37.108  26.407  1.00  0.00     0.091 A 
ATOM     97  F   UNL A   1      49.905  36.526  28.338  1.00  0.00    -0.205 F 
ATOM     98  C   UNL A   1      51.420  36.953  25.030  1.00  0.00     0.022 A 
BRANCH  96  99
ATOM     99  S   UNL A   1      52.239  38.266  27.287  1.00  0.00     0.127 S 
ATOM    100  O   UNL A   1      53.145  38.706  26.227  1.00  0.00    -0.237 OA
ATOM    101  O   UNL A   1      51.282  39.278  27.732  1.00  0.00    -0.237 OA
ATOM    102  O   UNL A   1      52.864  37.506  28.360  1.00  0.00    -0.744 OA
ENDBRANCH  96  99
ENDBRANCH  69  92
ENDBRANCH  43  44
ENDBRANCH  36  38
ENDBRANCH  35  36
ENDBRANCH  34  35
ENDBRANCH  33  34
ENDBRANCH  32  33
ENDBRANCH  31  32
ENDBRANCH   1  31
TORSDOF 24
ENDMDL
MODEL 3
REMARK VINA RESULT:     -10.8      4.327     10.032
REMARK SMILES Cc1cc2c(=O)cc(-c3ccc(F)cc3)oc2c(C(=O)OCCOCCOCCOCCOC(=O)c2ccc(-c3c4nc(c(-c5cccc(S(=O)(=O)[O-])c5F)c5ccc([nH]5)c(-c5cccc(S(=O)(=O)[O-])c5F)c5nc(c(-c6cccc(S(=O)(=O)[O-])c6F)c6ccc3[nH]6)C=C5)C=C4)cc2)c1C
REMARK SMILES IDX 28 1 27 2 26 3 25 4 24 5 23 6 22 7 21 8 19 9 20 10 18 11
REMARK SMILES IDX 1 12 2 13 3 14 99 15 4 16 100 17 5 18 17 19 6 20 7 21 16 22
REMARK SMILES IDX 8 23 9 24 10 25 15 26 11 27 14 28 12 29 13 30 29 31 30 32
REMARK SMILES IDX 31 33 32 34 33 35 34 36 35 37 36 38 37 39 98 40 38 41 97 42
REMARK SMILES IDX 39 43 40 44 41 45 91 46 42 47 96 48 90 49 92 50 43 51 95 52
REMARK SMILES IDX 89 53 88 54 44 56 76 57 56 58 75 59 57 60 60 61 74 62 93 63
REMARK SMILES IDX 58 64 59 65 73 67 94 68 61 69 45 70 46 71 54 72 47 73 49 74
REMARK SMILES IDX 55 75 48 76 50 77 51 78 52 79 53 80 77 81 78 82 86 83 79 84
REMARK SMILES IDX 81 85 87 86 80 87 82 88 83 89 84 90 85 91 62 92 63 93 71 94
REMARK SMILES IDX 64 95 66 96 72 97 65 98 67 99 68 100 69 101 70 102
REMARK H PARENT 92 55 60 66
REMARK Flexibility Score: inf
ROOT
ATOM      1  C   UNL A   1      34.442  24.362  25.288  1.00  0.00     0.188 C 
ENDROOT
BRANCH   1   2
ATOM      2  O   UNL A   1      33.121  24.857  25.150  1.00  0.00    -0.377 OA
BRANCH   2   3
ATOM      3  C   UNL A   1      32.919  26.265  25.125  1.00  0.00     0.188 C 
BRANCH   3   4
ATOM      4  C   UNL A   1      32.542  27.102  26.371  1.00  0.00     0.188 C 
BRANCH   4   5
ATOM      5  O   UNL A   1      33.557  27.964  26.874  1.00  0.00    -0.376 OA
BRANCH   5   6
ATOM      6  C   UNL A   1      33.168  29.293  27.197  1.00  0.00     0.202 C 
BRANCH   6   7
ATOM      7  C   UNL A   1      34.308  30.296  27.041  1.00  0.00     0.261 C 
BRANCH   7   8
ATOM      8  O   UNL A   1      34.196  31.392  27.959  1.00  0.00    -0.460 OA
BRANCH   8   9
ATOM      9  C   UNL A   1      35.338  32.006  28.337  1.00  0.00     0.342 C 
ATOM     10  O   UNL A   1      36.047  32.706  27.637  1.00  0.00    -0.246 OA
BRANCH   9  11
ATOM     11  C   UNL A   1      35.543  31.782  29.796  1.00  0.00     0.106 A 
ATOM     12  C   UNL A   1      34.593  33.190  33.256  1.00  0.00     0.044 C 
ATOM     13  C   UNL A   1      35.166  32.343  32.149  1.00  0.00    -0.046 A 
ATOM     14  C   UNL A   1      35.881  31.192  32.509  1.00  0.00     0.019 A 
ATOM     15  C   UNL A   1      34.977  32.646  30.779  1.00  0.00    -0.030 A 
ATOM     16  C   UNL A   1      36.483  30.395  31.535  1.00  0.00     0.066 A 
ATOM     17  C   UNL A   1      34.280  33.929  30.382  1.00  0.00     0.046 C 
ATOM     18  C   UNL A   1      37.312  29.254  31.950  1.00  0.00     0.193 A 
ATOM     19  C   UNL A   1      36.345  30.691  30.180  1.00  0.00     0.153 A 
ATOM     20  O   UNL A   1      37.380  28.869  33.109  1.00  0.00    -0.289 OA
ATOM     21  C   UNL A   1      38.101  28.607  30.898  1.00  0.00     0.100 A 
ATOM     22  O   UNL A   1      37.046  29.987  29.219  1.00  0.00    -0.455 OA
ATOM     23  C   UNL A   1      37.939  29.013  29.633  1.00  0.00     0.138 A 
BRANCH  23  24
ATOM     24  C   UNL A   1      38.786  28.427  28.584  1.00  0.00     0.018 A 
ATOM     25  C   UNL A   1      39.399  29.251  27.628  1.00  0.00     0.015 A 
ATOM     26  C   UNL A   1      39.071  27.053  28.589  1.00  0.00     0.015 A 
ATOM     27  C   UNL A   1      40.293  28.709  26.700  1.00  0.00     0.040 A 
ATOM     28  C   UNL A   1      39.964  26.514  27.660  1.00  0.00     0.040 A 
ATOM     29  C   UNL A   1      40.570  27.348  26.729  1.00  0.00     0.123 A 
ATOM     30  F   UNL A   1      41.445  26.832  25.853  1.00  0.00    -0.207 F 
ENDBRANCH  23  24
ENDBRANCH   9  11
ENDBRANCH   8   9
ENDBRANCH   7   8
ENDBRANCH   6   7
ENDBRANCH   5   6
ENDBRANCH   4   5
ENDBRANCH   3   4
ENDBRANCH   2   3
ENDBRANCH   1   2
BRANCH   1  31
ATOM     31  C   UNL A   1      34.550  22.832  25.161  1.00  0.00     0.188 C 
BRANCH  31  32
ATOM     32  O   UNL A   1      35.741  22.311  25.753  1.00  0.00    -0.376 OA
BRANCH  32  33
ATOM     33  C   UNL A   1      36.124  21.003  25.347  1.00  0.00     0.202 C 
BRANCH  33  34
ATOM     34  C   UNL A   1      37.573  20.817  24.873  1.00  0.00     0.261 C 
BRANCH  34  35
ATOM     35  O   UNL A   1      38.602  21.222  25.789  1.00  0.00    -0.460 OA
BRANCH  35  36
ATOM     36  C   UNL A   1      39.705  20.451  25.909  1.00  0.00     0.338 C 
ATOM     37  O   UNL A   1      39.823  19.280  25.602  1.00  0.00    -0.246 OA
BRANCH  36  38
ATOM     38  C   UNL A   1      40.805  21.357  26.305  1.00  0.00     0.060 A 
ATOM     39  C   UNL A   1      40.544  22.712  26.532  1.00  0.00     0.016 A 
ATOM     40  C   UNL A   1      42.115  20.865  26.375  1.00  0.00     0.016 A 
ATOM     41  C   UNL A   1      41.596  23.575  26.841  1.00  0.00     0.010 A 
ATOM     42  C   UNL A   1      43.168  21.737  26.668  1.00  0.00     0.010 A 
ATOM     43  C   UNL A   1      42.913  23.093  26.918  1.00  0.00    -0.014 A 
BRANCH  43  44
ATOM     44  C   UNL A   1      43.985  23.972  27.443  1.00  0.00     0.031 A 
ATOM     45  C   UNL A   1      44.916  24.729  26.546  1.00  0.00     0.074 A 
ATOM     46  C   UNL A   1      44.113  24.061  28.781  1.00  0.00     0.049 A 
ATOM     47  N   UNL A   1      45.856  25.578  26.878  1.00  0.00    -0.248 NA
ATOM     48  C   UNL A   1      44.786  24.511  25.098  1.00  0.00     0.031 C 
ATOM     49  C   UNL A   1      43.289  23.334  29.749  1.00  0.00     0.029 A 
ATOM     50  N   UNL A   1      44.983  24.784  29.555  1.00  0.00    -0.354 N 
ATOM     51  C   UNL A   1      46.434  25.997  25.688  1.00  0.00     0.074 A 
ATOM     52  C   UNL A   1      45.748  25.296  24.621  1.00  0.00     0.031 C 
ATOM     53  C   UNL A   1      43.693  23.647  30.989  1.00  0.00     0.029 A 
ATOM     54  C   UNL A   1      44.808  24.585  30.903  1.00  0.00     0.049 A 
ATOM     55  H   UNL A   1      45.666  25.387  29.181  1.00  0.00     0.167 HD
ATOM     56  C   UNL A   1      47.430  26.896  25.507  1.00  0.00     0.034 A 
ATOM     57  C   UNL A   1      45.467  25.101  31.957  1.00  0.00     0.034 A 
ATOM     58  C   UNL A   1      48.100  27.599  26.572  1.00  0.00     0.049 A 
ATOM     59  C   UNL A   1      46.568  26.091  31.726  1.00  0.00     0.074 A 
ATOM     60  C   UNL A   1      49.072  28.580  26.472  1.00  0.00     0.029 A 
ATOM     61  N   UNL A   1      47.886  27.388  27.924  1.00  0.00    -0.354 N 
ATOM     62  N   UNL A   1      47.003  26.583  30.591  1.00  0.00    -0.248 NA
ATOM     63  C   UNL A   1      47.253  26.618  32.914  1.00  0.00     0.031 C 
ATOM     64  C   UNL A   1      49.456  28.951  27.764  1.00  0.00     0.029 A 
ATOM     65  C   UNL A   1      48.716  28.208  28.669  1.00  0.00     0.049 A 
ATOM     66  H   UNL A   1      47.237  26.750  28.300  1.00  0.00     0.167 HD
ATOM     67  C   UNL A   1      48.003  27.486  30.928  1.00  0.00     0.074 A 
ATOM     68  C   UNL A   1      48.096  27.490  32.374  1.00  0.00     0.031 C 
ATOM     69  C   UNL A   1      48.783  28.230  30.108  1.00  0.00     0.034 A 
BRANCH  56  70
ATOM     70  C   UNL A   1      47.830  27.242  24.099  1.00  0.00     0.023 A 
ATOM     71  C   UNL A   1      46.968  28.045  23.326  1.00  0.00     0.012 A 
ATOM     72  C   UNL A   1      49.097  26.895  23.592  1.00  0.00     0.148 A 
ATOM     73  C   UNL A   1      47.358  28.495  22.066  1.00  0.00     0.002 A 
ATOM     74  C   UNL A   1      49.490  27.368  22.344  1.00  0.00     0.091 A 
ATOM     75  F   UNL A   1      49.897  26.126  24.345  1.00  0.00    -0.205 F 
ATOM     76  C   UNL A   1      48.621  28.165  21.580  1.00  0.00     0.022 A 
BRANCH  74  77
ATOM     77  S   UNL A   1      51.112  27.044  21.642  1.00  0.00     0.127 S 
ATOM     78  O   UNL A   1      50.843  25.869  20.815  1.00  0.00    -0.237 OA
ATOM     79  O   UNL A   1      51.371  28.273  20.892  1.00  0.00    -0.237 OA
ATOM     80  O   UNL A   1      52.002  26.815  22.772  1.00  0.00    -0.744 OA
ENDBRANCH  74  77
ENDBRANCH  56  70
BRANCH  57  81
ATOM     81  C   UNL A   1      45.037  24.726  33.328  1.00  0.00     0.023 A 
ATOM     82  C   UNL A   1      45.736  23.715  34.013  1.00  0.00     0.012 A 
ATOM     83  C   UNL A   1      44.005  25.424  33.984  1.00  0.00     0.148 A 
ATOM     84  C   UNL A   1      45.410  23.400  35.331  1.00  0.00     0.002 A 
ATOM     85  C   UNL A   1      43.710  25.130  35.309  1.00  0.00     0.091 A 
ATOM     86  F   UNL A   1      43.359  26.383  33.306  1.00  0.00    -0.205 F 
ATOM     87  C   UNL A   1      44.406  24.112  35.982  1.00  0.00     0.022 A 
BRANCH  85  88
ATOM     88  S   UNL A   1      42.508  26.061  36.265  1.00  0.00     0.127 S 
ATOM     89  O   UNL A   1      42.713  25.521  37.607  1.00  0.00    -0.237 OA
ATOM     90  O   UNL A   1      42.975  27.434  36.074  1.00  0.00    -0.237 OA
ATOM     91  O   UNL A   1      41.214  25.770  35.667  1.00  0.00    -0.744 OA
ENDBRANCH  85  88
ENDBRANCH  57  81
BRANCH  69  92
ATOM     92  C   UNL A   1      49.827  29.109  30.741  1.00  0.00     0.023 A 
ATOM     93  C   UNL A   1      49.482  30.421  31.116  1.00  0.00     0.012 A 
ATOM     94  C   UNL A   1      51.105  28.609  31.054  1.00  0.00     0.148 A 
ATOM     95  C   UNL A   1      50.398  31.229  31.787  1.00  0.00     0.002 A 
ATOM     96  C   UNL A   1      52.004  29.409  31.752  1.00  0.00     0.091 A 
ATOM     97  F   UNL A   1      51.413  27.360  30.676  1.00  0.00    -0.205 F 
ATOM     98  C   UNL A   1      51.654  30.721  32.114  1.00  0.00     0.022 A 
BRANCH  96  99
ATOM     99  S   UNL A   1      53.618  28.823  32.281  1.00  0.00     0.127 S 
ATOM    100  O   UNL A   1      54.179  28.325  31.026  1.00  0.00    -0.237 OA
ATOM    101  O   UNL A   1      54.240  30.047  32.786  1.00  0.00    -0.237 OA
ATOM    102  O   UNL A   1      53.366  27.807  33.294  1.00  0.00    -0.744 OA
ENDBRANCH  96  99
ENDBRANCH  69  92
ENDBRANCH  43  44
ENDBRANCH  36  38
ENDBRANCH  35  36
ENDBRANCH  34  35
ENDBRANCH  33  34
ENDBRANCH  32  33
ENDBRANCH  31  32
ENDBRANCH   1  31
TORSDOF 24
ENDMDL
