MODEL 1
REMARK VINA RESULT:      -9.4      0.000      0.000
REMARK SMILES C[C@H]1N=N[C@H](S/C(=C/c2ccc(-c3cccc(Cl)c3)o2)C(=O)OCCOCCOCCOCCOC(=O)c2ccc(-c3c4nc(c(-c5cccc(S(=O)(=O)[O-])c5F)c5ccc([nH]5)c(-c5cccc(S(=O)(=O)[O-])c5F)c5nc(c(-c6cccc(S(=O)(=O)[O-])c6F)c6ccc3[nH]6)C=C5)C=C4)cc2)[NH2+]1
REMARK SMILES IDX 30 1 29 2 28 3 27 4 26 5 25 6 24 7 23 8 21 9 22 10 7 11 8 12
REMARK SMILES IDX 6 13 5 14 1 15 2 16 3 17 101 18 4 19 9 22 10 23 20 24 11 25
REMARK SMILES IDX 12 26 13 27 14 28 19 29 15 30 17 31 16 32 18 33 31 34 32 35
REMARK SMILES IDX 33 36 34 37 35 38 36 39 37 40 38 41 39 42 100 43 40 44 99 45
REMARK SMILES IDX 41 46 42 47 43 48 93 49 44 50 98 51 92 52 94 53 45 54 97 55
REMARK SMILES IDX 91 56 90 57 46 59 78 60 58 61 77 62 59 63 62 64 76 65 95 66
REMARK SMILES IDX 60 67 61 68 75 70 96 71 63 72 47 73 48 74 56 75 49 76 51 77
REMARK SMILES IDX 57 78 50 79 52 80 53 81 54 82 55 83 79 84 80 85 88 86 81 87
REMARK SMILES IDX 83 88 89 89 82 90 84 91 85 92 86 93 87 94 64 95 65 96 73 97
REMARK SMILES IDX 66 98 68 99 74 100 67 101 69 102 70 103 71 104 72 105
REMARK H PARENT 101 20 101 21 94 58 62 69
REMARK Flexibility Score: inf
ROOT
ATOM      1  C   UNL A   1      35.520  23.421  23.627  1.00  0.00     0.188 C 
ENDROOT
BRANCH   1   2
ATOM      2  O   UNL A   1      34.295  23.158  22.957  1.00  0.00    -0.377 OA
BRANCH   2   3
ATOM      3  C   UNL A   1      33.082  23.678  23.459  1.00  0.00     0.188 C 
BRANCH   3   4
ATOM      4  C   UNL A   1      32.612  23.230  24.861  1.00  0.00     0.188 C 
BRANCH   4   5
ATOM      5  O   UNL A   1      33.115  23.926  25.987  1.00  0.00    -0.376 OA
BRANCH   5   6
ATOM      6  C   UNL A   1      32.383  24.951  26.637  1.00  0.00     0.202 C 
BRANCH   6   7
ATOM      7  C   UNL A   1      32.413  26.440  26.261  1.00  0.00     0.261 C 
BRANCH   7   8
ATOM      8  O   UNL A   1      32.821  27.316  27.300  1.00  0.00    -0.459 OA
BRANCH   8   9
ATOM      9  C   UNL A   1      32.589  28.643  27.156  1.00  0.00     0.345 C 
ATOM     10  O   UNL A   1      31.566  29.236  27.464  1.00  0.00    -0.246 OA
BRANCH   9  11
ATOM     11  C   UNL A   1      33.852  29.302  26.680  1.00  0.00     0.104 C 
ATOM     12  C   UNL A   1      34.175  29.364  25.371  1.00  0.00     0.070 C 
BRANCH  11  13
ATOM     13  S   UNL A   1      34.894  29.713  28.024  1.00  0.00    -0.028 SA
BRANCH  13  14
ATOM     14  C   UNL A   1      35.180  31.500  27.979  1.00  0.00     0.393 C 
ATOM     15  C   UNL A   1      35.009  33.914  30.542  1.00  0.00     0.106 C 
ATOM     16  C   UNL A   1      34.650  32.587  29.881  1.00  0.00     0.324 C 
ATOM     17  N   UNL A   1      33.618  32.849  28.867  1.00  0.00    -0.126 NA
ATOM     18  N   UNL A   1      35.802  31.974  29.216  1.00  0.00    -0.293 N 
ATOM     19  N   UNL A   1      33.936  32.284  27.793  1.00  0.00    -0.115 NA
ATOM     20  H   UNL A   1      36.185  31.204  29.764  1.00  0.00     0.350 HD
ATOM     21  H   UNL A   1      36.595  32.602  29.079  1.00  0.00     0.350 HD
ENDBRANCH  13  14
ENDBRANCH  11  13
BRANCH  12  22
ATOM     22  C   UNL A   1      33.330  28.914  24.303  1.00  0.00     0.128 A 
ATOM     23  C   UNL A   1      33.554  27.968  23.305  1.00  0.00     0.051 A 
ATOM     24  O   UNL A   1      32.045  29.407  24.109  1.00  0.00    -0.457 OA
ATOM     25  C   UNL A   1      32.443  27.960  22.442  1.00  0.00     0.051 A 
ATOM     26  C   UNL A   1      31.526  28.822  22.991  1.00  0.00     0.134 A 
BRANCH  26  27
ATOM     27  C   UNL A   1      30.149  29.111  22.625  1.00  0.00     0.019 A 
ATOM     28  C   UNL A   1      29.920  30.104  21.657  1.00  0.00     0.012 A 
ATOM     29  C   UNL A   1      29.053  28.503  23.243  1.00  0.00     0.032 A 
ATOM     30  C   UNL A   1      28.627  30.502  21.325  1.00  0.00     0.002 A 
ATOM     31  C   UNL A   1      27.757  28.903  22.894  1.00  0.00     0.041 A 
ATOM     32  C   UNL A   1      27.540  29.910  21.956  1.00  0.00     0.020 A 
ATOM     33  Cl  UNL A   1      26.397  28.132  23.608  1.00  0.00    -0.084 Cl
ENDBRANCH  26  27
ENDBRANCH  12  22
ENDBRANCH   9  11
ENDBRANCH   8   9
ENDBRANCH   7   8
ENDBRANCH   6   7
ENDBRANCH   5   6
ENDBRANCH   4   5
ENDBRANCH   3   4
ENDBRANCH   2   3
ENDBRANCH   1   2
BRANCH   1  34
ATOM     34  C   UNL A   1      36.620  22.347  23.794  1.00  0.00     0.188 C 
BRANCH  34  35
ATOM     35  O   UNL A   1      37.359  22.410  25.000  1.00  0.00    -0.376 OA
BRANCH  35  36
ATOM     36  C   UNL A   1      38.089  21.269  25.413  1.00  0.00     0.202 C 
BRANCH  36  37
ATOM     37  C   UNL A   1      39.441  21.492  26.105  1.00  0.00     0.261 C 
BRANCH  37  38
ATOM     38  O   UNL A   1      40.048  20.333  26.688  1.00  0.00    -0.460 OA
BRANCH  38  39
ATOM     39  C   UNL A   1      41.282  20.002  26.255  1.00  0.00     0.338 C 
ATOM     40  O   UNL A   1      41.598  19.013  25.610  1.00  0.00    -0.246 OA
BRANCH  39  41
ATOM     41  C   UNL A   1      42.172  21.138  26.544  1.00  0.00     0.060 A 
ATOM     42  C   UNL A   1      42.532  21.414  27.871  1.00  0.00     0.016 A 
ATOM     43  C   UNL A   1      42.641  21.934  25.500  1.00  0.00     0.016 A 
ATOM     44  C   UNL A   1      43.343  22.511  28.159  1.00  0.00     0.010 A 
ATOM     45  C   UNL A   1      43.422  23.049  25.797  1.00  0.00     0.010 A 
ATOM     46  C   UNL A   1      43.754  23.361  27.127  1.00  0.00    -0.014 A 
BRANCH  46  47
ATOM     47  C   UNL A   1      44.336  24.687  27.444  1.00  0.00     0.031 A 
ATOM     48  C   UNL A   1      43.422  25.746  28.000  1.00  0.00     0.074 A 
ATOM     49  C   UNL A   1      45.637  24.956  27.235  1.00  0.00     0.049 A 
ATOM     50  N   UNL A   1      43.684  26.982  28.329  1.00  0.00    -0.248 NA
ATOM     51  C   UNL A   1      42.015  25.355  28.198  1.00  0.00     0.031 C 
ATOM     52  C   UNL A   1      46.620  24.022  26.691  1.00  0.00     0.029 A 
ATOM     53  N   UNL A   1      46.346  26.115  27.439  1.00  0.00    -0.354 N 
ATOM     54  C   UNL A   1      42.470  27.529  28.727  1.00  0.00     0.074 A 
ATOM     55  C   UNL A   1      41.468  26.496  28.583  1.00  0.00     0.031 C 
ATOM     56  C   UNL A   1      47.805  24.651  26.588  1.00  0.00     0.029 A 
ATOM     57  C   UNL A   1      47.655  26.036  27.030  1.00  0.00     0.049 A 
ATOM     58  H   UNL A   1      45.954  26.923  27.841  1.00  0.00     0.167 HD
ATOM     59  C   UNL A   1      42.209  28.776  29.184  1.00  0.00     0.034 A 
ATOM     60  C   UNL A   1      48.615  26.984  26.997  1.00  0.00     0.034 A 
ATOM     61  C   UNL A   1      43.208  29.796  29.340  1.00  0.00     0.049 A 
ATOM     62  C   UNL A   1      48.304  28.368  27.508  1.00  0.00     0.074 A 
ATOM     63  C   UNL A   1      43.061  31.071  29.856  1.00  0.00     0.029 A 
ATOM     64  N   UNL A   1      44.534  29.668  28.956  1.00  0.00    -0.354 N 
ATOM     65  N   UNL A   1      47.182  28.837  28.001  1.00  0.00    -0.248 NA
ATOM     66  C   UNL A   1      49.402  29.348  27.489  1.00  0.00     0.031 C 
ATOM     67  C   UNL A   1      44.289  31.731  29.740  1.00  0.00     0.029 A 
ATOM     68  C   UNL A   1      45.215  30.847  29.204  1.00  0.00     0.049 A 
ATOM     69  H   UNL A   1      44.933  28.858  28.567  1.00  0.00     0.167 HD
ATOM     70  C   UNL A   1      47.448  30.149  28.383  1.00  0.00     0.074 A 
ATOM     71  C   UNL A   1      48.842  30.395  28.080  1.00  0.00     0.031 C 
ATOM     72  C   UNL A   1      46.613  31.068  28.932  1.00  0.00     0.034 A 
BRANCH  59  73
ATOM     73  C   UNL A   1      40.781  29.098  29.539  1.00  0.00     0.023 A 
ATOM     74  C   UNL A   1      39.927  29.686  28.581  1.00  0.00     0.012 A 
ATOM     75  C   UNL A   1      40.280  28.811  30.822  1.00  0.00     0.148 A 
ATOM     76  C   UNL A   1      38.617  30.029  28.912  1.00  0.00     0.002 A 
ATOM     77  C   UNL A   1      38.957  29.105  31.128  1.00  0.00     0.091 A 
ATOM     78  F   UNL A   1      41.112  28.276  31.729  1.00  0.00    -0.205 F 
ATOM     79  C   UNL A   1      38.130  29.729  30.182  1.00  0.00     0.022 A 
BRANCH  77  80
ATOM     80  S   UNL A   1      38.215  28.678  32.706  1.00  0.00     0.127 S 
ATOM     81  O   UNL A   1      38.394  27.228  32.734  1.00  0.00    -0.237 OA
ATOM     82  O   UNL A   1      39.056  29.415  33.650  1.00  0.00    -0.237 OA
ATOM     83  O   UNL A   1      36.835  29.137  32.639  1.00  0.00    -0.744 OA
ENDBRANCH  77  80
ENDBRANCH  59  73
BRANCH  60  84
ATOM     84  C   UNL A   1      49.976  26.643  26.493  1.00  0.00     0.023 A 
ATOM     85  C   UNL A   1      50.857  25.907  27.308  1.00  0.00     0.012 A 
ATOM     86  C   UNL A   1      50.394  27.027  25.203  1.00  0.00     0.148 A 
ATOM     87  C   UNL A   1      52.140  25.585  26.861  1.00  0.00     0.002 A 
ATOM     88  C   UNL A   1      51.653  26.661  24.744  1.00  0.00     0.091 A 
ATOM     89  F   UNL A   1      49.533  27.708  24.433  1.00  0.00    -0.205 F 
ATOM     90  C   UNL A   1      52.536  25.956  25.579  1.00  0.00     0.022 A 
BRANCH  88  91
ATOM     91  S   UNL A   1      52.213  27.026  23.079  1.00  0.00     0.127 S 
ATOM     92  O   UNL A   1      53.118  25.913  22.802  1.00  0.00    -0.237 OA
ATOM     93  O   UNL A   1      50.955  26.999  22.332  1.00  0.00    -0.237 OA
ATOM     94  O   UNL A   1      52.862  28.327  23.155  1.00  0.00    -0.744 OA
ENDBRANCH  88  91
ENDBRANCH  60  84
BRANCH  72  95
ATOM     95  C   UNL A   1      47.186  32.417  29.291  1.00  0.00     0.023 A 
ATOM     96  C   UNL A   1      47.216  33.453  28.337  1.00  0.00     0.012 A 
ATOM     97  C   UNL A   1      47.623  32.678  30.606  1.00  0.00     0.148 A 
ATOM     98  C   UNL A   1      47.709  34.715  28.675  1.00  0.00     0.002 A 
ATOM     99  C   UNL A   1      48.060  33.951  30.950  1.00  0.00     0.091 A 
ATOM    100  F   UNL A   1      47.600  31.676  31.497  1.00  0.00    -0.205 F 
ATOM    101  C   UNL A   1      48.118  34.967  29.983  1.00  0.00     0.022 A 
BRANCH  99 102
ATOM    102  S   UNL A   1      48.509  34.393  32.632  1.00  0.00     0.127 S 
ATOM    103  O   UNL A   1      49.822  33.764  32.765  1.00  0.00    -0.237 OA
ATOM    104  O   UNL A   1      48.537  35.856  32.570  1.00  0.00    -0.237 OA
ATOM    105  O   UNL A   1      47.465  33.845  33.486  1.00  0.00    -0.744 OA
ENDBRANCH  99 102
ENDBRANCH  72  95
ENDBRANCH  46  47
ENDBRANCH  39  41
ENDBRANCH  38  39
ENDBRANCH  37  38
ENDBRANCH  36  37
ENDBRANCH  35  36
ENDBRANCH  34  35
ENDBRANCH   1  34
TORSDOF 27
ENDMDL
MODEL 2
REMARK VINA RESULT:      -9.4      3.435      8.537
REMARK SMILES C[C@H]1N=N[C@H](S/C(=C/c2ccc(-c3cccc(Cl)c3)o2)C(=O)OCCOCCOCCOCCOC(=O)c2ccc(-c3c4nc(c(-c5cccc(S(=O)(=O)[O-])c5F)c5ccc([nH]5)c(-c5cccc(S(=O)(=O)[O-])c5F)c5nc(c(-c6cccc(S(=O)(=O)[O-])c6F)c6ccc3[nH]6)C=C5)C=C4)cc2)[NH2+]1
REMARK SMILES IDX 30 1 29 2 28 3 27 4 26 5 25 6 24 7 23 8 21 9 22 10 7 11 8 12
REMARK SMILES IDX 6 13 5 14 1 15 2 16 3 17 101 18 4 19 9 22 10 23 20 24 11 25
REMARK SMILES IDX 12 26 13 27 14 28 19 29 15 30 17 31 16 32 18 33 31 34 32 35
REMARK SMILES IDX 33 36 34 37 35 38 36 39 37 40 38 41 39 42 100 43 40 44 99 45
REMARK SMILES IDX 41 46 42 47 43 48 93 49 44 50 98 51 92 52 94 53 45 54 97 55
REMARK SMILES IDX 91 56 90 57 46 59 78 60 58 61 77 62 59 63 62 64 76 65 95 66
REMARK SMILES IDX 60 67 61 68 75 70 96 71 63 72 47 73 48 74 56 75 49 76 51 77
REMARK SMILES IDX 57 78 50 79 52 80 53 81 54 82 55 83 79 84 80 85 88 86 81 87
REMARK SMILES IDX 83 88 89 89 82 90 84 91 85 92 86 93 87 94 64 95 65 96 73 97
REMARK SMILES IDX 66 98 68 99 74 100 67 101 69 102 70 103 71 104 72 105
REMARK H PARENT 101 20 101 21 94 58 62 69
REMARK Flexibility Score: inf
ROOT
ATOM      1  C   UNL A   1      36.646  21.945  24.209  1.00  0.00     0.188 C 
ENDROOT
BRANCH   1   2
ATOM      2  O   UNL A   1      35.258  21.832  23.924  1.00  0.00    -0.377 OA
BRANCH   2   3
ATOM      3  C   UNL A   1      34.598  22.840  23.187  1.00  0.00     0.188 C 
BRANCH   3   4
ATOM      4  C   UNL A   1      34.780  24.312  23.624  1.00  0.00     0.188 C 
BRANCH   4   5
ATOM      5  O   UNL A   1      34.498  25.327  22.680  1.00  0.00    -0.376 OA
BRANCH   5   6
ATOM      6  C   UNL A   1      33.463  26.277  22.869  1.00  0.00     0.202 C 
BRANCH   6   7
ATOM      7  C   UNL A   1      33.644  27.802  22.868  1.00  0.00     0.261 C 
BRANCH   7   8
ATOM      8  O   UNL A   1      32.459  28.549  22.639  1.00  0.00    -0.459 OA
BRANCH   8   9
ATOM      9  C   UNL A   1      31.299  27.878  22.442  1.00  0.00     0.345 C 
ATOM     10  O   UNL A   1      31.048  27.124  21.514  1.00  0.00    -0.246 OA
BRANCH   9  11
ATOM     11  C   UNL A   1      30.409  28.099  23.633  1.00  0.00     0.104 C 
ATOM     12  C   UNL A   1      29.961  27.075  24.389  1.00  0.00     0.070 C 
BRANCH  11  13
ATOM     13  S   UNL A   1      29.869  29.761  23.715  1.00  0.00    -0.028 SA
BRANCH  13  14
ATOM     14  C   UNL A   1      29.727  30.383  22.021  1.00  0.00     0.393 C 
ATOM     15  C   UNL A   1      27.672  32.910  20.672  1.00  0.00     0.106 C 
ATOM     16  C   UNL A   1      28.031  31.831  21.688  1.00  0.00     0.324 C 
ATOM     17  N   UNL A   1      27.677  30.526  21.110  1.00  0.00    -0.126 NA
ATOM     18  N   UNL A   1      29.462  31.823  22.000  1.00  0.00    -0.293 N 
ATOM     19  N   UNL A   1      28.639  29.733  21.252  1.00  0.00    -0.115 NA
ATOM     20  H   UNL A   1      29.652  32.253  22.904  1.00  0.00     0.350 HD
ATOM     21  H   UNL A   1      30.040  32.351  21.345  1.00  0.00     0.350 HD
ENDBRANCH  13  14
ENDBRANCH  11  13
BRANCH  12  22
ATOM     22  C   UNL A   1      30.350  25.706  24.215  1.00  0.00     0.128 A 
ATOM     23  C   UNL A   1      30.168  24.840  23.137  1.00  0.00     0.051 A 
ATOM     24  O   UNL A   1      31.035  24.994  25.191  1.00  0.00    -0.457 OA
ATOM     25  C   UNL A   1      30.651  23.570  23.501  1.00  0.00     0.051 A 
ATOM     26  C   UNL A   1      31.210  23.716  24.747  1.00  0.00     0.134 A 
BRANCH  26  27
ATOM     27  C   UNL A   1      31.983  22.792  25.561  1.00  0.00     0.019 A 
ATOM     28  C   UNL A   1      32.769  23.324  26.597  1.00  0.00     0.012 A 
ATOM     29  C   UNL A   1      32.035  21.417  25.311  1.00  0.00     0.032 A 
ATOM     30  C   UNL A   1      33.609  22.513  27.355  1.00  0.00     0.002 A 
ATOM     31  C   UNL A   1      32.874  20.608  26.087  1.00  0.00     0.041 A 
ATOM     32  C   UNL A   1      33.673  21.150  27.091  1.00  0.00     0.020 A 
ATOM     33  Cl  UNL A   1      32.914  18.909  25.827  1.00  0.00    -0.084 Cl
ENDBRANCH  26  27
ENDBRANCH  12  22
ENDBRANCH   9  11
ENDBRANCH   8   9
ENDBRANCH   7   8
ENDBRANCH   6   7
ENDBRANCH   5   6
ENDBRANCH   4   5
ENDBRANCH   3   4
ENDBRANCH   2   3
ENDBRANCH   1   2
BRANCH   1  34
ATOM     34  C   UNL A   1      37.480  20.758  24.745  1.00  0.00     0.188 C 
BRANCH  34  35
ATOM     35  O   UNL A   1      38.416  21.076  25.759  1.00  0.00    -0.376 OA
BRANCH  35  36
ATOM     36  C   UNL A   1      39.558  20.255  25.915  1.00  0.00     0.202 C 
BRANCH  36  37
ATOM     37  C   UNL A   1      40.528  20.581  27.060  1.00  0.00     0.261 C 
BRANCH  37  38
ATOM     38  O   UNL A   1      41.848  20.040  26.938  1.00  0.00    -0.460 OA
BRANCH  38  39
ATOM     39  C   UNL A   1      42.747  20.766  26.241  1.00  0.00     0.338 C 
ATOM     40  O   UNL A   1      43.433  20.389  25.302  1.00  0.00    -0.246 OA
BRANCH  39  41
ATOM     41  C   UNL A   1      42.636  22.162  26.694  1.00  0.00     0.060 A 
ATOM     42  C   UNL A   1      42.329  23.167  25.766  1.00  0.00     0.016 A 
ATOM     43  C   UNL A   1      42.842  22.473  28.037  1.00  0.00     0.016 A 
ATOM     44  C   UNL A   1      42.258  24.498  26.177  1.00  0.00     0.010 A 
ATOM     45  C   UNL A   1      42.806  23.808  28.435  1.00  0.00     0.010 A 
ATOM     46  C   UNL A   1      42.542  24.830  27.506  1.00  0.00    -0.014 A 
BRANCH  46  47
ATOM     47  C   UNL A   1      42.785  26.242  27.884  1.00  0.00     0.031 A 
ATOM     48  C   UNL A   1      44.181  26.785  27.731  1.00  0.00     0.074 A 
ATOM     49  C   UNL A   1      41.802  27.025  28.361  1.00  0.00     0.049 A 
ATOM     50  N   UNL A   1      44.648  27.971  28.016  1.00  0.00    -0.248 NA
ATOM     51  C   UNL A   1      45.189  25.854  27.195  1.00  0.00     0.031 C 
ATOM     52  C   UNL A   1      40.414  26.615  28.566  1.00  0.00     0.029 A 
ATOM     53  N   UNL A   1      41.835  28.332  28.782  1.00  0.00    -0.354 N 
ATOM     54  C   UNL A   1      46.009  27.914  27.739  1.00  0.00     0.074 A 
ATOM     55  C   UNL A   1      46.295  26.574  27.280  1.00  0.00     0.031 C 
ATOM     56  C   UNL A   1      39.730  27.647  29.092  1.00  0.00     0.029 A 
ATOM     57  C   UNL A   1      40.637  28.777  29.286  1.00  0.00     0.049 A 
ATOM     58  H   UNL A   1      42.640  28.896  28.726  1.00  0.00     0.167 HD
ATOM     59  C   UNL A   1      46.938  28.892  27.844  1.00  0.00     0.034 A 
ATOM     60  C   UNL A   1      40.318  29.956  29.859  1.00  0.00     0.034 A 
ATOM     61  C   UNL A   1      46.649  30.227  28.286  1.00  0.00     0.049 A 
ATOM     62  C   UNL A   1      41.369  31.032  29.970  1.00  0.00     0.074 A 
ATOM     63  C   UNL A   1      47.505  31.311  28.367  1.00  0.00     0.029 A 
ATOM     64  N   UNL A   1      45.415  30.656  28.748  1.00  0.00    -0.354 N 
ATOM     65  N   UNL A   1      42.624  31.007  29.588  1.00  0.00    -0.248 NA
ATOM     66  C   UNL A   1      40.952  32.312  30.563  1.00  0.00     0.031 C 
ATOM     67  C   UNL A   1      46.799  32.382  28.923  1.00  0.00     0.029 A 
ATOM     68  C   UNL A   1      45.488  31.982  29.136  1.00  0.00     0.049 A 
ATOM     69  H   UNL A   1      44.604  30.100  28.793  1.00  0.00     0.167 HD
ATOM     70  C   UNL A   1      43.134  32.274  29.858  1.00  0.00     0.074 A 
ATOM     71  C   UNL A   1      42.047  33.047  30.422  1.00  0.00     0.031 C 
ATOM     72  C   UNL A   1      44.389  32.753  29.661  1.00  0.00     0.034 A 
BRANCH  59  73
ATOM     73  C   UNL A   1      48.357  28.540  27.479  1.00  0.00     0.023 A 
ATOM     74  C   UNL A   1      48.778  28.593  26.133  1.00  0.00     0.012 A 
ATOM     75  C   UNL A   1      49.279  28.163  28.474  1.00  0.00     0.148 A 
ATOM     76  C   UNL A   1      50.076  28.227  25.780  1.00  0.00     0.002 A 
ATOM     77  C   UNL A   1      50.586  27.853  28.121  1.00  0.00     0.091 A 
ATOM     78  F   UNL A   1      48.856  28.092  29.745  1.00  0.00    -0.205 F 
ATOM     79  C   UNL A   1      50.982  27.867  26.774  1.00  0.00     0.022 A 
BRANCH  77  80
ATOM     80  S   UNL A   1      51.847  27.462  29.338  1.00  0.00     0.127 S 
ATOM     81  O   UNL A   1      52.922  26.944  28.494  1.00  0.00    -0.237 OA
ATOM     82  O   UNL A   1      52.116  28.773  29.931  1.00  0.00    -0.237 OA
ATOM     83  O   UNL A   1      51.244  26.499  30.247  1.00  0.00    -0.744 OA
ENDBRANCH  77  80
ENDBRANCH  59  73
BRANCH  60  84
ATOM     84  C   UNL A   1      38.927  30.195  30.340  1.00  0.00     0.023 A 
ATOM     85  C   UNL A   1      38.507  29.635  31.563  1.00  0.00     0.012 A 
ATOM     86  C   UNL A   1      38.026  30.989  29.604  1.00  0.00     0.148 A 
ATOM     87  C   UNL A   1      37.207  29.838  32.029  1.00  0.00     0.002 A 
ATOM     88  C   UNL A   1      36.748  31.227  30.097  1.00  0.00     0.091 A 
ATOM     89  F   UNL A   1      38.451  31.530  28.453  1.00  0.00    -0.205 F 
ATOM     90  C   UNL A   1      36.330  30.636  31.300  1.00  0.00     0.022 A 
BRANCH  88  91
ATOM     91  S   UNL A   1      35.584  32.309  29.264  1.00  0.00     0.127 S 
ATOM     92  O   UNL A   1      34.392  32.187  30.100  1.00  0.00    -0.237 OA
ATOM     93  O   UNL A   1      36.268  33.599  29.349  1.00  0.00    -0.237 OA
ATOM     94  O   UNL A   1      35.435  31.771  27.919  1.00  0.00    -0.744 OA
ENDBRANCH  88  91
ENDBRANCH  60  84
BRANCH  72  95
ATOM     95  C   UNL A   1      44.657  34.196  30.010  1.00  0.00     0.023 A 
ATOM     96  C   UNL A   1      45.225  34.533  31.255  1.00  0.00     0.012 A 
ATOM     97  C   UNL A   1      44.415  35.213  29.065  1.00  0.00     0.148 A 
ATOM     98  C   UNL A   1      45.511  35.864  31.567  1.00  0.00     0.002 A 
ATOM     99  C   UNL A   1      44.753  36.528  29.361  1.00  0.00     0.091 A 
ATOM    100  F   UNL A   1      43.860  34.877  27.891  1.00  0.00    -0.205 F 
ATOM    101  C   UNL A   1      45.288  36.858  30.617  1.00  0.00     0.022 A 
BRANCH  99 102
ATOM    102  S   UNL A   1      44.596  37.857  28.163  1.00  0.00     0.127 S 
ATOM    103  O   UNL A   1      43.188  38.224  28.309  1.00  0.00    -0.237 OA
ATOM    104  O   UNL A   1      45.541  38.850  28.676  1.00  0.00    -0.237 OA
ATOM    105  O   UNL A   1      44.961  37.285  26.875  1.00  0.00    -0.744 OA
ENDBRANCH  99 102
ENDBRANCH  72  95
ENDBRANCH  46  47
ENDBRANCH  39  41
ENDBRANCH  38  39
ENDBRANCH  37  38
ENDBRANCH  36  37
ENDBRANCH  35  36
ENDBRANCH  34  35
ENDBRANCH   1  34
TORSDOF 27
ENDMDL
MODEL 3
REMARK VINA RESULT:      -9.3      2.357      8.269
REMARK SMILES C[C@H]1N=N[C@H](S/C(=C/c2ccc(-c3cccc(Cl)c3)o2)C(=O)OCCOCCOCCOCCOC(=O)c2ccc(-c3c4nc(c(-c5cccc(S(=O)(=O)[O-])c5F)c5ccc([nH]5)c(-c5cccc(S(=O)(=O)[O-])c5F)c5nc(c(-c6cccc(S(=O)(=O)[O-])c6F)c6ccc3[nH]6)C=C5)C=C4)cc2)[NH2+]1
REMARK SMILES IDX 30 1 29 2 28 3 27 4 26 5 25 6 24 7 23 8 21 9 22 10 7 11 8 12
REMARK SMILES IDX 6 13 5 14 1 15 2 16 3 17 101 18 4 19 9 22 10 23 20 24 11 25
REMARK SMILES IDX 12 26 13 27 14 28 19 29 15 30 17 31 16 32 18 33 31 34 32 35
REMARK SMILES IDX 33 36 34 37 35 38 36 39 37 40 38 41 39 42 100 43 40 44 99 45
REMARK SMILES IDX 41 46 42 47 43 48 93 49 44 50 98 51 92 52 94 53 45 54 97 55
REMARK SMILES IDX 91 56 90 57 46 59 78 60 58 61 77 62 59 63 62 64 76 65 95 66
REMARK SMILES IDX 60 67 61 68 75 70 96 71 63 72 47 73 48 74 56 75 49 76 51 77
REMARK SMILES IDX 57 78 50 79 52 80 53 81 54 82 55 83 79 84 80 85 88 86 81 87
REMARK SMILES IDX 83 88 89 89 82 90 84 91 85 92 86 93 87 94 64 95 65 96 73 97
REMARK SMILES IDX 66 98 68 99 74 100 67 101 69 102 70 103 71 104 72 105
REMARK H PARENT 101 20 101 21 94 58 62 69
REMARK Flexibility Score: inf
ROOT
ATOM      1  C   UNL A   1      35.684  23.383  24.334  1.00  0.00     0.188 C 
ENDROOT
BRANCH   1   2
ATOM      2  O   UNL A   1      34.546  22.802  23.713  1.00  0.00    -0.377 OA
BRANCH   2   3
ATOM      3  C   UNL A   1      33.522  22.228  24.498  1.00  0.00     0.188 C 
BRANCH   3   4
ATOM      4  C   UNL A   1      33.915  21.494  25.800  1.00  0.00     0.188 C 
BRANCH   4   5
ATOM      5  O   UNL A   1      34.145  22.270  26.961  1.00  0.00    -0.376 OA
BRANCH   5   6
ATOM      6  C   UNL A   1      33.131  23.055  27.564  1.00  0.00     0.202 C 
BRANCH   6   7
ATOM      7  C   UNL A   1      32.056  23.853  26.811  1.00  0.00     0.261 C 
BRANCH   7   8
ATOM      8  O   UNL A   1      32.072  25.253  27.040  1.00  0.00    -0.459 OA
BRANCH   8   9
ATOM      9  C   UNL A   1      32.553  26.063  26.066  1.00  0.00     0.345 C 
ATOM     10  O   UNL A   1      33.638  25.964  25.513  1.00  0.00    -0.246 OA
BRANCH   9  11
ATOM     11  C   UNL A   1      31.472  27.029  25.669  1.00  0.00     0.104 C 
ATOM     12  C   UNL A   1      31.594  28.358  25.874  1.00  0.00     0.070 C 
BRANCH  11  13
ATOM     13  S   UNL A   1      30.021  26.185  25.178  1.00  0.00    -0.028 SA
BRANCH  13  14
ATOM     14  C   UNL A   1      30.004  26.118  23.368  1.00  0.00     0.393 C 
ATOM     15  C   UNL A   1      32.635  25.667  21.066  1.00  0.00     0.106 C 
ATOM     16  C   UNL A   1      32.043  26.088  22.407  1.00  0.00     0.324 C 
ATOM     17  N   UNL A   1      31.448  27.422  22.244  1.00  0.00    -0.126 NA
ATOM     18  N   UNL A   1      30.995  25.170  22.858  1.00  0.00    -0.293 N 
ATOM     19  N   UNL A   1      30.294  27.428  22.735  1.00  0.00    -0.115 NA
ATOM     20  H   UNL A   1      31.332  24.547  23.591  1.00  0.00     0.350 HD
ATOM     21  H   UNL A   1      30.646  24.539  22.136  1.00  0.00     0.350 HD
ENDBRANCH  13  14
ENDBRANCH  11  13
BRANCH  12  22
ATOM     22  C   UNL A   1      32.772  28.997  26.384  1.00  0.00     0.128 A 
ATOM     23  C   UNL A   1      34.121  28.698  26.195  1.00  0.00     0.051 A 
ATOM     24  O   UNL A   1      32.719  30.114  27.208  1.00  0.00    -0.457 OA
ATOM     25  C   UNL A   1      34.885  29.572  26.990  1.00  0.00     0.051 A 
ATOM     26  C   UNL A   1      33.994  30.448  27.561  1.00  0.00     0.134 A 
BRANCH  26  27
ATOM     27  C   UNL A   1      34.209  31.645  28.357  1.00  0.00     0.019 A 
ATOM     28  C   UNL A   1      34.967  31.526  29.534  1.00  0.00     0.012 A 
ATOM     29  C   UNL A   1      33.637  32.881  28.043  1.00  0.00     0.032 A 
ATOM     30  C   UNL A   1      35.134  32.607  30.396  1.00  0.00     0.002 A 
ATOM     31  C   UNL A   1      33.821  33.965  28.910  1.00  0.00     0.041 A 
ATOM     32  C   UNL A   1      34.548  33.829  30.091  1.00  0.00     0.020 A 
ATOM     33  Cl  UNL A   1      33.166  35.505  28.516  1.00  0.00    -0.084 Cl
ENDBRANCH  26  27
ENDBRANCH  12  22
ENDBRANCH   9  11
ENDBRANCH   8   9
ENDBRANCH   7   8
ENDBRANCH   6   7
ENDBRANCH   5   6
ENDBRANCH   4   5
ENDBRANCH   3   4
ENDBRANCH   2   3
ENDBRANCH   1   2
BRANCH   1  34
ATOM     34  C   UNL A   1      37.104  22.790  24.180  1.00  0.00     0.188 C 
BRANCH  34  35
ATOM     35  O   UNL A   1      37.773  22.478  25.389  1.00  0.00    -0.376 OA
BRANCH  35  36
ATOM     36  C   UNL A   1      38.354  21.195  25.536  1.00  0.00     0.202 C 
BRANCH  36  37
ATOM     37  C   UNL A   1      39.803  21.115  26.037  1.00  0.00     0.261 C 
BRANCH  37  38
ATOM     38  O   UNL A   1      40.309  19.799  26.287  1.00  0.00    -0.460 OA
BRANCH  38  39
ATOM     39  C   UNL A   1      41.625  19.595  26.072  1.00  0.00     0.338 C 
ATOM     40  O   UNL A   1      42.153  18.590  25.620  1.00  0.00    -0.246 OA
BRANCH  39  41
ATOM     41  C   UNL A   1      42.316  20.873  26.311  1.00  0.00     0.060 A 
ATOM     42  C   UNL A   1      42.655  21.241  27.620  1.00  0.00     0.016 A 
ATOM     43  C   UNL A   1      42.619  21.708  25.236  1.00  0.00     0.016 A 
ATOM     44  C   UNL A   1      43.275  22.467  27.862  1.00  0.00     0.010 A 
ATOM     45  C   UNL A   1      43.206  22.946  25.487  1.00  0.00     0.010 A 
ATOM     46  C   UNL A   1      43.512  23.346  26.800  1.00  0.00    -0.014 A 
BRANCH  46  47
ATOM     47  C   UNL A   1      43.867  24.759  27.071  1.00  0.00     0.031 A 
ATOM     48  C   UNL A   1      45.293  25.185  26.843  1.00  0.00     0.074 A 
ATOM     49  C   UNL A   1      42.959  25.643  27.519  1.00  0.00     0.049 A 
ATOM     50  N   UNL A   1      45.854  26.350  27.030  1.00  0.00    -0.248 NA
ATOM     51  C   UNL A   1      46.214  24.148  26.346  1.00  0.00     0.031 C 
ATOM     52  C   UNL A   1      41.553  25.352  27.790  1.00  0.00     0.029 A 
ATOM     53  N   UNL A   1      43.100  26.970  27.846  1.00  0.00    -0.354 N 
ATOM     54  C   UNL A   1      47.197  26.174  26.721  1.00  0.00     0.074 A 
ATOM     55  C   UNL A   1      47.371  24.787  26.350  1.00  0.00     0.031 C 
ATOM     56  C   UNL A   1      40.963  26.465  28.261  1.00  0.00     0.029 A 
ATOM     57  C   UNL A   1      41.954  27.536  28.350  1.00  0.00     0.049 A 
ATOM     58  H   UNL A   1      43.941  27.468  27.729  1.00  0.00     0.167 HD
ATOM     59  C   UNL A   1      48.197  27.084  26.732  1.00  0.00     0.034 A 
ATOM     60  C   UNL A   1      41.740  28.771  28.848  1.00  0.00     0.034 A 
ATOM     61  C   UNL A   1      48.020  28.465  27.087  1.00  0.00     0.049 A 
ATOM     62  C   UNL A   1      42.869  29.771  28.854  1.00  0.00     0.074 A 
ATOM     63  C   UNL A   1      48.954  29.485  27.068  1.00  0.00     0.029 A 
ATOM     64  N   UNL A   1      46.835  29.014  27.552  1.00  0.00    -0.354 N 
ATOM     65  N   UNL A   1      44.105  29.628  28.440  1.00  0.00    -0.248 NA
ATOM     66  C   UNL A   1      42.564  31.116  29.367  1.00  0.00     0.031 C 
ATOM     67  C   UNL A   1      48.345  30.641  27.567  1.00  0.00     0.029 A 
ATOM     68  C   UNL A   1      47.016  30.355  27.843  1.00  0.00     0.049 A 
ATOM     69  H   UNL A   1      45.988  28.524  27.657  1.00  0.00     0.167 HD
ATOM     70  C   UNL A   1      44.714  30.868  28.607  1.00  0.00     0.074 A 
ATOM     71  C   UNL A   1      43.705  31.756  29.145  1.00  0.00     0.031 C 
ATOM     72  C   UNL A   1      45.993  31.239  28.343  1.00  0.00     0.034 A 
BRANCH  59  73
ATOM     73  C   UNL A   1      49.575  26.604  26.354  1.00  0.00     0.023 A 
ATOM     74  C   UNL A   1      50.283  25.734  27.210  1.00  0.00     0.012 A 
ATOM     75  C   UNL A   1      50.166  27.009  25.143  1.00  0.00     0.148 A 
ATOM     76  C   UNL A   1      51.575  25.319  26.891  1.00  0.00     0.002 A 
ATOM     77  C   UNL A   1      51.432  26.548  24.805  1.00  0.00     0.091 A 
ATOM     78  F   UNL A   1      49.491  27.857  24.353  1.00  0.00    -0.205 F 
ATOM     79  C   UNL A   1      52.145  25.718  25.685  1.00  0.00     0.022 A 
BRANCH  77  80
ATOM     80  S   UNL A   1      52.213  26.935  23.236  1.00  0.00     0.127 S 
ATOM     81  O   UNL A   1      52.422  28.376  23.358  1.00  0.00    -0.237 OA
ATOM     82  O   UNL A   1      53.436  26.134  23.296  1.00  0.00    -0.237 OA
ATOM     83  O   UNL A   1      51.270  26.524  22.205  1.00  0.00    -0.744 OA
ENDBRANCH  77  80
ENDBRANCH  59  73
BRANCH  60  84
ATOM     84  C   UNL A   1      40.386  29.144  29.349  1.00  0.00     0.023 A 
ATOM     85  C   UNL A   1      39.454  29.727  28.469  1.00  0.00     0.012 A 
ATOM     86  C   UNL A   1      40.011  28.905  30.686  1.00  0.00     0.148 A 
ATOM     87  C   UNL A   1      38.183  30.093  28.918  1.00  0.00     0.002 A 
ATOM     88  C   UNL A   1      38.729  29.227  31.115  1.00  0.00     0.091 A 
ATOM     89  F   UNL A   1      40.905  28.330  31.503  1.00  0.00    -0.205 F 
ATOM     90  C   UNL A   1      37.819  29.838  30.237  1.00  0.00     0.022 A 
BRANCH  88  91
ATOM     91  S   UNL A   1      38.150  28.858  32.773  1.00  0.00     0.127 S 
ATOM     92  O   UNL A   1      39.126  29.558  33.607  1.00  0.00    -0.237 OA
ATOM     93  O   UNL A   1      36.813  29.452  32.758  1.00  0.00    -0.237 OA
ATOM     94  O   UNL A   1      38.186  27.408  32.891  1.00  0.00    -0.744 OA
ENDBRANCH  88  91
ENDBRANCH  60  84
BRANCH  72  95
ATOM     95  C   UNL A   1      46.375  32.679  28.582  1.00  0.00     0.023 A 
ATOM     96  C   UNL A   1      46.239  33.631  27.553  1.00  0.00     0.012 A 
ATOM     97  C   UNL A   1      46.797  33.100  29.860  1.00  0.00     0.148 A 
ATOM     98  C   UNL A   1      46.554  34.972  27.781  1.00  0.00     0.002 A 
ATOM     99  C   UNL A   1      47.056  34.445  30.094  1.00  0.00     0.091 A 
ATOM    100  F   UNL A   1      46.935  32.178  30.824  1.00  0.00    -0.205 F 
ATOM    101  C   UNL A   1      46.950  35.380  29.053  1.00  0.00     0.022 A 
BRANCH  99 102
ATOM    102  S   UNL A   1      47.471  35.076  31.724  1.00  0.00     0.127 S 
ATOM    103  O   UNL A   1      46.275  34.729  32.490  1.00  0.00    -0.237 OA
ATOM    104  O   UNL A   1      48.662  34.294  32.064  1.00  0.00    -0.237 OA
ATOM    105  O   UNL A   1      47.713  36.501  31.556  1.00  0.00    -0.744 OA
ENDBRANCH  99 102
ENDBRANCH  72  95
ENDBRANCH  46  47
ENDBRANCH  39  41
ENDBRANCH  38  39
ENDBRANCH  37  38
ENDBRANCH  36  37
ENDBRANCH  35  36
ENDBRANCH  34  35
ENDBRANCH   1  34
TORSDOF 27
ENDMDL
