MODEL 1
REMARK VINA RESULT:      -9.3      0.000      0.000
REMARK SMILES CC(=O)N1CC[NH2+]C[C@@H]1c1ccc(C(=O)OCCOCCOCCOCCOC(=O)c2ccc(-c3c4nc(c(-c5cccc(S(=O)(=O)[O-])c5F)c5ccc([nH]5)c(-c5cccc(S(=O)(=O)[O-])c5F)c5nc(c(-c6cccc(S(=O)(=O)[O-])c6F)c6ccc3[nH]6)C=C5)C=C4)cc2)cc1
REMARK SMILES IDX 23 1 22 2 21 3 20 4 19 5 18 6 17 7 16 8 14 9 15 10 13 11
REMARK SMILES IDX 10 12 11 13 95 14 12 15 94 16 9 17 4 18 5 19 6 20 8 21 7 22
REMARK SMILES IDX 2 25 1 26 3 27 24 28 25 29 26 30 27 31 28 32 29 33 30 34
REMARK SMILES IDX 31 35 32 36 93 37 33 38 92 39 34 40 35 41 36 42 86 43 37 44
REMARK SMILES IDX 91 45 85 46 87 47 38 48 90 49 84 50 83 51 39 53 71 54 51 55
REMARK SMILES IDX 70 56 52 57 55 58 69 59 88 60 53 61 54 62 68 64 89 65 56 66
REMARK SMILES IDX 40 67 41 68 49 69 42 70 44 71 50 72 43 73 45 74 46 75 47 76
REMARK SMILES IDX 48 77 72 78 73 79 81 80 74 81 76 82 82 83 75 84 77 85 78 86
REMARK SMILES IDX 79 87 80 88 57 89 58 90 66 91 59 92 61 93 67 94 60 95 62 96
REMARK SMILES IDX 63 97 64 98 65 99
REMARK H PARENT 7 23 7 24 87 52 55 63
REMARK Flexibility Score: inf
ROOT
ATOM      1  C   UNL A   1      44.202  18.889  24.611  1.00  0.00     0.188 C 
ENDROOT
BRANCH   1   2
ATOM      2  O   UNL A   1      43.375  18.049  25.406  1.00  0.00    -0.377 OA
BRANCH   2   3
ATOM      3  C   UNL A   1      42.632  18.581  26.493  1.00  0.00     0.188 C 
BRANCH   3   4
ATOM      4  C   UNL A   1      41.376  19.450  26.256  1.00  0.00     0.188 C 
BRANCH   4   5
ATOM      5  O   UNL A   1      41.511  20.808  26.631  1.00  0.00    -0.376 OA
BRANCH   5   6
ATOM      6  C   UNL A   1      40.359  21.552  26.976  1.00  0.00     0.202 C 
BRANCH   6   7
ATOM      7  C   UNL A   1      39.496  22.128  25.846  1.00  0.00     0.261 C 
BRANCH   7   8
ATOM      8  O   UNL A   1      38.082  21.947  25.984  1.00  0.00    -0.460 OA
BRANCH   8   9
ATOM      9  C   UNL A   1      37.460  21.182  25.061  1.00  0.00     0.338 C 
ATOM     10  O   UNL A   1      37.779  20.062  24.702  1.00  0.00    -0.246 OA
BRANCH   9  11
ATOM     11  C   UNL A   1      36.183  21.846  24.709  1.00  0.00     0.060 A 
ATOM     12  C   UNL A   1      33.771  23.122  23.943  1.00  0.00    -0.020 A 
ATOM     13  C   UNL A   1      35.024  23.673  23.610  1.00  0.00     0.007 A 
ATOM     14  C   UNL A   1      33.767  21.921  24.678  1.00  0.00     0.007 A 
ATOM     15  C   UNL A   1      36.218  23.049  23.997  1.00  0.00     0.016 A 
ATOM     16  C   UNL A   1      34.955  21.272  25.033  1.00  0.00     0.016 A 
BRANCH  12  17
ATOM     17  C   UNL A   1      32.481  23.878  23.581  1.00  0.00     0.170 C 
ATOM     18  N   UNL A   1      32.368  25.204  24.230  1.00  0.00    -0.325 N 
ATOM     19  C   UNL A   1      31.942  25.190  25.638  1.00  0.00     0.181 C 
ATOM     20  C   UNL A   1      30.667  24.348  25.825  1.00  0.00     0.282 C 
ATOM     21  C   UNL A   1      31.165  23.082  23.839  1.00  0.00     0.290 C 
ATOM     22  N   UNL A   1      30.773  22.986  25.260  1.00  0.00    -0.343 N 
ATOM     23  H   UNL A   1      29.872  22.513  25.335  1.00  0.00     0.346 HD
ATOM     24  H   UNL A   1      31.475  22.454  25.775  1.00  0.00     0.346 HD
BRANCH  18  25
ATOM     25  C   UNL A   1      32.626  26.420  23.624  1.00  0.00     0.220 C 
ATOM     26  C   UNL A   1      31.452  27.196  23.082  1.00  0.00     0.114 C 
ATOM     27  O   UNL A   1      33.747  26.928  23.608  1.00  0.00    -0.275 OA
ENDBRANCH  18  25
ENDBRANCH  12  17
ENDBRANCH   9  11
ENDBRANCH   8   9
ENDBRANCH   7   8
ENDBRANCH   6   7
ENDBRANCH   5   6
ENDBRANCH   4   5
ENDBRANCH   3   4
ENDBRANCH   2   3
ENDBRANCH   1   2
BRANCH   1  28
ATOM     28  C   UNL A   1      45.535  19.434  25.170  1.00  0.00     0.188 C 
BRANCH  28  29
ATOM     29  O   UNL A   1      45.653  20.847  25.113  1.00  0.00    -0.376 OA
BRANCH  29  30
ATOM     30  C   UNL A   1      44.749  21.552  24.284  1.00  0.00     0.202 C 
BRANCH  30  31
ATOM     31  C   UNL A   1      43.751  22.503  24.957  1.00  0.00     0.261 C 
BRANCH  31  32
ATOM     32  O   UNL A   1      44.048  22.899  26.302  1.00  0.00    -0.460 OA
BRANCH  32  33
ATOM     33  C   UNL A   1      44.951  23.884  26.485  1.00  0.00     0.338 C 
ATOM     34  O   UNL A   1      46.059  23.973  25.978  1.00  0.00    -0.246 OA
BRANCH  33  35
ATOM     35  C   UNL A   1      44.284  24.941  27.270  1.00  0.00     0.060 A 
ATOM     36  C   UNL A   1      44.598  26.288  27.034  1.00  0.00     0.016 A 
ATOM     37  C   UNL A   1      43.323  24.591  28.217  1.00  0.00     0.016 A 
ATOM     38  C   UNL A   1      43.966  27.290  27.773  1.00  0.00     0.010 A 
ATOM     39  C   UNL A   1      42.710  25.591  28.970  1.00  0.00     0.010 A 
ATOM     40  C   UNL A   1      43.053  26.941  28.774  1.00  0.00    -0.014 A 
BRANCH  40  41
ATOM     41  C   UNL A   1      42.607  27.937  29.776  1.00  0.00     0.031 A 
ATOM     42  C   UNL A   1      43.286  27.927  31.117  1.00  0.00     0.074 A 
ATOM     43  C   UNL A   1      41.587  28.776  29.532  1.00  0.00     0.049 A 
ATOM     44  N   UNL A   1      42.976  28.568  32.210  1.00  0.00    -0.248 NA
ATOM     45  C   UNL A   1      44.471  27.059  31.242  1.00  0.00     0.031 C 
ATOM     46  C   UNL A   1      40.868  28.891  28.265  1.00  0.00     0.029 A 
ATOM     47  N   UNL A   1      40.949  29.663  30.365  1.00  0.00    -0.354 N 
ATOM     48  C   UNL A   1      43.894  28.150  33.165  1.00  0.00     0.074 A 
ATOM     49  C   UNL A   1      44.774  27.199  32.523  1.00  0.00     0.031 C 
ATOM     50  C   UNL A   1      39.857  29.765  28.418  1.00  0.00     0.029 A 
ATOM     51  C   UNL A   1      39.833  30.235  29.802  1.00  0.00     0.049 A 
ATOM     52  H   UNL A   1      41.261  29.867  31.277  1.00  0.00     0.167 HD
ATOM     53  C   UNL A   1      43.995  28.524  34.460  1.00  0.00     0.034 A 
ATOM     54  C   UNL A   1      38.880  31.012  30.357  1.00  0.00     0.034 A 
ATOM     55  C   UNL A   1      43.120  29.475  35.088  1.00  0.00     0.049 A 
ATOM     56  C   UNL A   1      38.990  31.384  31.814  1.00  0.00     0.074 A 
ATOM     57  C   UNL A   1      43.162  29.955  36.383  1.00  0.00     0.029 A 
ATOM     58  N   UNL A   1      42.035  30.074  34.469  1.00  0.00    -0.354 N 
ATOM     59  N   UNL A   1      39.914  31.054  32.684  1.00  0.00    -0.248 NA
ATOM     60  C   UNL A   1      37.940  32.258  32.363  1.00  0.00     0.031 C 
ATOM     61  C   UNL A   1      42.075  30.815  36.561  1.00  0.00     0.029 A 
ATOM     62  C   UNL A   1      41.390  30.912  35.360  1.00  0.00     0.049 A 
ATOM     63  H   UNL A   1      41.763  29.926  33.535  1.00  0.00     0.167 HD
ATOM     64  C   UNL A   1      39.587  31.719  33.863  1.00  0.00     0.074 A 
ATOM     65  C   UNL A   1      38.380  32.472  33.596  1.00  0.00     0.031 C 
ATOM     66  C   UNL A   1      40.228  31.706  35.057  1.00  0.00     0.034 A 
BRANCH  53  67
ATOM     67  C   UNL A   1      45.089  27.902  35.287  1.00  0.00     0.023 A 
ATOM     68  C   UNL A   1      46.359  28.513  35.348  1.00  0.00     0.012 A 
ATOM     69  C   UNL A   1      44.843  26.741  36.043  1.00  0.00     0.148 A 
ATOM     70  C   UNL A   1      47.376  27.956  36.122  1.00  0.00     0.002 A 
ATOM     71  C   UNL A   1      45.844  26.220  36.852  1.00  0.00     0.091 A 
ATOM     72  F   UNL A   1      43.636  26.163  35.952  1.00  0.00    -0.205 F 
ATOM     73  C   UNL A   1      47.115  26.819  36.883  1.00  0.00     0.022 A 
BRANCH  71  74
ATOM     74  S   UNL A   1      45.583  24.809  37.931  1.00  0.00     0.127 S 
ATOM     75  O   UNL A   1      45.237  23.763  36.970  1.00  0.00    -0.237 OA
ATOM     76  O   UNL A   1      46.896  24.654  38.556  1.00  0.00    -0.237 OA
ATOM     77  O   UNL A   1      44.515  25.192  38.845  1.00  0.00    -0.744 OA
ENDBRANCH  71  74
ENDBRANCH  53  67
BRANCH  54  78
ATOM     78  C   UNL A   1      37.740  31.502  29.531  1.00  0.00     0.023 A 
ATOM     79  C   UNL A   1      37.651  32.871  29.212  1.00  0.00     0.012 A 
ATOM     80  C   UNL A   1      36.746  30.622  29.061  1.00  0.00     0.148 A 
ATOM     81  C   UNL A   1      36.576  33.360  28.467  1.00  0.00     0.002 A 
ATOM     82  C   UNL A   1      35.709  31.106  28.272  1.00  0.00     0.091 A 
ATOM     83  F   UNL A   1      36.840  29.325  29.388  1.00  0.00    -0.205 F 
ATOM     84  C   UNL A   1      35.611  32.477  27.990  1.00  0.00     0.022 A 
BRANCH  82  85
ATOM     85  S   UNL A   1      34.489  30.030  27.510  1.00  0.00     0.127 S 
ATOM     86  O   UNL A   1      33.390  30.957  27.256  1.00  0.00    -0.237 OA
ATOM     87  O   UNL A   1      35.201  29.573  26.316  1.00  0.00    -0.237 OA
ATOM     88  O   UNL A   1      34.219  28.984  28.488  1.00  0.00    -0.744 OA
ENDBRANCH  82  85
ENDBRANCH  54  78
BRANCH  66  89
ATOM     89  C   UNL A   1      39.703  32.592  36.158  1.00  0.00     0.023 A 
ATOM     90  C   UNL A   1      39.988  33.970  36.162  1.00  0.00     0.012 A 
ATOM     91  C   UNL A   1      38.820  32.062  37.122  1.00  0.00     0.148 A 
ATOM     92  C   UNL A   1      39.417  34.805  37.124  1.00  0.00     0.002 A 
ATOM     93  C   UNL A   1      38.214  32.908  38.041  1.00  0.00     0.091 A 
ATOM     94  F   UNL A   1      38.576  30.744  37.106  1.00  0.00    -0.205 F 
ATOM     95  C   UNL A   1      38.521  34.278  38.051  1.00  0.00     0.022 A 
BRANCH  93  96
ATOM     96  S   UNL A   1      36.968  32.338  39.202  1.00  0.00     0.127 S 
ATOM     97  O   UNL A   1      37.013  33.382  40.223  1.00  0.00    -0.237 OA
ATOM     98  O   UNL A   1      35.759  32.339  38.379  1.00  0.00    -0.237 OA
ATOM     99  O   UNL A   1      37.399  31.019  39.646  1.00  0.00    -0.744 OA
ENDBRANCH  93  96
ENDBRANCH  66  89
ENDBRANCH  40  41
ENDBRANCH  33  35
ENDBRANCH  32  33
ENDBRANCH  31  32
ENDBRANCH  30  31
ENDBRANCH  29  30
ENDBRANCH  28  29
ENDBRANCH   1  28
TORSDOF 25
ENDMDL
MODEL 2
REMARK VINA RESULT:      -9.0      2.566      8.055
REMARK SMILES CC(=O)N1CC[NH2+]C[C@@H]1c1ccc(C(=O)OCCOCCOCCOCCOC(=O)c2ccc(-c3c4nc(c(-c5cccc(S(=O)(=O)[O-])c5F)c5ccc([nH]5)c(-c5cccc(S(=O)(=O)[O-])c5F)c5nc(c(-c6cccc(S(=O)(=O)[O-])c6F)c6ccc3[nH]6)C=C5)C=C4)cc2)cc1
REMARK SMILES IDX 23 1 22 2 21 3 20 4 19 5 18 6 17 7 16 8 14 9 15 10 13 11
REMARK SMILES IDX 10 12 11 13 95 14 12 15 94 16 9 17 4 18 5 19 6 20 8 21 7 22
REMARK SMILES IDX 2 25 1 26 3 27 24 28 25 29 26 30 27 31 28 32 29 33 30 34
REMARK SMILES IDX 31 35 32 36 93 37 33 38 92 39 34 40 35 41 36 42 86 43 37 44
REMARK SMILES IDX 91 45 85 46 87 47 38 48 90 49 84 50 83 51 39 53 71 54 51 55
REMARK SMILES IDX 70 56 52 57 55 58 69 59 88 60 53 61 54 62 68 64 89 65 56 66
REMARK SMILES IDX 40 67 41 68 49 69 42 70 44 71 50 72 43 73 45 74 46 75 47 76
REMARK SMILES IDX 48 77 72 78 73 79 81 80 74 81 76 82 82 83 75 84 77 85 78 86
REMARK SMILES IDX 79 87 80 88 57 89 58 90 66 91 59 92 61 93 67 94 60 95 62 96
REMARK SMILES IDX 63 97 64 98 65 99
REMARK H PARENT 7 23 7 24 87 52 55 63
REMARK Flexibility Score: inf
ROOT
ATOM      1  C   UNL A   1      40.400  21.698  26.653  1.00  0.00     0.188 C 
ENDROOT
BRANCH   1   2
ATOM      2  O   UNL A   1      39.271  21.777  25.792  1.00  0.00    -0.377 OA
BRANCH   2   3
ATOM      3  C   UNL A   1      38.214  22.686  26.063  1.00  0.00     0.188 C 
BRANCH   3   4
ATOM      4  C   UNL A   1      37.305  23.218  24.931  1.00  0.00     0.188 C 
BRANCH   4   5
ATOM      5  O   UNL A   1      36.188  22.403  24.631  1.00  0.00    -0.376 OA
BRANCH   5   6
ATOM      6  C   UNL A   1      35.891  21.298  25.461  1.00  0.00     0.202 C 
BRANCH   6   7
ATOM      7  C   UNL A   1      34.709  20.397  25.083  1.00  0.00     0.261 C 
BRANCH   7   8
ATOM      8  O   UNL A   1      33.751  20.964  24.181  1.00  0.00    -0.460 OA
BRANCH   8   9
ATOM      9  C   UNL A   1      32.487  21.118  24.632  1.00  0.00     0.338 C 
ATOM     10  O   UNL A   1      31.771  20.257  25.112  1.00  0.00    -0.246 OA
BRANCH   9  11
ATOM     11  C   UNL A   1      32.187  22.569  24.648  1.00  0.00     0.060 A 
ATOM     12  C   UNL A   1      31.708  25.362  24.688  1.00  0.00    -0.020 A 
ATOM     13  C   UNL A   1      32.482  24.742  25.687  1.00  0.00     0.007 A 
ATOM     14  C   UNL A   1      31.175  24.538  23.678  1.00  0.00     0.007 A 
ATOM     15  C   UNL A   1      32.711  23.359  25.675  1.00  0.00     0.016 A 
ATOM     16  C   UNL A   1      31.434  23.163  23.638  1.00  0.00     0.016 A 
BRANCH  12  17
ATOM     17  C   UNL A   1      31.401  26.867  24.780  1.00  0.00     0.170 C 
ATOM     18  N   UNL A   1      31.168  27.507  23.467  1.00  0.00    -0.325 N 
ATOM     19  C   UNL A   1      32.376  27.821  22.687  1.00  0.00     0.181 C 
ATOM     20  C   UNL A   1      33.398  28.602  23.534  1.00  0.00     0.282 C 
ATOM     21  C   UNL A   1      32.463  27.701  25.561  1.00  0.00     0.290 C 
ATOM     22  N   UNL A   1      33.717  27.947  24.821  1.00  0.00    -0.343 N 
ATOM     23  H   UNL A   1      34.325  28.554  25.371  1.00  0.00     0.346 HD
ATOM     24  H   UNL A   1      34.194  27.062  24.648  1.00  0.00     0.346 HD
BRANCH  18  25
ATOM     25  C   UNL A   1      29.931  27.825  22.935  1.00  0.00     0.220 C 
ATOM     26  C   UNL A   1      28.715  27.200  23.570  1.00  0.00     0.114 C 
ATOM     27  O   UNL A   1      29.787  28.664  22.047  1.00  0.00    -0.275 OA
ENDBRANCH  18  25
ENDBRANCH  12  17
ENDBRANCH   9  11
ENDBRANCH   8   9
ENDBRANCH   7   8
ENDBRANCH   6   7
ENDBRANCH   5   6
ENDBRANCH   4   5
ENDBRANCH   3   4
ENDBRANCH   2   3
ENDBRANCH   1   2
BRANCH   1  28
ATOM     28  C   UNL A   1      41.610  20.814  26.281  1.00  0.00     0.188 C 
BRANCH  28  29
ATOM     29  O   UNL A   1      42.864  21.467  26.399  1.00  0.00    -0.376 OA
BRANCH  29  30
ATOM     30  C   UNL A   1      43.453  21.984  25.222  1.00  0.00     0.202 C 
BRANCH  30  31
ATOM     31  C   UNL A   1      43.630  23.505  25.116  1.00  0.00     0.261 C 
BRANCH  31  32
ATOM     32  O   UNL A   1      42.687  24.313  25.830  1.00  0.00    -0.460 OA
BRANCH  32  33
ATOM     33  C   UNL A   1      42.806  25.654  25.736  1.00  0.00     0.338 C 
ATOM     34  O   UNL A   1      42.796  26.325  24.715  1.00  0.00    -0.246 OA
BRANCH  33  35
ATOM     35  C   UNL A   1      42.761  26.189  27.110  1.00  0.00     0.060 A 
ATOM     36  C   UNL A   1      41.889  25.622  28.052  1.00  0.00     0.016 A 
ATOM     37  C   UNL A   1      43.612  27.234  27.468  1.00  0.00     0.016 A 
ATOM     38  C   UNL A   1      41.848  26.125  29.354  1.00  0.00     0.010 A 
ATOM     39  C   UNL A   1      43.553  27.750  28.762  1.00  0.00     0.010 A 
ATOM     40  C   UNL A   1      42.648  27.220  29.699  1.00  0.00    -0.014 A 
BRANCH  40  41
ATOM     41  C   UNL A   1      42.407  27.971  30.952  1.00  0.00     0.031 A 
ATOM     42  C   UNL A   1      41.440  29.122  30.900  1.00  0.00     0.074 A 
ATOM     43  C   UNL A   1      43.074  27.689  32.085  1.00  0.00     0.049 A 
ATOM     44  N   UNL A   1      41.183  30.032  31.798  1.00  0.00    -0.248 NA
ATOM     45  C   UNL A   1      40.669  29.270  29.652  1.00  0.00     0.031 C 
ATOM     46  C   UNL A   1      44.017  26.588  32.260  1.00  0.00     0.029 A 
ATOM     47  N   UNL A   1      43.089  28.345  33.291  1.00  0.00    -0.354 N 
ATOM     48  C   UNL A   1      40.259  30.888  31.212  1.00  0.00     0.074 A 
ATOM     49  C   UNL A   1      39.999  30.388  29.880  1.00  0.00     0.031 C 
ATOM     50  C   UNL A   1      44.555  26.670  33.490  1.00  0.00     0.029 A 
ATOM     51  C   UNL A   1      44.027  27.853  34.168  1.00  0.00     0.049 A 
ATOM     52  H   UNL A   1      42.488  29.095  33.506  1.00  0.00     0.167 HD
ATOM     53  C   UNL A   1      39.679  31.991  31.736  1.00  0.00     0.034 A 
ATOM     54  C   UNL A   1      44.438  28.331  35.361  1.00  0.00     0.034 A 
ATOM     55  C   UNL A   1      39.938  32.477  33.062  1.00  0.00     0.049 A 
ATOM     56  C   UNL A   1      43.807  29.586  35.908  1.00  0.00     0.074 A 
ATOM     57  C   UNL A   1      39.372  33.561  33.705  1.00  0.00     0.029 A 
ATOM     58  N   UNL A   1      40.853  31.919  33.941  1.00  0.00    -0.354 N 
ATOM     59  N   UNL A   1      42.868  30.336  35.383  1.00  0.00    -0.248 NA
ATOM     60  C   UNL A   1      44.272  30.049  37.226  1.00  0.00     0.031 C 
ATOM     61  C   UNL A   1      39.975  33.685  34.959  1.00  0.00     0.029 A 
ATOM     62  C   UNL A   1      40.877  32.644  35.117  1.00  0.00     0.049 A 
ATOM     63  H   UNL A   1      41.404  31.125  33.754  1.00  0.00     0.167 HD
ATOM     64  C   UNL A   1      42.594  31.324  36.324  1.00  0.00     0.074 A 
ATOM     65  C   UNL A   1      43.465  31.078  37.453  1.00  0.00     0.031 C 
ATOM     66  C   UNL A   1      41.703  32.343  36.258  1.00  0.00     0.034 A 
BRANCH  53  67
ATOM     67  C   UNL A   1      38.707  32.751  30.871  1.00  0.00     0.023 A 
ATOM     68  C   UNL A   1      39.172  33.775  30.022  1.00  0.00     0.012 A 
ATOM     69  C   UNL A   1      37.340  32.413  30.865  1.00  0.00     0.148 A 
ATOM     70  C   UNL A   1      38.285  34.475  29.205  1.00  0.00     0.002 A 
ATOM     71  C   UNL A   1      36.471  33.079  30.012  1.00  0.00     0.091 A 
ATOM     72  F   UNL A   1      36.916  31.452  31.697  1.00  0.00    -0.205 F 
ATOM     73  C   UNL A   1      36.939  34.119  29.191  1.00  0.00     0.022 A 
BRANCH  71  74
ATOM     74  S   UNL A   1      34.737  32.640  29.859  1.00  0.00     0.127 S 
ATOM     75  O   UNL A   1      34.319  32.597  31.259  1.00  0.00    -0.237 OA
ATOM     76  O   UNL A   1      34.202  33.767  29.096  1.00  0.00    -0.237 OA
ATOM     77  O   UNL A   1      34.704  31.362  29.161  1.00  0.00    -0.744 OA
ENDBRANCH  71  74
ENDBRANCH  53  67
BRANCH  54  78
ATOM     78  C   UNL A   1      45.499  27.617  36.127  1.00  0.00     0.023 A 
ATOM     79  C   UNL A   1      46.854  27.902  35.870  1.00  0.00     0.012 A 
ATOM     80  C   UNL A   1      45.173  26.660  37.108  1.00  0.00     0.148 A 
ATOM     81  C   UNL A   1      47.866  27.224  36.552  1.00  0.00     0.002 A 
ATOM     82  C   UNL A   1      46.185  26.030  37.824  1.00  0.00     0.091 A 
ATOM     83  F   UNL A   1      43.879  26.391  37.328  1.00  0.00    -0.205 F 
ATOM     84  C   UNL A   1      47.532  26.296  37.534  1.00  0.00     0.022 A 
BRANCH  82  85
ATOM     85  S   UNL A   1      45.852  24.912  39.190  1.00  0.00     0.127 S 
ATOM     86  O   UNL A   1      47.201  24.560  39.623  1.00  0.00    -0.237 OA
ATOM     87  O   UNL A   1      45.115  25.779  40.110  1.00  0.00    -0.237 OA
ATOM     88  O   UNL A   1      45.065  23.824  38.627  1.00  0.00    -0.744 OA
ENDBRANCH  82  85
ENDBRANCH  54  78
BRANCH  66  89
ATOM     89  C   UNL A   1      41.545  33.232  37.465  1.00  0.00     0.023 A 
ATOM     90  C   UNL A   1      40.645  32.890  38.491  1.00  0.00     0.012 A 
ATOM     91  C   UNL A   1      42.392  34.348  37.628  1.00  0.00     0.148 A 
ATOM     92  C   UNL A   1      40.575  33.659  39.654  1.00  0.00     0.002 A 
ATOM     93  C   UNL A   1      42.354  35.076  38.810  1.00  0.00     0.091 A 
ATOM     94  F   UNL A   1      43.231  34.663  36.631  1.00  0.00    -0.205 F 
ATOM     95  C   UNL A   1      41.438  34.740  39.819  1.00  0.00     0.022 A 
BRANCH  93  96
ATOM     96  S   UNL A   1      43.500  36.416  39.155  1.00  0.00     0.127 S 
ATOM     97  O   UNL A   1      43.146  36.763  40.530  1.00  0.00    -0.237 OA
ATOM     98  O   UNL A   1      44.797  35.757  39.005  1.00  0.00    -0.237 OA
ATOM     99  O   UNL A   1      43.226  37.449  38.166  1.00  0.00    -0.744 OA
ENDBRANCH  93  96
ENDBRANCH  66  89
ENDBRANCH  40  41
ENDBRANCH  33  35
ENDBRANCH  32  33
ENDBRANCH  31  32
ENDBRANCH  30  31
ENDBRANCH  29  30
ENDBRANCH  28  29
ENDBRANCH   1  28
TORSDOF 25
ENDMDL
MODEL 3
REMARK VINA RESULT:      -8.5      5.692      6.868
REMARK SMILES CC(=O)N1CC[NH2+]C[C@@H]1c1ccc(C(=O)OCCOCCOCCOCCOC(=O)c2ccc(-c3c4nc(c(-c5cccc(S(=O)(=O)[O-])c5F)c5ccc([nH]5)c(-c5cccc(S(=O)(=O)[O-])c5F)c5nc(c(-c6cccc(S(=O)(=O)[O-])c6F)c6ccc3[nH]6)C=C5)C=C4)cc2)cc1
REMARK SMILES IDX 23 1 22 2 21 3 20 4 19 5 18 6 17 7 16 8 14 9 15 10 13 11
REMARK SMILES IDX 10 12 11 13 95 14 12 15 94 16 9 17 4 18 5 19 6 20 8 21 7 22
REMARK SMILES IDX 2 25 1 26 3 27 24 28 25 29 26 30 27 31 28 32 29 33 30 34
REMARK SMILES IDX 31 35 32 36 93 37 33 38 92 39 34 40 35 41 36 42 86 43 37 44
REMARK SMILES IDX 91 45 85 46 87 47 38 48 90 49 84 50 83 51 39 53 71 54 51 55
REMARK SMILES IDX 70 56 52 57 55 58 69 59 88 60 53 61 54 62 68 64 89 65 56 66
REMARK SMILES IDX 40 67 41 68 49 69 42 70 44 71 50 72 43 73 45 74 46 75 47 76
REMARK SMILES IDX 48 77 72 78 73 79 81 80 74 81 76 82 82 83 75 84 77 85 78 86
REMARK SMILES IDX 79 87 80 88 57 89 58 90 66 91 59 92 61 93 67 94 60 95 62 96
REMARK SMILES IDX 63 97 64 98 65 99
REMARK H PARENT 7 23 7 24 87 52 55 63
REMARK Flexibility Score: inf
ROOT
ATOM      1  C   UNL A   1      44.885  20.299  24.929  1.00  0.00     0.188 C 
ENDROOT
BRANCH   1   2
ATOM      2  O   UNL A   1      43.724  19.710  25.500  1.00  0.00    -0.377 OA
BRANCH   2   3
ATOM      3  C   UNL A   1      42.691  20.520  26.042  1.00  0.00     0.188 C 
BRANCH   3   4
ATOM      4  C   UNL A   1      41.878  20.062  27.274  1.00  0.00     0.188 C 
BRANCH   4   5
ATOM      5  O   UNL A   1      40.479  20.251  27.169  1.00  0.00    -0.376 OA
BRANCH   5   6
ATOM      6  C   UNL A   1      39.916  20.587  25.916  1.00  0.00     0.202 C 
BRANCH   6   7
ATOM      7  C   UNL A   1      38.989  21.806  25.835  1.00  0.00     0.261 C 
BRANCH   7   8
ATOM      8  O   UNL A   1      37.594  21.547  26.036  1.00  0.00    -0.460 OA
BRANCH   8   9
ATOM      9  C   UNL A   1      36.962  20.791  25.112  1.00  0.00     0.338 C 
ATOM     10  O   UNL A   1      37.133  19.604  24.896  1.00  0.00    -0.246 OA
BRANCH   9  11
ATOM     11  C   UNL A   1      35.858  21.600  24.544  1.00  0.00     0.060 A 
ATOM     12  C   UNL A   1      33.701  23.142  23.544  1.00  0.00    -0.020 A 
ATOM     13  C   UNL A   1      33.480  21.900  24.172  1.00  0.00     0.007 A 
ATOM     14  C   UNL A   1      35.034  23.578  23.427  1.00  0.00     0.007 A 
ATOM     15  C   UNL A   1      34.546  21.131  24.657  1.00  0.00     0.016 A 
ATOM     16  C   UNL A   1      36.101  22.834  23.945  1.00  0.00     0.016 A 
BRANCH  12  17
ATOM     17  C   UNL A   1      32.516  23.918  22.943  1.00  0.00     0.170 C 
ATOM     18  N   UNL A   1      32.576  25.376  23.187  1.00  0.00    -0.325 N 
ATOM     19  C   UNL A   1      32.159  25.816  24.528  1.00  0.00     0.181 C 
ATOM     20  C   UNL A   1      30.788  25.227  24.905  1.00  0.00     0.282 C 
ATOM     21  C   UNL A   1      31.111  23.397  23.375  1.00  0.00     0.290 C 
ATOM     22  N   UNL A   1      30.717  23.758  24.752  1.00  0.00    -0.343 N 
ATOM     23  H   UNL A   1      29.764  23.441  24.929  1.00  0.00     0.346 HD
ATOM     24  H   UNL A   1      31.348  23.312  25.418  1.00  0.00     0.346 HD
BRANCH  18  25
ATOM     25  C   UNL A   1      32.984  26.329  22.270  1.00  0.00     0.220 C 
ATOM     26  C   UNL A   1      32.926  27.776  22.691  1.00  0.00     0.114 C 
ATOM     27  O   UNL A   1      33.481  26.033  21.184  1.00  0.00    -0.275 OA
ENDBRANCH  18  25
ENDBRANCH  12  17
ENDBRANCH   9  11
ENDBRANCH   8   9
ENDBRANCH   7   8
ENDBRANCH   6   7
ENDBRANCH   5   6
ENDBRANCH   4   5
ENDBRANCH   3   4
ENDBRANCH   2   3
ENDBRANCH   1   2
BRANCH   1  28
ATOM     28  C   UNL A   1      44.875  21.777  24.479  1.00  0.00     0.188 C 
BRANCH  28  29
ATOM     29  O   UNL A   1      43.578  22.346  24.389  1.00  0.00    -0.376 OA
BRANCH  29  30
ATOM     30  C   UNL A   1      43.419  23.691  24.796  1.00  0.00     0.202 C 
BRANCH  30  31
ATOM     31  C   UNL A   1      42.614  23.964  26.074  1.00  0.00     0.261 C 
BRANCH  31  32
ATOM     32  O   UNL A   1      42.749  25.268  26.652  1.00  0.00    -0.460 OA
BRANCH  32  33
ATOM     33  C   UNL A   1      42.007  26.269  26.133  1.00  0.00     0.338 C 
ATOM     34  O   UNL A   1      41.088  26.169  25.335  1.00  0.00    -0.246 OA
BRANCH  33  35
ATOM     35  C   UNL A   1      42.385  27.502  26.850  1.00  0.00     0.060 A 
ATOM     36  C   UNL A   1      42.857  27.426  28.168  1.00  0.00     0.016 A 
ATOM     37  C   UNL A   1      42.299  28.731  26.195  1.00  0.00     0.016 A 
ATOM     38  C   UNL A   1      43.218  28.592  28.847  1.00  0.00     0.010 A 
ATOM     39  C   UNL A   1      42.637  29.896  26.882  1.00  0.00     0.010 A 
ATOM     40  C   UNL A   1      43.065  29.834  28.220  1.00  0.00    -0.014 A 
BRANCH  40  41
ATOM     41  C   UNL A   1      43.134  31.091  28.999  1.00  0.00     0.031 A 
ATOM     42  C   UNL A   1      44.419  31.872  28.950  1.00  0.00     0.074 A 
ATOM     43  C   UNL A   1      42.119  31.494  29.782  1.00  0.00     0.049 A 
ATOM     44  N   UNL A   1      44.795  32.899  29.661  1.00  0.00    -0.248 NA
ATOM     45  C   UNL A   1      45.421  31.417  27.969  1.00  0.00     0.031 C 
ATOM     46  C   UNL A   1      40.822  30.832  29.895  1.00  0.00     0.029 A 
ATOM     47  N   UNL A   1      42.045  32.540  30.670  1.00  0.00    -0.354 N 
ATOM     48  C   UNL A   1      46.090  33.185  29.251  1.00  0.00     0.074 A 
ATOM     49  C   UNL A   1      46.437  32.225  28.227  1.00  0.00     0.031 C 
ATOM     50  C   UNL A   1      40.094  31.462  30.835  1.00  0.00     0.029 A 
ATOM     51  C   UNL A   1      40.891  32.540  31.418  1.00  0.00     0.049 A 
ATOM     52  H   UNL A   1      42.749  33.222  30.762  1.00  0.00     0.167 HD
ATOM     53  C   UNL A   1      46.918  34.162  29.687  1.00  0.00     0.034 A 
ATOM     54  C   UNL A   1      40.541  33.297  32.478  1.00  0.00     0.034 A 
ATOM     55  C   UNL A   1      46.563  35.116  30.700  1.00  0.00     0.049 A 
ATOM     56  C   UNL A   1      41.497  34.353  32.975  1.00  0.00     0.074 A 
ATOM     57  C   UNL A   1      47.312  36.172  31.185  1.00  0.00     0.029 A 
ATOM     58  N   UNL A   1      45.364  35.118  31.395  1.00  0.00    -0.354 N 
ATOM     59  N   UNL A   1      42.684  34.675  32.520  1.00  0.00    -0.248 NA
ATOM     60  C   UNL A   1      41.055  35.170  34.117  1.00  0.00     0.031 C 
ATOM     61  C   UNL A   1      46.582  36.788  32.205  1.00  0.00     0.029 A 
ATOM     62  C   UNL A   1      45.356  36.149  32.316  1.00  0.00     0.049 A 
ATOM     63  H   UNL A   1      44.628  34.480  31.255  1.00  0.00     0.167 HD
ATOM     64  C   UNL A   1      43.107  35.760  33.281  1.00  0.00     0.074 A 
ATOM     65  C   UNL A   1      42.048  36.043  34.227  1.00  0.00     0.031 C 
ATOM     66  C   UNL A   1      44.265  36.458  33.204  1.00  0.00     0.034 A 
BRANCH  53  67
ATOM     67  C   UNL A   1      48.290  34.246  29.073  1.00  0.00     0.023 A 
ATOM     68  C   UNL A   1      49.389  33.644  29.719  1.00  0.00     0.012 A 
ATOM     69  C   UNL A   1      48.479  34.878  27.829  1.00  0.00     0.148 A 
ATOM     70  C   UNL A   1      50.662  33.701  29.153  1.00  0.00     0.002 A 
ATOM     71  C   UNL A   1      49.740  34.886  27.246  1.00  0.00     0.091 A 
ATOM     72  F   UNL A   1      47.426  35.464  27.243  1.00  0.00    -0.205 F 
ATOM     73  C   UNL A   1      50.834  34.310  27.912  1.00  0.00     0.022 A 
BRANCH  71  74
ATOM     74  S   UNL A   1      50.049  35.571  25.616  1.00  0.00     0.127 S 
ATOM     75  O   UNL A   1      50.417  36.949  25.940  1.00  0.00    -0.237 OA
ATOM     76  O   UNL A   1      51.153  34.740  25.139  1.00  0.00    -0.237 OA
ATOM     77  O   UNL A   1      48.805  35.418  24.872  1.00  0.00    -0.744 OA
ENDBRANCH  71  74
ENDBRANCH  53  67
BRANCH  54  78
ATOM     78  C   UNL A   1      39.222  33.093  33.141  1.00  0.00     0.023 A 
ATOM     79  C   UNL A   1      39.140  32.290  34.295  1.00  0.00     0.012 A 
ATOM     80  C   UNL A   1      38.050  33.690  32.636  1.00  0.00     0.148 A 
ATOM     81  C   UNL A   1      37.912  32.057  34.915  1.00  0.00     0.002 A 
ATOM     82  C   UNL A   1      36.839  33.501  33.292  1.00  0.00     0.091 A 
ATOM     83  F   UNL A   1      38.146  34.439  31.529  1.00  0.00    -0.205 F 
ATOM     84  C   UNL A   1      36.764  32.670  34.420  1.00  0.00     0.022 A 
BRANCH  82  85
ATOM     85  S   UNL A   1      35.332  34.346  32.802  1.00  0.00     0.127 S 
ATOM     86  O   UNL A   1      35.233  33.986  31.390  1.00  0.00    -0.237 OA
ATOM     87  O   UNL A   1      34.340  33.712  33.672  1.00  0.00    -0.237 OA
ATOM     88  O   UNL A   1      35.561  35.757  33.079  1.00  0.00    -0.744 OA
ENDBRANCH  82  85
ENDBRANCH  54  78
BRANCH  66  89
ATOM     89  C   UNL A   1      44.438  37.656  34.102  1.00  0.00     0.023 A 
ATOM     90  C   UNL A   1      43.994  38.927  33.690  1.00  0.00     0.012 A 
ATOM     91  C   UNL A   1      44.934  37.484  35.411  1.00  0.00     0.148 A 
ATOM     92  C   UNL A   1      44.061  40.014  34.562  1.00  0.00     0.002 A 
ATOM     93  C   UNL A   1      44.947  38.559  36.290  1.00  0.00     0.091 A 
ATOM     94  F   UNL A   1      45.364  36.268  35.776  1.00  0.00    -0.205 F 
ATOM     95  C   UNL A   1      44.522  39.828  35.864  1.00  0.00     0.022 A 
BRANCH  93  96
ATOM     96  S   UNL A   1      45.421  38.390  38.014  1.00  0.00     0.127 S 
ATOM     97  O   UNL A   1      46.832  38.025  37.900  1.00  0.00    -0.237 OA
ATOM     98  O   UNL A   1      45.178  39.735  38.534  1.00  0.00    -0.237 OA
ATOM     99  O   UNL A   1      44.558  37.358  38.574  1.00  0.00    -0.744 OA
ENDBRANCH  93  96
ENDBRANCH  66  89
ENDBRANCH  40  41
ENDBRANCH  33  35
ENDBRANCH  32  33
ENDBRANCH  31  32
ENDBRANCH  30  31
ENDBRANCH  29  30
ENDBRANCH  28  29
ENDBRANCH   1  28
TORSDOF 25
ENDMDL
