MODEL 1
REMARK VINA RESULT:      -8.9      0.000      0.000
REMARK SMILES O=C(/C=C/c1ccc(C(=O)NC2CC2)cc1)NC1(C(=O)OCCOCCOCCOCCOC(=O)c2ccc(-c3c4nc(c(-c5cccc(S(=O)(=O)[O-])c5F)c5ccc([nH]5)c(-c5cccc(S(=O)(=O)[O-])c5F)c5nc(c(-c6cccc(S(=O)(=O)[O-])c6F)c6ccc3[nH]6)C=C5)C=C4)cc2)CCCC1
REMARK SMILES IDX 26 1 25 2 24 3 23 4 22 5 21 6 19 7 20 8 18 9 99 10 102 11
REMARK SMILES IDX 100 12 101 13 17 14 1 15 2 16 3 18 4 19 5 20 6 21 16 22 7 23
REMARK SMILES IDX 15 24 8 25 9 26 10 27 11 28 12 30 13 31 14 32 27 33 28 34
REMARK SMILES IDX 29 35 30 36 31 37 32 38 33 39 34 40 35 41 36 42 37 43 98 44
REMARK SMILES IDX 38 45 97 46 39 47 40 48 41 49 91 50 42 51 96 52 90 53 92 54
REMARK SMILES IDX 43 55 95 56 89 57 88 58 44 60 76 61 56 62 75 63 57 64 60 65
REMARK SMILES IDX 74 66 93 67 58 68 59 69 73 71 94 72 61 73 45 74 46 75 54 76
REMARK SMILES IDX 47 77 49 78 55 79 48 80 50 81 51 82 52 83 53 84 77 85 78 86
REMARK SMILES IDX 86 87 79 88 81 89 87 90 80 91 82 92 83 93 84 94 85 95 62 96
REMARK SMILES IDX 63 97 71 98 64 99 66 100 72 101 65 102 67 103 68 104 69 105
REMARK SMILES IDX 70 106
REMARK H PARENT 17 17 11 29 92 59 60 70
REMARK Flexibility Score: inf
ROOT
ATOM      1  C   UNL A   1      38.297  22.108  25.771  1.00  0.00     0.188 C 
ENDROOT
BRANCH   1   2
ATOM      2  C   UNL A   1      37.068  22.043  24.856  1.00  0.00     0.188 C 
BRANCH   2   3
ATOM      3  O   UNL A   1      36.252  20.913  25.083  1.00  0.00    -0.376 OA
BRANCH   3   4
ATOM      4  C   UNL A   1      34.879  21.116  25.371  1.00  0.00     0.202 C 
BRANCH   4   5
ATOM      5  C   UNL A   1      34.387  21.802  26.663  1.00  0.00     0.261 C 
BRANCH   5   6
ATOM      6  O   UNL A   1      34.038  23.187  26.554  1.00  0.00    -0.461 OA
BRANCH   6   7
ATOM      7  C   UNL A   1      32.823  23.481  26.028  1.00  0.00     0.331 C 
ATOM      8  O   UNL A   1      31.776  22.945  26.380  1.00  0.00    -0.249 OA
BRANCH   7   9
ATOM      9  C   UNL A   1      32.891  24.630  24.958  1.00  0.00     0.138 C 
ATOM     10  C   UNL A   1      31.554  24.567  24.190  1.00  0.00     0.040 C 
ATOM     11  C   UNL A   1      33.851  24.390  23.767  1.00  0.00     0.040 C 
ATOM     12  C   UNL A   1      31.724  23.357  23.265  1.00  0.00     0.003 C 
ATOM     13  C   UNL A   1      33.194  23.351  22.870  1.00  0.00     0.003 C 
BRANCH   9  14
ATOM     14  N   UNL A   1      33.146  25.994  25.510  1.00  0.00    -0.337 N 
ATOM     15  O   UNL A   1      31.256  26.270  26.810  1.00  0.00    -0.270 OA
ATOM     16  C   UNL A   1      32.327  26.667  26.375  1.00  0.00     0.244 C 
ATOM     17  H   UNL A   1      33.974  26.447  25.229  1.00  0.00     0.164 HD
BRANCH  16  18
ATOM     18  C   UNL A   1      32.849  27.935  26.940  1.00  0.00     0.072 C 
ATOM     19  C   UNL A   1      34.129  28.333  26.917  1.00  0.00     0.014 C 
BRANCH  19  20
ATOM     20  C   UNL A   1      34.527  29.708  27.268  1.00  0.00    -0.025 A 
ATOM     21  C   UNL A   1      33.549  30.706  27.286  1.00  0.00     0.009 A 
ATOM     22  C   UNL A   1      35.834  30.063  27.617  1.00  0.00     0.009 A 
ATOM     23  C   UNL A   1      33.871  32.019  27.658  1.00  0.00     0.014 A 
ATOM     24  C   UNL A   1      36.149  31.374  28.009  1.00  0.00     0.014 A 
ATOM     25  C   UNL A   1      35.181  32.379  28.017  1.00  0.00     0.039 A 
BRANCH  25  26
ATOM     26  C   UNL A   1      35.409  33.813  28.391  1.00  0.00     0.251 C 
ATOM     27  O   UNL A   1      34.484  34.620  28.257  1.00  0.00    -0.269 OA
ATOM     28  N   UNL A   1      36.605  34.310  28.862  1.00  0.00    -0.349 N 
ATOM     29  H   UNL A   1      36.602  35.279  29.038  1.00  0.00     0.164 HD
BRANCH  28  30
ATOM     30  C   UNL A   1      37.841  33.670  29.138  1.00  0.00     0.082 C 
ATOM     31  C   UNL A   1      39.074  34.468  29.470  1.00  0.00     0.027 C 
ATOM     32  C   UNL A   1      38.404  33.654  30.534  1.00  0.00     0.027 C 
ENDBRANCH  28  30
ENDBRANCH  25  26
ENDBRANCH  19  20
ENDBRANCH  16  18
ENDBRANCH   9  14
ENDBRANCH   7   9
ENDBRANCH   6   7
ENDBRANCH   5   6
ENDBRANCH   4   5
ENDBRANCH   3   4
ENDBRANCH   2   3
ENDBRANCH   1   2
BRANCH   1  33
ATOM     33  O   UNL A   1      39.126  20.958  25.856  1.00  0.00    -0.377 OA
BRANCH  33  34
ATOM     34  C   UNL A   1      40.503  21.104  26.199  1.00  0.00     0.188 C 
BRANCH  34  35
ATOM     35  C   UNL A   1      40.940  22.096  27.301  1.00  0.00     0.188 C 
BRANCH  35  36
ATOM     36  O   UNL A   1      41.822  23.121  26.873  1.00  0.00    -0.376 OA
BRANCH  36  37
ATOM     37  C   UNL A   1      43.202  22.977  27.164  1.00  0.00     0.202 C 
BRANCH  37  38
ATOM     38  C   UNL A   1      44.197  22.934  25.994  1.00  0.00     0.261 C 
BRANCH  38  39
ATOM     39  O   UNL A   1      45.502  23.486  26.233  1.00  0.00    -0.460 OA
BRANCH  39  40
ATOM     40  C   UNL A   1      45.848  24.624  25.581  1.00  0.00     0.338 C 
ATOM     41  O   UNL A   1      46.083  24.752  24.404  1.00  0.00    -0.246 OA
BRANCH  40  42
ATOM     42  C   UNL A   1      45.665  25.741  26.542  1.00  0.00     0.060 A 
ATOM     43  C   UNL A   1      46.761  26.165  27.307  1.00  0.00     0.016 A 
ATOM     44  C   UNL A   1      44.433  26.384  26.655  1.00  0.00     0.016 A 
ATOM     45  C   UNL A   1      46.621  27.229  28.198  1.00  0.00     0.010 A 
ATOM     46  C   UNL A   1      44.286  27.428  27.571  1.00  0.00     0.010 A 
ATOM     47  C   UNL A   1      45.372  27.839  28.365  1.00  0.00    -0.014 A 
BRANCH  47  48
ATOM     48  C   UNL A   1      45.158  28.788  29.483  1.00  0.00     0.031 A 
ATOM     49  C   UNL A   1      44.732  28.235  30.816  1.00  0.00     0.074 A 
ATOM     50  C   UNL A   1      45.320  30.113  29.318  1.00  0.00     0.049 A 
ATOM     51  N   UNL A   1      44.422  28.872  31.913  1.00  0.00    -0.248 NA
ATOM     52  C   UNL A   1      44.641  26.768  30.924  1.00  0.00     0.031 C 
ATOM     53  C   UNL A   1      45.739  30.768  28.079  1.00  0.00     0.029 A 
ATOM     54  N   UNL A   1      45.113  31.150  30.194  1.00  0.00    -0.354 N 
ATOM     55  C   UNL A   1      44.060  27.891  32.828  1.00  0.00     0.074 A 
ATOM     56  C   UNL A   1      44.197  26.615  32.162  1.00  0.00     0.031 C 
ATOM     57  C   UNL A   1      45.712  32.100  28.261  1.00  0.00     0.029 A 
ATOM     58  C   UNL A   1      45.245  32.391  29.616  1.00  0.00     0.049 A 
ATOM     59  H   UNL A   1      44.892  31.019  31.145  1.00  0.00     0.167 HD
ATOM     60  C   UNL A   1      43.651  28.041  34.109  1.00  0.00     0.034 A 
ATOM     61  C   UNL A   1      44.978  33.618  30.111  1.00  0.00     0.034 A 
ATOM     62  C   UNL A   1      43.536  29.309  34.777  1.00  0.00     0.049 A 
ATOM     63  C   UNL A   1      44.497  33.751  31.534  1.00  0.00     0.074 A 
ATOM     64  C   UNL A   1      43.201  29.553  36.097  1.00  0.00     0.029 A 
ATOM     65  N   UNL A   1      43.723  30.542  34.175  1.00  0.00    -0.354 N 
ATOM     66  N   UNL A   1      44.298  32.816  32.432  1.00  0.00    -0.248 NA
ATOM     67  C   UNL A   1      44.228  35.112  32.024  1.00  0.00     0.031 C 
ATOM     68  C   UNL A   1      43.137  30.936  36.281  1.00  0.00     0.029 A 
ATOM     69  C   UNL A   1      43.479  31.552  35.088  1.00  0.00     0.049 A 
ATOM     70  H   UNL A   1      43.989  30.678  33.237  1.00  0.00     0.167 HD
ATOM     71  C   UNL A   1      43.914  33.476  33.595  1.00  0.00     0.074 A 
ATOM     72  C   UNL A   1      43.937  34.893  33.299  1.00  0.00     0.031 C 
ATOM     73  C   UNL A   1      43.555  32.959  34.796  1.00  0.00     0.034 A 
BRANCH  60  74
ATOM     74  C   UNL A   1      43.293  26.807  34.889  1.00  0.00     0.023 A 
ATOM     75  C   UNL A   1      41.947  26.406  34.997  1.00  0.00     0.012 A 
ATOM     76  C   UNL A   1      44.308  25.988  35.421  1.00  0.00     0.148 A 
ATOM     77  C   UNL A   1      41.615  25.212  35.636  1.00  0.00     0.002 A 
ATOM     78  C   UNL A   1      43.974  24.778  36.015  1.00  0.00     0.091 A 
ATOM     79  F   UNL A   1      45.578  26.404  35.325  1.00  0.00    -0.205 F 
ATOM     80  C   UNL A   1      42.627  24.392  36.130  1.00  0.00     0.022 A 
BRANCH  78  81
ATOM     81  S   UNL A   1      45.207  23.615  36.606  1.00  0.00     0.127 S 
ATOM     82  O   UNL A   1      44.709  22.354  36.056  1.00  0.00    -0.237 OA
ATOM     83  O   UNL A   1      46.426  24.117  35.975  1.00  0.00    -0.237 OA
ATOM     84  O   UNL A   1      45.186  23.705  38.059  1.00  0.00    -0.744 OA
ENDBRANCH  78  81
ENDBRANCH  60  74
BRANCH  61  85
ATOM     85  C   UNL A   1      45.135  34.829  29.255  1.00  0.00     0.023 A 
ATOM     86  C   UNL A   1      46.419  35.352  29.003  1.00  0.00     0.012 A 
ATOM     87  C   UNL A   1      44.012  35.487  28.718  1.00  0.00     0.148 A 
ATOM     88  C   UNL A   1      46.577  36.532  28.276  1.00  0.00     0.002 A 
ATOM     89  C   UNL A   1      44.180  36.628  27.942  1.00  0.00     0.091 A 
ATOM     90  F   UNL A   1      42.795  34.990  28.985  1.00  0.00    -0.205 F 
ATOM     91  C   UNL A   1      45.459  37.165  27.738  1.00  0.00     0.022 A 
BRANCH  89  92
ATOM     92  S   UNL A   1      42.806  37.429  27.107  1.00  0.00     0.127 S 
ATOM     93  O   UNL A   1      42.383  36.396  26.167  1.00  0.00    -0.237 OA
ATOM     94  O   UNL A   1      41.881  37.675  28.213  1.00  0.00    -0.237 OA
ATOM     95  O   UNL A   1      43.361  38.639  26.514  1.00  0.00    -0.744 OA
ENDBRANCH  89  92
ENDBRANCH  61  85
BRANCH  73  96
ATOM     96  C   UNL A   1      43.193  33.921  35.899  1.00  0.00     0.023 A 
ATOM     97  C   UNL A   1      44.200  34.451  36.731  1.00  0.00     0.012 A 
ATOM     98  C   UNL A   1      41.863  34.359  36.061  1.00  0.00     0.148 A 
ATOM     99  C   UNL A   1      43.883  35.372  37.730  1.00  0.00     0.002 A 
ATOM    100  C   UNL A   1      41.563  35.317  37.022  1.00  0.00     0.091 A 
ATOM    101  F   UNL A   1      40.917  33.835  35.268  1.00  0.00    -0.205 F 
ATOM    102  C   UNL A   1      42.569  35.813  37.867  1.00  0.00     0.022 A 
BRANCH 100 103
ATOM    103  S   UNL A   1      39.920  36.019  37.207  1.00  0.00     0.127 S 
ATOM    104  O   UNL A   1      39.686  36.584  35.879  1.00  0.00    -0.237 OA
ATOM    105  O   UNL A   1      39.113  34.838  37.518  1.00  0.00    -0.237 OA
ATOM    106  O   UNL A   1      40.015  36.990  38.289  1.00  0.00    -0.744 OA
ENDBRANCH 100 103
ENDBRANCH  73  96
ENDBRANCH  47  48
ENDBRANCH  40  42
ENDBRANCH  39  40
ENDBRANCH  38  39
ENDBRANCH  37  38
ENDBRANCH  36  37
ENDBRANCH  35  36
ENDBRANCH  34  35
ENDBRANCH  33  34
ENDBRANCH   1  33
TORSDOF 28
ENDMDL
MODEL 2
REMARK VINA RESULT:      -8.6      3.638      5.361
REMARK SMILES O=C(/C=C/c1ccc(C(=O)NC2CC2)cc1)NC1(C(=O)OCCOCCOCCOCCOC(=O)c2ccc(-c3c4nc(c(-c5cccc(S(=O)(=O)[O-])c5F)c5ccc([nH]5)c(-c5cccc(S(=O)(=O)[O-])c5F)c5nc(c(-c6cccc(S(=O)(=O)[O-])c6F)c6ccc3[nH]6)C=C5)C=C4)cc2)CCCC1
REMARK SMILES IDX 26 1 25 2 24 3 23 4 22 5 21 6 19 7 20 8 18 9 99 10 102 11
REMARK SMILES IDX 100 12 101 13 17 14 1 15 2 16 3 18 4 19 5 20 6 21 16 22 7 23
REMARK SMILES IDX 15 24 8 25 9 26 10 27 11 28 12 30 13 31 14 32 27 33 28 34
REMARK SMILES IDX 29 35 30 36 31 37 32 38 33 39 34 40 35 41 36 42 37 43 98 44
REMARK SMILES IDX 38 45 97 46 39 47 40 48 41 49 91 50 42 51 96 52 90 53 92 54
REMARK SMILES IDX 43 55 95 56 89 57 88 58 44 60 76 61 56 62 75 63 57 64 60 65
REMARK SMILES IDX 74 66 93 67 58 68 59 69 73 71 94 72 61 73 45 74 46 75 54 76
REMARK SMILES IDX 47 77 49 78 55 79 48 80 50 81 51 82 52 83 53 84 77 85 78 86
REMARK SMILES IDX 86 87 79 88 81 89 87 90 80 91 82 92 83 93 84 94 85 95 62 96
REMARK SMILES IDX 63 97 71 98 64 99 66 100 72 101 65 102 67 103 68 104 69 105
REMARK SMILES IDX 70 106
REMARK H PARENT 17 17 11 29 92 59 60 70
REMARK Flexibility Score: inf
ROOT
ATOM      1  C   UNL A   1      38.398  21.309  25.529  1.00  0.00     0.188 C 
ENDROOT
BRANCH   1   2
ATOM      2  C   UNL A   1      37.110  22.134  25.399  1.00  0.00     0.188 C 
BRANCH   2   3
ATOM      3  O   UNL A   1      35.999  21.554  26.047  1.00  0.00    -0.376 OA
BRANCH   3   4
ATOM      4  C   UNL A   1      34.826  22.334  26.209  1.00  0.00     0.202 C 
BRANCH   4   5
ATOM      5  C   UNL A   1      34.747  23.821  25.804  1.00  0.00     0.261 C 
BRANCH   5   6
ATOM      6  O   UNL A   1      33.670  24.187  24.932  1.00  0.00    -0.461 OA
BRANCH   6   7
ATOM      7  C   UNL A   1      33.995  24.812  23.774  1.00  0.00     0.331 C 
ATOM      8  O   UNL A   1      34.812  24.378  22.967  1.00  0.00    -0.249 OA
BRANCH   7   9
ATOM      9  C   UNL A   1      33.166  26.127  23.545  1.00  0.00     0.138 C 
ATOM     10  C   UNL A   1      31.718  25.785  23.957  1.00  0.00     0.040 C 
ATOM     11  C   UNL A   1      32.900  26.510  22.069  1.00  0.00     0.040 C 
ATOM     12  C   UNL A   1      31.194  24.953  22.781  1.00  0.00     0.003 C 
ATOM     13  C   UNL A   1      31.850  25.544  21.541  1.00  0.00     0.003 C 
BRANCH   9  14
ATOM     14  N   UNL A   1      33.675  27.330  24.268  1.00  0.00    -0.337 N 
ATOM     15  O   UNL A   1      33.010  26.827  26.423  1.00  0.00    -0.270 OA
ATOM     16  C   UNL A   1      33.561  27.557  25.612  1.00  0.00     0.244 C 
ATOM     17  H   UNL A   1      34.132  28.018  23.732  1.00  0.00     0.164 HD
BRANCH  16  18
ATOM     18  C   UNL A   1      34.290  28.729  26.157  1.00  0.00     0.072 C 
ATOM     19  C   UNL A   1      33.899  29.478  27.197  1.00  0.00     0.014 C 
BRANCH  19  20
ATOM     20  C   UNL A   1      34.796  30.459  27.835  1.00  0.00    -0.025 A 
ATOM     21  C   UNL A   1      34.570  31.819  27.612  1.00  0.00     0.009 A 
ATOM     22  C   UNL A   1      35.848  30.097  28.683  1.00  0.00     0.009 A 
ATOM     23  C   UNL A   1      35.368  32.790  28.234  1.00  0.00     0.014 A 
ATOM     24  C   UNL A   1      36.632  31.073  29.321  1.00  0.00     0.014 A 
ATOM     25  C   UNL A   1      36.421  32.434  29.093  1.00  0.00     0.039 A 
BRANCH  25  26
ATOM     26  C   UNL A   1      37.210  33.557  29.697  1.00  0.00     0.251 C 
ATOM     27  O   UNL A   1      38.235  33.941  29.127  1.00  0.00    -0.269 OA
ATOM     28  N   UNL A   1      36.880  34.188  30.876  1.00  0.00    -0.349 N 
ATOM     29  H   UNL A   1      37.514  34.890  31.153  1.00  0.00     0.164 HD
BRANCH  28  30
ATOM     30  C   UNL A   1      35.786  34.006  31.762  1.00  0.00     0.082 C 
ATOM     31  C   UNL A   1      34.400  34.461  31.391  1.00  0.00     0.027 C 
ATOM     32  C   UNL A   1      34.710  32.997  31.459  1.00  0.00     0.027 C 
ENDBRANCH  28  30
ENDBRANCH  25  26
ENDBRANCH  19  20
ENDBRANCH  16  18
ENDBRANCH   9  14
ENDBRANCH   7   9
ENDBRANCH   6   7
ENDBRANCH   5   6
ENDBRANCH   4   5
ENDBRANCH   3   4
ENDBRANCH   2   3
ENDBRANCH   1   2
BRANCH   1  33
ATOM     33  O   UNL A   1      39.522  21.922  26.143  1.00  0.00    -0.377 OA
BRANCH  33  34
ATOM     34  C   UNL A   1      40.723  21.173  26.325  1.00  0.00     0.188 C 
BRANCH  34  35
ATOM     35  C   UNL A   1      41.996  21.848  26.884  1.00  0.00     0.188 C 
BRANCH  35  36
ATOM     36  O   UNL A   1      43.211  21.435  26.283  1.00  0.00    -0.376 OA
BRANCH  36  37
ATOM     37  C   UNL A   1      44.020  22.421  25.665  1.00  0.00     0.202 C 
BRANCH  37  38
ATOM     38  C   UNL A   1      43.361  23.397  24.679  1.00  0.00     0.261 C 
BRANCH  38  39
ATOM     39  O   UNL A   1      43.625  24.796  24.878  1.00  0.00    -0.460 OA
BRANCH  39  40
ATOM     40  C   UNL A   1      42.651  25.563  25.427  1.00  0.00     0.338 C 
ATOM     41  O   UNL A   1      41.525  25.721  25.020  1.00  0.00    -0.246 OA
BRANCH  40  42
ATOM     42  C   UNL A   1      43.148  26.003  26.754  1.00  0.00     0.060 A 
ATOM     43  C   UNL A   1      42.715  25.325  27.902  1.00  0.00     0.016 A 
ATOM     44  C   UNL A   1      44.064  27.051  26.856  1.00  0.00     0.016 A 
ATOM     45  C   UNL A   1      43.187  25.703  29.158  1.00  0.00     0.010 A 
ATOM     46  C   UNL A   1      44.511  27.450  28.118  1.00  0.00     0.010 A 
ATOM     47  C   UNL A   1      44.057  26.794  29.277  1.00  0.00    -0.014 A 
BRANCH  47  48
ATOM     48  C   UNL A   1      44.357  27.356  30.614  1.00  0.00     0.031 A 
ATOM     49  C   UNL A   1      45.613  26.909  31.311  1.00  0.00     0.074 A 
ATOM     50  C   UNL A   1      43.526  28.231  31.208  1.00  0.00     0.049 A 
ATOM     51  N   UNL A   1      46.047  27.210  32.505  1.00  0.00    -0.248 NA
ATOM     52  C   UNL A   1      46.496  25.998  30.560  1.00  0.00     0.031 C 
ATOM     53  C   UNL A   1      42.285  28.747  30.632  1.00  0.00     0.029 A 
ATOM     54  N   UNL A   1      43.587  28.812  32.451  1.00  0.00    -0.354 N 
ATOM     55  C   UNL A   1      47.229  26.497  32.667  1.00  0.00     0.074 A 
ATOM     56  C   UNL A   1      47.450  25.754  31.446  1.00  0.00     0.031 C 
ATOM     57  C   UNL A   1      41.677  29.532  31.539  1.00  0.00     0.029 A 
ATOM     58  C   UNL A   1      42.469  29.548  32.768  1.00  0.00     0.049 A 
ATOM     59  H   UNL A   1      44.357  28.712  33.058  1.00  0.00     0.167 HD
ATOM     60  C   UNL A   1      48.055  26.464  33.738  1.00  0.00     0.034 A 
ATOM     61  C   UNL A   1      42.108  30.130  33.931  1.00  0.00     0.034 A 
ATOM     62  C   UNL A   1      47.846  27.220  34.943  1.00  0.00     0.049 A 
ATOM     63  C   UNL A   1      43.039  30.053  35.116  1.00  0.00     0.074 A 
ATOM     64  C   UNL A   1      48.669  27.307  36.051  1.00  0.00     0.029 A 
ATOM     65  N   UNL A   1      46.728  27.991  35.211  1.00  0.00    -0.354 N 
ATOM     66  N   UNL A   1      44.222  29.494  35.205  1.00  0.00    -0.248 NA
ATOM     67  C   UNL A   1      42.597  30.712  36.356  1.00  0.00     0.031 C 
ATOM     68  C   UNL A   1      48.026  28.093  37.010  1.00  0.00     0.029 A 
ATOM     69  C   UNL A   1      46.823  28.532  36.481  1.00  0.00     0.049 A 
ATOM     70  H   UNL A   1      45.976  28.131  34.591  1.00  0.00     0.167 HD
ATOM     71  C   UNL A   1      44.676  29.760  36.493  1.00  0.00     0.074 A 
ATOM     72  C   UNL A   1      43.655  30.557  37.140  1.00  0.00     0.031 C 
ATOM     73  C   UNL A   1      45.825  29.366  37.095  1.00  0.00     0.034 A 
BRANCH  60  74
ATOM     74  C   UNL A   1      49.272  25.585  33.669  1.00  0.00     0.023 A 
ATOM     75  C   UNL A   1      50.532  26.145  33.380  1.00  0.00     0.012 A 
ATOM     76  C   UNL A   1      49.177  24.219  33.999  1.00  0.00     0.148 A 
ATOM     77  C   UNL A   1      51.679  25.354  33.408  1.00  0.00     0.002 A 
ATOM     78  C   UNL A   1      50.330  23.447  34.071  1.00  0.00     0.091 A 
ATOM     79  F   UNL A   1      47.964  23.706  34.247  1.00  0.00    -0.205 F 
ATOM     80  C   UNL A   1      51.581  24.012  33.768  1.00  0.00     0.022 A 
BRANCH  78  81
ATOM     81  S   UNL A   1      50.317  21.733  34.605  1.00  0.00     0.127 S 
ATOM     82  O   UNL A   1      49.828  21.055  33.404  1.00  0.00    -0.237 OA
ATOM     83  O   UNL A   1      51.729  21.498  34.905  1.00  0.00    -0.237 OA
ATOM     84  O   UNL A   1      49.426  21.673  35.755  1.00  0.00    -0.744 OA
ENDBRANCH  78  81
ENDBRANCH  60  74
BRANCH  61  85
ATOM     85  C   UNL A   1      40.793  30.824  34.053  1.00  0.00     0.023 A 
ATOM     86  C   UNL A   1      39.651  30.102  34.452  1.00  0.00     0.012 A 
ATOM     87  C   UNL A   1      40.663  32.190  33.739  1.00  0.00     0.148 A 
ATOM     88  C   UNL A   1      38.398  30.716  34.488  1.00  0.00     0.002 A 
ATOM     89  C   UNL A   1      39.424  32.811  33.837  1.00  0.00     0.091 A 
ATOM     90  F   UNL A   1      41.755  32.858  33.338  1.00  0.00    -0.205 F 
ATOM     91  C   UNL A   1      38.285  32.071  34.190  1.00  0.00     0.022 A 
BRANCH  89  92
ATOM     92  S   UNL A   1      39.215  34.579  33.594  1.00  0.00     0.127 S 
ATOM     93  O   UNL A   1      37.831  34.777  34.013  1.00  0.00    -0.237 OA
ATOM     94  O   UNL A   1      40.220  35.129  34.504  1.00  0.00    -0.237 OA
ATOM     95  O   UNL A   1      39.493  34.816  32.184  1.00  0.00    -0.744 OA
ENDBRANCH  89  92
ENDBRANCH  61  85
BRANCH  73  96
ATOM     96  C   UNL A   1      46.068  29.816  38.514  1.00  0.00     0.023 A 
ATOM     97  C   UNL A   1      46.593  31.100  38.765  1.00  0.00     0.012 A 
ATOM     98  C   UNL A   1      45.704  28.995  39.599  1.00  0.00     0.148 A 
ATOM     99  C   UNL A   1      46.787  31.543  40.074  1.00  0.00     0.002 A 
ATOM    100  C   UNL A   1      45.849  29.463  40.900  1.00  0.00     0.091 A 
ATOM    101  F   UNL A   1      45.217  27.772  39.340  1.00  0.00    -0.205 F 
ATOM    102  C   UNL A   1      46.404  30.731  41.139  1.00  0.00     0.022 A 
BRANCH 100 103
ATOM    103  S   UNL A   1      45.293  28.531  42.331  1.00  0.00     0.127 S 
ATOM    104  O   UNL A   1      44.979  29.599  43.278  1.00  0.00    -0.237 OA
ATOM    105  O   UNL A   1      44.126  27.821  41.803  1.00  0.00    -0.237 OA
ATOM    106  O   UNL A   1      46.406  27.671  42.710  1.00  0.00    -0.744 OA
ENDBRANCH 100 103
ENDBRANCH  73  96
ENDBRANCH  47  48
ENDBRANCH  40  42
ENDBRANCH  39  40
ENDBRANCH  38  39
ENDBRANCH  37  38
ENDBRANCH  36  37
ENDBRANCH  35  36
ENDBRANCH  34  35
ENDBRANCH  33  34
ENDBRANCH   1  33
TORSDOF 28
ENDMDL
MODEL 3
REMARK VINA RESULT:      -8.3      4.488      8.261
REMARK SMILES O=C(/C=C/c1ccc(C(=O)NC2CC2)cc1)NC1(C(=O)OCCOCCOCCOCCOC(=O)c2ccc(-c3c4nc(c(-c5cccc(S(=O)(=O)[O-])c5F)c5ccc([nH]5)c(-c5cccc(S(=O)(=O)[O-])c5F)c5nc(c(-c6cccc(S(=O)(=O)[O-])c6F)c6ccc3[nH]6)C=C5)C=C4)cc2)CCCC1
REMARK SMILES IDX 26 1 25 2 24 3 23 4 22 5 21 6 19 7 20 8 18 9 99 10 102 11
REMARK SMILES IDX 100 12 101 13 17 14 1 15 2 16 3 18 4 19 5 20 6 21 16 22 7 23
REMARK SMILES IDX 15 24 8 25 9 26 10 27 11 28 12 30 13 31 14 32 27 33 28 34
REMARK SMILES IDX 29 35 30 36 31 37 32 38 33 39 34 40 35 41 36 42 37 43 98 44
REMARK SMILES IDX 38 45 97 46 39 47 40 48 41 49 91 50 42 51 96 52 90 53 92 54
REMARK SMILES IDX 43 55 95 56 89 57 88 58 44 60 76 61 56 62 75 63 57 64 60 65
REMARK SMILES IDX 74 66 93 67 58 68 59 69 73 71 94 72 61 73 45 74 46 75 54 76
REMARK SMILES IDX 47 77 49 78 55 79 48 80 50 81 51 82 52 83 53 84 77 85 78 86
REMARK SMILES IDX 86 87 79 88 81 89 87 90 80 91 82 92 83 93 84 94 85 95 62 96
REMARK SMILES IDX 63 97 71 98 64 99 66 100 72 101 65 102 67 103 68 104 69 105
REMARK SMILES IDX 70 106
REMARK H PARENT 17 17 11 29 92 59 60 70
REMARK Flexibility Score: inf
ROOT
ATOM      1  C   UNL A   1      41.183  28.283  32.405  1.00  0.00     0.188 C 
ENDROOT
BRANCH   1   2
ATOM      2  C   UNL A   1      39.981  28.466  33.342  1.00  0.00     0.188 C 
BRANCH   2   3
ATOM      3  O   UNL A   1      38.765  27.995  32.801  1.00  0.00    -0.376 OA
BRANCH   3   4
ATOM      4  C   UNL A   1      37.646  28.865  32.791  1.00  0.00     0.202 C 
BRANCH   4   5
ATOM      5  C   UNL A   1      36.948  29.315  31.489  1.00  0.00     0.261 C 
BRANCH   5   6
ATOM      6  O   UNL A   1      36.387  30.634  31.493  1.00  0.00    -0.461 OA
BRANCH   6   7
ATOM      7  C   UNL A   1      36.217  31.238  30.291  1.00  0.00     0.331 C 
ATOM      8  O   UNL A   1      35.121  31.488  29.799  1.00  0.00    -0.249 OA
BRANCH   7   9
ATOM      9  C   UNL A   1      37.581  31.640  29.620  1.00  0.00     0.138 C 
ATOM     10  C   UNL A   1      38.342  32.465  30.681  1.00  0.00     0.040 C 
ATOM     11  C   UNL A   1      37.496  32.717  28.510  1.00  0.00     0.040 C 
ATOM     12  C   UNL A   1      37.639  33.827  30.653  1.00  0.00     0.003 C 
ATOM     13  C   UNL A   1      37.239  34.047  29.201  1.00  0.00     0.003 C 
BRANCH   9  14
ATOM     14  N   UNL A   1      38.400  30.497  29.117  1.00  0.00    -0.337 N 
ATOM     15  O   UNL A   1      40.496  31.145  29.843  1.00  0.00    -0.270 OA
ATOM     16  C   UNL A   1      39.751  30.356  29.282  1.00  0.00     0.244 C 
ATOM     17  H   UNL A   1      37.928  29.787  28.626  1.00  0.00     0.164 HD
BRANCH  16  18
ATOM     18  C   UNL A   1      40.343  29.062  28.860  1.00  0.00     0.072 C 
ATOM     19  C   UNL A   1      39.660  27.996  28.422  1.00  0.00     0.014 C 
BRANCH  19  20
ATOM     20  C   UNL A   1      40.328  26.847  27.784  1.00  0.00    -0.025 A 
ATOM     21  C   UNL A   1      40.704  26.949  26.442  1.00  0.00     0.009 A 
ATOM     22  C   UNL A   1      40.638  25.665  28.465  1.00  0.00     0.009 A 
ATOM     23  C   UNL A   1      41.383  25.901  25.806  1.00  0.00     0.014 A 
ATOM     24  C   UNL A   1      41.337  24.625  27.831  1.00  0.00     0.014 A 
ATOM     25  C   UNL A   1      41.704  24.714  26.487  1.00  0.00     0.039 A 
BRANCH  25  26
ATOM     26  C   UNL A   1      42.427  23.660  25.703  1.00  0.00     0.251 C 
ATOM     27  O   UNL A   1      43.496  23.948  25.158  1.00  0.00    -0.269 OA
ATOM     28  N   UNL A   1      41.964  22.374  25.526  1.00  0.00    -0.349 N 
ATOM     29  H   UNL A   1      42.541  21.808  24.963  1.00  0.00     0.164 HD
BRANCH  28  30
ATOM     30  C   UNL A   1      40.801  21.721  26.013  1.00  0.00     0.082 C 
ATOM     31  C   UNL A   1      40.809  20.249  26.329  1.00  0.00     0.027 C 
ATOM     32  C   UNL A   1      40.724  21.250  27.440  1.00  0.00     0.027 C 
ENDBRANCH  28  30
ENDBRANCH  25  26
ENDBRANCH  19  20
ENDBRANCH  16  18
ENDBRANCH   9  14
ENDBRANCH   7   9
ENDBRANCH   6   7
ENDBRANCH   5   6
ENDBRANCH   4   5
ENDBRANCH   3   4
ENDBRANCH   2   3
ENDBRANCH   1   2
BRANCH   1  33
ATOM     33  O   UNL A   1      42.472  28.173  32.990  1.00  0.00    -0.377 OA
BRANCH  33  34
ATOM     34  C   UNL A   1      43.484  27.413  32.332  1.00  0.00     0.188 C 
BRANCH  34  35
ATOM     35  C   UNL A   1      44.438  26.503  33.139  1.00  0.00     0.188 C 
BRANCH  35  36
ATOM     36  O   UNL A   1      45.211  25.602  32.365  1.00  0.00    -0.376 OA
BRANCH  36  37
ATOM     37  C   UNL A   1      44.527  24.633  31.588  1.00  0.00     0.202 C 
BRANCH  37  38
ATOM     38  C   UNL A   1      44.638  24.709  30.058  1.00  0.00     0.261 C 
BRANCH  38  39
ATOM     39  O   UNL A   1      44.001  25.827  29.418  1.00  0.00    -0.460 OA
BRANCH  39  40
ATOM     40  C   UNL A   1      44.639  26.426  28.382  1.00  0.00     0.338 C 
ATOM     41  O   UNL A   1      44.892  25.949  27.303  1.00  0.00    -0.246 OA
BRANCH  40  42
ATOM     42  C   UNL A   1      44.775  27.861  28.734  1.00  0.00     0.060 A 
ATOM     43  C   UNL A   1      45.841  28.264  29.552  1.00  0.00     0.016 A 
ATOM     44  C   UNL A   1      43.877  28.802  28.230  1.00  0.00     0.016 A 
ATOM     45  C   UNL A   1      46.004  29.610  29.876  1.00  0.00     0.010 A 
ATOM     46  C   UNL A   1      44.023  30.146  28.582  1.00  0.00     0.010 A 
ATOM     47  C   UNL A   1      45.073  30.553  29.426  1.00  0.00    -0.014 A 
BRANCH  47  48
ATOM     48  C   UNL A   1      45.095  31.930  29.973  1.00  0.00     0.031 A 
ATOM     49  C   UNL A   1      44.193  32.252  31.133  1.00  0.00     0.074 A 
ATOM     50  C   UNL A   1      45.883  32.882  29.441  1.00  0.00     0.049 A 
ATOM     51  N   UNL A   1      43.993  33.396  31.732  1.00  0.00    -0.248 NA
ATOM     52  C   UNL A   1      43.413  31.134  31.693  1.00  0.00     0.031 C 
ATOM     53  C   UNL A   1      46.805  32.691  28.322  1.00  0.00     0.029 A 
ATOM     54  N   UNL A   1      46.003  34.214  29.754  1.00  0.00    -0.354 N 
ATOM     55  C   UNL A   1      43.036  33.147  32.708  1.00  0.00     0.074 A 
ATOM     56  C   UNL A   1      42.701  31.743  32.629  1.00  0.00     0.031 C 
ATOM     57  C   UNL A   1      47.361  33.875  28.011  1.00  0.00     0.029 A 
ATOM     58  C   UNL A   1      46.812  34.910  28.886  1.00  0.00     0.049 A 
ATOM     59  H   UNL A   1      45.553  34.631  30.524  1.00  0.00     0.167 HD
ATOM     60  C   UNL A   1      42.486  34.013  33.590  1.00  0.00     0.034 A 
ATOM     61  C   UNL A   1      47.047  36.235  28.785  1.00  0.00     0.034 A 
ATOM     62  C   UNL A   1      42.835  35.404  33.682  1.00  0.00     0.049 A 
ATOM     63  C   UNL A   1      46.397  37.178  29.767  1.00  0.00     0.074 A 
ATOM     64  C   UNL A   1      42.384  36.341  34.595  1.00  0.00     0.029 A 
ATOM     65  N   UNL A   1      43.693  36.064  32.819  1.00  0.00    -0.354 N 
ATOM     66  N   UNL A   1      45.606  36.906  30.776  1.00  0.00    -0.248 NA
ATOM     67  C   UNL A   1      46.695  38.611  29.613  1.00  0.00     0.031 C 
ATOM     68  C   UNL A   1      42.932  37.579  34.254  1.00  0.00     0.029 A 
ATOM     69  C   UNL A   1      43.761  37.404  33.157  1.00  0.00     0.049 A 
ATOM     70  H   UNL A   1      44.181  35.643  32.075  1.00  0.00     0.167 HD
ATOM     71  C   UNL A   1      45.338  38.124  31.393  1.00  0.00     0.074 A 
ATOM     72  C   UNL A   1      46.077  39.133  30.664  1.00  0.00     0.031 C 
ATOM     73  C   UNL A   1      44.539  38.390  32.456  1.00  0.00     0.034 A 
BRANCH  60  74
ATOM     74  C   UNL A   1      41.443  33.492  34.539  1.00  0.00     0.023 A 
ATOM     75  C   UNL A   1      41.824  32.974  35.792  1.00  0.00     0.012 A 
ATOM     76  C   UNL A   1      40.075  33.619  34.226  1.00  0.00     0.148 A 
ATOM     77  C   UNL A   1      40.858  32.578  36.716  1.00  0.00     0.002 A 
ATOM     78  C   UNL A   1      39.118  33.266  35.168  1.00  0.00     0.091 A 
ATOM     79  F   UNL A   1      39.739  34.093  33.018  1.00  0.00    -0.205 F 
ATOM     80  C   UNL A   1      39.508  32.738  36.411  1.00  0.00     0.022 A 
BRANCH  78  81
ATOM     81  S   UNL A   1      37.359  33.511  34.904  1.00  0.00     0.127 S 
ATOM     82  O   UNL A   1      37.063  32.474  33.916  1.00  0.00    -0.237 OA
ATOM     83  O   UNL A   1      36.813  33.259  36.236  1.00  0.00    -0.237 OA
ATOM     84  O   UNL A   1      37.208  34.879  34.427  1.00  0.00    -0.744 OA
ENDBRANCH  78  81
ENDBRANCH  60  74
BRANCH  61  85
ATOM     85  C   UNL A   1      47.923  36.767  27.699  1.00  0.00     0.023 A 
ATOM     86  C   UNL A   1      47.398  36.969  26.408  1.00  0.00     0.012 A 
ATOM     87  C   UNL A   1      49.284  37.038  27.935  1.00  0.00     0.148 A 
ATOM     88  C   UNL A   1      48.223  37.383  25.362  1.00  0.00     0.002 A 
ATOM     89  C   UNL A   1      50.087  37.511  26.904  1.00  0.00     0.091 A 
ATOM     90  F   UNL A   1      49.773  36.819  29.165  1.00  0.00    -0.205 F 
ATOM     91  C   UNL A   1      49.565  37.663  25.611  1.00  0.00     0.022 A 
BRANCH  89  92
ATOM     92  S   UNL A   1      51.790  38.016  27.170  1.00  0.00     0.127 S 
ATOM     93  O   UNL A   1      52.314  38.031  25.807  1.00  0.00    -0.237 OA
ATOM     94  O   UNL A   1      51.622  39.334  27.782  1.00  0.00    -0.237 OA
ATOM     95  O   UNL A   1      52.361  37.014  28.059  1.00  0.00    -0.744 OA
ENDBRANCH  89  92
ENDBRANCH  61  85
BRANCH  73  96
ATOM     96  C   UNL A   1      44.443  39.819  32.927  1.00  0.00     0.023 A 
ATOM     97  C   UNL A   1      45.231  40.258  34.010  1.00  0.00     0.012 A 
ATOM     98  C   UNL A   1      43.629  40.746  32.245  1.00  0.00     0.148 A 
ATOM     99  C   UNL A   1      45.180  41.587  34.431  1.00  0.00     0.002 A 
ATOM    100  C   UNL A   1      43.624  42.080  32.635  1.00  0.00     0.091 A 
ATOM    101  F   UNL A   1      42.879  40.307  31.223  1.00  0.00    -0.205 F 
ATOM    102  C   UNL A   1      44.388  42.499  33.736  1.00  0.00     0.022 A 
BRANCH 100 103
ATOM    103  S   UNL A   1      42.714  43.345  31.742  1.00  0.00     0.127 S 
ATOM    104  O   UNL A   1      41.734  42.544  31.009  1.00  0.00    -0.237 OA
ATOM    105  O   UNL A   1      42.154  44.148  32.830  1.00  0.00    -0.237 OA
ATOM    106  O   UNL A   1      43.692  44.039  30.916  1.00  0.00    -0.744 OA
ENDBRANCH 100 103
ENDBRANCH  73  96
ENDBRANCH  47  48
ENDBRANCH  40  42
ENDBRANCH  39  40
ENDBRANCH  38  39
ENDBRANCH  37  38
ENDBRANCH  36  37
ENDBRANCH  35  36
ENDBRANCH  34  35
ENDBRANCH  33  34
ENDBRANCH   1  33
TORSDOF 28
ENDMDL
