MODEL 1
REMARK VINA RESULT:      -6.9      0.000      0.000
REMARK SMILES COc1cc(OC)cc(-c2cc3nc(C)c(CCC(=O)OCCOCCOCCOCCOC(=O)c4ccc(-c5c6nc(c(-c7cccc(S(=O)(=O)[O-])c7F)c7ccc([nH]7)c(-c7cccc(S(=O)(=O)[O-])c7F)c7nc(c(-c8cccc(S(=O)(=O)[O-])c8F)c8ccc5[nH]8)C=C7)C=C6)cc4)c(C)n3n2)c1
REMARK SMILES IDX 26 1 25 2 24 3 23 4 22 5 21 6 19 7 20 8 18 9 17 10 16 11
REMARK SMILES IDX 10 12 11 13 102 14 12 15 101 16 13 17 99 18 14 19 100 20
REMARK SMILES IDX 15 21 9 22 3 23 4 24 103 25 5 26 8 27 2 28 1 29 6 30 7 31
REMARK SMILES IDX 27 32 28 33 29 34 30 35 31 36 32 37 33 38 34 39 35 40 36 41
REMARK SMILES IDX 37 42 98 43 38 44 97 45 39 46 40 47 41 48 91 49 42 50 96 51
REMARK SMILES IDX 90 52 92 53 43 54 95 55 89 56 88 57 44 59 76 60 56 61 75 62
REMARK SMILES IDX 57 63 60 64 74 65 93 66 58 67 59 68 73 70 94 71 61 72 45 73
REMARK SMILES IDX 46 74 54 75 47 76 49 77 55 78 48 79 50 80 51 81 52 82 53 83
REMARK SMILES IDX 77 84 78 85 86 86 79 87 81 88 87 89 80 90 82 91 83 92 84 93
REMARK SMILES IDX 85 94 62 95 63 96 71 97 64 98 66 99 72 100 65 101 67 102
REMARK SMILES IDX 68 103 69 104 70 105
REMARK H PARENT 92 58 60 69
REMARK Flexibility Score: inf
ROOT
ATOM      1  C   UNL A   1      52.637  28.229  37.325  1.00  0.00     0.188 C 
ENDROOT
BRANCH   1   2
ATOM      2  C   UNL A   1      51.231  27.906  37.821  1.00  0.00     0.188 C 
BRANCH   2   3
ATOM      3  O   UNL A   1      50.233  28.915  37.732  1.00  0.00    -0.376 OA
BRANCH   3   4
ATOM      4  C   UNL A   1      50.263  30.068  38.566  1.00  0.00     0.202 C 
BRANCH   4   5
ATOM      5  C   UNL A   1      49.021  30.963  38.621  1.00  0.00     0.261 C 
BRANCH   5   6
ATOM      6  O   UNL A   1      47.873  30.313  38.024  1.00  0.00    -0.463 OA
BRANCH   6   7
ATOM      7  C   UNL A   1      46.811  30.009  38.805  1.00  0.00     0.306 C 
ATOM      8  O   UNL A   1      46.307  30.776  39.616  1.00  0.00    -0.252 OA
BRANCH   7   9
ATOM      9  C   UNL A   1      46.353  28.570  38.614  1.00  0.00     0.127 C 
BRANCH   9  10
ATOM     10  C   UNL A   1      46.477  27.612  39.818  1.00  0.00     0.051 C 
BRANCH  10  11
ATOM     11  C   UNL A   1      46.325  26.126  39.527  1.00  0.00    -0.005 A 
ATOM     12  C   UNL A   1      47.322  21.755  39.231  1.00  0.00     0.095 A 
ATOM     13  C   UNL A   1      45.977  22.023  38.875  1.00  0.00     0.080 A 
ATOM     14  N   UNL A   1      47.936  22.871  39.618  1.00  0.00    -0.166 NA
ATOM     15  C   UNL A   1      45.804  23.384  39.063  1.00  0.00     0.156 A 
ATOM     16  N   UNL A   1      47.050  23.857  39.413  1.00  0.00    -0.219 N 
ATOM     17  N   UNL A   1      44.761  24.244  38.880  1.00  0.00    -0.234 NA
ATOM     18  C   UNL A   1      47.319  25.212  39.565  1.00  0.00     0.046 A 
ATOM     19  C   UNL A   1      44.999  25.518  39.049  1.00  0.00     0.045 A 
ATOM     20  C   UNL A   1      48.775  25.469  39.715  1.00  0.00     0.067 C 
ATOM     21  C   UNL A   1      43.864  26.452  38.672  1.00  0.00     0.067 C 
BRANCH  12  22
ATOM     22  C   UNL A   1      48.124  20.539  39.236  1.00  0.00     0.009 A 
ATOM     23  C   UNL A   1      48.712  18.491  40.411  1.00  0.00     0.123 A 
ATOM     24  C   UNL A   1      49.845  18.387  39.607  1.00  0.00     0.092 A 
ATOM     25  C   UNL A   1      47.861  19.575  40.229  1.00  0.00     0.057 A 
ATOM     26  C   UNL A   1      50.128  19.346  38.625  1.00  0.00     0.123 A 
ATOM     27  C   UNL A   1      49.253  20.416  38.423  1.00  0.00     0.057 A 
BRANCH  23  28
ATOM     28  O   UNL A   1      48.570  17.515  41.361  1.00  0.00    -0.497 OA
ATOM     29  C   UNL A   1      47.274  17.378  41.934  1.00  0.00     0.278 C 
ENDBRANCH  23  28
BRANCH  26  30
ATOM     30  O   UNL A   1      51.291  19.131  37.938  1.00  0.00    -0.497 OA
ATOM     31  C   UNL A   1      51.557  20.023  36.859  1.00  0.00     0.278 C 
ENDBRANCH  26  30
ENDBRANCH  12  22
ENDBRANCH  10  11
ENDBRANCH   9  10
ENDBRANCH   7   9
ENDBRANCH   6   7
ENDBRANCH   5   6
ENDBRANCH   4   5
ENDBRANCH   3   4
ENDBRANCH   2   3
ENDBRANCH   1   2
BRANCH   1  32
ATOM     32  O   UNL A   1      53.621  27.216  37.235  1.00  0.00    -0.377 OA
BRANCH  32  33
ATOM     33  C   UNL A   1      53.236  25.881  36.947  1.00  0.00     0.188 C 
BRANCH  33  34
ATOM     34  C   UNL A   1      52.830  25.643  35.484  1.00  0.00     0.188 C 
BRANCH  34  35
ATOM     35  O   UNL A   1      51.582  25.022  35.181  1.00  0.00    -0.376 OA
BRANCH  35  36
ATOM     36  C   UNL A   1      51.382  23.671  35.567  1.00  0.00     0.202 C 
BRANCH  36  37
ATOM     37  C   UNL A   1      50.010  23.421  36.199  1.00  0.00     0.261 C 
BRANCH  37  38
ATOM     38  O   UNL A   1      49.023  24.380  35.835  1.00  0.00    -0.460 OA
BRANCH  38  39
ATOM     39  C   UNL A   1      47.768  23.877  35.755  1.00  0.00     0.338 C 
ATOM     40  O   UNL A   1      47.417  22.722  35.919  1.00  0.00    -0.246 OA
BRANCH  39  41
ATOM     41  C   UNL A   1      46.860  24.908  35.233  1.00  0.00     0.060 A 
ATOM     42  C   UNL A   1      45.502  24.582  35.259  1.00  0.00     0.016 A 
ATOM     43  C   UNL A   1      47.358  25.955  34.442  1.00  0.00     0.016 A 
ATOM     44  C   UNL A   1      44.687  25.118  34.290  1.00  0.00     0.010 A 
ATOM     45  C   UNL A   1      46.541  26.489  33.471  1.00  0.00     0.010 A 
ATOM     46  C   UNL A   1      45.251  25.978  33.343  1.00  0.00    -0.014 A 
BRANCH  46  47
ATOM     47  C   UNL A   1      44.453  26.253  32.166  1.00  0.00     0.031 A 
ATOM     48  C   UNL A   1      44.652  25.312  31.054  1.00  0.00     0.074 A 
ATOM     49  C   UNL A   1      43.573  27.271  32.122  1.00  0.00     0.049 A 
ATOM     50  N   UNL A   1      45.171  25.548  29.896  1.00  0.00    -0.248 NA
ATOM     51  C   UNL A   1      44.347  23.900  31.317  1.00  0.00     0.031 C 
ATOM     52  C   UNL A   1      43.074  28.049  33.262  1.00  0.00     0.029 A 
ATOM     53  N   UNL A   1      42.835  27.730  31.071  1.00  0.00    -0.354 N 
ATOM     54  C   UNL A   1      45.030  24.355  29.195  1.00  0.00     0.074 A 
ATOM     55  C   UNL A   1      44.719  23.341  30.168  1.00  0.00     0.031 C 
ATOM     56  C   UNL A   1      41.953  28.703  32.883  1.00  0.00     0.029 A 
ATOM     57  C   UNL A   1      41.747  28.494  31.460  1.00  0.00     0.049 A 
ATOM     58  H   UNL A   1      43.055  27.538  30.130  1.00  0.00     0.167 HD
ATOM     59  C   UNL A   1      44.881  24.352  27.845  1.00  0.00     0.034 A 
ATOM     60  C   UNL A   1      40.700  28.864  30.688  1.00  0.00     0.034 A 
ATOM     61  C   UNL A   1      45.296  25.600  27.257  1.00  0.00     0.049 A 
ATOM     62  C   UNL A   1      41.104  28.762  29.268  1.00  0.00     0.074 A 
ATOM     63  C   UNL A   1      46.480  26.284  27.095  1.00  0.00     0.029 A 
ATOM     64  N   UNL A   1      44.281  26.477  26.978  1.00  0.00    -0.354 N 
ATOM     65  N   UNL A   1      41.979  29.542  28.695  1.00  0.00    -0.248 NA
ATOM     66  C   UNL A   1      40.724  27.583  28.499  1.00  0.00     0.031 C 
ATOM     67  C   UNL A   1      46.125  27.656  26.944  1.00  0.00     0.029 A 
ATOM     68  C   UNL A   1      44.737  27.765  27.040  1.00  0.00     0.049 A 
ATOM     69  H   UNL A   1      43.355  26.217  26.763  1.00  0.00     0.167 HD
ATOM     70  C   UNL A   1      42.558  28.752  27.716  1.00  0.00     0.074 A 
ATOM     71  C   UNL A   1      41.628  27.652  27.518  1.00  0.00     0.031 C 
ATOM     72  C   UNL A   1      43.880  28.882  27.396  1.00  0.00     0.034 A 
BRANCH  59  73
ATOM     73  C   UNL A   1      43.966  23.408  27.088  1.00  0.00     0.023 A 
ATOM     74  C   UNL A   1      42.581  23.517  27.354  1.00  0.00     0.012 A 
ATOM     75  C   UNL A   1      44.385  22.258  26.381  1.00  0.00     0.148 A 
ATOM     76  C   UNL A   1      41.681  22.506  27.003  1.00  0.00     0.002 A 
ATOM     77  C   UNL A   1      43.475  21.292  25.964  1.00  0.00     0.091 A 
ATOM     78  F   UNL A   1      45.684  21.996  26.216  1.00  0.00    -0.205 F 
ATOM     79  C   UNL A   1      42.127  21.393  26.302  1.00  0.00     0.022 A 
BRANCH  77  80
ATOM     80  S   UNL A   1      44.016  19.865  25.014  1.00  0.00     0.127 S 
ATOM     81  O   UNL A   1      42.774  19.112  24.884  1.00  0.00    -0.237 OA
ATOM     82  O   UNL A   1      44.499  20.486  23.779  1.00  0.00    -0.237 OA
ATOM     83  O   UNL A   1      45.068  19.253  25.818  1.00  0.00    -0.744 OA
ENDBRANCH  77  80
ENDBRANCH  59  73
BRANCH  60  84
ATOM     84  C   UNL A   1      39.310  29.154  31.098  1.00  0.00     0.023 A 
ATOM     85  C   UNL A   1      38.682  28.343  32.062  1.00  0.00     0.012 A 
ATOM     86  C   UNL A   1      38.670  30.354  30.710  1.00  0.00     0.148 A 
ATOM     87  C   UNL A   1      37.462  28.721  32.633  1.00  0.00     0.002 A 
ATOM     88  C   UNL A   1      37.447  30.715  31.265  1.00  0.00     0.091 A 
ATOM     89  F   UNL A   1      39.300  31.177  29.862  1.00  0.00    -0.205 F 
ATOM     90  C   UNL A   1      36.846  29.906  32.236  1.00  0.00     0.022 A 
BRANCH  88  91
ATOM     91  S   UNL A   1      36.589  32.222  30.792  1.00  0.00     0.127 S 
ATOM     92  O   UNL A   1      37.460  33.257  31.351  1.00  0.00    -0.237 OA
ATOM     93  O   UNL A   1      36.601  32.134  29.335  1.00  0.00    -0.237 OA
ATOM     94  O   UNL A   1      35.276  32.145  31.422  1.00  0.00    -0.744 OA
ENDBRANCH  88  91
ENDBRANCH  60  84
BRANCH  72  95
ATOM     95  C   UNL A   1      44.557  30.189  27.715  1.00  0.00     0.023 A 
ATOM     96  C   UNL A   1      45.531  30.293  28.727  1.00  0.00     0.012 A 
ATOM     97  C   UNL A   1      44.304  31.304  26.895  1.00  0.00     0.148 A 
ATOM     98  C   UNL A   1      46.216  31.492  28.938  1.00  0.00     0.002 A 
ATOM     99  C   UNL A   1      45.022  32.481  27.078  1.00  0.00     0.091 A 
ATOM    100  F   UNL A   1      43.375  31.192  25.934  1.00  0.00    -0.205 F 
ATOM    101  C   UNL A   1      45.971  32.582  28.106  1.00  0.00     0.022 A 
BRANCH  99 102
ATOM    102  S   UNL A   1      44.841  33.869  25.952  1.00  0.00     0.127 S 
ATOM    103  O   UNL A   1      46.121  34.559  26.102  1.00  0.00    -0.237 OA
ATOM    104  O   UNL A   1      44.651  33.211  24.658  1.00  0.00    -0.237 OA
ATOM    105  O   UNL A   1      43.668  34.599  26.419  1.00  0.00    -0.744 OA
ENDBRANCH  99 102
ENDBRANCH  72  95
ENDBRANCH  46  47
ENDBRANCH  39  41
ENDBRANCH  38  39
ENDBRANCH  37  38
ENDBRANCH  36  37
ENDBRANCH  35  36
ENDBRANCH  34  35
ENDBRANCH  33  34
ENDBRANCH  32  33
ENDBRANCH   1  32
TORSDOF 28
ENDMDL
MODEL 2
REMARK VINA RESULT:      -6.7      4.536     11.050
REMARK SMILES COc1cc(OC)cc(-c2cc3nc(C)c(CCC(=O)OCCOCCOCCOCCOC(=O)c4ccc(-c5c6nc(c(-c7cccc(S(=O)(=O)[O-])c7F)c7ccc([nH]7)c(-c7cccc(S(=O)(=O)[O-])c7F)c7nc(c(-c8cccc(S(=O)(=O)[O-])c8F)c8ccc5[nH]8)C=C7)C=C6)cc4)c(C)n3n2)c1
REMARK SMILES IDX 26 1 25 2 24 3 23 4 22 5 21 6 19 7 20 8 18 9 17 10 16 11
REMARK SMILES IDX 10 12 11 13 102 14 12 15 101 16 13 17 99 18 14 19 100 20
REMARK SMILES IDX 15 21 9 22 3 23 4 24 103 25 5 26 8 27 2 28 1 29 6 30 7 31
REMARK SMILES IDX 27 32 28 33 29 34 30 35 31 36 32 37 33 38 34 39 35 40 36 41
REMARK SMILES IDX 37 42 98 43 38 44 97 45 39 46 40 47 41 48 91 49 42 50 96 51
REMARK SMILES IDX 90 52 92 53 43 54 95 55 89 56 88 57 44 59 76 60 56 61 75 62
REMARK SMILES IDX 57 63 60 64 74 65 93 66 58 67 59 68 73 70 94 71 61 72 45 73
REMARK SMILES IDX 46 74 54 75 47 76 49 77 55 78 48 79 50 80 51 81 52 82 53 83
REMARK SMILES IDX 77 84 78 85 86 86 79 87 81 88 87 89 80 90 82 91 83 92 84 93
REMARK SMILES IDX 85 94 62 95 63 96 71 97 64 98 66 99 72 100 65 101 67 102
REMARK SMILES IDX 68 103 69 104 70 105
REMARK H PARENT 92 58 60 69
REMARK Flexibility Score: inf
ROOT
ATOM      1  C   UNL A   1      49.511  22.714  34.627  1.00  0.00     0.188 C 
ENDROOT
BRANCH   1   2
ATOM      2  C   UNL A   1      50.824  22.618  33.857  1.00  0.00     0.188 C 
BRANCH   2   3
ATOM      3  O   UNL A   1      51.351  23.798  33.265  1.00  0.00    -0.376 OA
BRANCH   3   4
ATOM      4  C   UNL A   1      51.026  24.171  31.931  1.00  0.00     0.202 C 
BRANCH   4   5
ATOM      5  C   UNL A   1      51.158  25.644  31.531  1.00  0.00     0.261 C 
BRANCH   5   6
ATOM      6  O   UNL A   1      50.128  26.032  30.590  1.00  0.00    -0.463 OA
BRANCH   6   7
ATOM      7  C   UNL A   1      50.466  26.257  29.300  1.00  0.00     0.306 C 
ATOM      8  O   UNL A   1      51.613  26.222  28.871  1.00  0.00    -0.252 OA
BRANCH   7   9
ATOM      9  C   UNL A   1      49.262  26.633  28.449  1.00  0.00     0.127 C 
BRANCH   9  10
ATOM     10  C   UNL A   1      49.068  25.888  27.111  1.00  0.00     0.051 C 
BRANCH  10  11
ATOM     11  C   UNL A   1      47.637  25.728  26.619  1.00  0.00    -0.005 A 
ATOM     12  C   UNL A   1      43.164  25.310  26.699  1.00  0.00     0.095 A 
ATOM     13  C   UNL A   1      43.670  25.405  25.379  1.00  0.00     0.080 A 
ATOM     14  N   UNL A   1      44.148  25.424  27.588  1.00  0.00    -0.166 NA
ATOM     15  C   UNL A   1      45.037  25.581  25.514  1.00  0.00     0.156 A 
ATOM     16  N   UNL A   1      45.278  25.481  26.867  1.00  0.00    -0.219 N 
ATOM     17  N   UNL A   1      46.069  25.715  24.632  1.00  0.00    -0.234 NA
ATOM     18  C   UNL A   1      46.562  25.477  27.399  1.00  0.00     0.046 A 
ATOM     19  C   UNL A   1      47.279  25.741  25.127  1.00  0.00     0.045 A 
ATOM     20  C   UNL A   1      46.556  25.127  28.843  1.00  0.00     0.067 C 
ATOM     21  C   UNL A   1      48.403  25.719  24.109  1.00  0.00     0.067 C 
BRANCH  12  22
ATOM     22  C   UNL A   1      41.826  25.103  27.236  1.00  0.00     0.009 A 
ATOM     23  C   UNL A   1      39.670  24.005  26.971  1.00  0.00     0.123 A 
ATOM     24  C   UNL A   1      39.131  24.902  27.890  1.00  0.00     0.092 A 
ATOM     25  C   UNL A   1      41.016  24.117  26.638  1.00  0.00     0.057 A 
ATOM     26  C   UNL A   1      39.920  25.898  28.481  1.00  0.00     0.123 A 
ATOM     27  C   UNL A   1      41.279  25.985  28.170  1.00  0.00     0.057 A 
BRANCH  23  28
ATOM     28  O   UNL A   1      38.788  23.108  26.432  1.00  0.00    -0.497 OA
ATOM     29  C   UNL A   1      39.311  21.824  26.111  1.00  0.00     0.278 C 
ENDBRANCH  23  28
BRANCH  26  30
ATOM     30  O   UNL A   1      39.246  26.725  29.336  1.00  0.00    -0.497 OA
ATOM     31  C   UNL A   1      38.921  28.019  28.834  1.00  0.00     0.278 C 
ENDBRANCH  26  30
ENDBRANCH  12  22
ENDBRANCH  10  11
ENDBRANCH   9  10
ENDBRANCH   7   9
ENDBRANCH   6   7
ENDBRANCH   5   6
ENDBRANCH   4   5
ENDBRANCH   3   4
ENDBRANCH   2   3
ENDBRANCH   1   2
BRANCH   1  32
ATOM     32  O   UNL A   1      48.904  21.556  35.168  1.00  0.00    -0.377 OA
BRANCH  32  33
ATOM     33  C   UNL A   1      47.580  21.624  35.675  1.00  0.00     0.188 C 
BRANCH  33  34
ATOM     34  C   UNL A   1      46.748  22.786  35.111  1.00  0.00     0.188 C 
BRANCH  34  35
ATOM     35  O   UNL A   1      46.108  23.702  35.997  1.00  0.00    -0.376 OA
BRANCH  35  36
ATOM     36  C   UNL A   1      44.692  23.676  36.099  1.00  0.00     0.202 C 
BRANCH  36  37
ATOM     37  C   UNL A   1      44.001  23.279  34.792  1.00  0.00     0.261 C 
BRANCH  37  38
ATOM     38  O   UNL A   1      43.641  24.383  33.970  1.00  0.00    -0.460 OA
BRANCH  38  39
ATOM     39  C   UNL A   1      44.149  24.326  32.715  1.00  0.00     0.338 C 
ATOM     40  O   UNL A   1      44.418  23.331  32.066  1.00  0.00    -0.246 OA
BRANCH  39  41
ATOM     41  C   UNL A   1      44.536  25.676  32.282  1.00  0.00     0.060 A 
ATOM     42  C   UNL A   1      45.272  26.416  33.210  1.00  0.00     0.016 A 
ATOM     43  C   UNL A   1      43.895  26.280  31.190  1.00  0.00     0.016 A 
ATOM     44  C   UNL A   1      45.138  27.784  33.202  1.00  0.00     0.010 A 
ATOM     45  C   UNL A   1      43.759  27.651  31.185  1.00  0.00     0.010 A 
ATOM     46  C   UNL A   1      44.291  28.368  32.255  1.00  0.00    -0.014 A 
BRANCH  46  47
ATOM     47  C   UNL A   1      43.922  29.749  32.484  1.00  0.00     0.031 A 
ATOM     48  C   UNL A   1      42.546  29.947  32.966  1.00  0.00     0.074 A 
ATOM     49  C   UNL A   1      44.791  30.760  32.304  1.00  0.00     0.049 A 
ATOM     50  N   UNL A   1      41.564  30.519  32.355  1.00  0.00    -0.248 NA
ATOM     51  C   UNL A   1      42.193  29.311  34.241  1.00  0.00     0.031 C 
ATOM     52  C   UNL A   1      46.246  30.648  32.145  1.00  0.00     0.029 A 
ATOM     53  N   UNL A   1      44.577  32.105  32.366  1.00  0.00    -0.354 N 
ATOM     54  C   UNL A   1      40.528  30.529  33.282  1.00  0.00     0.074 A 
ATOM     55  C   UNL A   1      40.897  29.604  34.321  1.00  0.00     0.031 C 
ATOM     56  C   UNL A   1      46.802  31.859  32.368  1.00  0.00     0.029 A 
ATOM     57  C   UNL A   1      45.741  32.836  32.547  1.00  0.00     0.049 A 
ATOM     58  H   UNL A   1      43.686  32.516  32.289  1.00  0.00     0.167 HD
ATOM     59  C   UNL A   1      39.595  31.515  33.276  1.00  0.00     0.034 A 
ATOM     60  C   UNL A   1      45.833  34.137  32.902  1.00  0.00     0.034 A 
ATOM     61  C   UNL A   1      39.577  32.229  32.024  1.00  0.00     0.049 A 
ATOM     62  C   UNL A   1      44.544  34.800  32.599  1.00  0.00     0.074 A 
ATOM     63  C   UNL A   1      39.245  31.947  30.717  1.00  0.00     0.029 A 
ATOM     64  N   UNL A   1      40.267  33.413  32.020  1.00  0.00    -0.354 N 
ATOM     65  N   UNL A   1      44.098  35.018  31.393  1.00  0.00    -0.248 NA
ATOM     66  C   UNL A   1      43.574  35.003  33.668  1.00  0.00     0.031 C 
ATOM     67  C   UNL A   1      39.967  32.879  29.917  1.00  0.00     0.029 A 
ATOM     68  C   UNL A   1      40.732  33.686  30.762  1.00  0.00     0.049 A 
ATOM     69  H   UNL A   1      40.407  33.986  32.808  1.00  0.00     0.167 HD
ATOM     70  C   UNL A   1      42.719  34.971  31.521  1.00  0.00     0.074 A 
ATOM     71  C   UNL A   1      42.464  35.153  32.941  1.00  0.00     0.031 C 
ATOM     72  C   UNL A   1      41.936  34.462  30.524  1.00  0.00     0.034 A 
BRANCH  59  73
ATOM     73  C   UNL A   1      38.995  32.134  34.524  1.00  0.00     0.023 A 
ATOM     74  C   UNL A   1      37.591  32.305  34.537  1.00  0.00     0.012 A 
ATOM     75  C   UNL A   1      39.724  32.814  35.528  1.00  0.00     0.148 A 
ATOM     76  C   UNL A   1      36.960  33.158  35.448  1.00  0.00     0.002 A 
ATOM     77  C   UNL A   1      39.084  33.599  36.481  1.00  0.00     0.091 A 
ATOM     78  F   UNL A   1      41.059  32.835  35.504  1.00  0.00    -0.205 F 
ATOM     79  C   UNL A   1      37.706  33.803  36.425  1.00  0.00     0.022 A 
BRANCH  77  80
ATOM     80  S   UNL A   1      40.019  34.408  37.786  1.00  0.00     0.127 S 
ATOM     81  O   UNL A   1      40.793  35.386  37.028  1.00  0.00    -0.237 OA
ATOM     82  O   UNL A   1      38.955  34.969  38.620  1.00  0.00    -0.237 OA
ATOM     83  O   UNL A   1      40.773  33.339  38.430  1.00  0.00    -0.744 OA
ENDBRANCH  77  80
ENDBRANCH  59  73
BRANCH  60  84
ATOM     84  C   UNL A   1      46.919  34.817  33.639  1.00  0.00     0.023 A 
ATOM     85  C   UNL A   1      47.440  36.031  33.154  1.00  0.00     0.012 A 
ATOM     86  C   UNL A   1      47.297  34.394  34.935  1.00  0.00     0.148 A 
ATOM     87  C   UNL A   1      48.300  36.807  33.939  1.00  0.00     0.002 A 
ATOM     88  C   UNL A   1      48.169  35.159  35.702  1.00  0.00     0.091 A 
ATOM     89  F   UNL A   1      46.738  33.288  35.442  1.00  0.00    -0.205 F 
ATOM     90  C   UNL A   1      48.663  36.373  35.212  1.00  0.00     0.022 A 
BRANCH  88  91
ATOM     91  S   UNL A   1      48.690  34.655  37.348  1.00  0.00     0.127 S 
ATOM     92  O   UNL A   1      47.563  35.093  38.172  1.00  0.00    -0.237 OA
ATOM     93  O   UNL A   1      48.811  33.208  37.197  1.00  0.00    -0.237 OA
ATOM     94  O   UNL A   1      49.933  35.372  37.607  1.00  0.00    -0.744 OA
ENDBRANCH  88  91
ENDBRANCH  60  84
BRANCH  72  95
ATOM     95  C   UNL A   1      42.498  34.441  29.128  1.00  0.00     0.023 A 
ATOM     96  C   UNL A   1      42.400  35.553  28.269  1.00  0.00     0.012 A 
ATOM     97  C   UNL A   1      43.256  33.329  28.717  1.00  0.00     0.148 A 
ATOM     98  C   UNL A   1      43.015  35.545  27.016  1.00  0.00     0.002 A 
ATOM     99  C   UNL A   1      43.907  33.344  27.488  1.00  0.00     0.091 A 
ATOM    100  F   UNL A   1      43.344  32.276  29.543  1.00  0.00    -0.205 F 
ATOM    101  C   UNL A   1      43.780  34.446  26.630  1.00  0.00     0.022 A 
BRANCH  99 102
ATOM    102  S   UNL A   1      45.010  32.013  26.999  1.00  0.00     0.127 S 
ATOM    103  O   UNL A   1      46.017  32.040  28.058  1.00  0.00    -0.237 OA
ATOM    104  O   UNL A   1      44.132  30.842  27.022  1.00  0.00    -0.237 OA
ATOM    105  O   UNL A   1      45.483  32.370  25.666  1.00  0.00    -0.744 OA
ENDBRANCH  99 102
ENDBRANCH  72  95
ENDBRANCH  46  47
ENDBRANCH  39  41
ENDBRANCH  38  39
ENDBRANCH  37  38
ENDBRANCH  36  37
ENDBRANCH  35  36
ENDBRANCH  34  35
ENDBRANCH  33  34
ENDBRANCH  32  33
ENDBRANCH   1  32
TORSDOF 28
ENDMDL
MODEL 3
REMARK VINA RESULT:      -6.7      7.048     13.343
REMARK SMILES COc1cc(OC)cc(-c2cc3nc(C)c(CCC(=O)OCCOCCOCCOCCOC(=O)c4ccc(-c5c6nc(c(-c7cccc(S(=O)(=O)[O-])c7F)c7ccc([nH]7)c(-c7cccc(S(=O)(=O)[O-])c7F)c7nc(c(-c8cccc(S(=O)(=O)[O-])c8F)c8ccc5[nH]8)C=C7)C=C6)cc4)c(C)n3n2)c1
REMARK SMILES IDX 26 1 25 2 24 3 23 4 22 5 21 6 19 7 20 8 18 9 17 10 16 11
REMARK SMILES IDX 10 12 11 13 102 14 12 15 101 16 13 17 99 18 14 19 100 20
REMARK SMILES IDX 15 21 9 22 3 23 4 24 103 25 5 26 8 27 2 28 1 29 6 30 7 31
REMARK SMILES IDX 27 32 28 33 29 34 30 35 31 36 32 37 33 38 34 39 35 40 36 41
REMARK SMILES IDX 37 42 98 43 38 44 97 45 39 46 40 47 41 48 91 49 42 50 96 51
REMARK SMILES IDX 90 52 92 53 43 54 95 55 89 56 88 57 44 59 76 60 56 61 75 62
REMARK SMILES IDX 57 63 60 64 74 65 93 66 58 67 59 68 73 70 94 71 61 72 45 73
REMARK SMILES IDX 46 74 54 75 47 76 49 77 55 78 48 79 50 80 51 81 52 82 53 83
REMARK SMILES IDX 77 84 78 85 86 86 79 87 81 88 87 89 80 90 82 91 83 92 84 93
REMARK SMILES IDX 85 94 62 95 63 96 71 97 64 98 66 99 72 100 65 101 67 102
REMARK SMILES IDX 68 103 69 104 70 105
REMARK H PARENT 92 58 60 69
REMARK Flexibility Score: inf
ROOT
ATOM      1  C   UNL A   1      50.340  27.335  22.746  1.00  0.00     0.188 C 
ENDROOT
BRANCH   1   2
ATOM      2  C   UNL A   1      48.913  26.815  22.602  1.00  0.00     0.188 C 
BRANCH   2   3
ATOM      3  O   UNL A   1      48.047  26.891  23.726  1.00  0.00    -0.376 OA
BRANCH   3   4
ATOM      4  C   UNL A   1      46.974  27.824  23.779  1.00  0.00     0.202 C 
BRANCH   4   5
ATOM      5  C   UNL A   1      45.806  27.543  24.730  1.00  0.00     0.261 C 
BRANCH   5   6
ATOM      6  O   UNL A   1      46.013  26.319  25.475  1.00  0.00    -0.463 OA
BRANCH   6   7
ATOM      7  C   UNL A   1      45.112  25.965  26.420  1.00  0.00     0.306 C 
ATOM      8  O   UNL A   1      44.430  24.948  26.378  1.00  0.00    -0.252 OA
BRANCH   7   9
ATOM      9  C   UNL A   1      44.988  27.015  27.515  1.00  0.00     0.127 C 
BRANCH   9  10
ATOM     10  C   UNL A   1      45.384  26.607  28.949  1.00  0.00     0.051 C 
BRANCH  10  11
ATOM     11  C   UNL A   1      46.081  27.665  29.793  1.00  0.00    -0.005 A 
ATOM     12  C   UNL A   1      48.370  31.379  30.866  1.00  0.00     0.095 A 
ATOM     13  C   UNL A   1      47.919  30.677  32.012  1.00  0.00     0.080 A 
ATOM     14  N   UNL A   1      47.949  30.781  29.754  1.00  0.00    -0.166 NA
ATOM     15  C   UNL A   1      47.195  29.600  31.530  1.00  0.00     0.156 A 
ATOM     16  N   UNL A   1      47.335  29.659  30.160  1.00  0.00    -0.219 N 
ATOM     17  N   UNL A   1      46.536  28.560  32.116  1.00  0.00    -0.234 NA
ATOM     18  C   UNL A   1      46.853  28.666  29.316  1.00  0.00     0.046 A 
ATOM     19  C   UNL A   1      46.053  27.635  31.327  1.00  0.00     0.045 A 
ATOM     20  C   UNL A   1      47.333  28.851  27.922  1.00  0.00     0.067 C 
ATOM     21  C   UNL A   1      45.479  26.415  32.021  1.00  0.00     0.067 C 
BRANCH  12  22
ATOM     22  C   UNL A   1      49.185  32.573  30.691  1.00  0.00     0.009 A 
ATOM     23  C   UNL A   1      51.331  33.492  30.002  1.00  0.00     0.123 A 
ATOM     24  C   UNL A   1      51.007  34.674  30.665  1.00  0.00     0.092 A 
ATOM     25  C   UNL A   1      50.422  32.440  30.028  1.00  0.00     0.057 A 
ATOM     26  C   UNL A   1      49.788  34.815  31.341  1.00  0.00     0.123 A 
ATOM     27  C   UNL A   1      48.863  33.768  31.337  1.00  0.00     0.057 A 
BRANCH  23  28
ATOM     28  O   UNL A   1      52.568  33.463  29.415  1.00  0.00    -0.497 OA
ATOM     29  C   UNL A   1      52.944  34.620  28.678  1.00  0.00     0.278 C 
ENDBRANCH  23  28
BRANCH  26  30
ATOM     30  O   UNL A   1      49.624  36.017  31.973  1.00  0.00    -0.497 OA
ATOM     31  C   UNL A   1      50.812  36.764  32.221  1.00  0.00     0.278 C 
ENDBRANCH  26  30
ENDBRANCH  12  22
ENDBRANCH  10  11
ENDBRANCH   9  10
ENDBRANCH   7   9
ENDBRANCH   6   7
ENDBRANCH   5   6
ENDBRANCH   4   5
ENDBRANCH   3   4
ENDBRANCH   2   3
ENDBRANCH   1   2
BRANCH   1  32
ATOM     32  O   UNL A   1      50.586  28.691  23.068  1.00  0.00    -0.377 OA
BRANCH  32  33
ATOM     33  C   UNL A   1      51.776  29.049  23.752  1.00  0.00     0.188 C 
BRANCH  33  34
ATOM     34  C   UNL A   1      52.524  30.241  23.133  1.00  0.00     0.188 C 
BRANCH  34  35
ATOM     35  O   UNL A   1      51.959  31.549  23.197  1.00  0.00    -0.376 OA
BRANCH  35  36
ATOM     36  C   UNL A   1      52.584  32.598  22.473  1.00  0.00     0.202 C 
BRANCH  36  37
ATOM     37  C   UNL A   1      53.135  33.707  23.372  1.00  0.00     0.261 C 
BRANCH  37  38
ATOM     38  O   UNL A   1      52.154  34.648  23.795  1.00  0.00    -0.460 OA
BRANCH  38  39
ATOM     39  C   UNL A   1      52.656  35.870  24.097  1.00  0.00     0.338 C 
ATOM     40  O   UNL A   1      53.827  36.202  24.149  1.00  0.00    -0.246 OA
BRANCH  39  41
ATOM     41  C   UNL A   1      51.570  36.742  24.567  1.00  0.00     0.060 A 
ATOM     42  C   UNL A   1      51.789  37.363  25.799  1.00  0.00     0.016 A 
ATOM     43  C   UNL A   1      50.290  36.647  24.000  1.00  0.00     0.016 A 
ATOM     44  C   UNL A   1      50.698  37.643  26.587  1.00  0.00     0.010 A 
ATOM     45  C   UNL A   1      49.199  36.925  24.792  1.00  0.00     0.010 A 
ATOM     46  C   UNL A   1      49.426  37.312  26.111  1.00  0.00    -0.014 A 
BRANCH  46  47
ATOM     47  C   UNL A   1      48.353  37.313  27.084  1.00  0.00     0.031 A 
ATOM     48  C   UNL A   1      47.724  36.002  27.308  1.00  0.00     0.074 A 
ATOM     49  C   UNL A   1      47.996  38.425  27.753  1.00  0.00     0.049 A 
ATOM     50  N   UNL A   1      46.519  35.639  27.020  1.00  0.00    -0.248 NA
ATOM     51  C   UNL A   1      48.592  34.925  27.798  1.00  0.00     0.031 C 
ATOM     52  C   UNL A   1      48.756  39.678  27.841  1.00  0.00     0.029 A 
ATOM     53  N   UNL A   1      46.951  38.622  28.607  1.00  0.00    -0.354 N 
ATOM     54  C   UNL A   1      46.409  34.349  27.525  1.00  0.00     0.074 A 
ATOM     55  C   UNL A   1      47.748  33.897  27.794  1.00  0.00     0.031 C 
ATOM     56  C   UNL A   1      48.282  40.400  28.880  1.00  0.00     0.029 A 
ATOM     57  C   UNL A   1      47.116  39.726  29.427  1.00  0.00     0.049 A 
ATOM     58  H   UNL A   1      46.159  38.038  28.637  1.00  0.00     0.167 HD
ATOM     59  C   UNL A   1      45.216  33.870  27.964  1.00  0.00     0.034 A 
ATOM     60  C   UNL A   1      46.399  40.029  30.532  1.00  0.00     0.034 A 
ATOM     61  C   UNL A   1      44.110  34.651  27.468  1.00  0.00     0.049 A 
ATOM     62  C   UNL A   1      45.115  39.295  30.475  1.00  0.00     0.074 A 
ATOM     63  C   UNL A   1      43.528  34.896  26.245  1.00  0.00     0.029 A 
ATOM     64  N   UNL A   1      43.618  35.583  28.344  1.00  0.00    -0.354 N 
ATOM     65  N   UNL A   1      44.163  39.548  29.619  1.00  0.00    -0.248 NA
ATOM     66  C   UNL A   1      44.967  38.051  31.220  1.00  0.00     0.031 C 
ATOM     67  C   UNL A   1      42.861  36.148  26.369  1.00  0.00     0.029 A 
ATOM     68  C   UNL A   1      43.076  36.636  27.659  1.00  0.00     0.049 A 
ATOM     69  H   UNL A   1      43.650  35.506  29.326  1.00  0.00     0.167 HD
ATOM     70  C   UNL A   1      43.541  38.326  29.422  1.00  0.00     0.074 A 
ATOM     71  C   UNL A   1      43.943  37.509  30.556  1.00  0.00     0.031 C 
ATOM     72  C   UNL A   1      43.033  37.983  28.201  1.00  0.00     0.034 A 
BRANCH  59  73
ATOM     73  C   UNL A   1      45.046  32.977  29.178  1.00  0.00     0.023 A 
ATOM     74  C   UNL A   1      44.475  31.703  28.955  1.00  0.00     0.012 A 
ATOM     75  C   UNL A   1      45.128  33.406  30.523  1.00  0.00     0.148 A 
ATOM     76  C   UNL A   1      43.951  30.935  30.000  1.00  0.00     0.002 A 
ATOM     77  C   UNL A   1      44.677  32.604  31.567  1.00  0.00     0.091 A 
ATOM     78  F   UNL A   1      45.511  34.650  30.820  1.00  0.00    -0.205 F 
ATOM     79  C   UNL A   1      44.056  31.383  31.309  1.00  0.00     0.022 A 
BRANCH  77  80
ATOM     80  S   UNL A   1      44.843  33.138  33.276  1.00  0.00     0.127 S 
ATOM     81  O   UNL A   1      46.287  33.306  33.391  1.00  0.00    -0.237 OA
ATOM     82  O   UNL A   1      44.070  34.381  33.283  1.00  0.00    -0.237 OA
ATOM     83  O   UNL A   1      44.248  32.067  34.067  1.00  0.00    -0.744 OA
ENDBRANCH  77  80
ENDBRANCH  59  73
BRANCH  60  84
ATOM     84  C   UNL A   1      46.820  40.796  31.723  1.00  0.00     0.023 A 
ATOM     85  C   UNL A   1      46.090  41.933  32.117  1.00  0.00     0.012 A 
ATOM     86  C   UNL A   1      47.806  40.293  32.604  1.00  0.00     0.148 A 
ATOM     87  C   UNL A   1      46.323  42.541  33.355  1.00  0.00     0.002 A 
ATOM     88  C   UNL A   1      48.048  40.914  33.823  1.00  0.00     0.091 A 
ATOM     89  F   UNL A   1      48.443  39.160  32.280  1.00  0.00    -0.205 F 
ATOM     90  C   UNL A   1      47.300  42.032  34.208  1.00  0.00     0.022 A 
BRANCH  88  91
ATOM     91  S   UNL A   1      49.301  40.320  34.969  1.00  0.00     0.127 S 
ATOM     92  O   UNL A   1      49.018  38.885  35.011  1.00  0.00    -0.237 OA
ATOM     93  O   UNL A   1      50.537  40.680  34.280  1.00  0.00    -0.237 OA
ATOM     94  O   UNL A   1      49.049  41.014  36.226  1.00  0.00    -0.744 OA
ENDBRANCH  88  91
ENDBRANCH  60  84
BRANCH  72  95
ATOM     95  C   UNL A   1      42.686  39.093  27.245  1.00  0.00     0.023 A 
ATOM     96  C   UNL A   1      41.378  39.605  27.142  1.00  0.00     0.012 A 
ATOM     97  C   UNL A   1      43.722  39.725  26.533  1.00  0.00     0.148 A 
ATOM     98  C   UNL A   1      41.101  40.700  26.321  1.00  0.00     0.002 A 
ATOM     99  C   UNL A   1      43.451  40.845  25.754  1.00  0.00     0.091 A 
ATOM    100  F   UNL A   1      44.965  39.230  26.639  1.00  0.00    -0.205 F 
ATOM    101  C   UNL A   1      42.140  41.329  25.637  1.00  0.00     0.022 A 
BRANCH  99 102
ATOM    102  S   UNL A   1      44.770  41.771  24.959  1.00  0.00     0.127 S 
ATOM    103  O   UNL A   1      45.704  40.714  24.578  1.00  0.00    -0.237 OA
ATOM    104  O   UNL A   1      44.081  42.411  23.837  1.00  0.00    -0.237 OA
ATOM    105  O   UNL A   1      45.250  42.708  25.968  1.00  0.00    -0.744 OA
ENDBRANCH  99 102
ENDBRANCH  72  95
ENDBRANCH  46  47
ENDBRANCH  39  41
ENDBRANCH  38  39
ENDBRANCH  37  38
ENDBRANCH  36  37
ENDBRANCH  35  36
ENDBRANCH  34  35
ENDBRANCH  33  34
ENDBRANCH  32  33
ENDBRANCH   1  32
TORSDOF 28
ENDMDL
