MODEL 1
REMARK VINA RESULT:      -9.2      0.000      0.000
REMARK SMILES C[NH+]1CCC(NC(=O)N[C@H]2C=C[C@H](C(=O)OCCOCCOCCOCCOC(=O)c3ccc(-c4c5nc(c(-c6cccc(S(=O)(=O)[O-])c6F)c6ccc([nH]6)c(-c6cccc(S(=O)(=O)[O-])c6F)c6nc(c(-c7cccc(S(=O)(=O)[O-])c7F)c7ccc4[nH]7)C=C6)C=C5)cc3)C2)CC1
REMARK SMILES IDX 23 1 22 2 21 3 20 4 19 5 18 6 17 7 16 8 14 9 15 10 13 11
REMARK SMILES IDX 10 12 11 13 94 14 12 15 9 16 6 17 7 18 8 20 5 22 1 23 2 24
REMARK SMILES IDX 3 25 96 26 4 28 95 29 24 30 25 31 26 32 27 33 28 34 29 35
REMARK SMILES IDX 30 36 31 37 32 38 93 39 33 40 92 41 34 42 35 43 36 44 86 45
REMARK SMILES IDX 37 46 91 47 85 48 87 49 38 50 90 51 84 52 83 53 39 55 71 56
REMARK SMILES IDX 51 57 70 58 52 59 55 60 69 61 88 62 53 63 54 64 68 66 89 67
REMARK SMILES IDX 56 68 40 69 41 70 49 71 42 72 44 73 50 74 43 75 45 76 46 77
REMARK SMILES IDX 47 78 48 79 72 80 73 81 81 82 74 83 76 84 82 85 75 86 77 87
REMARK SMILES IDX 78 88 79 89 80 90 57 91 58 92 66 93 59 94 61 95 67 96 60 97
REMARK SMILES IDX 62 98 63 99 64 100 65 101
REMARK H PARENT 6 19 9 21 2 27 87 54 55 65
REMARK Flexibility Score: inf
ROOT
ATOM      1  C   UNL A   1      40.260  26.285  27.825  1.00  0.00     0.188 C 
ENDROOT
BRANCH   1   2
ATOM      2  O   UNL A   1      39.303  25.559  27.064  1.00  0.00    -0.377 OA
BRANCH   2   3
ATOM      3  C   UNL A   1      39.009  24.215  27.413  1.00  0.00     0.188 C 
BRANCH   3   4
ATOM      4  C   UNL A   1      39.636  23.031  26.644  1.00  0.00     0.188 C 
BRANCH   4   5
ATOM      5  O   UNL A   1      38.709  22.089  26.146  1.00  0.00    -0.376 OA
BRANCH   5   6
ATOM      6  C   UNL A   1      37.532  22.534  25.500  1.00  0.00     0.202 C 
BRANCH   6   7
ATOM      7  C   UNL A   1      36.236  21.884  25.976  1.00  0.00     0.261 C 
BRANCH   7   8
ATOM      8  O   UNL A   1      35.445  21.312  24.927  1.00  0.00    -0.463 OA
BRANCH   8   9
ATOM      9  C   UNL A   1      34.099  21.138  25.091  1.00  0.00     0.312 C 
ATOM     10  O   UNL A   1      33.553  20.619  26.049  1.00  0.00    -0.252 OA
BRANCH   9  11
ATOM     11  C   UNL A   1      33.426  21.810  23.900  1.00  0.00     0.124 C 
ATOM     12  C   UNL A   1      32.899  24.026  22.986  1.00  0.00     0.107 C 
ATOM     13  C   UNL A   1      31.686  23.327  23.486  1.00  0.00    -0.006 C 
ATOM     14  C   UNL A   1      34.063  23.121  23.388  1.00  0.00     0.048 C 
ATOM     15  C   UNL A   1      31.981  22.153  24.056  1.00  0.00    -0.014 C 
BRANCH  12  16
ATOM     16  N   UNL A   1      32.777  24.488  21.607  1.00  0.00    -0.332 N 
ATOM     17  N   UNL A   1      32.794  26.846  21.230  1.00  0.00    -0.335 N 
ATOM     18  C   UNL A   1      32.792  25.573  20.833  1.00  0.00     0.315 C 
ATOM     19  H   UNL A   1      32.995  27.484  20.507  1.00  0.00     0.165 HD
ATOM     20  O   UNL A   1      32.815  25.366  19.613  1.00  0.00    -0.249 OA
ATOM     21  H   UNL A   1      32.625  23.703  21.032  1.00  0.00     0.165 HD
BRANCH  17  22
ATOM     22  C   UNL A   1      32.561  27.475  22.508  1.00  0.00     0.095 C 
ATOM     23  C   UNL A   1      31.806  29.806  25.942  1.00  0.00     0.332 C 
ATOM     24  N   UNL A   1      32.000  29.521  24.511  1.00  0.00    -0.337 N 
ATOM     25  C   UNL A   1      30.962  28.585  24.065  1.00  0.00     0.264 C 
ATOM     26  C   UNL A   1      33.374  29.068  24.274  1.00  0.00     0.264 C 
ATOM     27  H   UNL A   1      31.890  30.362  23.944  1.00  0.00     0.347 HD
ATOM     28  C   UNL A   1      31.170  28.088  22.631  1.00  0.00     0.086 C 
ATOM     29  C   UNL A   1      33.609  28.522  22.862  1.00  0.00     0.086 C 
ENDBRANCH  17  22
ENDBRANCH  12  16
ENDBRANCH   9  11
ENDBRANCH   8   9
ENDBRANCH   7   8
ENDBRANCH   6   7
ENDBRANCH   5   6
ENDBRANCH   4   5
ENDBRANCH   3   4
ENDBRANCH   2   3
ENDBRANCH   1   2
BRANCH   1  30
ATOM     30  C   UNL A   1      39.918  27.719  28.302  1.00  0.00     0.188 C 
BRANCH  30  31
ATOM     31  O   UNL A   1      38.613  27.866  28.840  1.00  0.00    -0.376 OA
BRANCH  31  32
ATOM     32  C   UNL A   1      37.863  29.015  28.493  1.00  0.00     0.202 C 
BRANCH  32  33
ATOM     33  C   UNL A   1      36.854  29.555  29.517  1.00  0.00     0.261 C 
BRANCH  33  34
ATOM     34  O   UNL A   1      36.879  28.948  30.814  1.00  0.00    -0.460 OA
BRANCH  34  35
ATOM     35  C   UNL A   1      37.316  29.703  31.842  1.00  0.00     0.338 C 
ATOM     36  O   UNL A   1      36.669  30.520  32.483  1.00  0.00    -0.246 OA
BRANCH  35  37
ATOM     37  C   UNL A   1      38.658  29.210  32.209  1.00  0.00     0.060 A 
ATOM     38  C   UNL A   1      39.727  30.116  32.275  1.00  0.00     0.016 A 
ATOM     39  C   UNL A   1      38.848  27.863  32.522  1.00  0.00     0.016 A 
ATOM     40  C   UNL A   1      40.997  29.671  32.632  1.00  0.00     0.010 A 
ATOM     41  C   UNL A   1      40.129  27.411  32.842  1.00  0.00     0.010 A 
ATOM     42  C   UNL A   1      41.212  28.307  32.863  1.00  0.00    -0.014 A 
BRANCH  42  43
ATOM     43  C   UNL A   1      42.598  27.790  32.890  1.00  0.00     0.031 A 
ATOM     44  C   UNL A   1      43.251  27.604  34.231  1.00  0.00     0.074 A 
ATOM     45  C   UNL A   1      43.255  27.481  31.759  1.00  0.00     0.049 A 
ATOM     46  N   UNL A   1      44.460  27.200  34.516  1.00  0.00    -0.248 NA
ATOM     47  C   UNL A   1      42.426  27.919  35.411  1.00  0.00     0.031 C 
ATOM     48  C   UNL A   1      42.716  27.600  30.406  1.00  0.00     0.029 A 
ATOM     49  N   UNL A   1      44.536  27.025  31.576  1.00  0.00    -0.354 N 
ATOM     50  C   UNL A   1      44.551  27.240  35.901  1.00  0.00     0.074 A 
ATOM     51  C   UNL A   1      43.282  27.719  36.401  1.00  0.00     0.031 C 
ATOM     52  C   UNL A   1      43.673  27.252  29.526  1.00  0.00     0.029 A 
ATOM     53  C   UNL A   1      44.896  26.917  30.254  1.00  0.00     0.049 A 
ATOM     54  H   UNL A   1      45.138  26.796  32.320  1.00  0.00     0.167 HD
ATOM     55  C   UNL A   1      45.596  26.899  36.691  1.00  0.00     0.034 A 
ATOM     56  C   UNL A   1      46.086  26.610  29.701  1.00  0.00     0.034 A 
ATOM     57  C   UNL A   1      46.855  26.421  36.189  1.00  0.00     0.049 A 
ATOM     58  C   UNL A   1      47.250  26.279  30.602  1.00  0.00     0.074 A 
ATOM     59  C   UNL A   1      47.967  26.016  36.905  1.00  0.00     0.029 A 
ATOM     60  N   UNL A   1      47.178  26.303  34.846  1.00  0.00    -0.354 N 
ATOM     61  N   UNL A   1      47.295  26.222  31.911  1.00  0.00    -0.248 NA
ATOM     62  C   UNL A   1      48.521  25.937  29.945  1.00  0.00     0.031 C 
ATOM     63  C   UNL A   1      48.976  25.691  35.993  1.00  0.00     0.029 A 
ATOM     64  C   UNL A   1      48.476  25.845  34.710  1.00  0.00     0.049 A 
ATOM     65  H   UNL A   1      46.571  26.513  34.099  1.00  0.00     0.167 HD
ATOM     66  C   UNL A   1      48.581  25.798  32.233  1.00  0.00     0.074 A 
ATOM     67  C   UNL A   1      49.277  25.597  30.979  1.00  0.00     0.031 C 
ATOM     68  C   UNL A   1      49.139  25.602  33.454  1.00  0.00     0.034 A 
BRANCH  55  69
ATOM     69  C   UNL A   1      45.417  27.030  38.179  1.00  0.00     0.023 A 
ATOM     70  C   UNL A   1      44.939  25.936  38.930  1.00  0.00     0.012 A 
ATOM     71  C   UNL A   1      45.762  28.225  38.841  1.00  0.00     0.148 A 
ATOM     72  C   UNL A   1      44.774  26.041  40.310  1.00  0.00     0.002 A 
ATOM     73  C   UNL A   1      45.643  28.305  40.222  1.00  0.00     0.091 A 
ATOM     74  F   UNL A   1      46.191  29.261  38.107  1.00  0.00    -0.205 F 
ATOM     75  C   UNL A   1      45.137  27.219  40.956  1.00  0.00     0.022 A 
BRANCH  73  76
ATOM     76  S   UNL A   1      46.159  29.747  41.157  1.00  0.00     0.127 S 
ATOM     77  O   UNL A   1      45.790  30.834  40.249  1.00  0.00    -0.237 OA
ATOM     78  O   UNL A   1      45.329  29.648  42.357  1.00  0.00    -0.237 OA
ATOM     79  O   UNL A   1      47.588  29.589  41.389  1.00  0.00    -0.744 OA
ENDBRANCH  73  76
ENDBRANCH  55  69
BRANCH  56  80
ATOM     80  C   UNL A   1      46.239  26.580  28.219  1.00  0.00     0.023 A 
ATOM     81  C   UNL A   1      46.643  27.743  27.535  1.00  0.00     0.012 A 
ATOM     82  C   UNL A   1      45.987  25.405  27.485  1.00  0.00     0.148 A 
ATOM     83  C   UNL A   1      46.757  27.747  26.145  1.00  0.00     0.002 A 
ATOM     84  C   UNL A   1      46.158  25.400  26.106  1.00  0.00     0.091 A 
ATOM     85  F   UNL A   1      45.590  24.313  28.152  1.00  0.00    -0.205 F 
ATOM     86  C   UNL A   1      46.523  26.575  25.431  1.00  0.00     0.022 A 
BRANCH  84  87
ATOM     87  S   UNL A   1      46.005  23.908  25.118  1.00  0.00     0.127 S 
ATOM     88  O   UNL A   1      46.499  22.888  26.040  1.00  0.00    -0.237 OA
ATOM     89  O   UNL A   1      44.565  23.866  24.865  1.00  0.00    -0.237 OA
ATOM     90  O   UNL A   1      46.820  24.133  23.933  1.00  0.00    -0.744 OA
ENDBRANCH  84  87
ENDBRANCH  56  80
BRANCH  68  91
ATOM     91  C   UNL A   1      50.557  25.092  33.504  1.00  0.00     0.023 A 
ATOM     92  C   UNL A   1      51.624  25.982  33.735  1.00  0.00     0.012 A 
ATOM     93  C   UNL A   1      50.822  23.712  33.392  1.00  0.00     0.148 A 
ATOM     94  C   UNL A   1      52.935  25.513  33.814  1.00  0.00     0.002 A 
ATOM     95  C   UNL A   1      52.123  23.246  33.526  1.00  0.00     0.091 A 
ATOM     96  F   UNL A   1      49.795  22.881  33.158  1.00  0.00    -0.205 F 
ATOM     97  C   UNL A   1      53.183  24.145  33.720  1.00  0.00     0.022 A 
BRANCH  95  98
ATOM     98  S   UNL A   1      52.525  21.494  33.521  1.00  0.00     0.127 S 
ATOM     99  O   UNL A   1      51.636  20.983  34.563  1.00  0.00    -0.237 OA
ATOM    100  O   UNL A   1      52.162  21.098  32.160  1.00  0.00    -0.237 OA
ATOM    101  O   UNL A   1      53.948  21.406  33.818  1.00  0.00    -0.744 OA
ENDBRANCH  95  98
ENDBRANCH  68  91
ENDBRANCH  42  43
ENDBRANCH  35  37
ENDBRANCH  34  35
ENDBRANCH  33  34
ENDBRANCH  32  33
ENDBRANCH  31  32
ENDBRANCH  30  31
ENDBRANCH   1  30
TORSDOF 25
ENDMDL
MODEL 2
REMARK VINA RESULT:      -8.7      6.856     11.540
REMARK SMILES C[NH+]1CCC(NC(=O)N[C@H]2C=C[C@H](C(=O)OCCOCCOCCOCCOC(=O)c3ccc(-c4c5nc(c(-c6cccc(S(=O)(=O)[O-])c6F)c6ccc([nH]6)c(-c6cccc(S(=O)(=O)[O-])c6F)c6nc(c(-c7cccc(S(=O)(=O)[O-])c7F)c7ccc4[nH]7)C=C6)C=C5)cc3)C2)CC1
REMARK SMILES IDX 23 1 22 2 21 3 20 4 19 5 18 6 17 7 16 8 14 9 15 10 13 11
REMARK SMILES IDX 10 12 11 13 94 14 12 15 9 16 6 17 7 18 8 20 5 22 1 23 2 24
REMARK SMILES IDX 3 25 96 26 4 28 95 29 24 30 25 31 26 32 27 33 28 34 29 35
REMARK SMILES IDX 30 36 31 37 32 38 93 39 33 40 92 41 34 42 35 43 36 44 86 45
REMARK SMILES IDX 37 46 91 47 85 48 87 49 38 50 90 51 84 52 83 53 39 55 71 56
REMARK SMILES IDX 51 57 70 58 52 59 55 60 69 61 88 62 53 63 54 64 68 66 89 67
REMARK SMILES IDX 56 68 40 69 41 70 49 71 42 72 44 73 50 74 43 75 45 76 46 77
REMARK SMILES IDX 47 78 48 79 72 80 73 81 81 82 74 83 76 84 82 85 75 86 77 87
REMARK SMILES IDX 78 88 79 89 80 90 57 91 58 92 66 93 59 94 61 95 67 96 60 97
REMARK SMILES IDX 62 98 63 99 64 100 65 101
REMARK H PARENT 6 19 9 21 2 27 87 54 55 65
REMARK Flexibility Score: inf
ROOT
ATOM      1  C   UNL A   1      41.670  20.259  26.089  1.00  0.00     0.188 C 
ENDROOT
BRANCH   1   2
ATOM      2  O   UNL A   1      42.970  19.733  26.324  1.00  0.00    -0.377 OA
BRANCH   2   3
ATOM      3  C   UNL A   1      43.421  18.623  25.564  1.00  0.00     0.188 C 
BRANCH   3   4
ATOM      4  C   UNL A   1      44.237  18.817  24.267  1.00  0.00     0.188 C 
BRANCH   4   5
ATOM      5  O   UNL A   1      45.637  18.719  24.425  1.00  0.00    -0.376 OA
BRANCH   5   6
ATOM      6  C   UNL A   1      46.326  19.683  25.198  1.00  0.00     0.202 C 
BRANCH   6   7
ATOM      7  C   UNL A   1      46.310  21.104  24.642  1.00  0.00     0.261 C 
BRANCH   7   8
ATOM      8  O   UNL A   1      45.026  21.738  24.689  1.00  0.00    -0.463 OA
BRANCH   8   9
ATOM      9  C   UNL A   1      44.737  22.643  25.673  1.00  0.00     0.312 C 
ATOM     10  O   UNL A   1      44.574  22.391  26.855  1.00  0.00    -0.252 OA
BRANCH   9  11
ATOM     11  C   UNL A   1      44.765  24.020  25.020  1.00  0.00     0.124 C 
ATOM     12  C   UNL A   1      44.991  26.402  25.562  1.00  0.00     0.107 C 
ATOM     13  C   UNL A   1      43.606  26.053  25.149  1.00  0.00    -0.006 C 
ATOM     14  C   UNL A   1      45.723  25.063  25.635  1.00  0.00     0.048 C 
ATOM     15  C   UNL A   1      43.462  24.741  24.929  1.00  0.00    -0.014 C 
BRANCH  12  16
ATOM     16  N   UNL A   1      45.564  27.507  24.800  1.00  0.00    -0.332 N 
ATOM     17  N   UNL A   1      47.524  28.551  25.678  1.00  0.00    -0.335 N 
ATOM     18  C   UNL A   1      46.590  28.356  24.747  1.00  0.00     0.315 C 
ATOM     19  H   UNL A   1      48.290  29.082  25.363  1.00  0.00     0.165 HD
ATOM     20  O   UNL A   1      46.682  29.027  23.711  1.00  0.00    -0.249 OA
ATOM     21  H   UNL A   1      44.968  27.697  24.040  1.00  0.00     0.165 HD
BRANCH  17  22
ATOM     22  C   UNL A   1      47.635  28.138  27.057  1.00  0.00     0.095 C 
ATOM     23  C   UNL A   1      48.513  27.112  31.054  1.00  0.00     0.332 C 
ATOM     24  N   UNL A   1      48.768  27.613  29.693  1.00  0.00    -0.337 N 
ATOM     25  C   UNL A   1      47.921  28.784  29.447  1.00  0.00     0.264 C 
ATOM     26  C   UNL A   1      48.607  26.525  28.723  1.00  0.00     0.264 C 
ATOM     27  H   UNL A   1      49.733  27.929  29.587  1.00  0.00     0.347 HD
ATOM     28  C   UNL A   1      47.983  29.285  28.001  1.00  0.00     0.086 C 
ATOM     29  C   UNL A   1      48.619  26.995  27.264  1.00  0.00     0.086 C 
ENDBRANCH  17  22
ENDBRANCH  12  16
ENDBRANCH   9  11
ENDBRANCH   8   9
ENDBRANCH   7   8
ENDBRANCH   6   7
ENDBRANCH   5   6
ENDBRANCH   4   5
ENDBRANCH   3   4
ENDBRANCH   2   3
ENDBRANCH   1   2
BRANCH   1  30
ATOM     30  C   UNL A   1      40.647  20.300  27.251  1.00  0.00     0.188 C 
BRANCH  30  31
ATOM     31  O   UNL A   1      40.720  21.463  28.061  1.00  0.00    -0.376 OA
BRANCH  31  32
ATOM     32  C   UNL A   1      41.051  22.695  27.448  1.00  0.00     0.202 C 
BRANCH  32  33
ATOM     33  C   UNL A   1      40.262  23.944  27.867  1.00  0.00     0.261 C 
BRANCH  33  34
ATOM     34  O   UNL A   1      41.035  25.112  28.168  1.00  0.00    -0.460 OA
BRANCH  34  35
ATOM     35  C   UNL A   1      40.814  26.210  27.417  1.00  0.00     0.338 C 
ATOM     36  O   UNL A   1      40.316  26.249  26.300  1.00  0.00    -0.246 OA
BRANCH  35  37
ATOM     37  C   UNL A   1      41.072  27.386  28.271  1.00  0.00     0.060 A 
ATOM     38  C   UNL A   1      40.565  28.635  27.887  1.00  0.00     0.016 A 
ATOM     39  C   UNL A   1      41.782  27.243  29.465  1.00  0.00     0.016 A 
ATOM     40  C   UNL A   1      40.788  29.754  28.686  1.00  0.00     0.010 A 
ATOM     41  C   UNL A   1      42.037  28.371  30.245  1.00  0.00     0.010 A 
ATOM     42  C   UNL A   1      41.572  29.633  29.840  1.00  0.00    -0.014 A 
BRANCH  42  43
ATOM     43  C   UNL A   1      42.099  30.857  30.484  1.00  0.00     0.031 A 
ATOM     44  C   UNL A   1      41.257  31.507  31.547  1.00  0.00     0.074 A 
ATOM     45  C   UNL A   1      43.294  31.369  30.148  1.00  0.00     0.049 A 
ATOM     46  N   UNL A   1      41.481  32.597  32.231  1.00  0.00    -0.248 NA
ATOM     47  C   UNL A   1      39.989  30.835  31.881  1.00  0.00     0.031 C 
ATOM     48  C   UNL A   1      44.205  30.812  29.149  1.00  0.00     0.029 A 
ATOM     49  N   UNL A   1      43.934  32.495  30.601  1.00  0.00    -0.354 N 
ATOM     50  C   UNL A   1      40.373  32.759  33.052  1.00  0.00     0.074 A 
ATOM     51  C   UNL A   1      39.471  31.664  32.775  1.00  0.00     0.031 C 
ATOM     52  C   UNL A   1      45.277  31.618  29.044  1.00  0.00     0.029 A 
ATOM     53  C   UNL A   1      45.112  32.759  29.944  1.00  0.00     0.049 A 
ATOM     54  H   UNL A   1      43.584  33.059  31.328  1.00  0.00     0.167 HD
ATOM     55  C   UNL A   1      40.131  33.728  33.965  1.00  0.00     0.034 A 
ATOM     56  C   UNL A   1      45.943  33.815  30.043  1.00  0.00     0.034 A 
ATOM     57  C   UNL A   1      41.032  34.813  34.239  1.00  0.00     0.049 A 
ATOM     58  C   UNL A   1      45.628  34.907  31.034  1.00  0.00     0.074 A 
ATOM     59  C   UNL A   1      40.897  35.827  35.168  1.00  0.00     0.029 A 
ATOM     60  N   UNL A   1      42.227  35.036  33.571  1.00  0.00    -0.354 N 
ATOM     61  N   UNL A   1      44.628  34.996  31.878  1.00  0.00    -0.248 NA
ATOM     62  C   UNL A   1      46.576  36.028  31.110  1.00  0.00     0.031 C 
ATOM     63  C   UNL A   1      41.991  36.688  35.034  1.00  0.00     0.029 A 
ATOM     64  C   UNL A   1      42.833  36.181  34.057  1.00  0.00     0.049 A 
ATOM     65  H   UNL A   1      42.590  34.463  32.857  1.00  0.00     0.167 HD
ATOM     66  C   UNL A   1      44.848  36.159  32.612  1.00  0.00     0.074 A 
ATOM     67  C   UNL A   1      46.087  36.729  32.124  1.00  0.00     0.031 C 
ATOM     68  C   UNL A   1      44.091  36.709  33.594  1.00  0.00     0.034 A 
BRANCH  55  69
ATOM     69  C   UNL A   1      38.839  33.653  34.734  1.00  0.00     0.023 A 
ATOM     70  C   UNL A   1      37.657  34.185  34.179  1.00  0.00     0.012 A 
ATOM     71  C   UNL A   1      38.789  33.018  35.991  1.00  0.00     0.148 A 
ATOM     72  C   UNL A   1      36.453  34.118  34.878  1.00  0.00     0.002 A 
ATOM     73  C   UNL A   1      37.575  32.911  36.658  1.00  0.00     0.091 A 
ATOM     74  F   UNL A   1      39.928  32.542  36.512  1.00  0.00    -0.205 F 
ATOM     75  C   UNL A   1      36.410  33.471  36.109  1.00  0.00     0.022 A 
BRANCH  73  76
ATOM     76  S   UNL A   1      37.399  32.027  38.210  1.00  0.00     0.127 S 
ATOM     77  O   UNL A   1      36.104  32.516  38.683  1.00  0.00    -0.237 OA
ATOM     78  O   UNL A   1      37.400  30.632  37.769  1.00  0.00    -0.237 OA
ATOM     79  O   UNL A   1      38.543  32.409  39.026  1.00  0.00    -0.744 OA
ENDBRANCH  73  76
ENDBRANCH  55  69
BRANCH  56  80
ATOM     80  C   UNL A   1      47.166  33.889  29.194  1.00  0.00     0.023 A 
ATOM     81  C   UNL A   1      48.374  33.337  29.660  1.00  0.00     0.012 A 
ATOM     82  C   UNL A   1      47.136  34.503  27.927  1.00  0.00     0.148 A 
ATOM     83  C   UNL A   1      49.539  33.427  28.898  1.00  0.00     0.002 A 
ATOM     84  C   UNL A   1      48.286  34.539  27.148  1.00  0.00     0.091 A 
ATOM     85  F   UNL A   1      45.980  35.036  27.507  1.00  0.00    -0.205 F 
ATOM     86  C   UNL A   1      49.494  34.020  27.640  1.00  0.00     0.022 A 
BRANCH  84  87
ATOM     87  S   UNL A   1      48.295  35.166  25.465  1.00  0.00     0.127 S 
ATOM     88  O   UNL A   1      49.553  34.629  24.952  1.00  0.00    -0.237 OA
ATOM     89  O   UNL A   1      47.089  34.549  24.912  1.00  0.00    -0.237 OA
ATOM     90  O   UNL A   1      48.230  36.615  25.583  1.00  0.00    -0.744 OA
ENDBRANCH  84  87
ENDBRANCH  56  80
BRANCH  68  91
ATOM     91  C   UNL A   1      44.601  37.966  34.252  1.00  0.00     0.023 A 
ATOM     92  C   UNL A   1      45.578  37.891  35.264  1.00  0.00     0.012 A 
ATOM     93  C   UNL A   1      44.156  39.231  33.815  1.00  0.00     0.148 A 
ATOM     94  C   UNL A   1      46.076  39.051  35.856  1.00  0.00     0.002 A 
ATOM     95  C   UNL A   1      44.696  40.382  34.372  1.00  0.00     0.091 A 
ATOM     96  F   UNL A   1      43.214  39.282  32.861  1.00  0.00    -0.205 F 
ATOM     97  C   UNL A   1      45.644  40.296  35.403  1.00  0.00     0.022 A 
BRANCH  95  98
ATOM     98  S   UNL A   1      44.275  42.027  33.781  1.00  0.00     0.127 S 
ATOM     99  O   UNL A   1      42.861  42.119  34.141  1.00  0.00    -0.237 OA
ATOM    100  O   UNL A   1      45.164  42.877  34.574  1.00  0.00    -0.237 OA
ATOM    101  O   UNL A   1      44.555  42.027  32.352  1.00  0.00    -0.744 OA
ENDBRANCH  95  98
ENDBRANCH  68  91
ENDBRANCH  42  43
ENDBRANCH  35  37
ENDBRANCH  34  35
ENDBRANCH  33  34
ENDBRANCH  32  33
ENDBRANCH  31  32
ENDBRANCH  30  31
ENDBRANCH   1  30
TORSDOF 25
ENDMDL
MODEL 3
REMARK VINA RESULT:      -8.7      5.663      8.679
REMARK SMILES C[NH+]1CCC(NC(=O)N[C@H]2C=C[C@H](C(=O)OCCOCCOCCOCCOC(=O)c3ccc(-c4c5nc(c(-c6cccc(S(=O)(=O)[O-])c6F)c6ccc([nH]6)c(-c6cccc(S(=O)(=O)[O-])c6F)c6nc(c(-c7cccc(S(=O)(=O)[O-])c7F)c7ccc4[nH]7)C=C6)C=C5)cc3)C2)CC1
REMARK SMILES IDX 23 1 22 2 21 3 20 4 19 5 18 6 17 7 16 8 14 9 15 10 13 11
REMARK SMILES IDX 10 12 11 13 94 14 12 15 9 16 6 17 7 18 8 20 5 22 1 23 2 24
REMARK SMILES IDX 3 25 96 26 4 28 95 29 24 30 25 31 26 32 27 33 28 34 29 35
REMARK SMILES IDX 30 36 31 37 32 38 93 39 33 40 92 41 34 42 35 43 36 44 86 45
REMARK SMILES IDX 37 46 91 47 85 48 87 49 38 50 90 51 84 52 83 53 39 55 71 56
REMARK SMILES IDX 51 57 70 58 52 59 55 60 69 61 88 62 53 63 54 64 68 66 89 67
REMARK SMILES IDX 56 68 40 69 41 70 49 71 42 72 44 73 50 74 43 75 45 76 46 77
REMARK SMILES IDX 47 78 48 79 72 80 73 81 81 82 74 83 76 84 82 85 75 86 77 87
REMARK SMILES IDX 78 88 79 89 80 90 57 91 58 92 66 93 59 94 61 95 67 96 60 97
REMARK SMILES IDX 62 98 63 99 64 100 65 101
REMARK H PARENT 6 19 9 21 2 27 87 54 55 65
REMARK Flexibility Score: inf
ROOT
ATOM      1  C   UNL A   1      35.009  23.270  23.926  1.00  0.00     0.188 C 
ENDROOT
BRANCH   1   2
ATOM      2  O   UNL A   1      33.952  23.870  24.664  1.00  0.00    -0.377 OA
BRANCH   2   3
ATOM      3  C   UNL A   1      32.654  23.298  24.613  1.00  0.00     0.188 C 
BRANCH   3   4
ATOM      4  C   UNL A   1      31.667  23.651  23.479  1.00  0.00     0.188 C 
BRANCH   4   5
ATOM      5  O   UNL A   1      30.667  24.586  23.830  1.00  0.00    -0.376 OA
BRANCH   5   6
ATOM      6  C   UNL A   1      30.700  25.889  23.281  1.00  0.00     0.202 C 
BRANCH   6   7
ATOM      7  C   UNL A   1      29.940  26.952  24.069  1.00  0.00     0.261 C 
BRANCH   7   8
ATOM      8  O   UNL A   1      30.775  27.957  24.657  1.00  0.00    -0.463 OA
BRANCH   8   9
ATOM      9  C   UNL A   1      31.324  27.764  25.895  1.00  0.00     0.312 C 
ATOM     10  O   UNL A   1      30.858  27.076  26.787  1.00  0.00    -0.252 OA
BRANCH   9  11
ATOM     11  C   UNL A   1      32.666  28.486  25.893  1.00  0.00     0.124 C 
ATOM     12  C   UNL A   1      34.335  29.448  27.413  1.00  0.00     0.107 C 
ATOM     13  C   UNL A   1      33.583  30.497  26.674  1.00  0.00    -0.006 C 
ATOM     14  C   UNL A   1      33.645  28.138  27.034  1.00  0.00     0.048 C 
ATOM     15  C   UNL A   1      32.620  29.978  25.904  1.00  0.00    -0.014 C 
BRANCH  12  16
ATOM     16  N   UNL A   1      35.783  29.574  27.288  1.00  0.00    -0.332 N 
ATOM     17  N   UNL A   1      36.846  31.331  28.507  1.00  0.00    -0.335 N 
ATOM     18  C   UNL A   1      36.845  30.244  27.735  1.00  0.00     0.315 C 
ATOM     19  H   UNL A   1      37.732  31.554  28.873  1.00  0.00     0.165 HD
ATOM     20  O   UNL A   1      37.948  29.795  27.398  1.00  0.00    -0.249 OA
ATOM     21  H   UNL A   1      36.092  28.916  26.623  1.00  0.00     0.165 HD
BRANCH  17  22
ATOM     22  C   UNL A   1      35.806  32.245  28.914  1.00  0.00     0.095 C 
ATOM     23  C   UNL A   1      33.184  35.320  30.131  1.00  0.00     0.332 C 
ATOM     24  N   UNL A   1      34.466  34.692  29.770  1.00  0.00    -0.337 N 
ATOM     25  C   UNL A   1      34.400  34.233  28.379  1.00  0.00     0.264 C 
ATOM     26  C   UNL A   1      34.803  33.648  30.744  1.00  0.00     0.264 C 
ATOM     27  H   UNL A   1      35.236  35.362  29.815  1.00  0.00     0.347 HD
ATOM     28  C   UNL A   1      35.622  33.414  27.952  1.00  0.00     0.086 C 
ATOM     29  C   UNL A   1      35.994  32.779  30.328  1.00  0.00     0.086 C 
ENDBRANCH  17  22
ENDBRANCH  12  16
ENDBRANCH   9  11
ENDBRANCH   8   9
ENDBRANCH   7   8
ENDBRANCH   6   7
ENDBRANCH   5   6
ENDBRANCH   4   5
ENDBRANCH   3   4
ENDBRANCH   2   3
ENDBRANCH   1   2
BRANCH   1  30
ATOM     30  C   UNL A   1      35.551  21.887  24.365  1.00  0.00     0.188 C 
BRANCH  30  31
ATOM     31  O   UNL A   1      36.423  21.923  25.484  1.00  0.00    -0.376 OA
BRANCH  31  32
ATOM     32  C   UNL A   1      37.729  21.396  25.342  1.00  0.00     0.202 C 
BRANCH  32  33
ATOM     33  C   UNL A   1      38.865  22.059  26.134  1.00  0.00     0.261 C 
BRANCH  33  34
ATOM     34  O   UNL A   1      40.177  21.518  25.936  1.00  0.00    -0.460 OA
BRANCH  34  35
ATOM     35  C   UNL A   1      40.901  21.235  27.038  1.00  0.00     0.338 C 
ATOM     36  O   UNL A   1      40.851  20.214  27.709  1.00  0.00    -0.246 OA
BRANCH  35  37
ATOM     37  C   UNL A   1      41.932  22.284  27.167  1.00  0.00     0.060 A 
ATOM     38  C   UNL A   1      42.602  22.438  28.389  1.00  0.00     0.016 A 
ATOM     39  C   UNL A   1      42.257  23.085  26.071  1.00  0.00     0.016 A 
ATOM     40  C   UNL A   1      43.586  23.415  28.526  1.00  0.00     0.010 A 
ATOM     41  C   UNL A   1      43.216  24.088  26.221  1.00  0.00     0.010 A 
ATOM     42  C   UNL A   1      43.857  24.277  27.457  1.00  0.00    -0.014 A 
BRANCH  42  43
ATOM     43  C   UNL A   1      44.627  25.516  27.708  1.00  0.00     0.031 A 
ATOM     44  C   UNL A   1      43.939  26.633  28.442  1.00  0.00     0.074 A 
ATOM     45  C   UNL A   1      45.904  25.642  27.309  1.00  0.00     0.049 A 
ATOM     46  N   UNL A   1      44.385  27.820  28.752  1.00  0.00    -0.248 NA
ATOM     47  C   UNL A   1      42.558  26.373  28.885  1.00  0.00     0.031 C 
ATOM     48  C   UNL A   1      46.679  24.619  26.609  1.00  0.00     0.029 A 
ATOM     49  N   UNL A   1      46.764  26.705  27.418  1.00  0.00    -0.354 N 
ATOM     50  C   UNL A   1      43.335  28.459  29.397  1.00  0.00     0.074 A 
ATOM     51  C   UNL A   1      42.224  27.534  29.426  1.00  0.00     0.031 C 
ATOM     52  C   UNL A   1      47.896  25.117  26.324  1.00  0.00     0.029 A 
ATOM     53  C   UNL A   1      47.972  26.500  26.795  1.00  0.00     0.049 A 
ATOM     54  H   UNL A   1      46.539  27.535  27.897  1.00  0.00     0.167 HD
ATOM     55  C   UNL A   1      43.299  29.702  29.930  1.00  0.00     0.034 A 
ATOM     56  C   UNL A   1      49.005  27.344  26.605  1.00  0.00     0.034 A 
ATOM     57  C   UNL A   1      44.407  30.617  29.901  1.00  0.00     0.049 A 
ATOM     58  C   UNL A   1      48.924  28.742  27.167  1.00  0.00     0.074 A 
ATOM     59  C   UNL A   1      44.486  31.887  30.442  1.00  0.00     0.029 A 
ATOM     60  N   UNL A   1      45.623  30.368  29.282  1.00  0.00    -0.354 N 
ATOM     61  N   UNL A   1      47.964  29.299  27.865  1.00  0.00    -0.248 NA
ATOM     62  C   UNL A   1      50.085  29.615  26.943  1.00  0.00     0.031 C 
ATOM     63  C   UNL A   1      45.736  32.422  30.114  1.00  0.00     0.029 A 
ATOM     64  C   UNL A   1      46.454  31.465  29.414  1.00  0.00     0.049 A 
ATOM     65  H   UNL A   1      45.858  29.532  28.819  1.00  0.00     0.167 HD
ATOM     66  C   UNL A   1      48.422  30.571  28.198  1.00  0.00     0.074 A 
ATOM     67  C   UNL A   1      49.753  30.693  27.640  1.00  0.00     0.031 C 
ATOM     68  C   UNL A   1      47.796  31.553  28.894  1.00  0.00     0.034 A 
BRANCH  55  69
ATOM     69  C   UNL A   1      42.020  30.142  30.590  1.00  0.00     0.023 A 
ATOM     70  C   UNL A   1      41.048  30.841  29.845  1.00  0.00     0.012 A 
ATOM     71  C   UNL A   1      41.763  29.825  31.938  1.00  0.00     0.148 A 
ATOM     72  C   UNL A   1      39.856  31.249  30.442  1.00  0.00     0.002 A 
ATOM     73  C   UNL A   1      40.552  30.191  32.511  1.00  0.00     0.091 A 
ATOM     74  F   UNL A   1      42.710  29.182  32.635  1.00  0.00    -0.205 F 
ATOM     75  C   UNL A   1      39.603  30.914  31.769  1.00  0.00     0.022 A 
BRANCH  73  76
ATOM     76  S   UNL A   1      40.097  29.736  34.187  1.00  0.00     0.127 S 
ATOM     77  O   UNL A   1      40.495  28.328  34.228  1.00  0.00    -0.237 OA
ATOM     78  O   UNL A   1      40.935  30.630  34.985  1.00  0.00    -0.237 OA
ATOM     79  O   UNL A   1      38.666  29.981  34.298  1.00  0.00    -0.744 OA
ENDBRANCH  73  76
ENDBRANCH  55  69
BRANCH  56  80
ATOM     80  C   UNL A   1      50.217  26.891  25.866  1.00  0.00     0.023 A 
ATOM     81  C   UNL A   1      51.176  26.093  26.519  1.00  0.00     0.012 A 
ATOM     82  C   UNL A   1      50.423  27.248  24.519  1.00  0.00     0.148 A 
ATOM     83  C   UNL A   1      52.336  25.690  25.856  1.00  0.00     0.002 A 
ATOM     84  C   UNL A   1      51.553  26.794  23.847  1.00  0.00     0.091 A 
ATOM     85  F   UNL A   1      49.507  28.020  23.920  1.00  0.00    -0.205 F 
ATOM     86  C   UNL A   1      52.520  26.032  24.520  1.00  0.00     0.022 A 
BRANCH  84  87
ATOM     87  S   UNL A   1      51.813  27.076  22.093  1.00  0.00     0.127 S 
ATOM     88  O   UNL A   1      52.854  26.099  21.785  1.00  0.00    -0.237 OA
ATOM     89  O   UNL A   1      50.493  26.765  21.544  1.00  0.00    -0.237 OA
ATOM     90  O   UNL A   1      52.203  28.473  21.971  1.00  0.00    -0.744 OA
ENDBRANCH  84  87
ENDBRANCH  56  80
BRANCH  68  91
ATOM     91  C   UNL A   1      48.556  32.830  29.147  1.00  0.00     0.023 A 
ATOM     92  C   UNL A   1      49.322  32.980  30.319  1.00  0.00     0.012 A 
ATOM     93  C   UNL A   1      48.563  33.857  28.181  1.00  0.00     0.148 A 
ATOM     94  C   UNL A   1      50.052  34.147  30.545  1.00  0.00     0.002 A 
ATOM     95  C   UNL A   1      49.336  34.993  28.387  1.00  0.00     0.091 A 
ATOM     96  F   UNL A   1      47.817  33.702  27.077  1.00  0.00    -0.205 F 
ATOM     97  C   UNL A   1      50.068  35.148  29.574  1.00  0.00     0.022 A 
BRANCH  95  98
ATOM     98  S   UNL A   1      49.498  36.286  27.150  1.00  0.00     0.127 S 
ATOM     99  O   UNL A   1      48.195  36.942  27.233  1.00  0.00    -0.237 OA
ATOM    100  O   UNL A   1      50.614  37.075  27.673  1.00  0.00    -0.237 OA
ATOM    101  O   UNL A   1      49.775  35.608  25.891  1.00  0.00    -0.744 OA
ENDBRANCH  95  98
ENDBRANCH  68  91
ENDBRANCH  42  43
ENDBRANCH  35  37
ENDBRANCH  34  35
ENDBRANCH  33  34
ENDBRANCH  32  33
ENDBRANCH  31  32
ENDBRANCH  30  31
ENDBRANCH   1  30
TORSDOF 25
ENDMDL
