MODEL 1
REMARK VINA RESULT:      -9.1      0.000      0.000
REMARK SMILES C[C@@H](C(=O)OCCOCCOCCOCCOC(=O)c1ccc(-c2c3nc(c(-c4cccc(S(=O)(=O)[O-])c4F)c4ccc([nH]4)c(-c4cccc(S(=O)(=O)[O-])c4F)c4nc(c(-c5cccc(S(=O)(=O)[O-])c5F)c5ccc2[nH]5)C=C4)C=C3)cc1)c1ccc(C[C@@H]2CCC[C@@H]2O)cc1F
REMARK SMILES IDX 10 1 9 2 8 3 7 4 6 5 5 6 3 7 4 8 2 9 1 10 83 11 84 12 95 13
REMARK SMILES IDX 85 14 94 15 96 16 86 17 87 18 88 19 89 20 92 21 90 22 91 23
REMARK SMILES IDX 93 24 11 26 12 27 13 28 14 29 15 30 16 31 17 32 18 33 19 34
REMARK SMILES IDX 20 35 21 36 82 37 22 38 81 39 23 40 24 41 25 42 75 43 26 44
REMARK SMILES IDX 80 45 74 46 76 47 27 48 79 49 73 50 72 51 28 53 60 54 40 55
REMARK SMILES IDX 59 56 41 57 44 58 58 59 77 60 42 61 43 62 57 64 78 65 45 66
REMARK SMILES IDX 29 67 30 68 38 69 31 70 33 71 39 72 32 73 34 74 35 75 36 76
REMARK SMILES IDX 37 77 61 78 62 79 70 80 63 81 65 82 71 83 64 84 66 85 67 86
REMARK SMILES IDX 68 87 69 88 46 89 47 90 55 91 48 92 50 93 56 94 49 95 51 96
REMARK SMILES IDX 52 97 53 98 54 99
REMARK H PARENT 93 25 76 52 44 63
REMARK Flexibility Score: inf
ROOT
ATOM      1  C   UNL A   1      35.136  20.780  25.048  1.00  0.00     0.188 C 
ENDROOT
BRANCH   1   2
ATOM      2  C   UNL A   1      33.857  20.703  25.896  1.00  0.00     0.188 C 
BRANCH   2   3
ATOM      3  O   UNL A   1      32.594  20.739  25.259  1.00  0.00    -0.376 OA
BRANCH   3   4
ATOM      4  C   UNL A   1      31.780  21.905  25.311  1.00  0.00     0.202 C 
BRANCH   4   5
ATOM      5  C   UNL A   1      31.636  22.949  24.181  1.00  0.00     0.261 C 
BRANCH   5   6
ATOM      6  O   UNL A   1      32.804  23.712  23.871  1.00  0.00    -0.463 OA
BRANCH   6   7
ATOM      7  C   UNL A   1      32.676  25.055  23.773  1.00  0.00     0.313 C 
ATOM      8  O   UNL A   1      31.699  25.622  23.290  1.00  0.00    -0.252 OA
BRANCH   7   9
ATOM      9  C   UNL A   1      33.813  25.812  24.472  1.00  0.00     0.129 C 
ATOM     10  C   UNL A   1      34.718  24.874  25.288  1.00  0.00     0.025 C 
BRANCH   9  11
ATOM     11  C   UNL A   1      33.359  27.114  25.146  1.00  0.00     0.002 A 
ATOM     12  C   UNL A   1      33.836  28.356  24.685  1.00  0.00     0.008 A 
ATOM     13  C   UNL A   1      32.558  27.145  26.293  1.00  0.00     0.127 A 
ATOM     14  C   UNL A   1      33.572  29.547  25.363  1.00  0.00     0.004 A 
ATOM     15  C   UNL A   1      32.325  28.331  27.001  1.00  0.00     0.043 A 
ATOM     16  F   UNL A   1      32.034  26.018  26.794  1.00  0.00    -0.207 F 
ATOM     17  C   UNL A   1      32.905  29.533  26.585  1.00  0.00    -0.045 A 
BRANCH  17  18
ATOM     18  C   UNL A   1      32.911  30.756  27.470  1.00  0.00     0.041 C 
BRANCH  18  19
ATOM     19  C   UNL A   1      34.224  31.590  27.501  1.00  0.00     0.022 C 
ATOM     20  C   UNL A   1      35.361  31.023  28.366  1.00  0.00     0.007 C 
ATOM     21  C   UNL A   1      34.130  33.034  28.011  1.00  0.00     0.117 C 
ATOM     22  C   UNL A   1      35.337  31.791  29.694  1.00  0.00     0.003 C 
ATOM     23  C   UNL A   1      34.346  32.938  29.517  1.00  0.00     0.032 C 
BRANCH  21  24
ATOM     24  O   UNL A   1      32.935  33.689  27.645  1.00  0.00    -0.393 OA
ATOM     25  H   UNL A   1      32.181  33.100  27.810  1.00  0.00     0.210 HD
ENDBRANCH  21  24
ENDBRANCH  18  19
ENDBRANCH  17  18
ENDBRANCH   9  11
ENDBRANCH   7   9
ENDBRANCH   6   7
ENDBRANCH   5   6
ENDBRANCH   4   5
ENDBRANCH   3   4
ENDBRANCH   2   3
ENDBRANCH   1   2
BRANCH   1  26
ATOM     26  O   UNL A   1      36.265  21.307  25.712  1.00  0.00    -0.377 OA
BRANCH  26  27
ATOM     27  C   UNL A   1      37.513  21.308  25.032  1.00  0.00     0.188 C 
BRANCH  27  28
ATOM     28  C   UNL A   1      38.831  21.519  25.807  1.00  0.00     0.188 C 
BRANCH  28  29
ATOM     29  O   UNL A   1      39.724  20.415  25.800  1.00  0.00    -0.376 OA
BRANCH  29  30
ATOM     30  C   UNL A   1      40.892  20.478  26.604  1.00  0.00     0.202 C 
BRANCH  30  31
ATOM     31  C   UNL A   1      42.053  19.529  26.264  1.00  0.00     0.261 C 
BRANCH  31  32
ATOM     32  O   UNL A   1      42.625  19.663  24.955  1.00  0.00    -0.460 OA
BRANCH  32  33
ATOM     33  C   UNL A   1      43.969  19.682  24.847  1.00  0.00     0.338 C 
ATOM     34  O   UNL A   1      44.689  18.771  24.463  1.00  0.00    -0.246 OA
BRANCH  33  35
ATOM     35  C   UNL A   1      44.421  21.069  25.071  1.00  0.00     0.060 A 
ATOM     36  C   UNL A   1      45.083  21.381  26.267  1.00  0.00     0.016 A 
ATOM     37  C   UNL A   1      44.200  22.056  24.107  1.00  0.00     0.016 A 
ATOM     38  C   UNL A   1      45.485  22.692  26.523  1.00  0.00     0.010 A 
ATOM     39  C   UNL A   1      44.584  23.373  24.374  1.00  0.00     0.010 A 
ATOM     40  C   UNL A   1      45.192  23.704  25.599  1.00  0.00    -0.014 A 
BRANCH  40  41
ATOM     41  C   UNL A   1      45.330  25.124  26.001  1.00  0.00     0.031 A 
ATOM     42  C   UNL A   1      46.709  25.728  26.019  1.00  0.00     0.074 A 
ATOM     43  C   UNL A   1      44.262  25.868  26.337  1.00  0.00     0.049 A 
ATOM     44  N   UNL A   1      47.087  26.925  26.380  1.00  0.00    -0.248 NA
ATOM     45  C   UNL A   1      47.811  24.858  25.572  1.00  0.00     0.031 C 
ATOM     46  C   UNL A   1      42.876  25.406  26.343  1.00  0.00     0.029 A 
ATOM     47  N   UNL A   1      44.186  27.172  26.765  1.00  0.00    -0.354 N 
ATOM     48  C   UNL A   1      48.469  26.945  26.234  1.00  0.00     0.074 A 
ATOM     49  C   UNL A   1      48.866  25.636  25.764  1.00  0.00     0.031 C 
ATOM     50  C   UNL A   1      42.089  26.400  26.791  1.00  0.00     0.029 A 
ATOM     51  C   UNL A   1      42.917  27.556  27.129  1.00  0.00     0.049 A 
ATOM     52  H   UNL A   1      44.966  27.772  26.807  1.00  0.00     0.167 HD
ATOM     53  C   UNL A   1      49.331  27.964  26.458  1.00  0.00     0.034 A 
ATOM     54  C   UNL A   1      42.484  28.697  27.701  1.00  0.00     0.034 A 
ATOM     55  C   UNL A   1      48.935  29.266  26.918  1.00  0.00     0.049 A 
ATOM     56  C   UNL A   1      43.469  29.804  27.981  1.00  0.00     0.074 A 
ATOM     57  C   UNL A   1      49.729  30.377  27.141  1.00  0.00     0.029 A 
ATOM     58  N   UNL A   1      47.637  29.630  27.244  1.00  0.00    -0.354 N 
ATOM     59  N   UNL A   1      44.758  29.845  27.742  1.00  0.00    -0.248 NA
ATOM     60  C   UNL A   1      42.933  31.037  28.579  1.00  0.00     0.031 C 
ATOM     61  C   UNL A   1      48.917  31.401  27.640  1.00  0.00     0.029 A 
ATOM     62  C   UNL A   1      47.610  30.943  27.680  1.00  0.00     0.049 A 
ATOM     63  H   UNL A   1      46.852  29.041  27.174  1.00  0.00     0.167 HD
ATOM     64  C   UNL A   1      45.179  31.117  28.123  1.00  0.00     0.074 A 
ATOM     65  C   UNL A   1      44.003  31.821  28.591  1.00  0.00     0.031 C 
ATOM     66  C   UNL A   1      46.426  31.650  28.096  1.00  0.00     0.034 A 
BRANCH  53  67
ATOM     67  C   UNL A   1      50.793  27.711  26.199  1.00  0.00     0.023 A 
ATOM     68  C   UNL A   1      51.649  27.377  27.270  1.00  0.00     0.012 A 
ATOM     69  C   UNL A   1      51.311  27.755  24.890  1.00  0.00     0.148 A 
ATOM     70  C   UNL A   1      53.002  27.129  27.046  1.00  0.00     0.002 A 
ATOM     71  C   UNL A   1      52.649  27.457  24.669  1.00  0.00     0.091 A 
ATOM     72  F   UNL A   1      50.487  28.095  23.889  1.00  0.00    -0.205 F 
ATOM     73  C   UNL A   1      53.499  27.158  25.746  1.00  0.00     0.022 A 
BRANCH  71  74
ATOM     74  S   UNL A   1      53.369  27.390  23.025  1.00  0.00     0.127 S 
ATOM     75  O   UNL A   1      52.380  26.589  22.303  1.00  0.00    -0.237 OA
ATOM     76  O   UNL A   1      53.400  28.803  22.647  1.00  0.00    -0.237 OA
ATOM     77  O   UNL A   1      54.677  26.771  23.181  1.00  0.00    -0.744 OA
ENDBRANCH  71  74
ENDBRANCH  53  67
BRANCH  54  78
ATOM     78  C   UNL A   1      41.041  28.860  28.044  1.00  0.00     0.023 A 
ATOM     79  C   UNL A   1      40.112  29.182  27.037  1.00  0.00     0.012 A 
ATOM     80  C   UNL A   1      40.589  28.697  29.369  1.00  0.00     0.148 A 
ATOM     81  C   UNL A   1      38.765  29.375  27.347  1.00  0.00     0.002 A 
ATOM     82  C   UNL A   1      39.237  28.832  29.661  1.00  0.00     0.091 A 
ATOM     83  F   UNL A   1      41.492  28.407  30.316  1.00  0.00    -0.205 F 
ATOM     84  C   UNL A   1      38.326  29.190  28.656  1.00  0.00     0.022 A 
BRANCH  82  85
ATOM     85  S   UNL A   1      38.563  28.489  31.289  1.00  0.00     0.127 S 
ATOM     86  O   UNL A   1      38.838  27.062  31.433  1.00  0.00    -0.237 OA
ATOM     87  O   UNL A   1      39.374  29.362  32.138  1.00  0.00    -0.237 OA
ATOM     88  O   UNL A   1      37.155  28.856  31.220  1.00  0.00    -0.744 OA
ENDBRANCH  82  85
ENDBRANCH  54  78
BRANCH  66  89
ATOM     89  C   UNL A   1      46.588  33.084  28.533  1.00  0.00     0.023 A 
ATOM     90  C   UNL A   1      46.647  33.406  29.904  1.00  0.00     0.012 A 
ATOM     91  C   UNL A   1      46.760  34.105  27.576  1.00  0.00     0.148 A 
ATOM     92  C   UNL A   1      46.838  34.726  30.313  1.00  0.00     0.002 A 
ATOM     93  C   UNL A   1      47.003  35.408  27.992  1.00  0.00     0.091 A 
ATOM     94  F   UNL A   1      46.687  33.781  26.277  1.00  0.00    -0.205 F 
ATOM     95  C   UNL A   1      47.028  35.723  29.359  1.00  0.00     0.022 A 
BRANCH  93  96
ATOM     96  S   UNL A   1      47.359  36.739  26.838  1.00  0.00     0.127 S 
ATOM     97  O   UNL A   1      48.081  37.684  27.689  1.00  0.00    -0.237 OA
ATOM     98  O   UNL A   1      48.185  36.065  25.836  1.00  0.00    -0.237 OA
ATOM     99  O   UNL A   1      46.069  37.203  26.346  1.00  0.00    -0.744 OA
ENDBRANCH  93  96
ENDBRANCH  66  89
ENDBRANCH  40  41
ENDBRANCH  33  35
ENDBRANCH  32  33
ENDBRANCH  31  32
ENDBRANCH  30  31
ENDBRANCH  29  30
ENDBRANCH  28  29
ENDBRANCH  27  28
ENDBRANCH  26  27
ENDBRANCH   1  26
TORSDOF 27
ENDMDL
MODEL 2
REMARK VINA RESULT:      -9.0      1.746      2.421
REMARK SMILES C[C@@H](C(=O)OCCOCCOCCOCCOC(=O)c1ccc(-c2c3nc(c(-c4cccc(S(=O)(=O)[O-])c4F)c4ccc([nH]4)c(-c4cccc(S(=O)(=O)[O-])c4F)c4nc(c(-c5cccc(S(=O)(=O)[O-])c5F)c5ccc2[nH]5)C=C4)C=C3)cc1)c1ccc(C[C@@H]2CCC[C@@H]2O)cc1F
REMARK SMILES IDX 10 1 9 2 8 3 7 4 6 5 5 6 3 7 4 8 2 9 1 10 83 11 84 12 95 13
REMARK SMILES IDX 85 14 94 15 96 16 86 17 87 18 88 19 89 20 92 21 90 22 91 23
REMARK SMILES IDX 93 24 11 26 12 27 13 28 14 29 15 30 16 31 17 32 18 33 19 34
REMARK SMILES IDX 20 35 21 36 82 37 22 38 81 39 23 40 24 41 25 42 75 43 26 44
REMARK SMILES IDX 80 45 74 46 76 47 27 48 79 49 73 50 72 51 28 53 60 54 40 55
REMARK SMILES IDX 59 56 41 57 44 58 58 59 77 60 42 61 43 62 57 64 78 65 45 66
REMARK SMILES IDX 29 67 30 68 38 69 31 70 33 71 39 72 32 73 34 74 35 75 36 76
REMARK SMILES IDX 37 77 61 78 62 79 70 80 63 81 65 82 71 83 64 84 66 85 67 86
REMARK SMILES IDX 68 87 69 88 46 89 47 90 55 91 48 92 50 93 56 94 49 95 51 96
REMARK SMILES IDX 52 97 53 98 54 99
REMARK H PARENT 93 25 76 52 44 63
REMARK Flexibility Score: inf
ROOT
ATOM      1  C   UNL A   1      35.342  20.463  25.166  1.00  0.00     0.188 C 
ENDROOT
BRANCH   1   2
ATOM      2  C   UNL A   1      34.048  20.391  25.992  1.00  0.00     0.188 C 
BRANCH   2   3
ATOM      3  O   UNL A   1      32.820  20.126  25.342  1.00  0.00    -0.376 OA
BRANCH   3   4
ATOM      4  C   UNL A   1      32.069  21.173  24.739  1.00  0.00     0.202 C 
BRANCH   4   5
ATOM      5  C   UNL A   1      32.549  22.063  23.570  1.00  0.00     0.261 C 
BRANCH   5   6
ATOM      6  O   UNL A   1      33.647  22.936  23.849  1.00  0.00    -0.463 OA
BRANCH   6   7
ATOM      7  C   UNL A   1      33.767  24.060  23.104  1.00  0.00     0.313 C 
ATOM      8  O   UNL A   1      33.873  24.069  21.881  1.00  0.00    -0.252 OA
BRANCH   7   9
ATOM      9  C   UNL A   1      33.601  25.341  23.933  1.00  0.00     0.129 C 
ATOM     10  C   UNL A   1      33.218  25.042  25.391  1.00  0.00     0.025 C 
BRANCH   9  11
ATOM     11  C   UNL A   1      32.812  26.441  23.209  1.00  0.00     0.002 A 
ATOM     12  C   UNL A   1      33.367  27.726  23.054  1.00  0.00     0.008 A 
ATOM     13  C   UNL A   1      31.493  26.277  22.771  1.00  0.00     0.127 A 
ATOM     14  C   UNL A   1      32.626  28.792  22.542  1.00  0.00     0.004 A 
ATOM     15  C   UNL A   1      30.732  27.353  22.296  1.00  0.00     0.043 A 
ATOM     16  F   UNL A   1      30.887  25.085  22.852  1.00  0.00    -0.207 F 
ATOM     17  C   UNL A   1      31.271  28.643  22.259  1.00  0.00    -0.045 A 
BRANCH  17  18
ATOM     18  C   UNL A   1      30.403  29.856  22.029  1.00  0.00     0.041 C 
BRANCH  18  19
ATOM     19  C   UNL A   1      29.164  30.016  22.954  1.00  0.00     0.022 C 
ATOM     20  C   UNL A   1      27.852  30.415  22.260  1.00  0.00     0.007 C 
ATOM     21  C   UNL A   1      29.253  31.056  24.079  1.00  0.00     0.117 C 
ATOM     22  C   UNL A   1      27.677  31.925  22.468  1.00  0.00     0.003 C 
ATOM     23  C   UNL A   1      28.754  32.356  23.459  1.00  0.00     0.032 C 
BRANCH  21  24
ATOM     24  O   UNL A   1      30.535  31.154  24.661  1.00  0.00    -0.393 OA
ATOM     25  H   UNL A   1      31.209  31.128  23.963  1.00  0.00     0.210 HD
ENDBRANCH  21  24
ENDBRANCH  18  19
ENDBRANCH  17  18
ENDBRANCH   9  11
ENDBRANCH   7   9
ENDBRANCH   6   7
ENDBRANCH   5   6
ENDBRANCH   4   5
ENDBRANCH   3   4
ENDBRANCH   2   3
ENDBRANCH   1   2
BRANCH   1  26
ATOM     26  O   UNL A   1      36.386  21.210  25.751  1.00  0.00    -0.377 OA
BRANCH  26  27
ATOM     27  C   UNL A   1      37.634  21.282  25.072  1.00  0.00     0.188 C 
BRANCH  27  28
ATOM     28  C   UNL A   1      38.945  21.493  25.857  1.00  0.00     0.188 C 
BRANCH  28  29
ATOM     29  O   UNL A   1      39.857  20.404  25.819  1.00  0.00    -0.376 OA
BRANCH  29  30
ATOM     30  C   UNL A   1      41.032  20.472  26.613  1.00  0.00     0.202 C 
BRANCH  30  31
ATOM     31  C   UNL A   1      42.194  19.528  26.262  1.00  0.00     0.261 C 
BRANCH  31  32
ATOM     32  O   UNL A   1      42.704  19.613  24.923  1.00  0.00    -0.460 OA
BRANCH  32  33
ATOM     33  C   UNL A   1      44.042  19.638  24.753  1.00  0.00     0.338 C 
ATOM     34  O   UNL A   1      44.743  18.739  24.313  1.00  0.00    -0.246 OA
BRANCH  33  35
ATOM     35  C   UNL A   1      44.503  21.020  24.991  1.00  0.00     0.060 A 
ATOM     36  C   UNL A   1      45.154  21.319  26.195  1.00  0.00     0.016 A 
ATOM     37  C   UNL A   1      44.299  22.015  24.031  1.00  0.00     0.016 A 
ATOM     38  C   UNL A   1      45.565  22.625  26.463  1.00  0.00     0.010 A 
ATOM     39  C   UNL A   1      44.690  23.326  24.310  1.00  0.00     0.010 A 
ATOM     40  C   UNL A   1      45.289  23.645  25.543  1.00  0.00    -0.014 A 
BRANCH  40  41
ATOM     41  C   UNL A   1      45.435  25.062  25.955  1.00  0.00     0.031 A 
ATOM     42  C   UNL A   1      46.818  25.653  25.993  1.00  0.00     0.074 A 
ATOM     43  C   UNL A   1      44.369  25.813  26.283  1.00  0.00     0.049 A 
ATOM     44  N   UNL A   1      47.202  26.845  26.365  1.00  0.00    -0.248 NA
ATOM     45  C   UNL A   1      47.918  24.776  25.553  1.00  0.00     0.031 C 
ATOM     46  C   UNL A   1      42.979  25.362  26.270  1.00  0.00     0.029 A 
ATOM     47  N   UNL A   1      44.299  27.114  26.719  1.00  0.00    -0.354 N 
ATOM     48  C   UNL A   1      48.586  26.854  26.236  1.00  0.00     0.074 A 
ATOM     49  C   UNL A   1      48.977  25.544  25.762  1.00  0.00     0.031 C 
ATOM     50  C   UNL A   1      42.195  26.360  26.715  1.00  0.00     0.029 A 
ATOM     51  C   UNL A   1      43.030  27.507  27.070  1.00  0.00     0.049 A 
ATOM     52  H   UNL A   1      45.083  27.707  26.773  1.00  0.00     0.167 HD
ATOM     53  C   UNL A   1      49.454  27.864  26.475  1.00  0.00     0.034 A 
ATOM     54  C   UNL A   1      42.599  28.648  27.644  1.00  0.00     0.034 A 
ATOM     55  C   UNL A   1      49.063  29.167  26.939  1.00  0.00     0.049 A 
ATOM     56  C   UNL A   1      43.590  29.745  27.943  1.00  0.00     0.074 A 
ATOM     57  C   UNL A   1      49.864  30.270  27.178  1.00  0.00     0.029 A 
ATOM     58  N   UNL A   1      47.766  29.540  27.252  1.00  0.00    -0.354 N 
ATOM     59  N   UNL A   1      44.882  29.777  27.719  1.00  0.00    -0.248 NA
ATOM     60  C   UNL A   1      43.058  30.979  28.542  1.00  0.00     0.031 C 
ATOM     61  C   UNL A   1      49.055  31.297  27.674  1.00  0.00     0.029 A 
ATOM     62  C   UNL A   1      47.744  30.850  27.697  1.00  0.00     0.049 A 
ATOM     63  H   UNL A   1      46.976  28.957  27.170  1.00  0.00     0.167 HD
ATOM     64  C   UNL A   1      45.309  31.042  28.112  1.00  0.00     0.074 A 
ATOM     65  C   UNL A   1      44.135  31.753  28.571  1.00  0.00     0.031 C 
ATOM     66  C   UNL A   1      46.561  31.565  28.103  1.00  0.00     0.034 A 
BRANCH  53  67
ATOM     67  C   UNL A   1      50.917  27.600  26.232  1.00  0.00     0.023 A 
ATOM     68  C   UNL A   1      51.752  27.227  27.307  1.00  0.00     0.012 A 
ATOM     69  C   UNL A   1      51.455  27.673  24.933  1.00  0.00     0.148 A 
ATOM     70  C   UNL A   1      53.105  26.968  27.097  1.00  0.00     0.002 A 
ATOM     71  C   UNL A   1      52.793  27.365  24.724  1.00  0.00     0.091 A 
ATOM     72  F   UNL A   1      50.651  28.050  23.929  1.00  0.00    -0.205 F 
ATOM     73  C   UNL A   1      53.623  27.026  25.806  1.00  0.00     0.022 A 
BRANCH  71  74
ATOM     74  S   UNL A   1      53.537  27.333  23.090  1.00  0.00     0.127 S 
ATOM     75  O   UNL A   1      52.611  26.467  22.361  1.00  0.00    -0.237 OA
ATOM     76  O   UNL A   1      53.485  28.743  22.703  1.00  0.00    -0.237 OA
ATOM     77  O   UNL A   1      54.879  26.798  23.267  1.00  0.00    -0.744 OA
ENDBRANCH  71  74
ENDBRANCH  53  67
BRANCH  54  78
ATOM     78  C   UNL A   1      41.154  28.821  27.972  1.00  0.00     0.023 A 
ATOM     79  C   UNL A   1      40.238  29.146  26.953  1.00  0.00     0.012 A 
ATOM     80  C   UNL A   1      40.687  28.666  29.292  1.00  0.00     0.148 A 
ATOM     81  C   UNL A   1      38.888  29.348  27.249  1.00  0.00     0.002 A 
ATOM     82  C   UNL A   1      39.333  28.810  29.569  1.00  0.00     0.091 A 
ATOM     83  F   UNL A   1      41.578  28.373  30.249  1.00  0.00    -0.205 F 
ATOM     84  C   UNL A   1      38.434  29.170  28.553  1.00  0.00     0.022 A 
BRANCH  82  85
ATOM     85  S   UNL A   1      38.640  28.477  31.191  1.00  0.00     0.127 S 
ATOM     86  O   UNL A   1      37.280  28.990  31.047  1.00  0.00    -0.237 OA
ATOM     87  O   UNL A   1      38.745  27.020  31.268  1.00  0.00    -0.237 OA
ATOM     88  O   UNL A   1      39.486  29.192  32.138  1.00  0.00    -0.744 OA
ENDBRANCH  82  85
ENDBRANCH  54  78
BRANCH  66  89
ATOM     89  C   UNL A   1      46.731  32.994  28.551  1.00  0.00     0.023 A 
ATOM     90  C   UNL A   1      46.824  33.303  29.923  1.00  0.00     0.012 A 
ATOM     91  C   UNL A   1      46.876  34.026  27.600  1.00  0.00     0.148 A 
ATOM     92  C   UNL A   1      47.021  34.619  30.341  1.00  0.00     0.002 A 
ATOM     93  C   UNL A   1      47.126  35.325  28.023  1.00  0.00     0.091 A 
ATOM     94  F   UNL A   1      46.770  33.716  26.301  1.00  0.00    -0.205 F 
ATOM     95  C   UNL A   1      47.184  35.626  29.393  1.00  0.00     0.022 A 
BRANCH  93  96
ATOM     96  S   UNL A   1      47.448  36.669  26.875  1.00  0.00     0.127 S 
ATOM     97  O   UNL A   1      47.298  37.840  27.739  1.00  0.00    -0.237 OA
ATOM     98  O   UNL A   1      48.822  36.393  26.456  1.00  0.00    -0.237 OA
ATOM     99  O   UNL A   1      46.456  36.544  25.817  1.00  0.00    -0.744 OA
ENDBRANCH  93  96
ENDBRANCH  66  89
ENDBRANCH  40  41
ENDBRANCH  33  35
ENDBRANCH  32  33
ENDBRANCH  31  32
ENDBRANCH  30  31
ENDBRANCH  29  30
ENDBRANCH  28  29
ENDBRANCH  27  28
ENDBRANCH  26  27
ENDBRANCH   1  26
TORSDOF 27
ENDMDL
MODEL 3
REMARK VINA RESULT:      -8.7      2.437      8.108
REMARK SMILES C[C@@H](C(=O)OCCOCCOCCOCCOC(=O)c1ccc(-c2c3nc(c(-c4cccc(S(=O)(=O)[O-])c4F)c4ccc([nH]4)c(-c4cccc(S(=O)(=O)[O-])c4F)c4nc(c(-c5cccc(S(=O)(=O)[O-])c5F)c5ccc2[nH]5)C=C4)C=C3)cc1)c1ccc(C[C@@H]2CCC[C@@H]2O)cc1F
REMARK SMILES IDX 10 1 9 2 8 3 7 4 6 5 5 6 3 7 4 8 2 9 1 10 83 11 84 12 95 13
REMARK SMILES IDX 85 14 94 15 96 16 86 17 87 18 88 19 89 20 92 21 90 22 91 23
REMARK SMILES IDX 93 24 11 26 12 27 13 28 14 29 15 30 16 31 17 32 18 33 19 34
REMARK SMILES IDX 20 35 21 36 82 37 22 38 81 39 23 40 24 41 25 42 75 43 26 44
REMARK SMILES IDX 80 45 74 46 76 47 27 48 79 49 73 50 72 51 28 53 60 54 40 55
REMARK SMILES IDX 59 56 41 57 44 58 58 59 77 60 42 61 43 62 57 64 78 65 45 66
REMARK SMILES IDX 29 67 30 68 38 69 31 70 33 71 39 72 32 73 34 74 35 75 36 76
REMARK SMILES IDX 37 77 61 78 62 79 70 80 63 81 65 82 71 83 64 84 66 85 67 86
REMARK SMILES IDX 68 87 69 88 46 89 47 90 55 91 48 92 50 93 56 94 49 95 51 96
REMARK SMILES IDX 52 97 53 98 54 99
REMARK H PARENT 93 25 76 52 44 63
REMARK Flexibility Score: inf
ROOT
ATOM      1  C   UNL A   1      33.758  22.699  24.030  1.00  0.00     0.188 C 
ENDROOT
BRANCH   1   2
ATOM      2  C   UNL A   1      32.626  23.504  24.687  1.00  0.00     0.188 C 
BRANCH   2   3
ATOM      3  O   UNL A   1      31.802  24.329  23.886  1.00  0.00    -0.376 OA
BRANCH   3   4
ATOM      4  C   UNL A   1      32.190  25.658  23.559  1.00  0.00     0.202 C 
BRANCH   4   5
ATOM      5  C   UNL A   1      33.584  26.274  23.817  1.00  0.00     0.261 C 
BRANCH   5   6
ATOM      6  O   UNL A   1      33.910  26.556  25.180  1.00  0.00    -0.463 OA
BRANCH   6   7
ATOM      7  C   UNL A   1      32.968  27.152  25.946  1.00  0.00     0.313 C 
ATOM      8  O   UNL A   1      32.088  26.548  26.554  1.00  0.00    -0.252 OA
BRANCH   7   9
ATOM      9  C   UNL A   1      33.202  28.660  26.107  1.00  0.00     0.129 C 
ATOM     10  C   UNL A   1      33.804  29.011  27.477  1.00  0.00     0.025 C 
BRANCH   9  11
ATOM     11  C   UNL A   1      32.028  29.518  25.614  1.00  0.00     0.002 A 
ATOM     12  C   UNL A   1      31.340  29.169  24.436  1.00  0.00     0.008 A 
ATOM     13  C   UNL A   1      31.651  30.722  26.219  1.00  0.00     0.127 A 
ATOM     14  C   UNL A   1      30.373  30.003  23.871  1.00  0.00     0.004 A 
ATOM     15  C   UNL A   1      30.712  31.582  25.635  1.00  0.00     0.043 A 
ATOM     16  F   UNL A   1      32.228  31.126  27.359  1.00  0.00    -0.207 F 
ATOM     17  C   UNL A   1      30.126  31.264  24.406  1.00  0.00    -0.045 A 
BRANCH  17  18
ATOM     18  C   UNL A   1      29.340  32.284  23.618  1.00  0.00     0.041 C 
BRANCH  18  19
ATOM     19  C   UNL A   1      27.917  31.863  23.152  1.00  0.00     0.022 C 
ATOM     20  C   UNL A   1      27.324  30.621  23.836  1.00  0.00     0.007 C 
ATOM     21  C   UNL A   1      27.732  31.524  21.668  1.00  0.00     0.117 C 
ATOM     22  C   UNL A   1      27.529  29.442  22.876  1.00  0.00     0.003 C 
ATOM     23  C   UNL A   1      28.031  30.032  21.562  1.00  0.00     0.032 C 
BRANCH  21  24
ATOM     24  O   UNL A   1      28.505  32.325  20.801  1.00  0.00    -0.393 OA
ATOM     25  H   UNL A   1      29.298  31.836  20.530  1.00  0.00     0.210 HD
ENDBRANCH  21  24
ENDBRANCH  18  19
ENDBRANCH  17  18
ENDBRANCH   9  11
ENDBRANCH   7   9
ENDBRANCH   6   7
ENDBRANCH   5   6
ENDBRANCH   4   5
ENDBRANCH   3   4
ENDBRANCH   2   3
ENDBRANCH   1   2
BRANCH   1  26
ATOM     26  O   UNL A   1      34.945  22.605  24.788  1.00  0.00    -0.377 OA
BRANCH  26  27
ATOM     27  C   UNL A   1      36.018  21.824  24.278  1.00  0.00     0.188 C 
BRANCH  27  28
ATOM     28  C   UNL A   1      37.452  22.007  24.817  1.00  0.00     0.188 C 
BRANCH  28  29
ATOM     29  O   UNL A   1      38.253  20.834  24.824  1.00  0.00    -0.376 OA
BRANCH  29  30
ATOM     30  C   UNL A   1      39.016  20.537  25.984  1.00  0.00     0.202 C 
BRANCH  30  31
ATOM     31  C   UNL A   1      39.850  19.246  25.985  1.00  0.00     0.261 C 
BRANCH  31  32
ATOM     32  O   UNL A   1      41.098  19.291  25.277  1.00  0.00    -0.460 OA
BRANCH  32  33
ATOM     33  C   UNL A   1      42.237  19.347  25.998  1.00  0.00     0.338 C 
ATOM     34  O   UNL A   1      43.037  18.442  26.180  1.00  0.00    -0.246 OA
BRANCH  33  35
ATOM     35  C   UNL A   1      42.471  20.758  26.364  1.00  0.00     0.060 A 
ATOM     36  C   UNL A   1      42.625  21.707  25.344  1.00  0.00     0.016 A 
ATOM     37  C   UNL A   1      42.531  21.146  27.705  1.00  0.00     0.016 A 
ATOM     38  C   UNL A   1      42.886  23.039  25.662  1.00  0.00     0.010 A 
ATOM     39  C   UNL A   1      42.815  22.477  28.022  1.00  0.00     0.010 A 
ATOM     40  C   UNL A   1      43.033  23.421  27.001  1.00  0.00    -0.014 A 
BRANCH  40  41
ATOM     41  C   UNL A   1      43.615  24.745  27.327  1.00  0.00     0.031 A 
ATOM     42  C   UNL A   1      42.690  25.830  27.812  1.00  0.00     0.074 A 
ATOM     43  C   UNL A   1      44.932  24.986  27.202  1.00  0.00     0.049 A 
ATOM     44  N   UNL A   1      42.953  27.074  28.108  1.00  0.00    -0.248 NA
ATOM     45  C   UNL A   1      41.275  25.457  27.981  1.00  0.00     0.031 C 
ATOM     46  C   UNL A   1      45.932  24.016  26.759  1.00  0.00     0.029 A 
ATOM     47  N   UNL A   1      45.649  26.138  27.415  1.00  0.00    -0.354 N 
ATOM     48  C   UNL A   1      41.737  27.642  28.469  1.00  0.00     0.074 A 
ATOM     49  C   UNL A   1      40.732  26.610  28.342  1.00  0.00     0.031 C 
ATOM     50  C   UNL A   1      47.129  24.625  26.698  1.00  0.00     0.029 A 
ATOM     51  C   UNL A   1      46.975  26.031  27.068  1.00  0.00     0.049 A 
ATOM     52  H   UNL A   1      45.251  26.961  27.780  1.00  0.00     0.167 HD
ATOM     53  C   UNL A   1      41.480  28.905  28.882  1.00  0.00     0.034 A 
ATOM     54  C   UNL A   1      47.942  26.969  27.023  1.00  0.00     0.034 A 
ATOM     55  C   UNL A   1      42.480  29.928  29.014  1.00  0.00     0.049 A 
ATOM     56  C   UNL A   1      47.623  28.381  27.447  1.00  0.00     0.074 A 
ATOM     57  C   UNL A   1      42.325  31.228  29.459  1.00  0.00     0.029 A 
ATOM     58  N   UNL A   1      43.818  29.773  28.686  1.00  0.00    -0.354 N 
ATOM     59  N   UNL A   1      46.490  28.877  27.883  1.00  0.00    -0.248 NA
ATOM     60  C   UNL A   1      48.724  29.355  27.405  1.00  0.00     0.031 C 
ATOM     61  C   UNL A   1      43.562  31.873  29.362  1.00  0.00     0.029 A 
ATOM     62  C   UNL A   1      44.498  30.959  28.905  1.00  0.00     0.049 A 
ATOM     63  H   UNL A   1      44.223  28.943  28.349  1.00  0.00     0.167 HD
ATOM     64  C   UNL A   1      46.752  30.207  28.203  1.00  0.00     0.074 A 
ATOM     65  C   UNL A   1      48.155  30.432  27.928  1.00  0.00     0.031 C 
ATOM     66  C   UNL A   1      45.906  31.157  28.674  1.00  0.00     0.034 A 
BRANCH  53  67
ATOM     67  C   UNL A   1      40.054  29.248  29.228  1.00  0.00     0.023 A 
ATOM     68  C   UNL A   1      39.130  29.532  28.200  1.00  0.00     0.012 A 
ATOM     69  C   UNL A   1      39.618  29.244  30.567  1.00  0.00     0.148 A 
ATOM     70  C   UNL A   1      37.805  29.841  28.503  1.00  0.00     0.002 A 
ATOM     71  C   UNL A   1      38.284  29.504  30.857  1.00  0.00     0.091 A 
ATOM     72  F   UNL A   1      40.515  28.994  31.530  1.00  0.00    -0.205 F 
ATOM     73  C   UNL A   1      37.380  29.816  29.829  1.00  0.00     0.022 A 
BRANCH  71  74
ATOM     74  S   UNL A   1      37.620  29.418  32.523  1.00  0.00     0.127 S 
ATOM     75  O   UNL A   1      37.712  27.986  32.805  1.00  0.00    -0.237 OA
ATOM     76  O   UNL A   1      38.565  30.247  33.271  1.00  0.00    -0.237 OA
ATOM     77  O   UNL A   1      36.268  29.952  32.448  1.00  0.00    -0.744 OA
ENDBRANCH  71  74
ENDBRANCH  53  67
BRANCH  54  78
ATOM     78  C   UNL A   1      49.314  26.607  26.564  1.00  0.00     0.023 A 
ATOM     79  C   UNL A   1      50.119  25.764  27.355  1.00  0.00     0.012 A 
ATOM     80  C   UNL A   1      49.824  27.097  25.346  1.00  0.00     0.148 A 
ATOM     81  C   UNL A   1      51.419  25.445  26.958  1.00  0.00     0.002 A 
ATOM     82  C   UNL A   1      51.097  26.728  24.928  1.00  0.00     0.091 A 
ATOM     83  F   UNL A   1      49.049  27.912  24.616  1.00  0.00    -0.205 F 
ATOM     84  C   UNL A   1      51.904  25.918  25.741  1.00  0.00     0.022 A 
BRANCH  82  85
ATOM     85  S   UNL A   1      51.756  27.185  23.322  1.00  0.00     0.127 S 
ATOM     86  O   UNL A   1      52.775  26.160  23.113  1.00  0.00    -0.237 OA
ATOM     87  O   UNL A   1      50.574  27.064  22.469  1.00  0.00    -0.237 OA
ATOM     88  O   UNL A   1      52.253  28.547  23.471  1.00  0.00    -0.744 OA
ENDBRANCH  82  85
ENDBRANCH  54  78
BRANCH  66  89
ATOM     89  C   UNL A   1      46.476  32.520  28.978  1.00  0.00     0.023 A 
ATOM     90  C   UNL A   1      47.086  32.774  30.223  1.00  0.00     0.012 A 
ATOM     91  C   UNL A   1      46.474  33.528  27.991  1.00  0.00     0.148 A 
ATOM     92  C   UNL A   1      47.650  34.020  30.494  1.00  0.00     0.002 A 
ATOM     93  C   UNL A   1      47.086  34.748  28.250  1.00  0.00     0.091 A 
ATOM     94  F   UNL A   1      45.877  33.272  26.819  1.00  0.00    -0.205 F 
ATOM     95  C   UNL A   1      47.661  35.001  29.505  1.00  0.00     0.022 A 
BRANCH  93  96
ATOM     96  S   UNL A   1      47.237  36.034  27.005  1.00  0.00     0.127 S 
ATOM     97  O   UNL A   1      48.137  35.406  26.038  1.00  0.00    -0.237 OA
ATOM     98  O   UNL A   1      45.856  36.183  26.546  1.00  0.00    -0.237 OA
ATOM     99  O   UNL A   1      47.777  37.200  27.691  1.00  0.00    -0.744 OA
ENDBRANCH  93  96
ENDBRANCH  66  89
ENDBRANCH  40  41
ENDBRANCH  33  35
ENDBRANCH  32  33
ENDBRANCH  31  32
ENDBRANCH  30  31
ENDBRANCH  29  30
ENDBRANCH  28  29
ENDBRANCH  27  28
ENDBRANCH  26  27
ENDBRANCH   1  26
TORSDOF 27
ENDMDL
