MODEL 1
REMARK VINA RESULT:      -8.7      0.000      0.000
REMARK SMILES C/C(=N\NC(N)=O)c1nnn(-c2ccc(C(=O)OCCOCCOCCOCCOC(=O)c3ccc(-c4c5nc(c(-c6cccc(S(=O)(=O)[O-])c6F)c6ccc([nH]6)c(-c6cccc(S(=O)(=O)[O-])c6F)c6nc(c(-c7cccc(S(=O)(=O)[O-])c7F)c7ccc4[nH]7)C=C6)C=C5)cc3)cc2)c1C
REMARK SMILES IDX 24 1 23 2 22 3 21 4 20 5 19 6 18 7 16 8 17 9 15 10 12 11
REMARK SMILES IDX 13 12 97 13 14 14 96 15 11 16 8 17 9 18 98 19 10 20 99 21
REMARK SMILES IDX 2 22 1 23 3 24 4 25 5 26 6 28 7 29 25 32 26 33 27 34 28 35
REMARK SMILES IDX 29 36 30 37 31 38 32 39 33 40 34 41 95 42 35 43 94 44 36 45
REMARK SMILES IDX 37 46 38 47 88 48 39 49 93 50 87 51 89 52 40 53 92 54 86 55
REMARK SMILES IDX 85 56 41 58 73 59 53 60 72 61 54 62 57 63 71 64 90 65 55 66
REMARK SMILES IDX 56 67 70 69 91 70 58 71 42 72 43 73 51 74 44 75 46 76 52 77
REMARK SMILES IDX 45 78 47 79 48 80 49 81 50 82 74 83 75 84 83 85 76 86 78 87
REMARK SMILES IDX 84 88 77 89 79 90 80 91 81 92 82 93 59 94 60 95 68 96 61 97
REMARK SMILES IDX 63 98 69 99 62 100 64 101 65 102 66 103 67 104
REMARK H PARENT 4 27 6 30 6 31 89 57 57 68
REMARK Flexibility Score: inf
ROOT
ATOM      1  O   UNL A   1      38.591  22.884  26.135  1.00  0.00    -0.377 OA
ENDROOT
BRANCH   1   2
ATOM      2  C   UNL A   1      37.651  21.955  25.623  1.00  0.00     0.188 C 
BRANCH   2   3
ATOM      3  C   UNL A   1      36.186  22.456  25.621  1.00  0.00     0.188 C 
BRANCH   3   4
ATOM      4  O   UNL A   1      35.216  22.026  26.576  1.00  0.00    -0.376 OA
BRANCH   4   5
ATOM      5  C   UNL A   1      34.098  22.828  26.921  1.00  0.00     0.202 C 
BRANCH   5   6
ATOM      6  C   UNL A   1      33.168  23.364  25.827  1.00  0.00     0.261 C 
BRANCH   6   7
ATOM      7  O   UNL A   1      32.282  24.402  26.239  1.00  0.00    -0.460 OA
BRANCH   7   8
ATOM      8  C   UNL A   1      31.911  25.265  25.276  1.00  0.00     0.338 C 
ATOM      9  O   UNL A   1      31.313  25.004  24.233  1.00  0.00    -0.246 OA
BRANCH   8  10
ATOM     10  C   UNL A   1      32.214  26.642  25.714  1.00  0.00     0.060 A 
ATOM     11  C   UNL A   1      33.056  29.123  26.579  1.00  0.00     0.067 A 
ATOM     12  C   UNL A   1      33.347  28.740  25.267  1.00  0.00     0.029 A 
ATOM     13  C   UNL A   1      32.207  28.360  27.393  1.00  0.00     0.029 A 
ATOM     14  C   UNL A   1      32.945  27.475  24.849  1.00  0.00     0.018 A 
ATOM     15  C   UNL A   1      31.782  27.113  26.958  1.00  0.00     0.018 A 
BRANCH  11  16
ATOM     16  N   UNL A   1      33.882  30.085  27.191  1.00  0.00    -0.217 N 
ATOM     17  C   UNL A   1      34.526  31.898  28.203  1.00  0.00     0.132 A 
ATOM     18  N   UNL A   1      35.397  30.888  28.512  1.00  0.00    -0.128 NA
ATOM     19  C   UNL A   1      33.513  31.404  27.407  1.00  0.00     0.071 A 
ATOM     20  N   UNL A   1      34.934  29.765  27.974  1.00  0.00    -0.061 NA
ATOM     21  C   UNL A   1      32.225  32.003  26.975  1.00  0.00     0.069 C 
BRANCH  17  22
ATOM     22  C   UNL A   1      34.590  33.220  28.795  1.00  0.00     0.087 C 
ATOM     23  C   UNL A   1      35.824  34.034  28.496  1.00  0.00     0.071 C 
ATOM     24  N   UNL A   1      33.561  33.554  29.514  1.00  0.00    -0.174 NA
BRANCH  24  25
ATOM     25  N   UNL A   1      33.513  34.720  30.222  1.00  0.00    -0.229 N 
ATOM     26  C   UNL A   1      32.979  35.913  29.784  1.00  0.00     0.332 C 
ATOM     27  H   UNL A   1      33.895  34.707  31.128  1.00  0.00     0.195 HD
ATOM     28  N   UNL A   1      33.141  36.916  30.692  1.00  0.00    -0.350 N 
ATOM     29  O   UNL A   1      32.396  36.131  28.730  1.00  0.00    -0.247 OA
ATOM     30  H   UNL A   1      33.610  36.742  31.540  1.00  0.00     0.161 HD
ATOM     31  H   UNL A   1      32.789  37.815  30.500  1.00  0.00     0.161 HD
ENDBRANCH  24  25
ENDBRANCH  17  22
ENDBRANCH  11  16
ENDBRANCH   8  10
ENDBRANCH   7   8
ENDBRANCH   6   7
ENDBRANCH   5   6
ENDBRANCH   4   5
ENDBRANCH   3   4
ENDBRANCH   2   3
ENDBRANCH   1   2
BRANCH   1  32
ATOM     32  C   UNL A   1      39.758  22.291  26.700  1.00  0.00     0.188 C 
BRANCH  32  33
ATOM     33  C   UNL A   1      40.080  20.838  26.265  1.00  0.00     0.188 C 
BRANCH  33  34
ATOM     34  O   UNL A   1      41.355  20.681  25.645  1.00  0.00    -0.376 OA
BRANCH  34  35
ATOM     35  C   UNL A   1      42.535  21.149  26.283  1.00  0.00     0.202 C 
BRANCH  35  36
ATOM     36  C   UNL A   1      43.775  21.196  25.394  1.00  0.00     0.261 C 
BRANCH  36  37
ATOM     37  O   UNL A   1      44.796  22.000  25.949  1.00  0.00    -0.460 OA
BRANCH  37  38
ATOM     38  C   UNL A   1      45.335  22.911  25.131  1.00  0.00     0.338 C 
ATOM     39  O   UNL A   1      46.289  22.758  24.361  1.00  0.00    -0.246 OA
BRANCH  38  40
ATOM     40  C   UNL A   1      44.635  24.173  25.324  1.00  0.00     0.060 A 
ATOM     41  C   UNL A   1      45.365  25.323  25.016  1.00  0.00     0.016 A 
ATOM     42  C   UNL A   1      43.543  24.162  26.203  1.00  0.00     0.016 A 
ATOM     43  C   UNL A   1      45.246  26.379  25.874  1.00  0.00     0.010 A 
ATOM     44  C   UNL A   1      43.465  25.190  27.090  1.00  0.00     0.010 A 
ATOM     45  C   UNL A   1      44.398  26.218  26.970  1.00  0.00    -0.014 A 
BRANCH  45  46
ATOM     46  C   UNL A   1      44.532  27.130  28.071  1.00  0.00     0.031 A 
ATOM     47  C   UNL A   1      45.452  26.632  29.106  1.00  0.00     0.074 A 
ATOM     48  C   UNL A   1      43.971  28.351  27.983  1.00  0.00     0.049 A 
ATOM     49  N   UNL A   1      45.191  26.358  30.340  1.00  0.00    -0.248 NA
ATOM     50  C   UNL A   1      46.786  26.193  28.657  1.00  0.00     0.031 C 
ATOM     51  C   UNL A   1      43.322  28.956  26.810  1.00  0.00     0.029 A 
ATOM     52  N   UNL A   1      44.033  29.379  28.865  1.00  0.00    -0.354 N 
ATOM     53  C   UNL A   1      46.414  25.955  30.867  1.00  0.00     0.074 A 
ATOM     54  C   UNL A   1      47.258  25.617  29.758  1.00  0.00     0.031 C 
ATOM     55  C   UNL A   1      43.306  30.298  26.963  1.00  0.00     0.029 A 
ATOM     56  C   UNL A   1      43.839  30.623  28.273  1.00  0.00     0.049 A 
ATOM     57  H   UNL A   1      44.201  29.258  29.827  1.00  0.00     0.167 HD
ATOM     58  C   UNL A   1      46.759  26.262  32.143  1.00  0.00     0.034 A 
ATOM     59  C   UNL A   1      44.227  31.815  28.786  1.00  0.00     0.034 A 
ATOM     60  C   UNL A   1      45.604  26.579  32.941  1.00  0.00     0.049 A 
ATOM     61  C   UNL A   1      44.494  31.606  30.230  1.00  0.00     0.074 A 
ATOM     62  C   UNL A   1      44.447  25.911  33.284  1.00  0.00     0.029 A 
ATOM     63  N   UNL A   1      45.375  27.908  33.202  1.00  0.00    -0.354 N 
ATOM     64  N   UNL A   1      43.576  31.295  31.103  1.00  0.00    -0.248 NA
ATOM     65  C   UNL A   1      45.861  31.316  30.638  1.00  0.00     0.031 C 
ATOM     66  C   UNL A   1      43.438  26.915  33.333  1.00  0.00     0.029 A 
ATOM     67  C   UNL A   1      44.035  28.147  33.050  1.00  0.00     0.049 A 
ATOM     68  H   UNL A   1      46.056  28.574  33.454  1.00  0.00     0.167 HD
ATOM     69  C   UNL A   1      44.194  30.390  31.959  1.00  0.00     0.074 A 
ATOM     70  C   UNL A   1      45.624  30.543  31.700  1.00  0.00     0.031 C 
ATOM     71  C   UNL A   1      43.481  29.398  32.571  1.00  0.00     0.034 A 
BRANCH  58  72
ATOM     72  C   UNL A   1      48.157  26.662  32.551  1.00  0.00     0.023 A 
ATOM     73  C   UNL A   1      48.575  27.960  32.200  1.00  0.00     0.012 A 
ATOM     74  C   UNL A   1      49.159  25.770  33.013  1.00  0.00     0.148 A 
ATOM     75  C   UNL A   1      49.922  28.335  32.257  1.00  0.00     0.002 A 
ATOM     76  C   UNL A   1      50.478  26.176  33.155  1.00  0.00     0.091 A 
ATOM     77  F   UNL A   1      48.890  24.473  33.185  1.00  0.00    -0.205 F 
ATOM     78  C   UNL A   1      50.873  27.448  32.747  1.00  0.00     0.022 A 
BRANCH  76  79
ATOM     79  S   UNL A   1      51.719  25.070  33.841  1.00  0.00     0.127 S 
ATOM     80  O   UNL A   1      51.833  24.069  32.785  1.00  0.00    -0.237 OA
ATOM     81  O   UNL A   1      52.873  25.959  33.982  1.00  0.00    -0.237 OA
ATOM     82  O   UNL A   1      51.166  24.612  35.110  1.00  0.00    -0.744 OA
ENDBRANCH  76  79
ENDBRANCH  58  72
BRANCH  59  83
ATOM     83  C   UNL A   1      44.673  33.026  28.058  1.00  0.00     0.023 A 
ATOM     84  C   UNL A   1      43.836  34.157  28.011  1.00  0.00     0.012 A 
ATOM     85  C   UNL A   1      46.006  33.166  27.607  1.00  0.00     0.148 A 
ATOM     86  C   UNL A   1      44.315  35.388  27.544  1.00  0.00     0.002 A 
ATOM     87  C   UNL A   1      46.470  34.384  27.121  1.00  0.00     0.091 A 
ATOM     88  F   UNL A   1      46.849  32.134  27.741  1.00  0.00    -0.205 F 
ATOM     89  C   UNL A   1      45.629  35.503  27.099  1.00  0.00     0.022 A 
BRANCH  87  90
ATOM     90  S   UNL A   1      48.155  34.596  26.526  1.00  0.00     0.127 S 
ATOM     91  O   UNL A   1      48.111  35.946  25.962  1.00  0.00    -0.237 OA
ATOM     92  O   UNL A   1      48.929  34.471  27.758  1.00  0.00    -0.237 OA
ATOM     93  O   UNL A   1      48.359  33.545  25.537  1.00  0.00    -0.744 OA
ENDBRANCH  87  90
ENDBRANCH  59  83
BRANCH  71  94
ATOM     94  C   UNL A   1      41.973  29.456  32.489  1.00  0.00     0.023 A 
ATOM     95  C   UNL A   1      41.215  30.281  33.348  1.00  0.00     0.012 A 
ATOM     96  C   UNL A   1      41.331  28.842  31.401  1.00  0.00     0.148 A 
ATOM     97  C   UNL A   1      39.848  30.475  33.138  1.00  0.00     0.002 A 
ATOM     98  C   UNL A   1      39.980  29.076  31.167  1.00  0.00     0.091 A 
ATOM     99  F   UNL A   1      42.066  28.072  30.584  1.00  0.00    -0.205 F 
ATOM    100  C   UNL A   1      39.233  29.884  32.039  1.00  0.00     0.022 A 
BRANCH  98 101
ATOM    101  S   UNL A   1      39.155  28.466  29.694  1.00  0.00     0.127 S 
ATOM    102  O   UNL A   1      39.869  29.170  28.631  1.00  0.00    -0.237 OA
ATOM    103  O   UNL A   1      39.419  27.028  29.760  1.00  0.00    -0.237 OA
ATOM    104  O   UNL A   1      37.749  28.820  29.844  1.00  0.00    -0.744 OA
ENDBRANCH  98 101
ENDBRANCH  71  94
ENDBRANCH  45  46
ENDBRANCH  38  40
ENDBRANCH  37  38
ENDBRANCH  36  37
ENDBRANCH  35  36
ENDBRANCH  34  35
ENDBRANCH  33  34
ENDBRANCH  32  33
ENDBRANCH   1  32
TORSDOF 26
ENDMDL
MODEL 2
REMARK VINA RESULT:      -8.6      4.931     10.057
REMARK SMILES C/C(=N\NC(N)=O)c1nnn(-c2ccc(C(=O)OCCOCCOCCOCCOC(=O)c3ccc(-c4c5nc(c(-c6cccc(S(=O)(=O)[O-])c6F)c6ccc([nH]6)c(-c6cccc(S(=O)(=O)[O-])c6F)c6nc(c(-c7cccc(S(=O)(=O)[O-])c7F)c7ccc4[nH]7)C=C6)C=C5)cc3)cc2)c1C
REMARK SMILES IDX 24 1 23 2 22 3 21 4 20 5 19 6 18 7 16 8 17 9 15 10 12 11
REMARK SMILES IDX 13 12 97 13 14 14 96 15 11 16 8 17 9 18 98 19 10 20 99 21
REMARK SMILES IDX 2 22 1 23 3 24 4 25 5 26 6 28 7 29 25 32 26 33 27 34 28 35
REMARK SMILES IDX 29 36 30 37 31 38 32 39 33 40 34 41 95 42 35 43 94 44 36 45
REMARK SMILES IDX 37 46 38 47 88 48 39 49 93 50 87 51 89 52 40 53 92 54 86 55
REMARK SMILES IDX 85 56 41 58 73 59 53 60 72 61 54 62 57 63 71 64 90 65 55 66
REMARK SMILES IDX 56 67 70 69 91 70 58 71 42 72 43 73 51 74 44 75 46 76 52 77
REMARK SMILES IDX 45 78 47 79 48 80 49 81 50 82 74 83 75 84 83 85 76 86 78 87
REMARK SMILES IDX 84 88 77 89 79 90 80 91 81 92 82 93 59 94 60 95 68 96 61 97
REMARK SMILES IDX 63 98 69 99 62 100 64 101 65 102 66 103 67 104
REMARK H PARENT 4 27 6 30 6 31 89 57 57 68
REMARK Flexibility Score: inf
ROOT
ATOM      1  O   UNL A   1      33.414  34.274  30.267  1.00  0.00    -0.377 OA
ENDROOT
BRANCH   1   2
ATOM      2  C   UNL A   1      34.135  34.304  29.047  1.00  0.00     0.188 C 
BRANCH   2   3
ATOM      3  C   UNL A   1      35.669  34.427  29.209  1.00  0.00     0.188 C 
BRANCH   3   4
ATOM      4  O   UNL A   1      36.564  33.336  28.994  1.00  0.00    -0.376 OA
BRANCH   4   5
ATOM      5  C   UNL A   1      37.972  33.496  29.059  1.00  0.00     0.202 C 
BRANCH   5   6
ATOM      6  C   UNL A   1      38.607  34.252  30.232  1.00  0.00     0.261 C 
BRANCH   6   7
ATOM      7  O   UNL A   1      39.271  33.433  31.192  1.00  0.00    -0.460 OA
BRANCH   7   8
ATOM      8  C   UNL A   1      40.224  34.047  31.918  1.00  0.00     0.338 C 
ATOM      9  O   UNL A   1      41.163  34.719  31.496  1.00  0.00    -0.246 OA
BRANCH   8  10
ATOM     10  C   UNL A   1      39.905  33.908  33.353  1.00  0.00     0.060 A 
ATOM     11  C   UNL A   1      39.256  33.368  35.979  1.00  0.00     0.067 A 
ATOM     12  C   UNL A   1      40.528  33.018  35.521  1.00  0.00     0.029 A 
ATOM     13  C   UNL A   1      38.382  34.134  35.196  1.00  0.00     0.029 A 
ATOM     14  C   UNL A   1      40.837  33.267  34.187  1.00  0.00     0.018 A 
ATOM     15  C   UNL A   1      38.709  34.409  33.876  1.00  0.00     0.018 A 
BRANCH  11  16
ATOM     16  N   UNL A   1      38.727  32.665  37.078  1.00  0.00    -0.217 N 
ATOM     17  C   UNL A   1      38.071  32.198  39.098  1.00  0.00     0.132 A 
ATOM     18  N   UNL A   1      37.333  31.457  38.213  1.00  0.00    -0.128 NA
ATOM     19  C   UNL A   1      38.931  33.022  38.403  1.00  0.00     0.071 A 
ATOM     20  N   UNL A   1      37.671  31.830  36.983  1.00  0.00    -0.061 NA
ATOM     21  C   UNL A   1      39.778  34.156  38.850  1.00  0.00     0.069 C 
BRANCH  17  22
ATOM     22  C   UNL A   1      37.823  32.219  40.526  1.00  0.00     0.087 C 
ATOM     23  C   UNL A   1      36.741  31.300  41.036  1.00  0.00     0.071 C 
ATOM     24  N   UNL A   1      38.576  33.029  41.206  1.00  0.00    -0.174 NA
BRANCH  24  25
ATOM     25  N   UNL A   1      38.399  33.241  42.542  1.00  0.00    -0.229 N 
ATOM     26  C   UNL A   1      37.726  34.300  43.114  1.00  0.00     0.332 C 
ATOM     27  H   UNL A   1      38.790  32.577  43.155  1.00  0.00     0.195 HD
ATOM     28  N   UNL A   1      37.778  34.271  44.475  1.00  0.00    -0.350 N 
ATOM     29  O   UNL A   1      37.111  35.191  42.544  1.00  0.00    -0.247 OA
ATOM     30  H   UNL A   1      38.272  33.554  44.934  1.00  0.00     0.161 HD
ATOM     31  H   UNL A   1      37.321  34.968  45.000  1.00  0.00     0.161 HD
ENDBRANCH  24  25
ENDBRANCH  17  22
ENDBRANCH  11  16
ENDBRANCH   8  10
ENDBRANCH   7   8
ENDBRANCH   6   7
ENDBRANCH   5   6
ENDBRANCH   4   5
ENDBRANCH   3   4
ENDBRANCH   2   3
ENDBRANCH   1   2
BRANCH   1  32
ATOM     32  C   UNL A   1      33.535  35.458  31.051  1.00  0.00     0.188 C 
BRANCH  32  33
ATOM     33  C   UNL A   1      34.430  35.368  32.314  1.00  0.00     0.188 C 
BRANCH  33  34
ATOM     34  O   UNL A   1      34.126  34.270  33.172  1.00  0.00    -0.376 OA
BRANCH  34  35
ATOM     35  C   UNL A   1      34.496  32.946  32.814  1.00  0.00     0.202 C 
BRANCH  35  36
ATOM     36  C   UNL A   1      35.952  32.775  32.390  1.00  0.00     0.261 C 
BRANCH  36  37
ATOM     37  O   UNL A   1      36.557  31.655  33.007  1.00  0.00    -0.460 OA
BRANCH  37  38
ATOM     38  C   UNL A   1      36.963  30.681  32.186  1.00  0.00     0.338 C 
ATOM     39  O   UNL A   1      36.678  30.538  30.993  1.00  0.00    -0.246 OA
BRANCH  38  40
ATOM     40  C   UNL A   1      37.784  29.751  32.947  1.00  0.00     0.060 A 
ATOM     41  C   UNL A   1      38.787  30.328  33.728  1.00  0.00     0.016 A 
ATOM     42  C   UNL A   1      37.825  28.425  32.493  1.00  0.00     0.016 A 
ATOM     43  C   UNL A   1      40.003  29.705  33.733  1.00  0.00     0.010 A 
ATOM     44  C   UNL A   1      39.048  27.832  32.450  1.00  0.00     0.010 A 
ATOM     45  C   UNL A   1      40.127  28.544  32.971  1.00  0.00    -0.014 A 
BRANCH  45  46
ATOM     46  C   UNL A   1      41.448  28.081  32.649  1.00  0.00     0.031 A 
ATOM     47  C   UNL A   1      42.202  27.657  33.840  1.00  0.00     0.074 A 
ATOM     48  C   UNL A   1      41.793  27.931  31.357  1.00  0.00     0.049 A 
ATOM     49  N   UNL A   1      43.300  28.149  34.305  1.00  0.00    -0.248 NA
ATOM     50  C   UNL A   1      41.541  26.693  34.738  1.00  0.00     0.031 C 
ATOM     51  C   UNL A   1      40.923  28.055  30.177  1.00  0.00     0.029 A 
ATOM     52  N   UNL A   1      42.949  27.448  30.837  1.00  0.00    -0.354 N 
ATOM     53  C   UNL A   1      43.583  27.365  35.419  1.00  0.00     0.074 A 
ATOM     54  C   UNL A   1      42.366  26.698  35.781  1.00  0.00     0.031 C 
ATOM     55  C   UNL A   1      41.495  27.403  29.142  1.00  0.00     0.029 A 
ATOM     56  C   UNL A   1      42.798  26.920  29.559  1.00  0.00     0.049 A 
ATOM     57  H   UNL A   1      43.808  27.468  31.316  1.00  0.00     0.167 HD
ATOM     58  C   UNL A   1      44.862  27.049  35.743  1.00  0.00     0.034 A 
ATOM     59  C   UNL A   1      43.634  26.036  28.962  1.00  0.00     0.034 A 
ATOM     60  C   UNL A   1      45.800  27.958  35.141  1.00  0.00     0.049 A 
ATOM     61  C   UNL A   1      44.913  26.066  29.712  1.00  0.00     0.074 A 
ATOM     62  C   UNL A   1      45.996  29.323  35.187  1.00  0.00     0.029 A 
ATOM     63  N   UNL A   1      46.485  27.506  34.040  1.00  0.00    -0.354 N 
ATOM     64  N   UNL A   1      45.707  27.101  29.758  1.00  0.00    -0.248 NA
ATOM     65  C   UNL A   1      45.108  25.088  30.772  1.00  0.00     0.031 C 
ATOM     66  C   UNL A   1      46.434  29.680  33.880  1.00  0.00     0.029 A 
ATOM     67  C   UNL A   1      46.515  28.514  33.114  1.00  0.00     0.049 A 
ATOM     68  H   UNL A   1      46.886  26.612  33.935  1.00  0.00     0.167 HD
ATOM     69  C   UNL A   1      46.184  27.123  31.064  1.00  0.00     0.074 A 
ATOM     70  C   UNL A   1      45.884  25.796  31.597  1.00  0.00     0.031 C 
ATOM     71  C   UNL A   1      46.499  28.302  31.680  1.00  0.00     0.034 A 
BRANCH  58  72
ATOM     72  C   UNL A   1      45.274  25.693  36.268  1.00  0.00     0.023 A 
ATOM     73  C   UNL A   1      45.322  24.638  35.335  1.00  0.00     0.012 A 
ATOM     74  C   UNL A   1      45.356  25.339  37.639  1.00  0.00     0.148 A 
ATOM     75  C   UNL A   1      45.398  23.303  35.745  1.00  0.00     0.002 A 
ATOM     76  C   UNL A   1      45.524  24.020  38.036  1.00  0.00     0.091 A 
ATOM     77  F   UNL A   1      45.128  26.247  38.592  1.00  0.00    -0.205 F 
ATOM     78  C   UNL A   1      45.512  22.993  37.095  1.00  0.00     0.022 A 
BRANCH  76  79
ATOM     79  S   UNL A   1      45.733  23.595  39.770  1.00  0.00     0.127 S 
ATOM     80  O   UNL A   1      47.186  23.614  39.903  1.00  0.00    -0.237 OA
ATOM     81  O   UNL A   1      45.034  24.693  40.439  1.00  0.00    -0.237 OA
ATOM     82  O   UNL A   1      45.085  22.299  39.929  1.00  0.00    -0.744 OA
ENDBRANCH  76  79
ENDBRANCH  58  72
BRANCH  59  83
ATOM     83  C   UNL A   1      43.298  24.963  27.998  1.00  0.00     0.023 A 
ATOM     84  C   UNL A   1      41.955  24.576  27.825  1.00  0.00     0.012 A 
ATOM     85  C   UNL A   1      44.253  24.475  27.076  1.00  0.00     0.148 A 
ATOM     86  C   UNL A   1      41.576  23.745  26.764  1.00  0.00     0.002 A 
ATOM     87  C   UNL A   1      43.876  23.629  26.038  1.00  0.00     0.091 A 
ATOM     88  F   UNL A   1      45.517  24.913  27.157  1.00  0.00    -0.205 F 
ATOM     89  C   UNL A   1      42.533  23.270  25.871  1.00  0.00     0.022 A 
BRANCH  87  90
ATOM     90  S   UNL A   1      45.066  22.978  24.856  1.00  0.00     0.127 S 
ATOM     91  O   UNL A   1      45.631  24.202  24.287  1.00  0.00    -0.237 OA
ATOM     92  O   UNL A   1      45.972  22.229  25.721  1.00  0.00    -0.237 OA
ATOM     93  O   UNL A   1      44.289  22.186  23.910  1.00  0.00    -0.744 OA
ENDBRANCH  87  90
ENDBRANCH  59  83
BRANCH  71  94
ATOM     94  C   UNL A   1      46.549  29.552  30.833  1.00  0.00     0.023 A 
ATOM     95  C   UNL A   1      47.697  29.897  30.087  1.00  0.00     0.012 A 
ATOM     96  C   UNL A   1      45.361  30.270  30.615  1.00  0.00     0.148 A 
ATOM     97  C   UNL A   1      47.666  30.943  29.162  1.00  0.00     0.002 A 
ATOM     98  C   UNL A   1      45.321  31.278  29.659  1.00  0.00     0.091 A 
ATOM     99  F   UNL A   1      44.273  29.921  31.320  1.00  0.00    -0.205 F 
ATOM    100  C   UNL A   1      46.475  31.624  28.937  1.00  0.00     0.022 A 
BRANCH  98 101
ATOM    101  S   UNL A   1      43.789  32.100  29.213  1.00  0.00     0.127 S 
ATOM    102  O   UNL A   1      43.686  33.132  30.243  1.00  0.00    -0.237 OA
ATOM    103  O   UNL A   1      44.082  32.604  27.871  1.00  0.00    -0.237 OA
ATOM    104  O   UNL A   1      42.755  31.073  29.251  1.00  0.00    -0.744 OA
ENDBRANCH  98 101
ENDBRANCH  71  94
ENDBRANCH  45  46
ENDBRANCH  38  40
ENDBRANCH  37  38
ENDBRANCH  36  37
ENDBRANCH  35  36
ENDBRANCH  34  35
ENDBRANCH  33  34
ENDBRANCH  32  33
ENDBRANCH   1  32
TORSDOF 26
ENDMDL
MODEL 3
REMARK VINA RESULT:      -8.4      6.940     11.753
REMARK SMILES C/C(=N\NC(N)=O)c1nnn(-c2ccc(C(=O)OCCOCCOCCOCCOC(=O)c3ccc(-c4c5nc(c(-c6cccc(S(=O)(=O)[O-])c6F)c6ccc([nH]6)c(-c6cccc(S(=O)(=O)[O-])c6F)c6nc(c(-c7cccc(S(=O)(=O)[O-])c7F)c7ccc4[nH]7)C=C6)C=C5)cc3)cc2)c1C
REMARK SMILES IDX 24 1 23 2 22 3 21 4 20 5 19 6 18 7 16 8 17 9 15 10 12 11
REMARK SMILES IDX 13 12 97 13 14 14 96 15 11 16 8 17 9 18 98 19 10 20 99 21
REMARK SMILES IDX 2 22 1 23 3 24 4 25 5 26 6 28 7 29 25 32 26 33 27 34 28 35
REMARK SMILES IDX 29 36 30 37 31 38 32 39 33 40 34 41 95 42 35 43 94 44 36 45
REMARK SMILES IDX 37 46 38 47 88 48 39 49 93 50 87 51 89 52 40 53 92 54 86 55
REMARK SMILES IDX 85 56 41 58 73 59 53 60 72 61 54 62 57 63 71 64 90 65 55 66
REMARK SMILES IDX 56 67 70 69 91 70 58 71 42 72 43 73 51 74 44 75 46 76 52 77
REMARK SMILES IDX 45 78 47 79 48 80 49 81 50 82 74 83 75 84 83 85 76 86 78 87
REMARK SMILES IDX 84 88 77 89 79 90 80 91 81 92 82 93 59 94 60 95 68 96 61 97
REMARK SMILES IDX 63 98 69 99 62 100 64 101 65 102 66 103 67 104
REMARK H PARENT 4 27 6 30 6 31 89 57 57 68
REMARK Flexibility Score: inf
ROOT
ATOM      1  O   UNL A   1      37.960  28.341  29.327  1.00  0.00    -0.377 OA
ENDROOT
BRANCH   1   2
ATOM      2  C   UNL A   1      39.172  27.783  29.805  1.00  0.00     0.188 C 
BRANCH   2   3
ATOM      3  C   UNL A   1      39.762  26.664  28.912  1.00  0.00     0.188 C 
BRANCH   3   4
ATOM      4  O   UNL A   1      40.074  26.854  27.532  1.00  0.00    -0.376 OA
BRANCH   4   5
ATOM      5  C   UNL A   1      40.316  25.761  26.661  1.00  0.00     0.202 C 
BRANCH   5   6
ATOM      6  C   UNL A   1      39.834  24.355  27.039  1.00  0.00     0.261 C 
BRANCH   6   7
ATOM      7  O   UNL A   1      38.516  24.029  26.603  1.00  0.00    -0.460 OA
BRANCH   7   8
ATOM      8  C   UNL A   1      38.367  22.802  26.071  1.00  0.00     0.338 C 
ATOM      9  O   UNL A   1      39.163  21.867  26.125  1.00  0.00    -0.246 OA
BRANCH   8  10
ATOM     10  C   UNL A   1      37.010  22.682  25.501  1.00  0.00     0.060 A 
ATOM     11  C   UNL A   1      34.467  22.748  24.435  1.00  0.00     0.067 A 
ATOM     12  C   UNL A   1      35.552  22.965  23.583  1.00  0.00     0.029 A 
ATOM     13  C   UNL A   1      34.648  22.329  25.760  1.00  0.00     0.029 A 
ATOM     14  C   UNL A   1      36.830  22.959  24.135  1.00  0.00     0.018 A 
ATOM     15  C   UNL A   1      35.927  22.293  26.297  1.00  0.00     0.018 A 
BRANCH  11  16
ATOM     16  N   UNL A   1      33.215  23.278  24.067  1.00  0.00    -0.217 N 
ATOM     17  C   UNL A   1      31.670  24.697  23.496  1.00  0.00     0.132 A 
ATOM     18  N   UNL A   1      31.349  23.467  22.985  1.00  0.00    -0.128 NA
ATOM     19  C   UNL A   1      32.885  24.623  24.144  1.00  0.00     0.071 A 
ATOM     20  N   UNL A   1      32.351  22.637  23.251  1.00  0.00    -0.061 NA
ATOM     21  C   UNL A   1      33.779  25.682  24.675  1.00  0.00     0.069 C 
BRANCH  17  22
ATOM     22  C   UNL A   1      30.915  25.903  23.214  1.00  0.00     0.087 C 
ATOM     23  C   UNL A   1      29.611  26.069  23.952  1.00  0.00     0.071 C 
ATOM     24  N   UNL A   1      31.463  26.709  22.355  1.00  0.00    -0.174 NA
BRANCH  24  25
ATOM     25  N   UNL A   1      30.833  27.833  21.906  1.00  0.00    -0.229 N 
ATOM     26  C   UNL A   1      31.129  29.130  22.270  1.00  0.00     0.332 C 
ATOM     27  H   UNL A   1      30.099  27.706  21.263  1.00  0.00     0.195 HD
ATOM     28  N   UNL A   1      30.279  30.032  21.704  1.00  0.00    -0.350 N 
ATOM     29  O   UNL A   1      32.038  29.515  22.992  1.00  0.00    -0.247 OA
ATOM     30  H   UNL A   1      29.547  29.722  21.123  1.00  0.00     0.161 HD
ATOM     31  H   UNL A   1      30.396  30.994  21.877  1.00  0.00     0.161 HD
ENDBRANCH  24  25
ENDBRANCH  17  22
ENDBRANCH  11  16
ENDBRANCH   8  10
ENDBRANCH   7   8
ENDBRANCH   6   7
ENDBRANCH   5   6
ENDBRANCH   4   5
ENDBRANCH   3   4
ENDBRANCH   2   3
ENDBRANCH   1   2
BRANCH   1  32
ATOM     32  C   UNL A   1      37.857  29.753  29.492  1.00  0.00     0.188 C 
BRANCH  32  33
ATOM     33  C   UNL A   1      36.496  30.297  30.000  1.00  0.00     0.188 C 
BRANCH  33  34
ATOM     34  O   UNL A   1      36.004  31.419  29.270  1.00  0.00    -0.376 OA
BRANCH  34  35
ATOM     35  C   UNL A   1      35.126  32.354  29.882  1.00  0.00     0.202 C 
BRANCH  35  36
ATOM     36  C   UNL A   1      35.735  33.727  30.156  1.00  0.00     0.261 C 
BRANCH  36  37
ATOM     37  O   UNL A   1      35.582  34.115  31.507  1.00  0.00    -0.460 OA
BRANCH  37  38
ATOM     38  C   UNL A   1      35.970  33.219  32.421  1.00  0.00     0.338 C 
ATOM     39  O   UNL A   1      35.249  32.512  33.132  1.00  0.00    -0.246 OA
BRANCH  38  40
ATOM     40  C   UNL A   1      37.424  33.236  32.493  1.00  0.00     0.060 A 
ATOM     41  C   UNL A   1      38.025  32.031  32.864  1.00  0.00     0.016 A 
ATOM     42  C   UNL A   1      38.035  34.487  32.654  1.00  0.00     0.016 A 
ATOM     43  C   UNL A   1      39.069  32.106  33.743  1.00  0.00     0.010 A 
ATOM     44  C   UNL A   1      39.037  34.563  33.571  1.00  0.00     0.010 A 
ATOM     45  C   UNL A   1      39.447  33.376  34.177  1.00  0.00    -0.014 A 
BRANCH  45  46
ATOM     46  C   UNL A   1      40.261  33.476  35.355  1.00  0.00     0.031 A 
ATOM     47  C   UNL A   1      39.472  33.780  36.560  1.00  0.00     0.074 A 
ATOM     48  C   UNL A   1      41.562  33.138  35.284  1.00  0.00     0.049 A 
ATOM     49  N   UNL A   1      39.555  34.816  37.327  1.00  0.00    -0.248 NA
ATOM     50  C   UNL A   1      38.307  32.919  36.830  1.00  0.00     0.031 C 
ATOM     51  C   UNL A   1      42.268  32.529  34.147  1.00  0.00     0.029 A 
ATOM     52  N   UNL A   1      42.483  33.091  36.279  1.00  0.00    -0.354 N 
ATOM     53  C   UNL A   1      38.609  34.584  38.320  1.00  0.00     0.074 A 
ATOM     54  C   UNL A   1      37.715  33.580  37.820  1.00  0.00     0.031 C 
ATOM     55  C   UNL A   1      43.394  31.935  34.598  1.00  0.00     0.029 A 
ATOM     56  C   UNL A   1      43.532  32.217  36.016  1.00  0.00     0.049 A 
ATOM     57  H   UNL A   1      42.416  33.622  37.105  1.00  0.00     0.167 HD
ATOM     58  C   UNL A   1      38.832  34.970  39.601  1.00  0.00     0.034 A 
ATOM     59  C   UNL A   1      44.356  31.665  36.939  1.00  0.00     0.034 A 
ATOM     60  C   UNL A   1      39.844  35.991  39.676  1.00  0.00     0.049 A 
ATOM     61  C   UNL A   1      44.223  32.466  38.180  1.00  0.00     0.074 A 
ATOM     62  C   UNL A   1      39.991  37.254  39.140  1.00  0.00     0.029 A 
ATOM     63  N   UNL A   1      41.093  35.600  40.093  1.00  0.00    -0.354 N 
ATOM     64  N   UNL A   1      44.598  33.711  38.288  1.00  0.00    -0.248 NA
ATOM     65  C   UNL A   1      43.273  32.015  39.186  1.00  0.00     0.031 C 
ATOM     66  C   UNL A   1      41.384  37.385  38.875  1.00  0.00     0.029 A 
ATOM     67  C   UNL A   1      42.019  36.212  39.292  1.00  0.00     0.049 A 
ATOM     68  H   UNL A   1      41.288  34.985  40.838  1.00  0.00     0.167 HD
ATOM     69  C   UNL A   1      43.622  34.307  39.080  1.00  0.00     0.074 A 
ATOM     70  C   UNL A   1      42.912  33.192  39.703  1.00  0.00     0.031 C 
ATOM     71  C   UNL A   1      43.291  35.623  38.921  1.00  0.00     0.034 A 
BRANCH  58  72
ATOM     72  C   UNL A   1      38.429  34.144  40.799  1.00  0.00     0.023 A 
ATOM     73  C   UNL A   1      37.758  34.817  41.839  1.00  0.00     0.012 A 
ATOM     74  C   UNL A   1      38.892  32.833  41.080  1.00  0.00     0.148 A 
ATOM     75  C   UNL A   1      37.601  34.238  43.102  1.00  0.00     0.002 A 
ATOM     76  C   UNL A   1      38.652  32.228  42.306  1.00  0.00     0.091 A 
ATOM     77  F   UNL A   1      39.698  32.197  40.225  1.00  0.00    -0.205 F 
ATOM     78  C   UNL A   1      38.036  32.938  43.334  1.00  0.00     0.022 A 
BRANCH  76  79
ATOM     79  S   UNL A   1      39.151  30.529  42.614  1.00  0.00     0.127 S 
ATOM     80  O   UNL A   1      38.894  30.404  44.045  1.00  0.00    -0.237 OA
ATOM     81  O   UNL A   1      38.235  29.782  41.751  1.00  0.00    -0.237 OA
ATOM     82  O   UNL A   1      40.546  30.456  42.197  1.00  0.00    -0.744 OA
ENDBRANCH  76  79
ENDBRANCH  58  72
BRANCH  59  83
ATOM     83  C   UNL A   1      45.001  30.332  36.913  1.00  0.00     0.023 A 
ATOM     84  C   UNL A   1      46.400  30.233  37.039  1.00  0.00     0.012 A 
ATOM     85  C   UNL A   1      44.241  29.142  37.000  1.00  0.00     0.148 A 
ATOM     86  C   UNL A   1      47.018  28.995  37.258  1.00  0.00     0.002 A 
ATOM     87  C   UNL A   1      44.860  27.912  37.193  1.00  0.00     0.091 A 
ATOM     88  F   UNL A   1      42.903  29.224  36.988  1.00  0.00    -0.205 F 
ATOM     89  C   UNL A   1      46.251  27.835  37.334  1.00  0.00     0.022 A 
BRANCH  87  90
ATOM     90  S   UNL A   1      43.926  26.378  37.293  1.00  0.00     0.127 S 
ATOM     91  O   UNL A   1      44.246  25.742  36.014  1.00  0.00    -0.237 OA
ATOM     92  O   UNL A   1      44.523  25.736  38.461  1.00  0.00    -0.237 OA
ATOM     93  O   UNL A   1      42.530  26.774  37.428  1.00  0.00    -0.744 OA
ENDBRANCH  87  90
ENDBRANCH  59  83
BRANCH  71  94
ATOM     94  C   UNL A   1      44.173  36.473  38.036  1.00  0.00     0.023 A 
ATOM     95  C   UNL A   1      43.964  36.559  36.643  1.00  0.00     0.012 A 
ATOM     96  C   UNL A   1      45.081  37.359  38.640  1.00  0.00     0.148 A 
ATOM     97  C   UNL A   1      44.657  37.492  35.867  1.00  0.00     0.002 A 
ATOM     98  C   UNL A   1      45.733  38.319  37.872  1.00  0.00     0.091 A 
ATOM     99  F   UNL A   1      45.258  37.277  39.967  1.00  0.00    -0.205 F 
ATOM    100  C   UNL A   1      45.530  38.381  36.484  1.00  0.00     0.022 A 
BRANCH  98 101
ATOM    101  S   UNL A   1      46.760  39.588  38.616  1.00  0.00     0.127 S 
ATOM    102  O   UNL A   1      47.201  40.348  37.448  1.00  0.00    -0.237 OA
ATOM    103  O   UNL A   1      45.811  40.292  39.480  1.00  0.00    -0.237 OA
ATOM    104  O   UNL A   1      47.812  38.883  39.337  1.00  0.00    -0.744 OA
ENDBRANCH  98 101
ENDBRANCH  71  94
ENDBRANCH  45  46
ENDBRANCH  38  40
ENDBRANCH  37  38
ENDBRANCH  36  37
ENDBRANCH  35  36
ENDBRANCH  34  35
ENDBRANCH  33  34
ENDBRANCH  32  33
ENDBRANCH   1  32
TORSDOF 26
ENDMDL
