MODEL 1
REMARK VINA RESULT:      -7.2      0.000      0.000
REMARK SMILES Cc1c(C(=O)OCCOCCOCCOCCOC(=O)c2ccc(-c3c4nc(c(-c5cccc(S(=O)(=O)[O-])c5F)c5ccc([nH]5)c(-c5cccc(S(=O)(=O)[O-])c5F)c5nc(c(-c6cccc(S(=O)(=O)[O-])c6F)c6ccc3[nH]6)C=C5)C=C4)cc2)oc2c1/C(=N/NC(=O)C(c1ccccc1)c1ccccc1)CCC2
REMARK SMILES IDX 12 1 11 2 10 3 9 4 8 5 7 6 6 7 4 8 5 9 3 10 1 11 2 12 86 13
REMARK SMILES IDX 84 14 85 15 87 16 107 17 88 18 105 19 106 20 89 21 90 22
REMARK SMILES IDX 91 24 92 25 93 26 94 27 98 28 95 29 97 30 96 31 99 32 100 33
REMARK SMILES IDX 104 34 101 35 103 36 102 37 13 38 14 39 15 40 16 41 17 42
REMARK SMILES IDX 18 43 19 44 20 45 21 46 22 47 83 48 23 49 82 50 24 51 25 52
REMARK SMILES IDX 26 53 76 54 27 55 81 56 75 57 77 58 28 59 80 60 74 61 73 62
REMARK SMILES IDX 29 64 61 65 41 66 60 67 42 68 45 69 59 70 78 71 43 72 44 73
REMARK SMILES IDX 58 75 79 76 46 77 30 78 31 79 39 80 32 81 34 82 40 83 33 84
REMARK SMILES IDX 35 85 36 86 37 87 38 88 62 89 63 90 71 91 64 92 66 93 72 94
REMARK SMILES IDX 65 95 67 96 68 97 69 98 70 99 47 100 48 101 56 102 49 103
REMARK SMILES IDX 51 104 57 105 50 106 52 107 53 108 54 109 55 110
REMARK H PARENT 89 23 77 63 45 74
REMARK Flexibility Score: inf
ROOT
ATOM      1  O   UNL A   1      51.934  27.386  29.983  1.00  0.00    -0.377 OA
ENDROOT
BRANCH   1   2
ATOM      2  C   UNL A   1      51.105  28.391  30.560  1.00  0.00     0.188 C 
BRANCH   2   3
ATOM      3  C   UNL A   1      50.972  29.806  29.962  1.00  0.00     0.188 C 
BRANCH   3   4
ATOM      4  O   UNL A   1      50.039  30.617  30.654  1.00  0.00    -0.376 OA
BRANCH   4   5
ATOM      5  C   UNL A   1      48.777  30.062  30.958  1.00  0.00     0.202 C 
BRANCH   5   6
ATOM      6  C   UNL A   1      48.662  29.781  32.455  1.00  0.00     0.261 C 
BRANCH   6   7
ATOM      7  O   UNL A   1      47.788  30.665  33.169  1.00  0.00    -0.457 OA
BRANCH   7   8
ATOM      8  C   UNL A   1      48.011  30.948  34.481  1.00  0.00     0.374 C 
ATOM      9  O   UNL A   1      48.975  31.570  34.916  1.00  0.00    -0.242 OA
BRANCH   8  10
ATOM     10  C   UNL A   1      46.822  30.564  35.209  1.00  0.00     0.215 A 
ATOM     11  C   UNL A   1      44.854  31.894  34.169  1.00  0.00     0.049 C 
ATOM     12  C   UNL A   1      45.474  30.929  35.116  1.00  0.00     0.012 A 
ATOM     13  C   UNL A   1      44.772  30.000  35.948  1.00  0.00     0.043 A 
ATOM     14  O   UNL A   1      46.956  29.483  36.039  1.00  0.00    -0.453 OA
ATOM     15  C   UNL A   1      45.722  29.119  36.398  1.00  0.00     0.114 A 
ATOM     16  C   UNL A   1      43.378  29.708  36.222  1.00  0.00     0.072 C 
ATOM     17  C   UNL A   1      45.525  27.811  37.042  1.00  0.00     0.076 C 
ATOM     18  N   UNL A   1      42.547  30.708  36.304  1.00  0.00    -0.177 NA
ATOM     19  C   UNL A   1      43.052  28.243  36.446  1.00  0.00     0.059 C 
ATOM     20  C   UNL A   1      44.213  27.233  36.501  1.00  0.00     0.014 C 
BRANCH  18  21
ATOM     21  N   UNL A   1      41.194  30.507  36.494  1.00  0.00    -0.246 N 
ATOM     22  C   UNL A   1      40.136  31.064  35.786  1.00  0.00     0.252 C 
ATOM     23  H   UNL A   1      40.948  29.892  37.221  1.00  0.00     0.193 HD
ATOM     24  O   UNL A   1      39.201  30.306  35.477  1.00  0.00    -0.272 OA
BRANCH  22  25
ATOM     25  C   UNL A   1      40.002  32.602  35.508  1.00  0.00     0.140 C 
BRANCH  25  26
ATOM     26  C   UNL A   1      39.339  32.801  34.112  1.00  0.00    -0.031 A 
ATOM     27  C   UNL A   1      39.991  32.623  32.882  1.00  0.00     0.005 A 
ATOM     28  C   UNL A   1      38.001  33.268  34.045  1.00  0.00     0.005 A 
ATOM     29  C   UNL A   1      39.444  33.150  31.698  1.00  0.00     0.000 A 
ATOM     30  C   UNL A   1      37.449  33.776  32.868  1.00  0.00     0.000 A 
ATOM     31  C   UNL A   1      38.195  33.767  31.701  1.00  0.00     0.000 A 
ENDBRANCH  25  26
BRANCH  25  32
ATOM     32  C   UNL A   1      39.534  33.271  36.819  1.00  0.00    -0.031 A 
ATOM     33  C   UNL A   1      40.080  34.548  37.103  1.00  0.00     0.005 A 
ATOM     34  C   UNL A   1      38.714  32.711  37.806  1.00  0.00     0.005 A 
ATOM     35  C   UNL A   1      39.962  35.141  38.361  1.00  0.00     0.000 A 
ATOM     36  C   UNL A   1      38.567  33.324  39.060  1.00  0.00     0.000 A 
ATOM     37  C   UNL A   1      39.225  34.512  39.352  1.00  0.00     0.000 A 
ENDBRANCH  25  32
ENDBRANCH  22  25
ENDBRANCH  18  21
ENDBRANCH   8  10
ENDBRANCH   7   8
ENDBRANCH   6   7
ENDBRANCH   5   6
ENDBRANCH   4   5
ENDBRANCH   3   4
ENDBRANCH   2   3
ENDBRANCH   1   2
BRANCH   1  38
ATOM     38  C   UNL A   1      52.700  26.522  30.809  1.00  0.00     0.188 C 
BRANCH  38  39
ATOM     39  C   UNL A   1      51.968  25.704  31.900  1.00  0.00     0.188 C 
BRANCH  39  40
ATOM     40  O   UNL A   1      51.473  26.467  32.998  1.00  0.00    -0.376 OA
BRANCH  40  41
ATOM     41  C   UNL A   1      50.609  25.841  33.933  1.00  0.00     0.202 C 
BRANCH  41  42
ATOM     42  C   UNL A   1      50.223  24.410  33.577  1.00  0.00     0.261 C 
BRANCH  42  43
ATOM     43  O   UNL A   1      48.830  24.176  33.669  1.00  0.00    -0.460 OA
BRANCH  43  44
ATOM     44  C   UNL A   1      48.276  24.457  34.861  1.00  0.00     0.338 C 
ATOM     45  O   UNL A   1      48.633  24.063  35.958  1.00  0.00    -0.246 OA
BRANCH  44  46
ATOM     46  C   UNL A   1      47.079  25.261  34.630  1.00  0.00     0.060 A 
ATOM     47  C   UNL A   1      45.896  24.545  34.445  1.00  0.00     0.016 A 
ATOM     48  C   UNL A   1      47.248  26.584  34.202  1.00  0.00     0.016 A 
ATOM     49  C   UNL A   1      44.991  25.048  33.547  1.00  0.00     0.010 A 
ATOM     50  C   UNL A   1      46.365  27.068  33.277  1.00  0.00     0.010 A 
ATOM     51  C   UNL A   1      45.315  26.239  32.893  1.00  0.00    -0.014 A 
BRANCH  51  52
ATOM     52  C   UNL A   1      44.551  26.578  31.722  1.00  0.00     0.031 A 
ATOM     53  C   UNL A   1      44.698  25.625  30.613  1.00  0.00     0.074 A 
ATOM     54  C   UNL A   1      43.699  27.618  31.722  1.00  0.00     0.049 A 
ATOM     55  N   UNL A   1      45.228  25.839  29.457  1.00  0.00    -0.248 NA
ATOM     56  C   UNL A   1      44.340  24.225  30.879  1.00  0.00     0.031 C 
ATOM     57  C   UNL A   1      43.237  28.400  32.874  1.00  0.00     0.029 A 
ATOM     58  N   UNL A   1      42.936  28.082  30.699  1.00  0.00    -0.354 N 
ATOM     59  C   UNL A   1      45.054  24.649  28.765  1.00  0.00     0.074 A 
ATOM     60  C   UNL A   1      44.700  23.646  29.735  1.00  0.00     0.031 C 
ATOM     61  C   UNL A   1      42.098  29.042  32.531  1.00  0.00     0.029 A 
ATOM     62  C   UNL A   1      41.831  28.806  31.123  1.00  0.00     0.049 A 
ATOM     63  H   UNL A   1      43.146  27.920  29.751  1.00  0.00     0.167 HD
ATOM     64  C   UNL A   1      44.941  24.628  27.412  1.00  0.00     0.034 A 
ATOM     65  C   UNL A   1      40.729  29.073  30.382  1.00  0.00     0.034 A 
ATOM     66  C   UNL A   1      45.413  25.841  26.803  1.00  0.00     0.049 A 
ATOM     67  C   UNL A   1      41.087  28.863  28.956  1.00  0.00     0.074 A 
ATOM     68  C   UNL A   1      46.601  26.545  26.829  1.00  0.00     0.029 A 
ATOM     69  N   UNL A   1      44.470  26.706  26.302  1.00  0.00    -0.354 N 
ATOM     70  N   UNL A   1      41.905  29.626  28.285  1.00  0.00    -0.248 NA
ATOM     71  C   UNL A   1      40.833  27.556  28.370  1.00  0.00     0.031 C 
ATOM     72  C   UNL A   1      46.219  27.917  26.776  1.00  0.00     0.029 A 
ATOM     73  C   UNL A   1      44.826  27.968  26.700  1.00  0.00     0.049 A 
ATOM     74  H   UNL A   1      43.685  26.464  25.759  1.00  0.00     0.167 HD
ATOM     75  C   UNL A   1      42.591  28.755  27.445  1.00  0.00     0.074 A 
ATOM     76  C   UNL A   1      41.802  27.527  27.452  1.00  0.00     0.031 C 
ATOM     77  C   UNL A   1      43.879  29.003  27.059  1.00  0.00     0.034 A 
BRANCH  64  78
ATOM     78  C   UNL A   1      44.082  23.639  26.677  1.00  0.00     0.023 A 
ATOM     79  C   UNL A   1      42.686  23.825  26.725  1.00  0.00     0.012 A 
ATOM     80  C   UNL A   1      44.554  22.413  26.152  1.00  0.00     0.148 A 
ATOM     81  C   UNL A   1      41.805  22.832  26.289  1.00  0.00     0.002 A 
ATOM     82  C   UNL A   1      43.678  21.475  25.624  1.00  0.00     0.091 A 
ATOM     83  F   UNL A   1      45.842  22.073  26.282  1.00  0.00    -0.205 F 
ATOM     84  C   UNL A   1      42.300  21.664  25.718  1.00  0.00     0.022 A 
BRANCH  82  85
ATOM     85  S   UNL A   1      44.305  20.011  24.796  1.00  0.00     0.127 S 
ATOM     86  O   UNL A   1      43.167  19.104  24.894  1.00  0.00    -0.237 OA
ATOM     87  O   UNL A   1      44.584  20.514  23.450  1.00  0.00    -0.237 OA
ATOM     88  O   UNL A   1      45.499  19.645  25.548  1.00  0.00    -0.744 OA
ENDBRANCH  82  85
ENDBRANCH  64  78
BRANCH  65  89
ATOM     89  C   UNL A   1      39.328  29.262  30.822  1.00  0.00     0.023 A 
ATOM     90  C   UNL A   1      38.948  28.823  32.104  1.00  0.00     0.012 A 
ATOM     91  C   UNL A   1      38.422  30.075  30.103  1.00  0.00     0.148 A 
ATOM     92  C   UNL A   1      37.721  29.199  32.663  1.00  0.00     0.002 A 
ATOM     93  C   UNL A   1      37.193  30.428  30.653  1.00  0.00     0.091 A 
ATOM     94  F   UNL A   1      38.799  30.588  28.924  1.00  0.00    -0.205 F 
ATOM     95  C   UNL A   1      36.843  30.002  31.939  1.00  0.00     0.022 A 
BRANCH  93  96
ATOM     96  S   UNL A   1      36.016  31.451  29.756  1.00  0.00     0.127 S 
ATOM     97  O   UNL A   1      35.387  30.484  28.855  1.00  0.00    -0.237 OA
ATOM     98  O   UNL A   1      35.155  31.939  30.828  1.00  0.00    -0.237 OA
ATOM     99  O   UNL A   1      36.820  32.458  29.073  1.00  0.00    -0.744 OA
ENDBRANCH  93  96
ENDBRANCH  65  89
BRANCH  77 100
ATOM    100  C   UNL A   1      44.465  30.368  27.330  1.00  0.00     0.023 A 
ATOM    101  C   UNL A   1      45.449  30.568  28.321  1.00  0.00     0.012 A 
ATOM    102  C   UNL A   1      44.174  31.424  26.447  1.00  0.00     0.148 A 
ATOM    103  C   UNL A   1      46.104  31.795  28.450  1.00  0.00     0.002 A 
ATOM    104  C   UNL A   1      44.863  32.628  26.546  1.00  0.00     0.091 A 
ATOM    105  F   UNL A   1      43.243  31.226  25.501  1.00  0.00    -0.205 F 
ATOM    106  C   UNL A   1      45.821  32.821  27.552  1.00  0.00     0.022 A 
BRANCH 104 107
ATOM    107  S   UNL A   1      44.648  33.932  25.330  1.00  0.00     0.127 S 
ATOM    108  O   UNL A   1      43.657  34.791  25.971  1.00  0.00    -0.237 OA
ATOM    109  O   UNL A   1      45.991  34.511  25.239  1.00  0.00    -0.237 OA
ATOM    110  O   UNL A   1      44.212  33.264  24.109  1.00  0.00    -0.744 OA
ENDBRANCH 104 107
ENDBRANCH  77 100
ENDBRANCH  51  52
ENDBRANCH  44  46
ENDBRANCH  43  44
ENDBRANCH  42  43
ENDBRANCH  41  42
ENDBRANCH  40  41
ENDBRANCH  39  40
ENDBRANCH  38  39
ENDBRANCH   1  38
TORSDOF 27
ENDMDL
MODEL 2
REMARK VINA RESULT:      -7.1      7.417     16.042
REMARK SMILES Cc1c(C(=O)OCCOCCOCCOCCOC(=O)c2ccc(-c3c4nc(c(-c5cccc(S(=O)(=O)[O-])c5F)c5ccc([nH]5)c(-c5cccc(S(=O)(=O)[O-])c5F)c5nc(c(-c6cccc(S(=O)(=O)[O-])c6F)c6ccc3[nH]6)C=C5)C=C4)cc2)oc2c1/C(=N/NC(=O)C(c1ccccc1)c1ccccc1)CCC2
REMARK SMILES IDX 12 1 11 2 10 3 9 4 8 5 7 6 6 7 4 8 5 9 3 10 1 11 2 12 86 13
REMARK SMILES IDX 84 14 85 15 87 16 107 17 88 18 105 19 106 20 89 21 90 22
REMARK SMILES IDX 91 24 92 25 93 26 94 27 98 28 95 29 97 30 96 31 99 32 100 33
REMARK SMILES IDX 104 34 101 35 103 36 102 37 13 38 14 39 15 40 16 41 17 42
REMARK SMILES IDX 18 43 19 44 20 45 21 46 22 47 83 48 23 49 82 50 24 51 25 52
REMARK SMILES IDX 26 53 76 54 27 55 81 56 75 57 77 58 28 59 80 60 74 61 73 62
REMARK SMILES IDX 29 64 61 65 41 66 60 67 42 68 45 69 59 70 78 71 43 72 44 73
REMARK SMILES IDX 58 75 79 76 46 77 30 78 31 79 39 80 32 81 34 82 40 83 33 84
REMARK SMILES IDX 35 85 36 86 37 87 38 88 62 89 63 90 71 91 64 92 66 93 72 94
REMARK SMILES IDX 65 95 67 96 68 97 69 98 70 99 47 100 48 101 56 102 49 103
REMARK SMILES IDX 51 104 57 105 50 106 52 107 53 108 54 109 55 110
REMARK H PARENT 89 23 77 63 45 74
REMARK Flexibility Score: inf
ROOT
ATOM      1  O   UNL A   1      39.943  28.427  28.832  1.00  0.00    -0.377 OA
ENDROOT
BRANCH   1   2
ATOM      2  C   UNL A   1      38.525  28.282  28.863  1.00  0.00     0.188 C 
BRANCH   2   3
ATOM      3  C   UNL A   1      37.613  29.194  29.706  1.00  0.00     0.188 C 
BRANCH   3   4
ATOM      4  O   UNL A   1      36.334  29.391  29.128  1.00  0.00    -0.376 OA
BRANCH   4   5
ATOM      5  C   UNL A   1      36.265  30.063  27.889  1.00  0.00     0.202 C 
BRANCH   5   6
ATOM      6  C   UNL A   1      34.855  30.600  27.649  1.00  0.00     0.261 C 
BRANCH   6   7
ATOM      7  O   UNL A   1      34.148  29.974  26.570  1.00  0.00    -0.457 OA
BRANCH   7   8
ATOM      8  C   UNL A   1      32.806  30.151  26.428  1.00  0.00     0.374 C 
ATOM      9  O   UNL A   1      32.192  31.171  26.728  1.00  0.00    -0.242 OA
BRANCH   8  10
ATOM     10  C   UNL A   1      32.301  29.018  25.685  1.00  0.00     0.215 A 
ATOM     11  C   UNL A   1      32.500  26.958  27.247  1.00  0.00     0.049 C 
ATOM     12  C   UNL A   1      32.149  27.659  25.983  1.00  0.00     0.012 A 
ATOM     13  C   UNL A   1      31.354  27.125  24.919  1.00  0.00     0.043 A 
ATOM     14  O   UNL A   1      31.649  29.316  24.519  1.00  0.00    -0.453 OA
ATOM     15  C   UNL A   1      31.030  28.197  24.128  1.00  0.00     0.114 A 
ATOM     16  C   UNL A   1      30.720  25.850  24.644  1.00  0.00     0.072 C 
ATOM     17  C   UNL A   1      30.006  28.282  23.075  1.00  0.00     0.076 C 
ATOM     18  N   UNL A   1      31.359  24.764  24.973  1.00  0.00    -0.177 NA
ATOM     19  C   UNL A   1      29.382  25.930  23.934  1.00  0.00     0.059 C 
ATOM     20  C   UNL A   1      28.886  27.306  23.453  1.00  0.00     0.014 C 
BRANCH  18  21
ATOM     21  N   UNL A   1      30.792  23.516  24.807  1.00  0.00    -0.246 N 
ATOM     22  C   UNL A   1      31.415  22.275  24.861  1.00  0.00     0.252 C 
ATOM     23  H   UNL A   1      29.825  23.503  24.627  1.00  0.00     0.193 HD
ATOM     24  O   UNL A   1      30.825  21.373  25.478  1.00  0.00    -0.272 OA
BRANCH  22  25
ATOM     25  C   UNL A   1      32.721  21.933  24.064  1.00  0.00     0.140 C 
BRANCH  25  26
ATOM     26  C   UNL A   1      33.912  22.714  24.696  1.00  0.00    -0.031 A 
ATOM     27  C   UNL A   1      34.940  23.334  23.970  1.00  0.00     0.005 A 
ATOM     28  C   UNL A   1      34.035  22.755  26.109  1.00  0.00     0.005 A 
ATOM     29  C   UNL A   1      36.140  23.708  24.603  1.00  0.00     0.000 A 
ATOM     30  C   UNL A   1      35.218  23.143  26.741  1.00  0.00     0.000 A 
ATOM     31  C   UNL A   1      36.294  23.568  25.981  1.00  0.00     0.000 A 
ENDBRANCH  25  26
BRANCH  25  32
ATOM     32  C   UNL A   1      32.705  20.415  23.777  1.00  0.00    -0.031 A 
ATOM     33  C   UNL A   1      33.521  19.608  24.609  1.00  0.00     0.005 A 
ATOM     34  C   UNL A   1      32.057  19.763  22.721  1.00  0.00     0.005 A 
ATOM     35  C   UNL A   1      33.813  18.279  24.298  1.00  0.00     0.000 A 
ATOM     36  C   UNL A   1      32.323  18.417  22.427  1.00  0.00     0.000 A 
ATOM     37  C   UNL A   1      33.233  17.690  23.186  1.00  0.00     0.000 A 
ENDBRANCH  25  32
ENDBRANCH  22  25
ENDBRANCH  18  21
ENDBRANCH   8  10
ENDBRANCH   7   8
ENDBRANCH   6   7
ENDBRANCH   5   6
ENDBRANCH   4   5
ENDBRANCH   3   4
ENDBRANCH   2   3
ENDBRANCH   1   2
BRANCH   1  38
ATOM     38  C   UNL A   1      40.696  28.400  30.034  1.00  0.00     0.188 C 
BRANCH  38  39
ATOM     39  C   UNL A   1      42.226  28.183  29.942  1.00  0.00     0.188 C 
BRANCH  39  40
ATOM     40  O   UNL A   1      43.010  29.373  29.982  1.00  0.00    -0.376 OA
BRANCH  40  41
ATOM     41  C   UNL A   1      43.067  30.115  31.189  1.00  0.00     0.202 C 
BRANCH  41  42
ATOM     42  C   UNL A   1      43.625  29.344  32.380  1.00  0.00     0.261 C 
BRANCH  42  43
ATOM     43  O   UNL A   1      44.609  30.069  33.093  1.00  0.00    -0.460 OA
BRANCH  43  44
ATOM     44  C   UNL A   1      44.577  29.924  34.429  1.00  0.00     0.338 C 
ATOM     45  O   UNL A   1      45.187  29.113  35.105  1.00  0.00    -0.246 OA
BRANCH  44  46
ATOM     46  C   UNL A   1      43.591  30.859  34.967  1.00  0.00     0.060 A 
ATOM     47  C   UNL A   1      44.026  32.177  35.113  1.00  0.00     0.016 A 
ATOM     48  C   UNL A   1      42.496  30.332  35.664  1.00  0.00     0.016 A 
ATOM     49  C   UNL A   1      43.559  32.876  36.196  1.00  0.00     0.010 A 
ATOM     50  C   UNL A   1      42.060  31.013  36.766  1.00  0.00     0.010 A 
ATOM     51  C   UNL A   1      42.681  32.223  37.064  1.00  0.00    -0.014 A 
BRANCH  51  52
ATOM     52  C   UNL A   1      42.471  32.816  38.358  1.00  0.00     0.031 A 
ATOM     53  C   UNL A   1      43.408  32.352  39.390  1.00  0.00     0.074 A 
ATOM     54  C   UNL A   1      41.561  33.790  38.539  1.00  0.00     0.049 A 
ATOM     55  N   UNL A   1      43.138  31.668  40.448  1.00  0.00    -0.248 NA
ATOM     56  C   UNL A   1      44.841  32.556  39.135  1.00  0.00     0.031 C 
ATOM     57  C   UNL A   1      40.836  34.543  37.510  1.00  0.00     0.029 A 
ATOM     58  N   UNL A   1      41.224  34.424  39.691  1.00  0.00    -0.354 N 
ATOM     59  C   UNL A   1      44.350  31.557  41.115  1.00  0.00     0.074 A 
ATOM     60  C   UNL A   1      45.379  31.930  40.180  1.00  0.00     0.031 C 
ATOM     61  C   UNL A   1      40.366  35.684  38.062  1.00  0.00     0.029 A 
ATOM     62  C   UNL A   1      40.658  35.673  39.485  1.00  0.00     0.049 A 
ATOM     63  H   UNL A   1      41.368  34.034  40.585  1.00  0.00     0.167 HD
ATOM     64  C   UNL A   1      44.406  31.434  42.466  1.00  0.00     0.034 A 
ATOM     65  C   UNL A   1      40.559  36.658  40.409  1.00  0.00     0.034 A 
ATOM     66  C   UNL A   1      43.147  31.036  43.033  1.00  0.00     0.049 A 
ATOM     67  C   UNL A   1      40.736  36.038  41.746  1.00  0.00     0.074 A 
ATOM     68  C   UNL A   1      42.281  29.978  42.836  1.00  0.00     0.029 A 
ATOM     69  N   UNL A   1      42.431  31.989  43.717  1.00  0.00    -0.354 N 
ATOM     70  N   UNL A   1      39.875  35.229  42.300  1.00  0.00    -0.248 NA
ATOM     71  C   UNL A   1      42.074  36.007  42.317  1.00  0.00     0.031 C 
ATOM     72  C   UNL A   1      40.978  30.529  43.004  1.00  0.00     0.029 A 
ATOM     73  C   UNL A   1      41.126  31.883  43.313  1.00  0.00     0.049 A 
ATOM     74  H   UNL A   1      42.789  32.630  44.373  1.00  0.00     0.167 HD
ATOM     75  C   UNL A   1      40.652  34.298  42.981  1.00  0.00     0.074 A 
ATOM     76  C   UNL A   1      41.980  34.901  43.059  1.00  0.00     0.031 C 
ATOM     77  C   UNL A   1      40.230  33.009  43.156  1.00  0.00     0.034 A 
BRANCH  64  78
ATOM     78  C   UNL A   1      45.516  32.012  43.296  1.00  0.00     0.023 A 
ATOM     79  C   UNL A   1      46.132  31.167  44.241  1.00  0.00     0.012 A 
ATOM     80  C   UNL A   1      45.819  33.392  43.367  1.00  0.00     0.148 A 
ATOM     81  C   UNL A   1      46.991  31.676  45.219  1.00  0.00     0.002 A 
ATOM     82  C   UNL A   1      46.753  33.875  44.272  1.00  0.00     0.091 A 
ATOM     83  F   UNL A   1      45.108  34.278  42.659  1.00  0.00    -0.205 F 
ATOM     84  C   UNL A   1      47.319  33.027  45.223  1.00  0.00     0.022 A 
BRANCH  82  85
ATOM     85  S   UNL A   1      47.260  35.596  44.224  1.00  0.00     0.127 S 
ATOM     86  O   UNL A   1      46.107  36.262  44.819  1.00  0.00    -0.237 OA
ATOM     87  O   UNL A   1      48.466  35.586  45.052  1.00  0.00    -0.237 OA
ATOM     88  O   UNL A   1      47.515  35.866  42.813  1.00  0.00    -0.744 OA
ENDBRANCH  82  85
ENDBRANCH  64  78
BRANCH  65  89
ATOM     89  C   UNL A   1      40.564  38.126  40.216  1.00  0.00     0.023 A 
ATOM     90  C   UNL A   1      39.385  38.854  40.465  1.00  0.00     0.012 A 
ATOM     91  C   UNL A   1      41.763  38.850  40.022  1.00  0.00     0.148 A 
ATOM     92  C   UNL A   1      39.402  40.252  40.545  1.00  0.00     0.002 A 
ATOM     93  C   UNL A   1      41.770  40.241  40.079  1.00  0.00     0.091 A 
ATOM     94  F   UNL A   1      42.915  38.181  39.883  1.00  0.00    -0.205 F 
ATOM     95  C   UNL A   1      40.594  40.946  40.353  1.00  0.00     0.022 A 
BRANCH  93  96
ATOM     96  S   UNL A   1      43.279  41.188  39.825  1.00  0.00     0.127 S 
ATOM     97  O   UNL A   1      42.790  42.567  39.857  1.00  0.00    -0.237 OA
ATOM     98  O   UNL A   1      44.083  40.797  40.979  1.00  0.00    -0.237 OA
ATOM     99  O   UNL A   1      43.785  40.770  38.522  1.00  0.00    -0.744 OA
ENDBRANCH  93  96
ENDBRANCH  65  89
BRANCH  77 100
ATOM    100  C   UNL A   1      38.792  32.671  42.842  1.00  0.00     0.023 A 
ATOM    101  C   UNL A   1      37.765  32.848  43.793  1.00  0.00     0.012 A 
ATOM    102  C   UNL A   1      38.437  32.363  41.516  1.00  0.00     0.148 A 
ATOM    103  C   UNL A   1      36.423  32.693  43.441  1.00  0.00     0.002 A 
ATOM    104  C   UNL A   1      37.097  32.260  41.157  1.00  0.00     0.091 A 
ATOM    105  F   UNL A   1      39.418  32.204  40.614  1.00  0.00    -0.205 F 
ATOM    106  C   UNL A   1      36.088  32.413  42.119  1.00  0.00     0.022 A 
BRANCH 104 107
ATOM    107  S   UNL A   1      36.600  32.047  39.444  1.00  0.00     0.127 S 
ATOM    108  O   UNL A   1      35.145  31.981  39.552  1.00  0.00    -0.237 OA
ATOM    109  O   UNL A   1      37.112  33.263  38.808  1.00  0.00    -0.237 OA
ATOM    110  O   UNL A   1      37.257  30.825  38.993  1.00  0.00    -0.744 OA
ENDBRANCH 104 107
ENDBRANCH  77 100
ENDBRANCH  51  52
ENDBRANCH  44  46
ENDBRANCH  43  44
ENDBRANCH  42  43
ENDBRANCH  41  42
ENDBRANCH  40  41
ENDBRANCH  39  40
ENDBRANCH  38  39
ENDBRANCH   1  38
TORSDOF 27
ENDMDL
MODEL 3
REMARK VINA RESULT:      -7.0      9.020     15.171
REMARK SMILES Cc1c(C(=O)OCCOCCOCCOCCOC(=O)c2ccc(-c3c4nc(c(-c5cccc(S(=O)(=O)[O-])c5F)c5ccc([nH]5)c(-c5cccc(S(=O)(=O)[O-])c5F)c5nc(c(-c6cccc(S(=O)(=O)[O-])c6F)c6ccc3[nH]6)C=C5)C=C4)cc2)oc2c1/C(=N/NC(=O)C(c1ccccc1)c1ccccc1)CCC2
REMARK SMILES IDX 12 1 11 2 10 3 9 4 8 5 7 6 6 7 4 8 5 9 3 10 1 11 2 12 86 13
REMARK SMILES IDX 84 14 85 15 87 16 107 17 88 18 105 19 106 20 89 21 90 22
REMARK SMILES IDX 91 24 92 25 93 26 94 27 98 28 95 29 97 30 96 31 99 32 100 33
REMARK SMILES IDX 104 34 101 35 103 36 102 37 13 38 14 39 15 40 16 41 17 42
REMARK SMILES IDX 18 43 19 44 20 45 21 46 22 47 83 48 23 49 82 50 24 51 25 52
REMARK SMILES IDX 26 53 76 54 27 55 81 56 75 57 77 58 28 59 80 60 74 61 73 62
REMARK SMILES IDX 29 64 61 65 41 66 60 67 42 68 45 69 59 70 78 71 43 72 44 73
REMARK SMILES IDX 58 75 79 76 46 77 30 78 31 79 39 80 32 81 34 82 40 83 33 84
REMARK SMILES IDX 35 85 36 86 37 87 38 88 62 89 63 90 71 91 64 92 66 93 72 94
REMARK SMILES IDX 65 95 67 96 68 97 69 98 70 99 47 100 48 101 56 102 49 103
REMARK SMILES IDX 51 104 57 105 50 106 52 107 53 108 54 109 55 110
REMARK H PARENT 89 23 77 63 45 74
REMARK Flexibility Score: inf
ROOT
ATOM      1  O   UNL A   1      48.753  41.482  30.143  1.00  0.00    -0.377 OA
ENDROOT
BRANCH   1   2
ATOM      2  C   UNL A   1      47.622  42.214  30.608  1.00  0.00     0.188 C 
BRANCH   2   3
ATOM      3  C   UNL A   1      46.302  42.300  29.815  1.00  0.00     0.188 C 
BRANCH   3   4
ATOM      4  O   UNL A   1      46.284  43.363  28.878  1.00  0.00    -0.376 OA
BRANCH   4   5
ATOM      5  C   UNL A   1      46.379  43.039  27.507  1.00  0.00     0.202 C 
BRANCH   5   6
ATOM      6  C   UNL A   1      47.459  43.881  26.831  1.00  0.00     0.261 C 
BRANCH   6   7
ATOM      7  O   UNL A   1      47.447  43.840  25.398  1.00  0.00    -0.457 OA
BRANCH   7   8
ATOM      8  C   UNL A   1      47.468  44.991  24.673  1.00  0.00     0.374 C 
ATOM      9  O   UNL A   1      48.351  45.841  24.723  1.00  0.00    -0.242 OA
BRANCH   8  10
ATOM     10  C   UNL A   1      46.389  44.911  23.713  1.00  0.00     0.215 A 
ATOM     11  C   UNL A   1      47.247  46.028  21.536  1.00  0.00     0.049 C 
ATOM     12  C   UNL A   1      46.246  45.328  22.385  1.00  0.00     0.012 A 
ATOM     13  C   UNL A   1      45.033  44.722  21.926  1.00  0.00     0.043 A 
ATOM     14  O   UNL A   1      45.342  44.101  24.064  1.00  0.00    -0.453 OA
ATOM     15  C   UNL A   1      44.597  43.940  22.965  1.00  0.00     0.114 A 
ATOM     16  C   UNL A   1      44.349  44.617  20.652  1.00  0.00     0.072 C 
ATOM     17  C   UNL A   1      43.574  42.883  22.949  1.00  0.00     0.076 C 
ATOM     18  N   UNL A   1      44.357  45.654  19.865  1.00  0.00    -0.177 NA
ATOM     19  C   UNL A   1      43.636  43.300  20.404  1.00  0.00     0.059 C 
ATOM     20  C   UNL A   1      43.581  42.268  21.545  1.00  0.00     0.014 C 
BRANCH  18  21
ATOM     21  N   UNL A   1      43.787  45.609  18.607  1.00  0.00    -0.246 N 
ATOM     22  C   UNL A   1      44.426  45.640  17.374  1.00  0.00     0.252 C 
ATOM     23  H   UNL A   1      42.806  45.547  18.581  1.00  0.00     0.193 HD
ATOM     24  O   UNL A   1      44.019  44.849  16.507  1.00  0.00    -0.272 OA
BRANCH  22  25
ATOM     25  C   UNL A   1      45.505  46.712  16.990  1.00  0.00     0.140 C 
BRANCH  25  26
ATOM     26  C   UNL A   1      45.155  48.051  17.706  1.00  0.00    -0.031 A 
ATOM     27  C   UNL A   1      46.005  48.734  18.589  1.00  0.00     0.005 A 
ATOM     28  C   UNL A   1      43.861  48.607  17.532  1.00  0.00     0.005 A 
ATOM     29  C   UNL A   1      45.497  49.726  19.448  1.00  0.00     0.000 A 
ATOM     30  C   UNL A   1      43.361  49.604  18.371  1.00  0.00     0.000 A 
ATOM     31  C   UNL A   1      44.165  50.126  19.370  1.00  0.00     0.000 A 
ENDBRANCH  25  26
BRANCH  25  32
ATOM     32  C   UNL A   1      46.884  46.016  17.029  1.00  0.00    -0.031 A 
ATOM     33  C   UNL A   1      47.172  45.255  18.190  1.00  0.00     0.005 A 
ATOM     34  C   UNL A   1      47.918  46.141  16.094  1.00  0.00     0.005 A 
ATOM     35  C   UNL A   1      48.460  44.804  18.479  1.00  0.00     0.000 A 
ATOM     36  C   UNL A   1      49.206  45.658  16.369  1.00  0.00     0.000 A 
ATOM     37  C   UNL A   1      49.487  45.032  17.577  1.00  0.00     0.000 A 
ENDBRANCH  25  32
ENDBRANCH  22  25
ENDBRANCH  18  21
ENDBRANCH   8  10
ENDBRANCH   7   8
ENDBRANCH   6   7
ENDBRANCH   5   6
ENDBRANCH   4   5
ENDBRANCH   3   4
ENDBRANCH   2   3
ENDBRANCH   1   2
BRANCH   1  38
ATOM     38  C   UNL A   1      49.783  41.100  31.042  1.00  0.00     0.188 C 
BRANCH  38  39
ATOM     39  C   UNL A   1      49.462  40.039  32.123  1.00  0.00     0.188 C 
BRANCH  39  40
ATOM     40  O   UNL A   1      48.910  38.821  31.631  1.00  0.00    -0.376 OA
BRANCH  40  41
ATOM     41  C   UNL A   1      47.502  38.648  31.653  1.00  0.00     0.202 C 
BRANCH  41  42
ATOM     42  C   UNL A   1      46.897  38.214  30.322  1.00  0.00     0.261 C 
BRANCH  42  43
ATOM     43  O   UNL A   1      45.618  38.771  30.091  1.00  0.00    -0.460 OA
BRANCH  43  44
ATOM     44  C   UNL A   1      44.595  38.134  30.688  1.00  0.00     0.338 C 
ATOM     45  O   UNL A   1      43.754  38.611  31.430  1.00  0.00    -0.246 OA
BRANCH  44  46
ATOM     46  C   UNL A   1      44.699  36.711  30.377  1.00  0.00     0.060 A 
ATOM     47  C   UNL A   1      44.102  36.309  29.181  1.00  0.00     0.016 A 
ATOM     48  C   UNL A   1      44.984  35.828  31.426  1.00  0.00     0.016 A 
ATOM     49  C   UNL A   1      43.500  35.077  29.163  1.00  0.00     0.010 A 
ATOM     50  C   UNL A   1      44.350  34.616  31.422  1.00  0.00     0.010 A 
ATOM     51  C   UNL A   1      43.535  34.317  30.334  1.00  0.00    -0.014 A 
BRANCH  51  52
ATOM     52  C   UNL A   1      42.625  33.207  30.427  1.00  0.00     0.031 A 
ATOM     53  C   UNL A   1      41.255  33.583  30.802  1.00  0.00     0.074 A 
ATOM     54  C   UNL A   1      43.004  31.964  30.081  1.00  0.00     0.049 A 
ATOM     55  N   UNL A   1      40.622  33.273  31.881  1.00  0.00    -0.248 NA
ATOM     56  C   UNL A   1      40.560  34.540  29.930  1.00  0.00     0.031 C 
ATOM     57  C   UNL A   1      44.227  31.562  29.378  1.00  0.00     0.029 A 
ATOM     58  N   UNL A   1      42.282  30.816  30.140  1.00  0.00    -0.354 N 
ATOM     59  C   UNL A   1      39.354  33.811  31.711  1.00  0.00     0.074 A 
ATOM     60  C   UNL A   1      39.434  34.738  30.613  1.00  0.00     0.031 C 
ATOM     61  C   UNL A   1      44.037  30.332  28.849  1.00  0.00     0.029 A 
ATOM     62  C   UNL A   1      42.740  29.833  29.274  1.00  0.00     0.049 A 
ATOM     63  H   UNL A   1      41.508  30.694  30.738  1.00  0.00     0.167 HD
ATOM     64  C   UNL A   1      38.264  33.255  32.301  1.00  0.00     0.034 A 
ATOM     65  C   UNL A   1      42.035  28.756  28.857  1.00  0.00     0.034 A 
ATOM     66  C   UNL A   1      38.615  32.369  33.378  1.00  0.00     0.049 A 
ATOM     67  C   UNL A   1      40.903  28.569  29.799  1.00  0.00     0.074 A 
ATOM     68  C   UNL A   1      39.351  32.495  34.540  1.00  0.00     0.029 A 
ATOM     69  N   UNL A   1      38.482  31.020  33.157  1.00  0.00    -0.354 N 
ATOM     70  N   UNL A   1      41.036  28.186  31.039  1.00  0.00    -0.248 NA
ATOM     71  C   UNL A   1      39.628  29.191  29.474  1.00  0.00     0.031 C 
ATOM     72  C   UNL A   1      40.003  31.238  34.703  1.00  0.00     0.029 A 
ATOM     73  C   UNL A   1      39.610  30.416  33.645  1.00  0.00     0.049 A 
ATOM     74  H   UNL A   1      37.718  30.571  32.728  1.00  0.00     0.167 HD
ATOM     75  C   UNL A   1      40.061  28.895  31.734  1.00  0.00     0.074 A 
ATOM     76  C   UNL A   1      39.152  29.392  30.705  1.00  0.00     0.031 C 
ATOM     77  C   UNL A   1      40.240  29.261  33.039  1.00  0.00     0.034 A 
BRANCH  64  78
ATOM     78  C   UNL A   1      36.901  33.254  31.670  1.00  0.00     0.023 A 
ATOM     79  C   UNL A   1      36.689  32.390  30.577  1.00  0.00     0.012 A 
ATOM     80  C   UNL A   1      35.904  34.221  31.933  1.00  0.00     0.148 A 
ATOM     81  C   UNL A   1      35.549  32.497  29.777  1.00  0.00     0.002 A 
ATOM     82  C   UNL A   1      34.726  34.254  31.201  1.00  0.00     0.091 A 
ATOM     83  F   UNL A   1      36.136  35.213  32.802  1.00  0.00    -0.205 F 
ATOM     84  C   UNL A   1      34.555  33.415  30.100  1.00  0.00     0.022 A 
BRANCH  82  85
ATOM     85  S   UNL A   1      33.395  35.364  31.668  1.00  0.00     0.127 S 
ATOM     86  O   UNL A   1      32.624  35.439  30.432  1.00  0.00    -0.237 OA
ATOM     87  O   UNL A   1      32.751  34.632  32.758  1.00  0.00    -0.237 OA
ATOM     88  O   UNL A   1      34.067  36.587  32.093  1.00  0.00    -0.744 OA
ENDBRANCH  82  85
ENDBRANCH  64  78
BRANCH  65  89
ATOM     89  C   UNL A   1      42.121  28.021  27.574  1.00  0.00     0.023 A 
ATOM     90  C   UNL A   1      42.096  28.745  26.367  1.00  0.00     0.012 A 
ATOM     91  C   UNL A   1      42.463  26.650  27.520  1.00  0.00     0.148 A 
ATOM     92  C   UNL A   1      42.427  28.134  25.151  1.00  0.00     0.002 A 
ATOM     93  C   UNL A   1      42.768  26.041  26.306  1.00  0.00     0.091 A 
ATOM     94  F   UNL A   1      42.591  25.963  28.663  1.00  0.00    -0.205 F 
ATOM     95  C   UNL A   1      42.763  26.783  25.120  1.00  0.00     0.022 A 
BRANCH  93  96
ATOM     96  S   UNL A   1      43.195  24.296  26.206  1.00  0.00     0.127 S 
ATOM     97  O   UNL A   1      43.235  24.068  24.761  1.00  0.00    -0.237 OA
ATOM     98  O   UNL A   1      44.496  24.263  26.867  1.00  0.00    -0.237 OA
ATOM     99  O   UNL A   1      42.114  23.592  26.886  1.00  0.00    -0.744 OA
ENDBRANCH  93  96
ENDBRANCH  65  89
BRANCH  77 100
ATOM    100  C   UNL A   1      41.390  28.656  33.808  1.00  0.00     0.023 A 
ATOM    101  C   UNL A   1      41.247  27.454  34.532  1.00  0.00     0.012 A 
ATOM    102  C   UNL A   1      42.680  29.191  33.639  1.00  0.00     0.148 A 
ATOM    103  C   UNL A   1      42.353  26.817  35.097  1.00  0.00     0.002 A 
ATOM    104  C   UNL A   1      43.786  28.528  34.160  1.00  0.00     0.091 A 
ATOM    105  F   UNL A   1      42.812  30.331  32.943  1.00  0.00    -0.205 F 
ATOM    106  C   UNL A   1      43.625  27.346  34.899  1.00  0.00     0.022 A 
BRANCH 104 107
ATOM    107  S   UNL A   1      45.459  29.081  33.814  1.00  0.00     0.127 S 
ATOM    108  O   UNL A   1      45.410  30.483  34.219  1.00  0.00    -0.237 OA
ATOM    109  O   UNL A   1      46.268  28.222  34.682  1.00  0.00    -0.237 OA
ATOM    110  O   UNL A   1      45.667  28.841  32.390  1.00  0.00    -0.744 OA
ENDBRANCH 104 107
ENDBRANCH  77 100
ENDBRANCH  51  52
ENDBRANCH  44  46
ENDBRANCH  43  44
ENDBRANCH  42  43
ENDBRANCH  41  42
ENDBRANCH  40  41
ENDBRANCH  39  40
ENDBRANCH  38  39
ENDBRANCH   1  38
TORSDOF 27
ENDMDL
