MODEL 1
REMARK VINA RESULT:      -8.8      0.000      0.000
REMARK SMILES CNC(=O)[C@H](C)S(=O)(=O)c1cc(C(=O)OCCOCCOCCOCCOC(=O)c2ccc(-c3c4nc(c(-c5cccc(S(=O)(=O)[O-])c5F)c5ccc([nH]5)c(-c5cccc(S(=O)(=O)[O-])c5F)c5nc(c(-c6cccc(S(=O)(=O)[O-])c6F)c6ccc3[nH]6)C=C5)C=C4)cc2)c(C)cc1C
REMARK SMILES IDX 21 1 20 2 19 3 18 4 17 5 16 6 15 7 13 8 14 9 12 10 10 11
REMARK SMILES IDX 11 12 96 13 95 14 97 15 93 16 94 17 7 18 8 19 9 20 5 21 6 22
REMARK SMILES IDX 3 23 1 24 2 25 4 27 22 28 23 29 24 30 25 31 26 32 27 33
REMARK SMILES IDX 28 34 29 35 30 36 31 37 92 38 32 39 91 40 33 41 34 42 35 43
REMARK SMILES IDX 85 44 36 45 90 46 84 47 86 48 37 49 89 50 83 51 82 52 38 54
REMARK SMILES IDX 70 55 50 56 69 57 51 58 54 59 68 60 87 61 52 62 53 63 67 65
REMARK SMILES IDX 88 66 55 67 39 68 40 69 48 70 41 71 43 72 49 73 42 74 44 75
REMARK SMILES IDX 45 76 46 77 47 78 71 79 72 80 80 81 73 82 75 83 81 84 74 85
REMARK SMILES IDX 76 86 77 87 78 88 79 89 56 90 57 91 65 92 58 93 60 94 66 95
REMARK SMILES IDX 59 96 61 97 62 98 63 99 64 100
REMARK H PARENT 2 26 86 53 54 64
REMARK Flexibility Score: inf
ROOT
ATOM      1  O   UNL A   1      34.245  29.373  25.717  1.00  0.00    -0.377 OA
ENDROOT
BRANCH   1   2
ATOM      2  C   UNL A   1      33.829  28.350  24.837  1.00  0.00     0.188 C 
BRANCH   2   3
ATOM      3  C   UNL A   1      33.821  28.761  23.352  1.00  0.00     0.188 C 
BRANCH   3   4
ATOM      4  O   UNL A   1      32.609  29.172  22.744  1.00  0.00    -0.376 OA
BRANCH   4   5
ATOM      5  C   UNL A   1      31.334  28.754  23.211  1.00  0.00     0.202 C 
BRANCH   5   6
ATOM      6  C   UNL A   1      30.517  27.556  22.691  1.00  0.00     0.261 C 
BRANCH   6   7
ATOM      7  O   UNL A   1      31.071  26.260  22.888  1.00  0.00    -0.460 OA
BRANCH   7   8
ATOM      8  C   UNL A   1      30.288  25.367  23.517  1.00  0.00     0.338 C 
ATOM      9  O   UNL A   1      29.190  24.979  23.151  1.00  0.00    -0.246 OA
BRANCH   8  10
ATOM     10  C   UNL A   1      31.044  24.711  24.613  1.00  0.00     0.064 A 
ATOM     11  C   UNL A   1      32.405  22.756  25.171  1.00  0.00     0.071 A 
ATOM     12  C   UNL A   1      31.718  23.540  24.236  1.00  0.00     0.036 A 
ATOM     13  C   UNL A   1      32.347  23.094  26.528  1.00  0.00    -0.032 A 
ATOM     14  C   UNL A   1      31.775  24.335  26.873  1.00  0.00     0.009 A 
ATOM     15  C   UNL A   1      32.887  22.250  27.645  1.00  0.00     0.046 C 
ATOM     16  C   UNL A   1      31.171  25.185  25.924  1.00  0.00    -0.036 A 
ATOM     17  C   UNL A   1      30.678  26.524  26.398  1.00  0.00     0.045 C 
BRANCH  11  18
ATOM     18  S   UNL A   1      33.471  21.486  24.503  1.00  0.00     0.190 S 
ATOM     19  O   UNL A   1      33.529  21.631  23.057  1.00  0.00    -0.223 OA
ATOM     20  O   UNL A   1      32.964  20.231  25.031  1.00  0.00    -0.223 OA
BRANCH  18  21
ATOM     21  C   UNL A   1      35.117  21.771  25.112  1.00  0.00     0.199 C 
ATOM     22  C   UNL A   1      35.872  20.449  25.266  1.00  0.00     0.036 C 
BRANCH  21  23
ATOM     23  C   UNL A   1      35.882  22.719  24.220  1.00  0.00     0.238 C 
ATOM     24  C   UNL A   1      35.133  24.860  25.381  1.00  0.00     0.142 C 
ATOM     25  N   UNL A   1      35.868  24.065  24.421  1.00  0.00    -0.358 N 
ATOM     26  H   UNL A   1      36.452  24.580  23.817  1.00  0.00     0.163 HD
ATOM     27  O   UNL A   1      36.587  22.300  23.299  1.00  0.00    -0.274 OA
ENDBRANCH  21  23
ENDBRANCH  18  21
ENDBRANCH  11  18
ENDBRANCH   8  10
ENDBRANCH   7   8
ENDBRANCH   6   7
ENDBRANCH   5   6
ENDBRANCH   4   5
ENDBRANCH   3   4
ENDBRANCH   2   3
ENDBRANCH   1   2
BRANCH   1  28
ATOM     28  C   UNL A   1      33.543  29.530  26.944  1.00  0.00     0.188 C 
BRANCH  28  29
ATOM     29  C   UNL A   1      32.018  29.786  26.959  1.00  0.00     0.188 C 
BRANCH  29  30
ATOM     30  O   UNL A   1      31.560  30.748  26.016  1.00  0.00    -0.376 OA
BRANCH  30  31
ATOM     31  C   UNL A   1      31.089  31.994  26.507  1.00  0.00     0.202 C 
BRANCH  31  32
ATOM     32  C   UNL A   1      32.163  33.065  26.744  1.00  0.00     0.261 C 
BRANCH  32  33
ATOM     33  O   UNL A   1      32.714  33.095  28.067  1.00  0.00    -0.460 OA
BRANCH  33  34
ATOM     34  C   UNL A   1      33.358  34.228  28.424  1.00  0.00     0.338 C 
ATOM     35  O   UNL A   1      33.047  35.368  28.139  1.00  0.00    -0.246 OA
BRANCH  34  36
ATOM     36  C   UNL A   1      34.415  33.871  29.387  1.00  0.00     0.060 A 
ATOM     37  C   UNL A   1      35.651  34.523  29.291  1.00  0.00     0.016 A 
ATOM     38  C   UNL A   1      34.204  32.876  30.345  1.00  0.00     0.016 A 
ATOM     39  C   UNL A   1      36.708  34.121  30.102  1.00  0.00     0.010 A 
ATOM     40  C   UNL A   1      35.269  32.468  31.151  1.00  0.00     0.010 A 
ATOM     41  C   UNL A   1      36.539  33.047  30.986  1.00  0.00    -0.014 A 
BRANCH  41  42
ATOM     42  C   UNL A   1      37.744  32.374  31.525  1.00  0.00     0.031 A 
ATOM     43  C   UNL A   1      38.275  32.835  32.856  1.00  0.00     0.074 A 
ATOM     44  C   UNL A   1      38.329  31.352  30.877  1.00  0.00     0.049 A 
ATOM     45  N   UNL A   1      39.280  32.376  33.554  1.00  0.00    -0.248 NA
ATOM     46  C   UNL A   1      37.577  33.971  33.485  1.00  0.00     0.031 C 
ATOM     47  C   UNL A   1      37.908  30.816  29.584  1.00  0.00     0.029 A 
ATOM     48  N   UNL A   1      39.417  30.591  31.222  1.00  0.00    -0.354 N 
ATOM     49  C   UNL A   1      39.351  33.180  34.686  1.00  0.00     0.074 A 
ATOM     50  C   UNL A   1      38.303  34.169  34.573  1.00  0.00     0.031 C 
ATOM     51  C   UNL A   1      38.743  29.822  29.234  1.00  0.00     0.029 A 
ATOM     52  C   UNL A   1      39.763  29.663  30.270  1.00  0.00     0.049 A 
ATOM     53  H   UNL A   1      39.903  30.700  32.071  1.00  0.00     0.167 HD
ATOM     54  C   UNL A   1      40.198  33.093  35.738  1.00  0.00     0.034 A 
ATOM     55  C   UNL A   1      40.793  28.794  30.239  1.00  0.00     0.034 A 
ATOM     56  C   UNL A   1      41.230  32.100  35.857  1.00  0.00     0.049 A 
ATOM     57  C   UNL A   1      41.728  28.717  31.420  1.00  0.00     0.074 A 
ATOM     58  C   UNL A   1      42.117  31.900  36.899  1.00  0.00     0.029 A 
ATOM     59  N   UNL A   1      41.523  31.149  34.892  1.00  0.00    -0.354 N 
ATOM     60  N   UNL A   1      41.710  29.407  32.535  1.00  0.00    -0.248 NA
ATOM     61  C   UNL A   1      42.796  27.711  31.356  1.00  0.00     0.031 C 
ATOM     62  C   UNL A   1      42.968  30.846  36.549  1.00  0.00     0.029 A 
ATOM     63  C   UNL A   1      42.581  30.361  35.310  1.00  0.00     0.049 A 
ATOM     64  H   UNL A   1      41.048  31.047  34.036  1.00  0.00     0.167 HD
ATOM     65  C   UNL A   1      42.732  28.886  33.324  1.00  0.00     0.074 A 
ATOM     66  C   UNL A   1      43.337  27.813  32.561  1.00  0.00     0.031 C 
ATOM     67  C   UNL A   1      43.138  29.263  34.563  1.00  0.00     0.034 A 
BRANCH  54  68
ATOM     68  C   UNL A   1      40.032  34.099  36.847  1.00  0.00     0.023 A 
ATOM     69  C   UNL A   1      40.424  35.438  36.648  1.00  0.00     0.012 A 
ATOM     70  C   UNL A   1      39.464  33.721  38.079  1.00  0.00     0.148 A 
ATOM     71  C   UNL A   1      40.291  36.377  37.671  1.00  0.00     0.002 A 
ATOM     72  C   UNL A   1      39.287  34.673  39.076  1.00  0.00     0.091 A 
ATOM     73  F   UNL A   1      39.123  32.437  38.261  1.00  0.00    -0.205 F 
ATOM     74  C   UNL A   1      39.713  35.997  38.879  1.00  0.00     0.022 A 
BRANCH  72  75
ATOM     75  S   UNL A   1      38.479  34.301  40.636  1.00  0.00     0.127 S 
ATOM     76  O   UNL A   1      39.557  33.650  41.378  1.00  0.00    -0.237 OA
ATOM     77  O   UNL A   1      38.121  35.633  41.121  1.00  0.00    -0.237 OA
ATOM     78  O   UNL A   1      37.344  33.450  40.307  1.00  0.00    -0.744 OA
ENDBRANCH  72  75
ENDBRANCH  54  68
BRANCH  55  79
ATOM     79  C   UNL A   1      40.968  27.890  29.068  1.00  0.00     0.023 A 
ATOM     80  C   UNL A   1      40.145  26.757  28.926  1.00  0.00     0.012 A 
ATOM     81  C   UNL A   1      41.944  28.157  28.087  1.00  0.00     0.148 A 
ATOM     82  C   UNL A   1      40.312  25.886  27.849  1.00  0.00     0.002 A 
ATOM     83  C   UNL A   1      42.067  27.316  26.987  1.00  0.00     0.091 A 
ATOM     84  F   UNL A   1      42.727  29.233  28.247  1.00  0.00    -0.205 F 
ATOM     85  C   UNL A   1      41.265  26.171  26.875  1.00  0.00     0.022 A 
BRANCH  83  86
ATOM     86  S   UNL A   1      43.179  27.671  25.622  1.00  0.00     0.127 S 
ATOM     87  O   UNL A   1      43.704  26.343  25.311  1.00  0.00    -0.237 OA
ATOM     88  O   UNL A   1      42.261  28.222  24.625  1.00  0.00    -0.237 OA
ATOM     89  O   UNL A   1      44.150  28.625  26.140  1.00  0.00    -0.744 OA
ENDBRANCH  83  86
ENDBRANCH  55  79
BRANCH  67  90
ATOM     90  C   UNL A   1      44.250  28.474  35.206  1.00  0.00     0.023 A 
ATOM     91  C   UNL A   1      45.594  28.736  34.873  1.00  0.00     0.012 A 
ATOM     92  C   UNL A   1      43.961  27.505  36.188  1.00  0.00     0.148 A 
ATOM     93  C   UNL A   1      46.628  28.014  35.471  1.00  0.00     0.002 A 
ATOM     94  C   UNL A   1      44.997  26.829  36.820  1.00  0.00     0.091 A 
ATOM     95  F   UNL A   1      42.676  27.254  36.481  1.00  0.00    -0.205 F 
ATOM     96  C   UNL A   1      46.330  27.069  36.451  1.00  0.00     0.022 A 
BRANCH  94  97
ATOM     97  S   UNL A   1      44.705  25.672  38.163  1.00  0.00     0.127 S 
ATOM     98  O   UNL A   1      44.162  24.517  37.451  1.00  0.00    -0.237 OA
ATOM     99  O   UNL A   1      46.052  25.477  38.705  1.00  0.00    -0.237 OA
ATOM    100  O   UNL A   1      43.785  26.342  39.072  1.00  0.00    -0.744 OA
ENDBRANCH  94  97
ENDBRANCH  67  90
ENDBRANCH  41  42
ENDBRANCH  34  36
ENDBRANCH  33  34
ENDBRANCH  32  33
ENDBRANCH  31  32
ENDBRANCH  30  31
ENDBRANCH  29  30
ENDBRANCH  28  29
ENDBRANCH   1  28
TORSDOF 26
ENDMDL
MODEL 2
REMARK VINA RESULT:      -8.4      5.461      9.174
REMARK SMILES CNC(=O)[C@H](C)S(=O)(=O)c1cc(C(=O)OCCOCCOCCOCCOC(=O)c2ccc(-c3c4nc(c(-c5cccc(S(=O)(=O)[O-])c5F)c5ccc([nH]5)c(-c5cccc(S(=O)(=O)[O-])c5F)c5nc(c(-c6cccc(S(=O)(=O)[O-])c6F)c6ccc3[nH]6)C=C5)C=C4)cc2)c(C)cc1C
REMARK SMILES IDX 21 1 20 2 19 3 18 4 17 5 16 6 15 7 13 8 14 9 12 10 10 11
REMARK SMILES IDX 11 12 96 13 95 14 97 15 93 16 94 17 7 18 8 19 9 20 5 21 6 22
REMARK SMILES IDX 3 23 1 24 2 25 4 27 22 28 23 29 24 30 25 31 26 32 27 33
REMARK SMILES IDX 28 34 29 35 30 36 31 37 92 38 32 39 91 40 33 41 34 42 35 43
REMARK SMILES IDX 85 44 36 45 90 46 84 47 86 48 37 49 89 50 83 51 82 52 38 54
REMARK SMILES IDX 70 55 50 56 69 57 51 58 54 59 68 60 87 61 52 62 53 63 67 65
REMARK SMILES IDX 88 66 55 67 39 68 40 69 48 70 41 71 43 72 49 73 42 74 44 75
REMARK SMILES IDX 45 76 46 77 47 78 71 79 72 80 80 81 73 82 75 83 81 84 74 85
REMARK SMILES IDX 76 86 77 87 78 88 79 89 56 90 57 91 65 92 58 93 60 94 66 95
REMARK SMILES IDX 59 96 61 97 62 98 63 99 64 100
REMARK H PARENT 2 26 86 53 54 64
REMARK Flexibility Score: inf
ROOT
ATOM      1  O   UNL A   1      41.753  21.062  27.256  1.00  0.00    -0.377 OA
ENDROOT
BRANCH   1   2
ATOM      2  C   UNL A   1      40.861  20.746  26.208  1.00  0.00     0.188 C 
BRANCH   2   3
ATOM      3  C   UNL A   1      39.421  21.248  26.434  1.00  0.00     0.188 C 
BRANCH   3   4
ATOM      4  O   UNL A   1      38.731  21.896  25.380  1.00  0.00    -0.376 OA
BRANCH   4   5
ATOM      5  C   UNL A   1      37.605  21.322  24.731  1.00  0.00     0.202 C 
BRANCH   5   6
ATOM      6  C   UNL A   1      36.479  22.085  24.009  1.00  0.00     0.261 C 
BRANCH   6   7
ATOM      7  O   UNL A   1      36.386  23.485  24.253  1.00  0.00    -0.460 OA
BRANCH   7   8
ATOM      8  C   UNL A   1      36.114  23.853  25.517  1.00  0.00     0.338 C 
ATOM      9  O   UNL A   1      36.908  24.298  26.330  1.00  0.00    -0.246 OA
BRANCH   8  10
ATOM     10  C   UNL A   1      34.646  23.880  25.734  1.00  0.00     0.064 A 
ATOM     11  C   UNL A   1      32.613  25.163  25.283  1.00  0.00     0.071 A 
ATOM     12  C   UNL A   1      33.984  24.945  25.106  1.00  0.00     0.036 A 
ATOM     13  C   UNL A   1      31.898  24.358  26.178  1.00  0.00    -0.032 A 
ATOM     14  C   UNL A   1      32.546  23.221  26.702  1.00  0.00     0.009 A 
ATOM     15  C   UNL A   1      30.474  24.591  26.590  1.00  0.00     0.046 C 
ATOM     16  C   UNL A   1      33.901  22.932  26.446  1.00  0.00    -0.036 A 
ATOM     17  C   UNL A   1      34.455  21.643  26.985  1.00  0.00     0.045 C 
BRANCH  11  18
ATOM     18  S   UNL A   1      31.854  26.348  24.181  1.00  0.00     0.190 S 
ATOM     19  O   UNL A   1      30.781  27.029  24.887  1.00  0.00    -0.223 OA
ATOM     20  O   UNL A   1      31.501  25.601  22.985  1.00  0.00    -0.223 OA
BRANCH  18  21
ATOM     21  C   UNL A   1      33.068  27.583  23.779  1.00  0.00     0.199 C 
ATOM     22  C   UNL A   1      33.446  27.507  22.297  1.00  0.00     0.036 C 
BRANCH  21  23
ATOM     23  C   UNL A   1      32.587  28.970  24.133  1.00  0.00     0.238 C 
ATOM     24  C   UNL A   1      30.787  29.108  22.336  1.00  0.00     0.142 C 
ATOM     25  N   UNL A   1      31.555  29.563  23.475  1.00  0.00    -0.358 N 
ATOM     26  H   UNL A   1      31.287  30.441  23.831  1.00  0.00     0.163 HD
ATOM     27  O   UNL A   1      33.089  29.600  25.067  1.00  0.00    -0.274 OA
ENDBRANCH  21  23
ENDBRANCH  18  21
ENDBRANCH  11  18
ENDBRANCH   8  10
ENDBRANCH   7   8
ENDBRANCH   6   7
ENDBRANCH   5   6
ENDBRANCH   4   5
ENDBRANCH   3   4
ENDBRANCH   2   3
ENDBRANCH   1   2
BRANCH   1  28
ATOM     28  C   UNL A   1      42.316  22.368  27.288  1.00  0.00     0.188 C 
BRANCH  28  29
ATOM     29  C   UNL A   1      42.227  23.241  28.561  1.00  0.00     0.188 C 
BRANCH  29  30
ATOM     30  O   UNL A   1      41.204  24.229  28.542  1.00  0.00    -0.376 OA
BRANCH  30  31
ATOM     31  C   UNL A   1      40.371  24.307  27.394  1.00  0.00     0.202 C 
BRANCH  31  32
ATOM     32  C   UNL A   1      40.208  25.706  26.783  1.00  0.00     0.261 C 
BRANCH  32  33
ATOM     33  O   UNL A   1      40.878  25.907  25.532  1.00  0.00    -0.460 OA
BRANCH  33  34
ATOM     34  C   UNL A   1      42.227  25.835  25.556  1.00  0.00     0.338 C 
ATOM     35  O   UNL A   1      42.922  24.958  25.082  1.00  0.00    -0.246 OA
BRANCH  34  36
ATOM     36  C   UNL A   1      42.745  27.105  26.096  1.00  0.00     0.060 A 
ATOM     37  C   UNL A   1      43.666  27.055  27.150  1.00  0.00     0.016 A 
ATOM     38  C   UNL A   1      42.296  28.331  25.596  1.00  0.00     0.016 A 
ATOM     39  C   UNL A   1      44.077  28.234  27.764  1.00  0.00     0.010 A 
ATOM     40  C   UNL A   1      42.702  29.512  26.221  1.00  0.00     0.010 A 
ATOM     41  C   UNL A   1      43.544  29.460  27.345  1.00  0.00    -0.014 A 
BRANCH  41  42
ATOM     42  C   UNL A   1      43.661  30.630  28.247  1.00  0.00     0.031 A 
ATOM     43  C   UNL A   1      42.502  30.941  29.156  1.00  0.00     0.074 A 
ATOM     44  C   UNL A   1      44.780  31.373  28.295  1.00  0.00     0.049 A 
ATOM     45  N   UNL A   1      42.383  31.875  30.061  1.00  0.00    -0.248 NA
ATOM     46  C   UNL A   1      41.312  30.080  29.022  1.00  0.00     0.031 C 
ATOM     47  C   UNL A   1      45.968  31.171  27.468  1.00  0.00     0.029 A 
ATOM     48  N   UNL A   1      45.089  32.460  29.074  1.00  0.00    -0.354 N 
ATOM     49  C   UNL A   1      41.102  31.732  30.585  1.00  0.00     0.074 A 
ATOM     50  C   UNL A   1      40.475  30.636  29.882  1.00  0.00     0.031 C 
ATOM     51  C   UNL A   1      46.873  32.120  27.769  1.00  0.00     0.029 A 
ATOM     52  C   UNL A   1      46.322  33.001  28.798  1.00  0.00     0.049 A 
ATOM     53  H   UNL A   1      44.485  32.818  29.763  1.00  0.00     0.167 HD
ATOM     54  C   UNL A   1      40.506  32.435  31.576  1.00  0.00     0.034 A 
ATOM     55  C   UNL A   1      46.927  34.089  29.314  1.00  0.00     0.034 A 
ATOM     56  C   UNL A   1      41.137  33.515  32.284  1.00  0.00     0.049 A 
ATOM     57  C   UNL A   1      46.243  34.860  30.415  1.00  0.00     0.074 A 
ATOM     58  C   UNL A   1      40.635  34.267  33.331  1.00  0.00     0.029 A 
ATOM     59  N   UNL A   1      42.403  34.007  32.007  1.00  0.00    -0.354 N 
ATOM     60  N   UNL A   1      45.079  34.640  30.979  1.00  0.00    -0.248 NA
ATOM     61  C   UNL A   1      46.976  36.001  30.979  1.00  0.00     0.031 C 
ATOM     62  C   UNL A   1      41.588  35.235  33.666  1.00  0.00     0.029 A 
ATOM     63  C   UNL A   1      42.699  35.056  32.859  1.00  0.00     0.049 A 
ATOM     64  H   UNL A   1      43.004  33.660  31.308  1.00  0.00     0.167 HD
ATOM     65  C   UNL A   1      44.962  35.584  31.995  1.00  0.00     0.074 A 
ATOM     66  C   UNL A   1      46.182  36.367  31.976  1.00  0.00     0.031 C 
ATOM     67  C   UNL A   1      43.939  35.790  32.862  1.00  0.00     0.034 A 
BRANCH  54  68
ATOM     68  C   UNL A   1      39.102  32.046  31.954  1.00  0.00     0.023 A 
ATOM     69  C   UNL A   1      38.882  30.951  32.816  1.00  0.00     0.012 A 
ATOM     70  C   UNL A   1      37.999  32.780  31.476  1.00  0.00     0.148 A 
ATOM     71  C   UNL A   1      37.586  30.569  33.163  1.00  0.00     0.002 A 
ATOM     72  C   UNL A   1      36.714  32.425  31.867  1.00  0.00     0.091 A 
ATOM     73  F   UNL A   1      38.225  33.800  30.635  1.00  0.00    -0.205 F 
ATOM     74  C   UNL A   1      36.505  31.313  32.697  1.00  0.00     0.022 A 
BRANCH  72  75
ATOM     75  S   UNL A   1      35.263  33.368  31.388  1.00  0.00     0.127 S 
ATOM     76  O   UNL A   1      34.197  32.384  31.573  1.00  0.00    -0.237 OA
ATOM     77  O   UNL A   1      35.266  34.455  32.366  1.00  0.00    -0.237 OA
ATOM     78  O   UNL A   1      35.493  33.789  30.012  1.00  0.00    -0.744 OA
ENDBRANCH  72  75
ENDBRANCH  54  68
BRANCH  55  79
ATOM     79  C   UNL A   1      48.278  34.488  28.830  1.00  0.00     0.023 A 
ATOM     80  C   UNL A   1      49.428  34.038  29.506  1.00  0.00     0.012 A 
ATOM     81  C   UNL A   1      48.428  35.307  27.692  1.00  0.00     0.148 A 
ATOM     82  C   UNL A   1      50.700  34.422  29.081  1.00  0.00     0.002 A 
ATOM     83  C   UNL A   1      49.699  35.639  27.241  1.00  0.00     0.091 A 
ATOM     84  F   UNL A   1      47.320  35.735  27.070  1.00  0.00    -0.205 F 
ATOM     85  C   UNL A   1      50.836  35.214  27.944  1.00  0.00     0.022 A 
BRANCH  83  86
ATOM     86  S   UNL A   1      49.974  36.548  25.717  1.00  0.00     0.127 S 
ATOM     87  O   UNL A   1      51.433  36.591  25.653  1.00  0.00    -0.237 OA
ATOM     88  O   UNL A   1      49.338  35.675  24.729  1.00  0.00    -0.237 OA
ATOM     89  O   UNL A   1      49.313  37.834  25.898  1.00  0.00    -0.744 OA
ENDBRANCH  83  86
ENDBRANCH  55  79
BRANCH  67  90
ATOM     90  C   UNL A   1      44.111  36.864  33.907  1.00  0.00     0.023 A 
ATOM     91  C   UNL A   1      44.619  36.542  35.181  1.00  0.00     0.012 A 
ATOM     92  C   UNL A   1      43.819  38.209  33.601  1.00  0.00     0.148 A 
ATOM     93  C   UNL A   1      44.787  37.533  36.149  1.00  0.00     0.002 A 
ATOM     94  C   UNL A   1      44.042  39.198  34.551  1.00  0.00     0.091 A 
ATOM     95  F   UNL A   1      43.320  38.496  32.390  1.00  0.00    -0.205 F 
ATOM     96  C   UNL A   1      44.509  38.861  35.831  1.00  0.00     0.022 A 
BRANCH  94  97
ATOM     97  S   UNL A   1      43.807  40.942  34.188  1.00  0.00     0.127 S 
ATOM     98  O   UNL A   1      44.131  41.561  35.471  1.00  0.00    -0.237 OA
ATOM     99  O   UNL A   1      44.794  41.176  33.131  1.00  0.00    -0.237 OA
ATOM    100  O   UNL A   1      42.423  41.076  33.755  1.00  0.00    -0.744 OA
ENDBRANCH  94  97
ENDBRANCH  67  90
ENDBRANCH  41  42
ENDBRANCH  34  36
ENDBRANCH  33  34
ENDBRANCH  32  33
ENDBRANCH  31  32
ENDBRANCH  30  31
ENDBRANCH  29  30
ENDBRANCH  28  29
ENDBRANCH   1  28
TORSDOF 26
ENDMDL
MODEL 3
REMARK VINA RESULT:      -8.1      5.721     10.874
REMARK SMILES CNC(=O)[C@H](C)S(=O)(=O)c1cc(C(=O)OCCOCCOCCOCCOC(=O)c2ccc(-c3c4nc(c(-c5cccc(S(=O)(=O)[O-])c5F)c5ccc([nH]5)c(-c5cccc(S(=O)(=O)[O-])c5F)c5nc(c(-c6cccc(S(=O)(=O)[O-])c6F)c6ccc3[nH]6)C=C5)C=C4)cc2)c(C)cc1C
REMARK SMILES IDX 21 1 20 2 19 3 18 4 17 5 16 6 15 7 13 8 14 9 12 10 10 11
REMARK SMILES IDX 11 12 96 13 95 14 97 15 93 16 94 17 7 18 8 19 9 20 5 21 6 22
REMARK SMILES IDX 3 23 1 24 2 25 4 27 22 28 23 29 24 30 25 31 26 32 27 33
REMARK SMILES IDX 28 34 29 35 30 36 31 37 92 38 32 39 91 40 33 41 34 42 35 43
REMARK SMILES IDX 85 44 36 45 90 46 84 47 86 48 37 49 89 50 83 51 82 52 38 54
REMARK SMILES IDX 70 55 50 56 69 57 51 58 54 59 68 60 87 61 52 62 53 63 67 65
REMARK SMILES IDX 88 66 55 67 39 68 40 69 48 70 41 71 43 72 49 73 42 74 44 75
REMARK SMILES IDX 45 76 46 77 47 78 71 79 72 80 80 81 73 82 75 83 81 84 74 85
REMARK SMILES IDX 76 86 77 87 78 88 79 89 56 90 57 91 65 92 58 93 60 94 66 95
REMARK SMILES IDX 59 96 61 97 62 98 63 99 64 100
REMARK H PARENT 2 26 86 53 54 64
REMARK Flexibility Score: inf
ROOT
ATOM      1  O   UNL A   1      37.000  22.991  24.788  1.00  0.00    -0.377 OA
ENDROOT
BRANCH   1   2
ATOM      2  C   UNL A   1      36.375  22.024  23.970  1.00  0.00     0.188 C 
BRANCH   2   3
ATOM      3  C   UNL A   1      35.131  21.371  24.604  1.00  0.00     0.188 C 
BRANCH   3   4
ATOM      4  O   UNL A   1      33.960  21.192  23.828  1.00  0.00    -0.376 OA
BRANCH   4   5
ATOM      5  C   UNL A   1      32.654  21.234  24.385  1.00  0.00     0.202 C 
BRANCH   5   6
ATOM      6  C   UNL A   1      31.808  22.497  24.635  1.00  0.00     0.261 C 
BRANCH   6   7
ATOM      7  O   UNL A   1      31.630  23.384  23.537  1.00  0.00    -0.460 OA
BRANCH   7   8
ATOM      8  C   UNL A   1      32.725  24.040  23.116  1.00  0.00     0.338 C 
ATOM      9  O   UNL A   1      33.484  23.691  22.226  1.00  0.00    -0.246 OA
BRANCH   8  10
ATOM     10  C   UNL A   1      32.768  25.396  23.718  1.00  0.00     0.064 A 
ATOM     11  C   UNL A   1      32.068  27.717  23.392  1.00  0.00     0.071 A 
ATOM     12  C   UNL A   1      32.056  26.372  23.005  1.00  0.00     0.036 A 
ATOM     13  C   UNL A   1      32.880  28.120  24.458  1.00  0.00    -0.032 A 
ATOM     14  C   UNL A   1      33.488  27.115  25.237  1.00  0.00     0.009 A 
ATOM     15  C   UNL A   1      33.120  29.545  24.862  1.00  0.00     0.046 C 
ATOM     16  C   UNL A   1      33.397  25.745  24.919  1.00  0.00    -0.036 A 
ATOM     17  C   UNL A   1      34.010  24.762  25.877  1.00  0.00     0.045 C 
BRANCH  11  18
ATOM     18  S   UNL A   1      30.872  28.779  22.592  1.00  0.00     0.190 S 
ATOM     19  O   UNL A   1      30.093  27.987  21.653  1.00  0.00    -0.223 OA
ATOM     20  O   UNL A   1      31.634  29.895  22.058  1.00  0.00    -0.223 OA
BRANCH  18  21
ATOM     21  C   UNL A   1      29.740  29.364  23.831  1.00  0.00     0.199 C 
ATOM     22  C   UNL A   1      30.339  30.548  24.595  1.00  0.00     0.036 C 
BRANCH  21  23
ATOM     23  C   UNL A   1      28.406  29.742  23.231  1.00  0.00     0.238 C 
ATOM     24  C   UNL A   1      29.050  32.125  22.599  1.00  0.00     0.142 C 
ATOM     25  N   UNL A   1      28.188  30.965  22.677  1.00  0.00    -0.358 N 
ATOM     26  H   UNL A   1      27.303  31.079  22.261  1.00  0.00     0.163 HD
ATOM     27  O   UNL A   1      27.477  28.933  23.182  1.00  0.00    -0.274 OA
ENDBRANCH  21  23
ENDBRANCH  18  21
ENDBRANCH  11  18
ENDBRANCH   8  10
ENDBRANCH   7   8
ENDBRANCH   6   7
ENDBRANCH   5   6
ENDBRANCH   4   5
ENDBRANCH   3   4
ENDBRANCH   2   3
ENDBRANCH   1   2
BRANCH   1  28
ATOM     28  C   UNL A   1      37.546  22.566  26.031  1.00  0.00     0.188 C 
BRANCH  28  29
ATOM     29  C   UNL A   1      38.929  21.879  26.097  1.00  0.00     0.188 C 
BRANCH  29  30
ATOM     30  O   UNL A   1      38.957  20.535  25.630  1.00  0.00    -0.376 OA
BRANCH  30  31
ATOM     31  C   UNL A   1      40.114  19.758  25.900  1.00  0.00     0.202 C 
BRANCH  31  32
ATOM     32  C   UNL A   1      40.821  20.057  27.229  1.00  0.00     0.261 C 
BRANCH  32  33
ATOM     33  O   UNL A   1      42.251  19.967  27.194  1.00  0.00    -0.460 OA
BRANCH  33  34
ATOM     34  C   UNL A   1      42.891  20.882  26.431  1.00  0.00     0.338 C 
ATOM     35  O   UNL A   1      43.466  20.685  25.379  1.00  0.00    -0.246 OA
BRANCH  34  36
ATOM     36  C   UNL A   1      42.619  22.218  26.993  1.00  0.00     0.060 A 
ATOM     37  C   UNL A   1      42.234  23.242  26.119  1.00  0.00     0.016 A 
ATOM     38  C   UNL A   1      42.783  22.466  28.358  1.00  0.00     0.016 A 
ATOM     39  C   UNL A   1      42.092  24.541  26.597  1.00  0.00     0.010 A 
ATOM     40  C   UNL A   1      42.650  23.773  28.834  1.00  0.00     0.010 A 
ATOM     41  C   UNL A   1      42.366  24.821  27.942  1.00  0.00    -0.014 A 
BRANCH  41  42
ATOM     42  C   UNL A   1      42.613  26.228  28.338  1.00  0.00     0.031 A 
ATOM     43  C   UNL A   1      44.021  26.752  28.242  1.00  0.00     0.074 A 
ATOM     44  C   UNL A   1      41.612  27.035  28.730  1.00  0.00     0.049 A 
ATOM     45  N   UNL A   1      44.479  27.952  28.484  1.00  0.00    -0.248 NA
ATOM     46  C   UNL A   1      45.054  25.790  27.817  1.00  0.00     0.031 C 
ATOM     47  C   UNL A   1      40.210  26.645  28.861  1.00  0.00     0.029 A 
ATOM     48  N   UNL A   1      41.633  28.356  29.100  1.00  0.00    -0.354 N 
ATOM     49  C   UNL A   1      45.851  27.882  28.267  1.00  0.00     0.074 A 
ATOM     50  C   UNL A   1      46.155  26.519  27.895  1.00  0.00     0.031 C 
ATOM     51  C   UNL A   1      39.505  27.701  29.304  1.00  0.00     0.029 A 
ATOM     52  C   UNL A   1      40.409  28.834  29.500  1.00  0.00     0.049 A 
ATOM     53  H   UNL A   1      42.448  28.908  29.082  1.00  0.00     0.167 HD
ATOM     54  C   UNL A   1      46.775  28.867  28.349  1.00  0.00     0.034 A 
ATOM     55  C   UNL A   1      40.064  30.046  29.978  1.00  0.00     0.034 A 
ATOM     56  C   UNL A   1      46.470  30.225  28.704  1.00  0.00     0.049 A 
ATOM     57  C   UNL A   1      41.111  31.129  30.065  1.00  0.00     0.074 A 
ATOM     58  C   UNL A   1      47.325  31.310  28.779  1.00  0.00     0.029 A 
ATOM     59  N   UNL A   1      45.210  30.683  29.060  1.00  0.00    -0.354 N 
ATOM     60  N   UNL A   1      42.382  31.078  29.744  1.00  0.00    -0.248 NA
ATOM     61  C   UNL A   1      40.665  32.447  30.536  1.00  0.00     0.031 C 
ATOM     62  C   UNL A   1      46.587  32.417  29.210  1.00  0.00     0.029 A 
ATOM     63  C   UNL A   1      45.265  32.033  29.361  1.00  0.00     0.049 A 
ATOM     64  H   UNL A   1      44.396  30.130  29.093  1.00  0.00     0.167 HD
ATOM     65  C   UNL A   1      42.875  32.366  29.930  1.00  0.00     0.074 A 
ATOM     66  C   UNL A   1      41.760  33.176  30.376  1.00  0.00     0.031 C 
ATOM     67  C   UNL A   1      44.136  32.837  29.753  1.00  0.00     0.034 A 
BRANCH  54  68
ATOM     68  C   UNL A   1      48.204  28.506  28.038  1.00  0.00     0.023 A 
ATOM     69  C   UNL A   1      49.148  28.408  29.080  1.00  0.00     0.012 A 
ATOM     70  C   UNL A   1      48.605  28.238  26.715  1.00  0.00     0.148 A 
ATOM     71  C   UNL A   1      50.478  28.089  28.806  1.00  0.00     0.002 A 
ATOM     72  C   UNL A   1      49.920  27.871  26.455  1.00  0.00     0.091 A 
ATOM     73  F   UNL A   1      47.700  28.363  25.734  1.00  0.00    -0.205 F 
ATOM     74  C   UNL A   1      50.860  27.811  27.496  1.00  0.00     0.022 A 
BRANCH  72  75
ATOM     75  S   UNL A   1      50.490  27.414  24.815  1.00  0.00     0.127 S 
ATOM     76  O   UNL A   1      50.157  25.990  24.774  1.00  0.00    -0.237 OA
ATOM     77  O   UNL A   1      49.662  28.259  23.956  1.00  0.00    -0.237 OA
ATOM     78  O   UNL A   1      51.912  27.724  24.783  1.00  0.00    -0.744 OA
ENDBRANCH  72  75
ENDBRANCH  54  68
BRANCH  55  79
ATOM     79  C   UNL A   1      38.652  30.319  30.366  1.00  0.00     0.023 A 
ATOM     80  C   UNL A   1      38.213  30.026  31.671  1.00  0.00     0.012 A 
ATOM     81  C   UNL A   1      37.743  30.880  29.446  1.00  0.00     0.148 A 
ATOM     82  C   UNL A   1      36.888  30.252  32.044  1.00  0.00     0.002 A 
ATOM     83  C   UNL A   1      36.440  31.155  29.841  1.00  0.00     0.091 A 
ATOM     84  F   UNL A   1      38.178  31.140  28.205  1.00  0.00    -0.205 F 
ATOM     85  C   UNL A   1      36.005  30.825  31.134  1.00  0.00     0.022 A 
BRANCH  83  86
ATOM     86  S   UNL A   1      35.270  32.007  28.778  1.00  0.00     0.127 S 
ATOM     87  O   UNL A   1      34.400  32.659  29.753  1.00  0.00    -0.237 OA
ATOM     88  O   UNL A   1      36.147  32.910  28.031  1.00  0.00    -0.237 OA
ATOM     89  O   UNL A   1      34.643  30.970  27.969  1.00  0.00    -0.744 OA
ENDBRANCH  83  86
ENDBRANCH  55  79
BRANCH  67  90
ATOM     90  C   UNL A   1      44.373  34.309  29.980  1.00  0.00     0.023 A 
ATOM     91  C   UNL A   1      44.757  34.780  31.250  1.00  0.00     0.012 A 
ATOM     92  C   UNL A   1      44.267  35.220  28.910  1.00  0.00     0.148 A 
ATOM     93  C   UNL A   1      44.984  36.141  31.464  1.00  0.00     0.002 A 
ATOM     94  C   UNL A   1      44.549  36.565  29.116  1.00  0.00     0.091 A 
ATOM     95  F   UNL A   1      43.883  34.758  27.710  1.00  0.00    -0.205 F 
ATOM     96  C   UNL A   1      44.891  37.030  30.395  1.00  0.00     0.022 A 
BRANCH  94  97
ATOM     97  S   UNL A   1      44.553  37.758  27.773  1.00  0.00     0.127 S 
ATOM     98  O   UNL A   1      43.177  37.668  27.289  1.00  0.00    -0.237 OA
ATOM     99  O   UNL A   1      44.875  39.007  28.466  1.00  0.00    -0.237 OA
ATOM    100  O   UNL A   1      45.579  37.307  26.843  1.00  0.00    -0.744 OA
ENDBRANCH  94  97
ENDBRANCH  67  90
ENDBRANCH  41  42
ENDBRANCH  34  36
ENDBRANCH  33  34
ENDBRANCH  32  33
ENDBRANCH  31  32
ENDBRANCH  30  31
ENDBRANCH  29  30
ENDBRANCH  28  29
ENDBRANCH   1  28
TORSDOF 26
ENDMDL
