MODEL 1
REMARK VINA RESULT:     -10.2      0.000      0.000
REMARK SMILES O=Cc1ccc(-c2ccc(C(=O)OCCOCCOCCOCCOC(=O)c3ccc(-c4c5nc(c(-c6cccc(S(=O)(=O)[O-])c6F)c6ccc([nH]6)c(-c6cccc(S(=O)(=O)[O-])c6F)c6nc(c(-c7cccc(S(=O)(=O)[O-])c7F)c7ccc4[nH]7)C=C6)C=C5)cc3)cn2)cc1
REMARK SMILES IDX 20 1 19 2 18 3 17 4 16 5 15 6 14 7 13 8 11 9 12 10 10 11
REMARK SMILES IDX 7 12 8 13 92 14 9 15 91 16 6 17 3 18 4 19 94 20 5 21 93 22
REMARK SMILES IDX 2 23 1 24 21 25 22 26 23 27 24 28 25 29 26 30 27 31 28 32
REMARK SMILES IDX 29 33 90 34 30 35 89 36 31 37 32 38 33 39 83 40 34 41 88 42
REMARK SMILES IDX 82 43 84 44 35 45 87 46 81 47 80 48 36 50 68 51 48 52 67 53
REMARK SMILES IDX 49 54 52 55 66 56 85 57 50 58 51 59 65 61 86 62 53 63 37 64
REMARK SMILES IDX 38 65 46 66 39 67 41 68 47 69 40 70 42 71 43 72 44 73 45 74
REMARK SMILES IDX 69 75 70 76 78 77 71 78 73 79 79 80 72 81 74 82 75 83 76 84
REMARK SMILES IDX 77 85 54 86 55 87 63 88 56 89 58 90 64 91 57 92 59 93 60 94
REMARK SMILES IDX 61 95 62 96
REMARK H PARENT 84 49 52 60
REMARK Flexibility Score: inf
ROOT
ATOM      1  C   UNL A   1      34.931  24.433  24.456  1.00  0.00     0.188 C 
ENDROOT
BRANCH   1   2
ATOM      2  O   UNL A   1      34.237  25.540  23.880  1.00  0.00    -0.377 OA
BRANCH   2   3
ATOM      3  C   UNL A   1      33.713  26.547  24.726  1.00  0.00     0.188 C 
BRANCH   3   4
ATOM      4  C   UNL A   1      33.607  27.946  24.088  1.00  0.00     0.188 C 
BRANCH   4   5
ATOM      5  O   UNL A   1      32.373  28.597  24.316  1.00  0.00    -0.376 OA
BRANCH   5   6
ATOM      6  C   UNL A   1      31.291  28.497  23.406  1.00  0.00     0.202 C 
BRANCH   6   7
ATOM      7  C   UNL A   1      30.131  27.490  23.515  1.00  0.00     0.261 C 
BRANCH   7   8
ATOM      8  O   UNL A   1      30.459  26.113  23.688  1.00  0.00    -0.460 OA
BRANCH   8   9
ATOM      9  C   UNL A   1      30.201  25.564  24.889  1.00  0.00     0.339 C 
ATOM     10  O   UNL A   1      29.440  25.984  25.745  1.00  0.00    -0.246 OA
BRANCH   9  11
ATOM     11  C   UNL A   1      30.830  24.234  24.921  1.00  0.00     0.078 A 
ATOM     12  C   UNL A   1      31.978  21.749  24.756  1.00  0.00     0.070 A 
ATOM     13  C   UNL A   1      31.692  22.279  26.016  1.00  0.00     0.030 A 
ATOM     14  N   UNL A   1      31.795  22.448  23.607  1.00  0.00    -0.255 NA
ATOM     15  C   UNL A   1      31.116  23.546  26.100  1.00  0.00     0.019 A 
ATOM     16  C   UNL A   1      31.214  23.665  23.715  1.00  0.00     0.127 A 
BRANCH  12  17
ATOM     17  C   UNL A   1      32.275  20.329  24.563  1.00  0.00     0.000 A 
ATOM     18  C   UNL A   1      33.022  17.676  24.041  1.00  0.00     0.014 A 
ATOM     19  C   UNL A   1      33.111  18.180  25.342  1.00  0.00     0.012 A 
ATOM     20  C   UNL A   1      32.554  18.478  23.002  1.00  0.00     0.012 A 
ATOM     21  C   UNL A   1      32.747  19.508  25.599  1.00  0.00     0.011 A 
ATOM     22  C   UNL A   1      32.176  19.791  23.267  1.00  0.00     0.011 A 
BRANCH  18  23
ATOM     23  C   UNL A   1      33.447  16.291  23.759  1.00  0.00     0.260 C 
ATOM     24  O   UNL A   1      34.512  15.839  24.162  1.00  0.00    -0.298 OA
ENDBRANCH  18  23
ENDBRANCH  12  17
ENDBRANCH   9  11
ENDBRANCH   8   9
ENDBRANCH   7   8
ENDBRANCH   6   7
ENDBRANCH   5   6
ENDBRANCH   4   5
ENDBRANCH   3   4
ENDBRANCH   2   3
ENDBRANCH   1   2
BRANCH   1  25
ATOM     25  C   UNL A   1      34.746  23.997  25.932  1.00  0.00     0.188 C 
BRANCH  25  26
ATOM     26  O   UNL A   1      35.279  22.723  26.259  1.00  0.00    -0.376 OA
BRANCH  26  27
ATOM     27  C   UNL A   1      35.573  21.823  25.205  1.00  0.00     0.202 C 
BRANCH  27  28
ATOM     28  C   UNL A   1      36.686  20.800  25.469  1.00  0.00     0.261 C 
BRANCH  28  29
ATOM     29  O   UNL A   1      37.990  21.166  24.997  1.00  0.00    -0.460 OA
BRANCH  29  30
ATOM     30  C   UNL A   1      39.030  20.873  25.805  1.00  0.00     0.338 C 
ATOM     31  O   UNL A   1      39.594  19.792  25.911  1.00  0.00    -0.246 OA
BRANCH  30  32
ATOM     32  C   UNL A   1      39.509  22.128  26.411  1.00  0.00     0.060 A 
ATOM     33  C   UNL A   1      38.934  23.337  26.000  1.00  0.00     0.016 A 
ATOM     34  C   UNL A   1      40.530  22.114  27.366  1.00  0.00     0.016 A 
ATOM     35  C   UNL A   1      39.423  24.543  26.498  1.00  0.00     0.010 A 
ATOM     36  C   UNL A   1      41.029  23.326  27.852  1.00  0.00     0.010 A 
ATOM     37  C   UNL A   1      40.511  24.544  27.379  1.00  0.00    -0.014 A 
BRANCH  37  38
ATOM     38  C   UNL A   1      41.246  25.811  27.615  1.00  0.00     0.031 A 
ATOM     39  C   UNL A   1      40.529  26.925  28.332  1.00  0.00     0.074 A 
ATOM     40  C   UNL A   1      42.528  25.960  27.241  1.00  0.00     0.049 A 
ATOM     41  N   UNL A   1      40.961  28.112  28.663  1.00  0.00    -0.248 NA
ATOM     42  C   UNL A   1      39.134  26.661  28.729  1.00  0.00     0.031 C 
ATOM     43  C   UNL A   1      43.333  24.953  26.553  1.00  0.00     0.029 A 
ATOM     44  N   UNL A   1      43.373  27.034  27.376  1.00  0.00    -0.354 N 
ATOM     45  C   UNL A   1      39.889  28.747  29.280  1.00  0.00     0.074 A 
ATOM     46  C   UNL A   1      38.779  27.821  29.260  1.00  0.00     0.031 C 
ATOM     47  C   UNL A   1      44.553  25.465  26.308  1.00  0.00     0.029 A 
ATOM     48  C   UNL A   1      44.605  26.841  26.799  1.00  0.00     0.049 A 
ATOM     49  H   UNL A   1      43.120  27.863  27.843  1.00  0.00     0.167 HD
ATOM     50  C   UNL A   1      39.834  29.983  29.829  1.00  0.00     0.034 A 
ATOM     51  C   UNL A   1      45.646  27.687  26.667  1.00  0.00     0.034 A 
ATOM     52  C   UNL A   1      40.940  30.899  29.856  1.00  0.00     0.049 A 
ATOM     53  C   UNL A   1      45.550  29.069  27.261  1.00  0.00     0.074 A 
ATOM     54  C   UNL A   1      40.997  32.162  30.417  1.00  0.00     0.029 A 
ATOM     55  N   UNL A   1      42.181  30.658  29.286  1.00  0.00    -0.354 N 
ATOM     56  N   UNL A   1      44.564  29.619  27.928  1.00  0.00    -0.248 NA
ATOM     57  C   UNL A   1      46.730  29.936  27.119  1.00  0.00     0.031 C 
ATOM     58  C   UNL A   1      42.261  32.701  30.151  1.00  0.00     0.029 A 
ATOM     59  C   UNL A   1      43.008  31.751  29.472  1.00  0.00     0.049 A 
ATOM     60  H   UNL A   1      42.436  29.830  28.818  1.00  0.00     0.167 HD
ATOM     61  C   UNL A   1      45.021  30.872  28.326  1.00  0.00     0.074 A 
ATOM     62  C   UNL A   1      46.379  30.992  27.838  1.00  0.00     0.031 C 
ATOM     63  C   UNL A   1      44.375  31.838  29.026  1.00  0.00     0.034 A 
BRANCH  50  64
ATOM     64  C   UNL A   1      38.531  30.413  30.450  1.00  0.00     0.023 A 
ATOM     65  C   UNL A   1      38.307  30.212  31.829  1.00  0.00     0.012 A 
ATOM     66  C   UNL A   1      37.544  31.056  29.677  1.00  0.00     0.148 A 
ATOM     67  C   UNL A   1      37.108  30.612  32.419  1.00  0.00     0.002 A 
ATOM     68  C   UNL A   1      36.375  31.496  30.283  1.00  0.00     0.091 A 
ATOM     69  F   UNL A   1      37.765  31.215  28.365  1.00  0.00    -0.205 F 
ATOM     70  C   UNL A   1      36.148  31.263  31.650  1.00  0.00     0.022 A 
BRANCH  68  71
ATOM     71  S   UNL A   1      35.113  32.417  29.396  1.00  0.00     0.127 S 
ATOM     72  O   UNL A   1      35.884  33.543  28.870  1.00  0.00    -0.237 OA
ATOM     73  O   UNL A   1      34.681  31.449  28.387  1.00  0.00    -0.237 OA
ATOM     74  O   UNL A   1      34.099  32.763  30.382  1.00  0.00    -0.744 OA
ENDBRANCH  68  71
ENDBRANCH  50  64
BRANCH  51  75
ATOM     75  C   UNL A   1      46.888  27.246  25.968  1.00  0.00     0.023 A 
ATOM     76  C   UNL A   1      47.012  27.430  24.578  1.00  0.00     0.012 A 
ATOM     77  C   UNL A   1      47.943  26.641  26.678  1.00  0.00     0.148 A 
ATOM     78  C   UNL A   1      48.146  26.981  23.899  1.00  0.00     0.002 A 
ATOM     79  C   UNL A   1      49.094  26.248  26.006  1.00  0.00     0.091 A 
ATOM     80  F   UNL A   1      47.799  26.462  27.999  1.00  0.00    -0.205 F 
ATOM     81  C   UNL A   1      49.190  26.399  24.614  1.00  0.00     0.022 A 
BRANCH  79  82
ATOM     82  S   UNL A   1      50.538  25.607  26.860  1.00  0.00     0.127 S 
ATOM     83  O   UNL A   1      50.906  26.733  27.713  1.00  0.00    -0.237 OA
ATOM     84  O   UNL A   1      49.979  24.455  27.567  1.00  0.00    -0.237 OA
ATOM     85  O   UNL A   1      51.495  25.267  25.816  1.00  0.00    -0.744 OA
ENDBRANCH  79  82
ENDBRANCH  51  75
BRANCH  63  86
ATOM     86  C   UNL A   1      45.147  33.086  29.374  1.00  0.00     0.023 A 
ATOM     87  C   UNL A   1      45.908  33.149  30.559  1.00  0.00     0.012 A 
ATOM     88  C   UNL A   1      45.159  34.183  28.489  1.00  0.00     0.148 A 
ATOM     89  C   UNL A   1      46.624  34.301  30.880  1.00  0.00     0.002 A 
ATOM     90  C   UNL A   1      45.921  35.305  28.788  1.00  0.00     0.091 A 
ATOM     91  F   UNL A   1      44.418  34.113  27.373  1.00  0.00    -0.205 F 
ATOM     92  C   UNL A   1      46.640  35.374  29.992  1.00  0.00     0.022 A 
BRANCH  90  93
ATOM     93  S   UNL A   1      46.081  36.688  27.653  1.00  0.00     0.127 S 
ATOM     94  O   UNL A   1      44.717  37.211  27.628  1.00  0.00    -0.237 OA
ATOM     95  O   UNL A   1      47.049  37.544  28.342  1.00  0.00    -0.237 OA
ATOM     96  O   UNL A   1      46.561  36.125  26.399  1.00  0.00    -0.744 OA
ENDBRANCH  90  93
ENDBRANCH  63  86
ENDBRANCH  37  38
ENDBRANCH  30  32
ENDBRANCH  29  30
ENDBRANCH  28  29
ENDBRANCH  27  28
ENDBRANCH  26  27
ENDBRANCH  25  26
ENDBRANCH   1  25
TORSDOF 25
ENDMDL
MODEL 2
REMARK VINA RESULT:     -10.0      4.803     10.150
REMARK SMILES O=Cc1ccc(-c2ccc(C(=O)OCCOCCOCCOCCOC(=O)c3ccc(-c4c5nc(c(-c6cccc(S(=O)(=O)[O-])c6F)c6ccc([nH]6)c(-c6cccc(S(=O)(=O)[O-])c6F)c6nc(c(-c7cccc(S(=O)(=O)[O-])c7F)c7ccc4[nH]7)C=C6)C=C5)cc3)cn2)cc1
REMARK SMILES IDX 20 1 19 2 18 3 17 4 16 5 15 6 14 7 13 8 11 9 12 10 10 11
REMARK SMILES IDX 7 12 8 13 92 14 9 15 91 16 6 17 3 18 4 19 94 20 5 21 93 22
REMARK SMILES IDX 2 23 1 24 21 25 22 26 23 27 24 28 25 29 26 30 27 31 28 32
REMARK SMILES IDX 29 33 90 34 30 35 89 36 31 37 32 38 33 39 83 40 34 41 88 42
REMARK SMILES IDX 82 43 84 44 35 45 87 46 81 47 80 48 36 50 68 51 48 52 67 53
REMARK SMILES IDX 49 54 52 55 66 56 85 57 50 58 51 59 65 61 86 62 53 63 37 64
REMARK SMILES IDX 38 65 46 66 39 67 41 68 47 69 40 70 42 71 43 72 44 73 45 74
REMARK SMILES IDX 69 75 70 76 78 77 71 78 73 79 79 80 72 81 74 82 75 83 76 84
REMARK SMILES IDX 77 85 54 86 55 87 63 88 56 89 58 90 64 91 57 92 59 93 60 94
REMARK SMILES IDX 61 95 62 96
REMARK H PARENT 84 49 52 60
REMARK Flexibility Score: inf
ROOT
ATOM      1  C   UNL A   1      33.598  26.742  24.858  1.00  0.00     0.188 C 
ENDROOT
BRANCH   1   2
ATOM      2  O   UNL A   1      34.068  25.441  25.214  1.00  0.00    -0.377 OA
BRANCH   2   3
ATOM      3  C   UNL A   1      34.693  24.636  24.231  1.00  0.00     0.188 C 
BRANCH   3   4
ATOM      4  C   UNL A   1      35.559  23.486  24.782  1.00  0.00     0.188 C 
BRANCH   4   5
ATOM      5  O   UNL A   1      34.831  22.482  25.458  1.00  0.00    -0.376 OA
BRANCH   5   6
ATOM      6  C   UNL A   1      34.601  22.532  26.855  1.00  0.00     0.202 C 
BRANCH   6   7
ATOM      7  C   UNL A   1      33.218  22.459  27.531  1.00  0.00     0.261 C 
BRANCH   7   8
ATOM      8  O   UNL A   1      32.180  23.287  27.012  1.00  0.00    -0.460 OA
BRANCH   8   9
ATOM      9  C   UNL A   1      31.604  22.904  25.859  1.00  0.00     0.339 C 
ATOM     10  O   UNL A   1      31.490  21.768  25.432  1.00  0.00    -0.246 OA
BRANCH   9  11
ATOM     11  C   UNL A   1      30.925  24.078  25.284  1.00  0.00     0.078 A 
ATOM     12  C   UNL A   1      29.764  26.215  24.019  1.00  0.00     0.070 A 
ATOM     13  C   UNL A   1      29.599  26.075  25.398  1.00  0.00     0.030 A 
ATOM     14  N   UNL A   1      30.401  25.289  23.258  1.00  0.00    -0.255 NA
ATOM     15  C   UNL A   1      30.182  24.983  26.040  1.00  0.00     0.019 A 
ATOM     16  C   UNL A   1      30.977  24.252  23.908  1.00  0.00     0.127 A 
BRANCH  12  17
ATOM     17  C   UNL A   1      29.471  27.472  23.328  1.00  0.00     0.000 A 
ATOM     18  C   UNL A   1      28.840  29.972  22.221  1.00  0.00     0.014 A 
ATOM     19  C   UNL A   1      30.151  29.490  22.148  1.00  0.00     0.012 A 
ATOM     20  C   UNL A   1      27.840  29.214  22.829  1.00  0.00     0.012 A 
ATOM     21  C   UNL A   1      30.465  28.246  22.711  1.00  0.00     0.011 A 
ATOM     22  C   UNL A   1      28.156  27.971  23.370  1.00  0.00     0.011 A 
BRANCH  18  23
ATOM     23  C   UNL A   1      28.514  31.301  21.669  1.00  0.00     0.260 C 
ATOM     24  O   UNL A   1      27.761  32.080  22.241  1.00  0.00    -0.298 OA
ENDBRANCH  18  23
ENDBRANCH  12  17
ENDBRANCH   9  11
ENDBRANCH   8   9
ENDBRANCH   7   8
ENDBRANCH   6   7
ENDBRANCH   5   6
ENDBRANCH   4   5
ENDBRANCH   3   4
ENDBRANCH   2   3
ENDBRANCH   1   2
BRANCH   1  25
ATOM     25  C   UNL A   1      33.489  27.906  25.876  1.00  0.00     0.188 C 
BRANCH  25  26
ATOM     26  O   UNL A   1      32.596  28.947  25.511  1.00  0.00    -0.376 OA
BRANCH  26  27
ATOM     27  C   UNL A   1      31.701  29.444  26.490  1.00  0.00     0.202 C 
BRANCH  27  28
ATOM     28  C   UNL A   1      31.609  30.971  26.621  1.00  0.00     0.261 C 
BRANCH  28  29
ATOM     29  O   UNL A   1      32.829  31.689  26.392  1.00  0.00    -0.460 OA
BRANCH  29  30
ATOM     30  C   UNL A   1      33.261  32.484  27.393  1.00  0.00     0.338 C 
ATOM     31  O   UNL A   1      32.625  33.366  27.955  1.00  0.00    -0.246 OA
BRANCH  30  32
ATOM     32  C   UNL A   1      34.576  31.990  27.838  1.00  0.00     0.060 A 
ATOM     33  C   UNL A   1      34.724  30.624  28.113  1.00  0.00     0.016 A 
ATOM     34  C   UNL A   1      35.650  32.869  27.999  1.00  0.00     0.016 A 
ATOM     35  C   UNL A   1      35.934  30.144  28.611  1.00  0.00     0.010 A 
ATOM     36  C   UNL A   1      36.857  32.388  28.514  1.00  0.00     0.010 A 
ATOM     37  C   UNL A   1      36.984  31.034  28.871  1.00  0.00    -0.014 A 
BRANCH  37  38
ATOM     38  C   UNL A   1      38.112  30.587  29.723  1.00  0.00     0.031 A 
ATOM     39  C   UNL A   1      39.080  29.583  29.152  1.00  0.00     0.074 A 
ATOM     40  C   UNL A   1      38.302  31.085  30.957  1.00  0.00     0.049 A 
ATOM     41  N   UNL A   1      40.144  29.054  29.695  1.00  0.00    -0.248 NA
ATOM     42  C   UNL A   1      38.808  29.114  27.781  1.00  0.00     0.031 C 
ATOM     43  C   UNL A   1      37.445  32.069  31.614  1.00  0.00     0.029 A 
ATOM     44  N   UNL A   1      39.277  30.812  31.884  1.00  0.00    -0.354 N 
ATOM     45  C   UNL A   1      40.652  28.172  28.748  1.00  0.00     0.074 A 
ATOM     46  C   UNL A   1      39.770  28.221  27.604  1.00  0.00     0.031 C 
ATOM     47  C   UNL A   1      37.921  32.304  32.850  1.00  0.00     0.029 A 
ATOM     48  C   UNL A   1      39.100  31.469  33.078  1.00  0.00     0.049 A 
ATOM     49  H   UNL A   1      40.031  30.204  31.710  1.00  0.00     0.167 HD
ATOM     50  C   UNL A   1      41.762  27.400  28.815  1.00  0.00     0.034 A 
ATOM     51  C   UNL A   1      39.801  31.390  34.226  1.00  0.00     0.034 A 
ATOM     52  C   UNL A   1      42.644  27.359  29.949  1.00  0.00     0.049 A 
ATOM     53  C   UNL A   1      41.017  30.500  34.286  1.00  0.00     0.074 A 
ATOM     54  C   UNL A   1      43.812  26.635  30.104  1.00  0.00     0.029 A 
ATOM     55  N   UNL A   1      42.448  28.059  31.129  1.00  0.00    -0.354 N 
ATOM     56  N   UNL A   1      41.541  29.747  33.350  1.00  0.00    -0.248 NA
ATOM     57  C   UNL A   1      41.763  30.482  35.554  1.00  0.00     0.031 C 
ATOM     58  C   UNL A   1      44.302  26.868  31.393  1.00  0.00     0.029 A 
ATOM     59  C   UNL A   1      43.467  27.779  32.021  1.00  0.00     0.049 A 
ATOM     60  H   UNL A   1      41.694  28.667  31.306  1.00  0.00     0.167 HD
ATOM     61  C   UNL A   1      42.701  29.206  33.896  1.00  0.00     0.074 A 
ATOM     62  C   UNL A   1      42.810  29.731  35.241  1.00  0.00     0.031 C 
ATOM     63  C   UNL A   1      43.592  28.349  33.339  1.00  0.00     0.034 A 
BRANCH  50  64
ATOM     64  C   UNL A   1      42.087  26.539  27.622  1.00  0.00     0.023 A 
ATOM     65  C   UNL A   1      42.810  27.081  26.539  1.00  0.00     0.012 A 
ATOM     66  C   UNL A   1      41.713  25.182  27.593  1.00  0.00     0.148 A 
ATOM     67  C   UNL A   1      43.124  26.294  25.431  1.00  0.00     0.002 A 
ATOM     68  C   UNL A   1      42.074  24.392  26.509  1.00  0.00     0.091 A 
ATOM     69  F   UNL A   1      41.005  24.693  28.621  1.00  0.00    -0.205 F 
ATOM     70  C   UNL A   1      42.766  24.949  25.421  1.00  0.00     0.022 A 
BRANCH  68  71
ATOM     71  S   UNL A   1      41.731  22.630  26.438  1.00  0.00     0.127 S 
ATOM     72  O   UNL A   1      42.473  22.233  25.242  1.00  0.00    -0.237 OA
ATOM     73  O   UNL A   1      42.307  22.156  27.698  1.00  0.00    -0.237 OA
ATOM     74  O   UNL A   1      40.283  22.504  26.344  1.00  0.00    -0.744 OA
ENDBRANCH  68  71
ENDBRANCH  50  64
BRANCH  51  75
ATOM     75  C   UNL A   1      39.393  32.197  35.412  1.00  0.00     0.023 A 
ATOM     76  C   UNL A   1      38.535  31.638  36.379  1.00  0.00     0.012 A 
ATOM     77  C   UNL A   1      39.848  33.519  35.581  1.00  0.00     0.148 A 
ATOM     78  C   UNL A   1      38.104  32.395  37.470  1.00  0.00     0.002 A 
ATOM     79  C   UNL A   1      39.463  34.247  36.700  1.00  0.00     0.091 A 
ATOM     80  F   UNL A   1      40.653  34.038  34.643  1.00  0.00    -0.205 F 
ATOM     81  C   UNL A   1      38.575  33.694  37.635  1.00  0.00     0.022 A 
BRANCH  79  82
ATOM     82  S   UNL A   1      40.117  35.880  37.060  1.00  0.00     0.127 S 
ATOM     83  O   UNL A   1      41.551  35.616  37.146  1.00  0.00    -0.237 OA
ATOM     84  O   UNL A   1      39.698  36.637  35.880  1.00  0.00    -0.237 OA
ATOM     85  O   UNL A   1      39.477  36.297  38.301  1.00  0.00    -0.744 OA
ENDBRANCH  79  82
ENDBRANCH  51  75
BRANCH  63  86
ATOM     86  C   UNL A   1      44.806  27.975  34.151  1.00  0.00     0.023 A 
ATOM     87  C   UNL A   1      46.017  28.677  33.991  1.00  0.00     0.012 A 
ATOM     88  C   UNL A   1      44.726  26.952  35.119  1.00  0.00     0.148 A 
ATOM     89  C   UNL A   1      47.140  28.334  34.743  1.00  0.00     0.002 A 
ATOM     90  C   UNL A   1      45.832  26.655  35.905  1.00  0.00     0.091 A 
ATOM     91  F   UNL A   1      43.570  26.283  35.249  1.00  0.00    -0.205 F 
ATOM     92  C   UNL A   1      47.046  27.333  35.706  1.00  0.00     0.022 A 
BRANCH  90  93
ATOM     93  S   UNL A   1      45.768  25.452  37.237  1.00  0.00     0.127 S 
ATOM     94  O   UNL A   1      44.607  25.911  37.997  1.00  0.00    -0.237 OA
ATOM     95  O   UNL A   1      45.566  24.197  36.512  1.00  0.00    -0.237 OA
ATOM     96  O   UNL A   1      47.047  25.550  37.927  1.00  0.00    -0.744 OA
ENDBRANCH  90  93
ENDBRANCH  63  86
ENDBRANCH  37  38
ENDBRANCH  30  32
ENDBRANCH  29  30
ENDBRANCH  28  29
ENDBRANCH  27  28
ENDBRANCH  26  27
ENDBRANCH  25  26
ENDBRANCH   1  25
TORSDOF 25
ENDMDL
MODEL 3
REMARK VINA RESULT:      -9.7      4.888      8.130
REMARK SMILES O=Cc1ccc(-c2ccc(C(=O)OCCOCCOCCOCCOC(=O)c3ccc(-c4c5nc(c(-c6cccc(S(=O)(=O)[O-])c6F)c6ccc([nH]6)c(-c6cccc(S(=O)(=O)[O-])c6F)c6nc(c(-c7cccc(S(=O)(=O)[O-])c7F)c7ccc4[nH]7)C=C6)C=C5)cc3)cn2)cc1
REMARK SMILES IDX 20 1 19 2 18 3 17 4 16 5 15 6 14 7 13 8 11 9 12 10 10 11
REMARK SMILES IDX 7 12 8 13 92 14 9 15 91 16 6 17 3 18 4 19 94 20 5 21 93 22
REMARK SMILES IDX 2 23 1 24 21 25 22 26 23 27 24 28 25 29 26 30 27 31 28 32
REMARK SMILES IDX 29 33 90 34 30 35 89 36 31 37 32 38 33 39 83 40 34 41 88 42
REMARK SMILES IDX 82 43 84 44 35 45 87 46 81 47 80 48 36 50 68 51 48 52 67 53
REMARK SMILES IDX 49 54 52 55 66 56 85 57 50 58 51 59 65 61 86 62 53 63 37 64
REMARK SMILES IDX 38 65 46 66 39 67 41 68 47 69 40 70 42 71 43 72 44 73 45 74
REMARK SMILES IDX 69 75 70 76 78 77 71 78 73 79 79 80 72 81 74 82 75 83 76 84
REMARK SMILES IDX 77 85 54 86 55 87 63 88 56 89 58 90 64 91 57 92 59 93 60 94
REMARK SMILES IDX 61 95 62 96
REMARK H PARENT 84 49 52 60
REMARK Flexibility Score: inf
ROOT
ATOM      1  C   UNL A   1      33.998  26.313  25.014  1.00  0.00     0.188 C 
ENDROOT
BRANCH   1   2
ATOM      2  O   UNL A   1      34.150  24.908  25.222  1.00  0.00    -0.377 OA
BRANCH   2   3
ATOM      3  C   UNL A   1      35.296  24.250  24.713  1.00  0.00     0.188 C 
BRANCH   3   4
ATOM      4  C   UNL A   1      35.535  22.832  25.266  1.00  0.00     0.188 C 
BRANCH   4   5
ATOM      5  O   UNL A   1      34.373  22.195  25.758  1.00  0.00    -0.376 OA
BRANCH   5   6
ATOM      6  C   UNL A   1      34.131  22.039  27.145  1.00  0.00     0.202 C 
BRANCH   6   7
ATOM      7  C   UNL A   1      32.776  22.268  27.841  1.00  0.00     0.261 C 
BRANCH   7   8
ATOM      8  O   UNL A   1      31.917  23.275  27.310  1.00  0.00    -0.460 OA
BRANCH   8   9
ATOM      9  C   UNL A   1      31.084  22.914  26.318  1.00  0.00     0.339 C 
ATOM     10  O   UNL A   1      30.494  21.854  26.198  1.00  0.00    -0.246 OA
BRANCH   9  11
ATOM     11  C   UNL A   1      30.822  24.106  25.494  1.00  0.00     0.078 A 
ATOM     12  C   UNL A   1      30.279  26.434  24.151  1.00  0.00     0.070 A 
ATOM     13  C   UNL A   1      30.537  25.274  23.417  1.00  0.00     0.030 A 
ATOM     14  N   UNL A   1      30.374  26.482  25.504  1.00  0.00    -0.255 NA
ATOM     15  C   UNL A   1      30.821  24.092  24.100  1.00  0.00     0.019 A 
ATOM     16  C   UNL A   1      30.628  25.317  26.143  1.00  0.00     0.127 A 
BRANCH  12  17
ATOM     17  C   UNL A   1      29.667  27.615  23.541  1.00  0.00     0.000 A 
ATOM     18  C   UNL A   1      28.597  29.812  22.163  1.00  0.00     0.014 A 
ATOM     19  C   UNL A   1      27.741  28.872  22.744  1.00  0.00     0.012 A 
ATOM     20  C   UNL A   1      29.980  29.673  22.272  1.00  0.00     0.012 A 
ATOM     21  C   UNL A   1      28.277  27.771  23.424  1.00  0.00     0.011 A 
ATOM     22  C   UNL A   1      30.506  28.586  22.964  1.00  0.00     0.011 A 
BRANCH  18  23
ATOM     23  C   UNL A   1      28.036  30.950  21.408  1.00  0.00     0.260 C 
ATOM     24  O   UNL A   1      27.610  30.830  20.266  1.00  0.00    -0.298 OA
ENDBRANCH  18  23
ENDBRANCH  12  17
ENDBRANCH   9  11
ENDBRANCH   8   9
ENDBRANCH   7   8
ENDBRANCH   6   7
ENDBRANCH   5   6
ENDBRANCH   4   5
ENDBRANCH   3   4
ENDBRANCH   2   3
ENDBRANCH   1   2
BRANCH   1  25
ATOM     25  C   UNL A   1      33.793  27.320  26.173  1.00  0.00     0.188 C 
BRANCH  25  26
ATOM     26  O   UNL A   1      33.105  28.512  25.825  1.00  0.00    -0.376 OA
BRANCH  26  27
ATOM     27  C   UNL A   1      32.332  29.160  26.819  1.00  0.00     0.202 C 
BRANCH  27  28
ATOM     28  C   UNL A   1      32.433  30.691  26.875  1.00  0.00     0.261 C 
BRANCH  28  29
ATOM     29  O   UNL A   1      33.760  31.230  26.795  1.00  0.00    -0.460 OA
BRANCH  29  30
ATOM     30  C   UNL A   1      34.249  31.802  27.914  1.00  0.00     0.338 C 
ATOM     31  O   UNL A   1      33.682  32.619  28.628  1.00  0.00    -0.246 OA
BRANCH  30  32
ATOM     32  C   UNL A   1      35.519  31.137  28.253  1.00  0.00     0.060 A 
ATOM     33  C   UNL A   1      35.481  29.843  28.788  1.00  0.00     0.016 A 
ATOM     34  C   UNL A   1      36.739  31.790  28.059  1.00  0.00     0.016 A 
ATOM     35  C   UNL A   1      36.662  29.223  29.191  1.00  0.00     0.010 A 
ATOM     36  C   UNL A   1      37.921  31.172  28.478  1.00  0.00     0.010 A 
ATOM     37  C   UNL A   1      37.878  29.909  29.093  1.00  0.00    -0.014 A 
BRANCH  37  38
ATOM     38  C   UNL A   1      39.054  29.401  29.842  1.00  0.00     0.031 A 
ATOM     39  C   UNL A   1      39.357  30.010  31.186  1.00  0.00     0.074 A 
ATOM     40  C   UNL A   1      39.811  28.398  29.366  1.00  0.00     0.049 A 
ATOM     41  N   UNL A   1      40.314  29.728  32.029  1.00  0.00    -0.248 NA
ATOM     42  C   UNL A   1      38.456  31.085  31.640  1.00  0.00     0.031 C 
ATOM     43  C   UNL A   1      39.611  27.718  28.088  1.00  0.00     0.029 A 
ATOM     44  N   UNL A   1      40.917  27.788  29.905  1.00  0.00    -0.354 N 
ATOM     45  C   UNL A   1      40.151  30.604  33.095  1.00  0.00     0.074 A 
ATOM     46  C   UNL A   1      39.013  31.441  32.786  1.00  0.00     0.031 C 
ATOM     47  C   UNL A   1      40.578  26.796  27.931  1.00  0.00     0.029 A 
ATOM     48  C   UNL A   1      41.476  26.838  29.084  1.00  0.00     0.049 A 
ATOM     49  H   UNL A   1      41.275  28.011  30.794  1.00  0.00     0.167 HD
ATOM     50  C   UNL A   1      40.870  30.695  34.239  1.00  0.00     0.034 A 
ATOM     51  C   UNL A   1      42.594  26.102  29.241  1.00  0.00     0.034 A 
ATOM     52  C   UNL A   1      41.994  29.856  34.549  1.00  0.00     0.049 A 
ATOM     53  C   UNL A   1      43.396  26.243  30.510  1.00  0.00     0.074 A 
ATOM     54  C   UNL A   1      42.769  29.846  35.694  1.00  0.00     0.029 A 
ATOM     55  N   UNL A   1      42.513  28.886  33.706  1.00  0.00    -0.354 N 
ATOM     56  N   UNL A   1      43.171  27.006  31.553  1.00  0.00    -0.248 NA
ATOM     57  C   UNL A   1      44.585  25.389  30.642  1.00  0.00     0.031 C 
ATOM     58  C   UNL A   1      43.783  28.897  35.527  1.00  0.00     0.029 A 
ATOM     59  C   UNL A   1      43.605  28.278  34.299  1.00  0.00     0.049 A 
ATOM     60  H   UNL A   1      42.157  28.663  32.816  1.00  0.00     0.167 HD
ATOM     61  C   UNL A   1      44.158  26.690  32.480  1.00  0.00     0.074 A 
ATOM     62  C   UNL A   1      44.973  25.653  31.881  1.00  0.00     0.031 C 
ATOM     63  C   UNL A   1      44.376  27.212  33.713  1.00  0.00     0.034 A 
BRANCH  50  64
ATOM     64  C   UNL A   1      40.456  31.740  35.242  1.00  0.00     0.023 A 
ATOM     65  C   UNL A   1      41.086  33.002  35.245  1.00  0.00     0.012 A 
ATOM     66  C   UNL A   1      39.412  31.487  36.153  1.00  0.00     0.148 A 
ATOM     67  C   UNL A   1      40.708  33.982  36.164  1.00  0.00     0.002 A 
ATOM     68  C   UNL A   1      39.007  32.485  37.030  1.00  0.00     0.091 A 
ATOM     69  F   UNL A   1      38.843  30.273  36.150  1.00  0.00    -0.205 F 
ATOM     70  C   UNL A   1      39.663  33.727  37.048  1.00  0.00     0.022 A 
BRANCH  68  71
ATOM     71  S   UNL A   1      37.618  32.284  38.150  1.00  0.00     0.127 S 
ATOM     72  O   UNL A   1      36.613  33.149  37.533  1.00  0.00    -0.237 OA
ATOM     73  O   UNL A   1      37.340  30.851  38.039  1.00  0.00    -0.237 OA
ATOM     74  O   UNL A   1      38.090  32.713  39.460  1.00  0.00    -0.744 OA
ENDBRANCH  68  71
ENDBRANCH  50  64
BRANCH  51  75
ATOM     75  C   UNL A   1      43.014  25.140  28.182  1.00  0.00     0.023 A 
ATOM     76  C   UNL A   1      42.306  23.935  28.009  1.00  0.00     0.012 A 
ATOM     77  C   UNL A   1      44.118  25.412  27.351  1.00  0.00     0.148 A 
ATOM     78  C   UNL A   1      42.714  23.000  27.056  1.00  0.00     0.002 A 
ATOM     79  C   UNL A   1      44.484  24.505  26.365  1.00  0.00     0.091 A 
ATOM     80  F   UNL A   1      44.788  26.558  27.541  1.00  0.00    -0.205 F 
ATOM     81  C   UNL A   1      43.796  23.289  26.228  1.00  0.00     0.022 A 
BRANCH  79  82
ATOM     82  S   UNL A   1      45.782  24.847  25.173  1.00  0.00     0.127 S 
ATOM     83  O   UNL A   1      46.983  24.521  25.936  1.00  0.00    -0.237 OA
ATOM     84  O   UNL A   1      45.458  23.906  24.100  1.00  0.00    -0.237 OA
ATOM     85  O   UNL A   1      45.626  26.249  24.810  1.00  0.00    -0.744 OA
ENDBRANCH  79  82
ENDBRANCH  51  75
BRANCH  63  86
ATOM     86  C   UNL A   1      45.497  26.625  34.535  1.00  0.00     0.023 A 
ATOM     87  C   UNL A   1      46.793  27.175  34.471  1.00  0.00     0.012 A 
ATOM     88  C   UNL A   1      45.246  25.554  35.416  1.00  0.00     0.148 A 
ATOM     89  C   UNL A   1      47.830  26.635  35.231  1.00  0.00     0.002 A 
ATOM     90  C   UNL A   1      46.270  25.060  36.214  1.00  0.00     0.091 A 
ATOM     91  F   UNL A   1      44.010  25.033  35.455  1.00  0.00    -0.205 F 
ATOM     92  C   UNL A   1      47.567  25.587  36.110  1.00  0.00     0.022 A 
BRANCH  90  93
ATOM     93  S   UNL A   1      45.997  23.781  37.446  1.00  0.00     0.127 S 
ATOM     94  O   UNL A   1      45.369  22.730  36.649  1.00  0.00    -0.237 OA
ATOM     95  O   UNL A   1      47.360  23.481  37.887  1.00  0.00    -0.237 OA
ATOM     96  O   UNL A   1      45.152  24.383  38.468  1.00  0.00    -0.744 OA
ENDBRANCH  90  93
ENDBRANCH  63  86
ENDBRANCH  37  38
ENDBRANCH  30  32
ENDBRANCH  29  30
ENDBRANCH  28  29
ENDBRANCH  27  28
ENDBRANCH  26  27
ENDBRANCH  25  26
ENDBRANCH   1  25
TORSDOF 25
ENDMDL
