MODEL 1
REMARK VINA RESULT:      -8.3      0.000      0.000
REMARK SMILES Cc1cc(OC(F)(F)F)cc2c1O[C@H](C(F)(F)F)C(C(=O)OCCOCCOCCOCCOC(=O)c1ccc(-c3c4nc(c(-c5cccc(S(=O)(=O)[O-])c5F)c5ccc([nH]5)c(-c5cccc(S(=O)(=O)[O-])c5F)c5nc(c(-c6cccc(S(=O)(=O)[O-])c6F)c6ccc3[nH]6)C=C5)C=C4)cc1)=C2
REMARK SMILES IDX 29 1 28 2 27 3 26 4 25 5 24 6 23 7 22 8 20 9 21 10 19 11
REMARK SMILES IDX 1 12 2 13 3 14 12 15 4 16 11 17 13 18 10 19 100 20 14 21
REMARK SMILES IDX 5 22 6 23 7 24 8 25 9 26 15 27 16 28 17 29 18 30 30 31 31 32
REMARK SMILES IDX 32 33 33 34 34 35 35 36 36 37 37 38 38 39 99 40 39 41 98 42
REMARK SMILES IDX 40 43 41 44 42 45 92 46 43 47 97 48 91 49 93 50 44 51 96 52
REMARK SMILES IDX 90 53 89 54 45 56 77 57 57 58 76 59 58 60 61 61 75 62 94 63
REMARK SMILES IDX 59 64 60 65 74 67 95 68 62 69 46 70 47 71 55 72 48 73 50 74
REMARK SMILES IDX 56 75 49 76 51 77 52 78 53 79 54 80 78 81 79 82 87 83 80 84
REMARK SMILES IDX 82 85 88 86 81 87 83 88 84 89 85 90 86 91 63 92 64 93 72 94
REMARK SMILES IDX 65 95 67 96 73 97 66 98 68 99 69 100 70 101 71 102
REMARK H PARENT 93 55 61 66
REMARK Flexibility Score: inf
ROOT
ATOM      1  C   UNL A   1      42.059  22.831  25.838  1.00  0.00     0.188 C 
ENDROOT
BRANCH   1   2
ATOM      2  O   UNL A   1      41.025  22.309  26.668  1.00  0.00    -0.377 OA
BRANCH   2   3
ATOM      3  C   UNL A   1      40.681  23.063  27.816  1.00  0.00     0.188 C 
BRANCH   3   4
ATOM      4  C   UNL A   1      41.714  24.160  28.135  1.00  0.00     0.188 C 
BRANCH   4   5
ATOM      5  O   UNL A   1      41.215  25.406  28.580  1.00  0.00    -0.376 OA
BRANCH   5   6
ATOM      6  C   UNL A   1      40.928  26.492  27.711  1.00  0.00     0.202 C 
BRANCH   6   7
ATOM      7  C   UNL A   1      39.752  27.485  27.798  1.00  0.00     0.261 C 
BRANCH   7   8
ATOM      8  O   UNL A   1      39.822  28.529  28.762  1.00  0.00    -0.460 OA
BRANCH   8   9
ATOM      9  C   UNL A   1      39.054  28.405  29.856  1.00  0.00     0.338 C 
ATOM     10  O   UNL A   1      39.296  27.754  30.857  1.00  0.00    -0.246 OA
BRANCH   9  11
ATOM     11  C   UNL A   1      37.929  29.353  29.716  1.00  0.00     0.087 C 
ATOM     12  C   UNL A   1      34.795  33.412  29.865  1.00  0.00     0.048 C 
ATOM     13  C   UNL A   1      34.864  32.117  29.102  1.00  0.00    -0.005 A 
ATOM     14  C   UNL A   1      33.981  31.918  28.025  1.00  0.00     0.054 A 
ATOM     15  C   UNL A   1      35.843  31.149  29.375  1.00  0.00     0.131 A 
ATOM     16  C   UNL A   1      34.044  30.758  27.252  1.00  0.00     0.130 A 
ATOM     17  C   UNL A   1      35.936  30.010  28.575  1.00  0.00     0.021 A 
ATOM     18  O   UNL A   1      36.678  31.389  30.427  1.00  0.00    -0.475 OA
ATOM     19  C   UNL A   1      35.015  29.799  27.547  1.00  0.00     0.058 A 
ATOM     20  C   UNL A   1      37.041  29.085  28.753  1.00  0.00     0.027 C 
ATOM     21  C   UNL A   1      37.800  30.501  30.684  1.00  0.00     0.316 C 
BRANCH  16  22
ATOM     22  O   UNL A   1      33.249  30.444  26.189  1.00  0.00    -0.406 OA
BRANCH  22  23
ATOM     23  C   UNL A   1      31.895  30.122  26.456  1.00  0.00     0.573 C 
ATOM     24  F   UNL A   1      31.346  29.438  25.430  1.00  0.00    -0.132 F 
ATOM     25  F   UNL A   1      31.774  29.407  27.595  1.00  0.00    -0.132 F 
ATOM     26  F   UNL A   1      31.201  31.272  26.610  1.00  0.00    -0.132 F 
ENDBRANCH  22  23
ENDBRANCH  16  22
BRANCH  21  27
ATOM     27  C   UNL A   1      39.073  31.355  30.738  1.00  0.00     0.430 C 
ATOM     28  F   UNL A   1      39.602  31.536  29.507  1.00  0.00    -0.167 F 
ATOM     29  F   UNL A   1      38.839  32.582  31.255  1.00  0.00    -0.167 F 
ATOM     30  F   UNL A   1      40.023  30.771  31.507  1.00  0.00    -0.167 F 
ENDBRANCH  21  27
ENDBRANCH   9  11
ENDBRANCH   8   9
ENDBRANCH   7   8
ENDBRANCH   6   7
ENDBRANCH   5   6
ENDBRANCH   4   5
ENDBRANCH   3   4
ENDBRANCH   2   3
ENDBRANCH   1   2
BRANCH   1  31
ATOM     31  C   UNL A   1      43.220  21.916  25.384  1.00  0.00     0.188 C 
BRANCH  31  32
ATOM     32  O   UNL A   1      43.860  22.348  24.188  1.00  0.00    -0.376 OA
BRANCH  32  33
ATOM     33  C   UNL A   1      45.217  21.986  23.985  1.00  0.00     0.202 C 
BRANCH  33  34
ATOM     34  C   UNL A   1      46.267  23.066  24.277  1.00  0.00     0.261 C 
BRANCH  34  35
ATOM     35  O   UNL A   1      45.786  24.416  24.333  1.00  0.00    -0.460 OA
BRANCH  35  36
ATOM     36  C   UNL A   1      46.677  25.389  24.617  1.00  0.00     0.338 C 
ATOM     37  O   UNL A   1      47.703  25.648  24.013  1.00  0.00    -0.246 OA
BRANCH  36  38
ATOM     38  C   UNL A   1      46.086  26.219  25.685  1.00  0.00     0.060 A 
ATOM     39  C   UNL A   1      46.931  26.915  26.562  1.00  0.00     0.016 A 
ATOM     40  C   UNL A   1      44.699  26.321  25.806  1.00  0.00     0.016 A 
ATOM     41  C   UNL A   1      46.385  27.699  27.578  1.00  0.00     0.010 A 
ATOM     42  C   UNL A   1      44.155  27.076  26.847  1.00  0.00     0.010 A 
ATOM     43  C   UNL A   1      44.997  27.741  27.754  1.00  0.00    -0.014 A 
BRANCH  43  44
ATOM     44  C   UNL A   1      44.438  28.271  29.018  1.00  0.00     0.031 A 
ATOM     45  C   UNL A   1      44.017  29.716  29.043  1.00  0.00     0.074 A 
ATOM     46  C   UNL A   1      44.313  27.505  30.116  1.00  0.00     0.049 A 
ATOM     47  N   UNL A   1      43.562  30.424  30.041  1.00  0.00    -0.248 NA
ATOM     48  C   UNL A   1      44.121  30.460  27.774  1.00  0.00     0.031 C 
ATOM     49  C   UNL A   1      44.669  26.090  30.209  1.00  0.00     0.029 A 
ATOM     50  N   UNL A   1      43.874  27.826  31.376  1.00  0.00    -0.354 N 
ATOM     51  C   UNL A   1      43.344  31.696  29.528  1.00  0.00     0.074 A 
ATOM     52  C   UNL A   1      43.713  31.669  28.132  1.00  0.00     0.031 C 
ATOM     53  C   UNL A   1      44.470  25.675  31.473  1.00  0.00     0.029 A 
ATOM     54  C   UNL A   1      43.993  26.798  32.280  1.00  0.00     0.049 A 
ATOM     55  H   UNL A   1      43.507  28.710  31.609  1.00  0.00     0.167 HD
ATOM     56  C   UNL A   1      42.866  32.787  30.163  1.00  0.00     0.034 A 
ATOM     57  C   UNL A   1      43.770  26.776  33.610  1.00  0.00     0.034 A 
ATOM     58  C   UNL A   1      42.483  32.814  31.545  1.00  0.00     0.049 A 
ATOM     59  C   UNL A   1      43.274  28.020  34.301  1.00  0.00     0.074 A 
ATOM     60  C   UNL A   1      41.959  33.874  32.263  1.00  0.00     0.029 A 
ATOM     61  N   UNL A   1      42.591  31.745  32.415  1.00  0.00    -0.354 N 
ATOM     62  N   UNL A   1      42.992  29.191  33.785  1.00  0.00    -0.248 NA
ATOM     63  C   UNL A   1      43.041  27.935  35.752  1.00  0.00     0.031 C 
ATOM     64  C   UNL A   1      41.764  33.449  33.578  1.00  0.00     0.029 A 
ATOM     65  C   UNL A   1      42.146  32.120  33.669  1.00  0.00     0.049 A 
ATOM     66  H   UNL A   1      42.932  30.853  32.179  1.00  0.00     0.167 HD
ATOM     67  C   UNL A   1      42.525  29.971  34.838  1.00  0.00     0.074 A 
ATOM     68  C   UNL A   1      42.550  29.139  36.021  1.00  0.00     0.031 C 
ATOM     69  C   UNL A   1      42.123  31.265  34.824  1.00  0.00     0.034 A 
BRANCH  56  70
ATOM     70  C   UNL A   1      42.680  34.050  29.375  1.00  0.00     0.023 A 
ATOM     71  C   UNL A   1      41.378  34.454  29.029  1.00  0.00     0.012 A 
ATOM     72  C   UNL A   1      43.772  34.900  29.118  1.00  0.00     0.148 A 
ATOM     73  C   UNL A   1      41.160  35.702  28.447  1.00  0.00     0.002 A 
ATOM     74  C   UNL A   1      43.544  36.153  28.564  1.00  0.00     0.091 A 
ATOM     75  F   UNL A   1      45.000  34.478  29.449  1.00  0.00    -0.205 F 
ATOM     76  C   UNL A   1      42.240  36.554  28.229  1.00  0.00     0.022 A 
BRANCH  74  77
ATOM     77  S   UNL A   1      44.856  37.349  28.293  1.00  0.00     0.127 S 
ATOM     78  O   UNL A   1      45.633  37.218  29.526  1.00  0.00    -0.237 OA
ATOM     79  O   UNL A   1      45.510  36.817  27.100  1.00  0.00    -0.237 OA
ATOM     80  O   UNL A   1      44.200  38.637  28.118  1.00  0.00    -0.744 OA
ENDBRANCH  74  77
ENDBRANCH  56  70
BRANCH  57  81
ATOM     81  C   UNL A   1      44.009  25.525  34.380  1.00  0.00     0.023 A 
ATOM     82  C   UNL A   1      43.018  24.526  34.411  1.00  0.00     0.012 A 
ATOM     83  C   UNL A   1      45.221  25.317  35.067  1.00  0.00     0.148 A 
ATOM     84  C   UNL A   1      43.225  23.345  35.126  1.00  0.00     0.002 A 
ATOM     85  C   UNL A   1      45.435  24.125  35.746  1.00  0.00     0.091 A 
ATOM     86  F   UNL A   1      46.142  26.291  35.032  1.00  0.00    -0.205 F 
ATOM     87  C   UNL A   1      44.435  23.141  35.786  1.00  0.00     0.022 A 
BRANCH  85  88
ATOM     88  S   UNL A   1      46.990  23.736  36.556  1.00  0.00     0.127 S 
ATOM     89  O   UNL A   1      47.081  24.800  37.553  1.00  0.00    -0.237 OA
ATOM     90  O   UNL A   1      46.720  22.404  37.098  1.00  0.00    -0.237 OA
ATOM     91  O   UNL A   1      48.002  23.770  35.509  1.00  0.00    -0.744 OA
ENDBRANCH  85  88
ENDBRANCH  57  81
BRANCH  69  92
ATOM     92  C   UNL A   1      41.639  31.882  36.107  1.00  0.00     0.023 A 
ATOM     93  C   UNL A   1      42.543  32.596  36.916  1.00  0.00     0.012 A 
ATOM     94  C   UNL A   1      40.265  31.893  36.417  1.00  0.00     0.148 A 
ATOM     95  C   UNL A   1      42.085  33.312  38.021  1.00  0.00     0.002 A 
ATOM     96  C   UNL A   1      39.811  32.636  37.499  1.00  0.00     0.091 A 
ATOM     97  F   UNL A   1      39.427  31.207  35.625  1.00  0.00    -0.205 F 
ATOM     98  C   UNL A   1      40.720  33.343  38.304  1.00  0.00     0.022 A 
BRANCH  96  99
ATOM     99  S   UNL A   1      38.068  32.800  37.901  1.00  0.00     0.127 S 
ATOM    100  O   UNL A   1      37.435  32.373  36.654  1.00  0.00    -0.237 OA
ATOM    101  O   UNL A   1      37.918  31.864  39.015  1.00  0.00    -0.237 OA
ATOM    102  O   UNL A   1      37.862  34.200  38.249  1.00  0.00    -0.744 OA
ENDBRANCH  96  99
ENDBRANCH  69  92
ENDBRANCH  43  44
ENDBRANCH  36  38
ENDBRANCH  35  36
ENDBRANCH  34  35
ENDBRANCH  33  34
ENDBRANCH  32  33
ENDBRANCH  31  32
ENDBRANCH   1  31
TORSDOF 26
ENDMDL
MODEL 2
REMARK VINA RESULT:      -7.9      1.800      2.229
REMARK SMILES Cc1cc(OC(F)(F)F)cc2c1O[C@H](C(F)(F)F)C(C(=O)OCCOCCOCCOCCOC(=O)c1ccc(-c3c4nc(c(-c5cccc(S(=O)(=O)[O-])c5F)c5ccc([nH]5)c(-c5cccc(S(=O)(=O)[O-])c5F)c5nc(c(-c6cccc(S(=O)(=O)[O-])c6F)c6ccc3[nH]6)C=C5)C=C4)cc1)=C2
REMARK SMILES IDX 29 1 28 2 27 3 26 4 25 5 24 6 23 7 22 8 20 9 21 10 19 11
REMARK SMILES IDX 1 12 2 13 3 14 12 15 4 16 11 17 13 18 10 19 100 20 14 21
REMARK SMILES IDX 5 22 6 23 7 24 8 25 9 26 15 27 16 28 17 29 18 30 30 31 31 32
REMARK SMILES IDX 32 33 33 34 34 35 35 36 36 37 37 38 38 39 99 40 39 41 98 42
REMARK SMILES IDX 40 43 41 44 42 45 92 46 43 47 97 48 91 49 93 50 44 51 96 52
REMARK SMILES IDX 90 53 89 54 45 56 77 57 57 58 76 59 58 60 61 61 75 62 94 63
REMARK SMILES IDX 59 64 60 65 74 67 95 68 62 69 46 70 47 71 55 72 48 73 50 74
REMARK SMILES IDX 56 75 49 76 51 77 52 78 53 79 54 80 78 81 79 82 87 83 80 84
REMARK SMILES IDX 82 85 88 86 81 87 83 88 84 89 85 90 86 91 63 92 64 93 72 94
REMARK SMILES IDX 65 95 67 96 73 97 66 98 68 99 69 100 70 101 71 102
REMARK H PARENT 93 55 61 66
REMARK Flexibility Score: inf
ROOT
ATOM      1  C   UNL A   1      41.923  22.983  26.272  1.00  0.00     0.188 C 
ENDROOT
BRANCH   1   2
ATOM      2  O   UNL A   1      41.617  22.671  27.628  1.00  0.00    -0.377 OA
BRANCH   2   3
ATOM      3  C   UNL A   1      41.998  23.621  28.607  1.00  0.00     0.188 C 
BRANCH   3   4
ATOM      4  C   UNL A   1      42.756  24.819  28.006  1.00  0.00     0.188 C 
BRANCH   4   5
ATOM      5  O   UNL A   1      42.199  26.103  28.208  1.00  0.00    -0.376 OA
BRANCH   5   6
ATOM      6  C   UNL A   1      41.141  26.631  27.421  1.00  0.00     0.202 C 
BRANCH   6   7
ATOM      7  C   UNL A   1      39.624  26.500  27.668  1.00  0.00     0.261 C 
BRANCH   7   8
ATOM      8  O   UNL A   1      38.902  27.661  28.062  1.00  0.00    -0.460 OA
BRANCH   8   9
ATOM      9  C   UNL A   1      38.858  27.938  29.375  1.00  0.00     0.338 C 
ATOM     10  O   UNL A   1      39.116  27.184  30.297  1.00  0.00    -0.246 OA
BRANCH   9  11
ATOM     11  C   UNL A   1      38.617  29.389  29.512  1.00  0.00     0.087 C 
ATOM     12  C   UNL A   1      39.002  34.447  30.285  1.00  0.00     0.048 C 
ATOM     13  C   UNL A   1      38.005  33.514  29.651  1.00  0.00    -0.005 A 
ATOM     14  C   UNL A   1      36.934  34.063  28.923  1.00  0.00     0.054 A 
ATOM     15  C   UNL A   1      38.169  32.121  29.687  1.00  0.00     0.131 A 
ATOM     16  C   UNL A   1      36.016  33.240  28.268  1.00  0.00     0.130 A 
ATOM     17  C   UNL A   1      37.278  31.298  28.996  1.00  0.00     0.021 A 
ATOM     18  O   UNL A   1      39.225  31.637  30.402  1.00  0.00    -0.475 OA
ATOM     19  C   UNL A   1      36.186  31.855  28.326  1.00  0.00     0.058 A 
ATOM     20  C   UNL A   1      37.531  29.872  28.899  1.00  0.00     0.027 C 
ATOM     21  C   UNL A   1      39.537  30.218  30.372  1.00  0.00     0.316 C 
BRANCH  16  22
ATOM     22  O   UNL A   1      34.939  33.644  27.536  1.00  0.00    -0.406 OA
BRANCH  22  23
ATOM     23  C   UNL A   1      33.716  33.840  28.223  1.00  0.00     0.573 C 
ATOM     24  F   UNL A   1      32.739  33.060  27.712  1.00  0.00    -0.132 F 
ATOM     25  F   UNL A   1      33.848  33.594  29.544  1.00  0.00    -0.132 F 
ATOM     26  F   UNL A   1      33.340  35.130  28.075  1.00  0.00    -0.132 F 
ENDBRANCH  22  23
ENDBRANCH  16  22
BRANCH  21  27
ATOM     27  C   UNL A   1      41.005  30.067  29.955  1.00  0.00     0.430 C 
ATOM     28  F   UNL A   1      41.632  29.116  30.683  1.00  0.00    -0.167 F 
ATOM     29  F   UNL A   1      41.131  29.720  28.655  1.00  0.00    -0.167 F 
ATOM     30  F   UNL A   1      41.685  31.226  30.128  1.00  0.00    -0.167 F 
ENDBRANCH  21  27
ENDBRANCH   9  11
ENDBRANCH   8   9
ENDBRANCH   7   8
ENDBRANCH   6   7
ENDBRANCH   5   6
ENDBRANCH   4   5
ENDBRANCH   3   4
ENDBRANCH   2   3
ENDBRANCH   1   2
BRANCH   1  31
ATOM     31  C   UNL A   1      42.643  21.942  25.384  1.00  0.00     0.188 C 
BRANCH  31  32
ATOM     32  O   UNL A   1      43.587  22.509  24.481  1.00  0.00    -0.376 OA
BRANCH  32  33
ATOM     33  C   UNL A   1      44.863  21.898  24.374  1.00  0.00     0.202 C 
BRANCH  33  34
ATOM     34  C   UNL A   1      46.080  22.824  24.502  1.00  0.00     0.261 C 
BRANCH  34  35
ATOM     35  O   UNL A   1      45.839  24.220  24.277  1.00  0.00    -0.460 OA
BRANCH  35  36
ATOM     36  C   UNL A   1      46.876  25.070  24.430  1.00  0.00     0.338 C 
ATOM     37  O   UNL A   1      47.904  25.103  23.774  1.00  0.00    -0.246 OA
BRANCH  36  38
ATOM     38  C   UNL A   1      46.462  26.087  25.416  1.00  0.00     0.060 A 
ATOM     39  C   UNL A   1      47.405  26.589  26.323  1.00  0.00     0.016 A 
ATOM     40  C   UNL A   1      45.146  26.554  25.427  1.00  0.00     0.016 A 
ATOM     41  C   UNL A   1      47.025  27.548  27.262  1.00  0.00     0.010 A 
ATOM     42  C   UNL A   1      44.759  27.486  26.393  1.00  0.00     0.010 A 
ATOM     43  C   UNL A   1      45.689  27.961  27.332  1.00  0.00    -0.014 A 
BRANCH  43  44
ATOM     44  C   UNL A   1      45.213  28.693  28.527  1.00  0.00     0.031 A 
ATOM     45  C   UNL A   1      44.990  30.175  28.395  1.00  0.00     0.074 A 
ATOM     46  C   UNL A   1      44.994  28.072  29.700  1.00  0.00     0.049 A 
ATOM     47  N   UNL A   1      44.639  31.040  29.308  1.00  0.00    -0.248 NA
ATOM     48  C   UNL A   1      45.184  30.759  27.055  1.00  0.00     0.031 C 
ATOM     49  C   UNL A   1      45.158  26.640  29.947  1.00  0.00     0.029 A 
ATOM     50  N   UNL A   1      44.610  28.582  30.915  1.00  0.00    -0.354 N 
ATOM     51  C   UNL A   1      44.591  32.268  28.661  1.00  0.00     0.074 A 
ATOM     52  C   UNL A   1      44.944  32.043  27.278  1.00  0.00     0.031 C 
ATOM     53  C   UNL A   1      44.913  26.393  31.246  1.00  0.00     0.029 A 
ATOM     54  C   UNL A   1      44.596  27.650  31.924  1.00  0.00     0.049 A 
ATOM     55  H   UNL A   1      44.366  29.527  31.050  1.00  0.00     0.167 HD
ATOM     56  C   UNL A   1      44.266  33.475  29.172  1.00  0.00     0.034 A 
ATOM     57  C   UNL A   1      44.380  27.800  33.247  1.00  0.00     0.034 A 
ATOM     58  C   UNL A   1      43.899  33.700  30.539  1.00  0.00     0.049 A 
ATOM     59  C   UNL A   1      44.059  29.165  33.798  1.00  0.00     0.074 A 
ATOM     60  C   UNL A   1      43.526  34.891  31.136  1.00  0.00     0.029 A 
ATOM     61  N   UNL A   1      43.868  32.725  31.520  1.00  0.00    -0.354 N 
ATOM     62  N   UNL A   1      43.933  30.302  33.157  1.00  0.00    -0.248 NA
ATOM     63  C   UNL A   1      43.826  29.268  35.248  1.00  0.00     0.031 C 
ATOM     64  C   UNL A   1      43.284  34.638  32.487  1.00  0.00     0.029 A 
ATOM     65  C   UNL A   1      43.486  33.288  32.723  1.00  0.00     0.049 A 
ATOM     66  H   UNL A   1      44.086  31.775  31.383  1.00  0.00     0.167 HD
ATOM     67  C   UNL A   1      43.580  31.245  34.117  1.00  0.00     0.074 A 
ATOM     68  C   UNL A   1      43.501  30.549  35.383  1.00  0.00     0.031 C 
ATOM     69  C   UNL A   1      43.355  32.572  33.962  1.00  0.00     0.034 A 
BRANCH  56  70
ATOM     70  C   UNL A   1      44.246  34.659  28.251  1.00  0.00     0.023 A 
ATOM     71  C   UNL A   1      43.033  35.034  27.646  1.00  0.00     0.012 A 
ATOM     72  C   UNL A   1      45.382  35.479  28.115  1.00  0.00     0.148 A 
ATOM     73  C   UNL A   1      42.945  36.222  26.924  1.00  0.00     0.002 A 
ATOM     74  C   UNL A   1      45.279  36.675  27.418  1.00  0.00     0.091 A 
ATOM     75  F   UNL A   1      46.525  35.085  28.694  1.00  0.00    -0.205 F 
ATOM     76  C   UNL A   1      44.062  37.048  26.823  1.00  0.00     0.022 A 
BRANCH  74  77
ATOM     77  S   UNL A   1      46.641  37.837  27.276  1.00  0.00     0.127 S 
ATOM     78  O   UNL A   1      46.140  38.753  26.251  1.00  0.00    -0.237 OA
ATOM     79  O   UNL A   1      46.701  38.402  28.622  1.00  0.00    -0.237 OA
ATOM     80  O   UNL A   1      47.803  37.053  26.880  1.00  0.00    -0.744 OA
ENDBRANCH  74  77
ENDBRANCH  56  70
BRANCH  57  81
ATOM     81  C   UNL A   1      44.454  26.618  34.148  1.00  0.00     0.023 A 
ATOM     82  C   UNL A   1      43.284  25.895  34.447  1.00  0.00     0.012 A 
ATOM     83  C   UNL A   1      45.683  26.199  34.695  1.00  0.00     0.148 A 
ATOM     84  C   UNL A   1      43.334  24.783  35.289  1.00  0.00     0.002 A 
ATOM     85  C   UNL A   1      45.732  25.070  35.502  1.00  0.00     0.091 A 
ATOM     86  F   UNL A   1      46.780  26.913  34.405  1.00  0.00    -0.205 F 
ATOM     87  C   UNL A   1      44.557  24.365  35.809  1.00  0.00     0.022 A 
BRANCH  85  88
ATOM     88  S   UNL A   1      47.271  24.408  36.151  1.00  0.00     0.127 S 
ATOM     89  O   UNL A   1      46.827  23.150  36.748  1.00  0.00    -0.237 OA
ATOM     90  O   UNL A   1      48.071  24.265  34.934  1.00  0.00    -0.237 OA
ATOM     91  O   UNL A   1      47.767  25.406  37.088  1.00  0.00    -0.744 OA
ENDBRANCH  85  88
ENDBRANCH  57  81
BRANCH  69  92
ATOM     92  C   UNL A   1      42.966  33.382  35.167  1.00  0.00     0.023 A 
ATOM     93  C   UNL A   1      43.970  33.897  36.009  1.00  0.00     0.012 A 
ATOM     94  C   UNL A   1      41.625  33.766  35.364  1.00  0.00     0.148 A 
ATOM     95  C   UNL A   1      43.643  34.782  37.035  1.00  0.00     0.002 A 
ATOM     96  C   UNL A   1      41.311  34.675  36.366  1.00  0.00     0.091 A 
ATOM     97  F   UNL A   1      40.691  33.262  34.544  1.00  0.00    -0.205 F 
ATOM     98  C   UNL A   1      42.318  35.181  37.204  1.00  0.00     0.022 A 
BRANCH  96  99
ATOM     99  S   UNL A   1      39.648  35.307  36.615  1.00  0.00     0.127 S 
ATOM    100  O   UNL A   1      38.848  34.347  35.856  1.00  0.00    -0.237 OA
ATOM    101  O   UNL A   1      39.497  35.214  38.068  1.00  0.00    -0.237 OA
ATOM    102  O   UNL A   1      39.646  36.665  36.088  1.00  0.00    -0.744 OA
ENDBRANCH  96  99
ENDBRANCH  69  92
ENDBRANCH  43  44
ENDBRANCH  36  38
ENDBRANCH  35  36
ENDBRANCH  34  35
ENDBRANCH  33  34
ENDBRANCH  32  33
ENDBRANCH  31  32
ENDBRANCH   1  31
TORSDOF 26
ENDMDL
MODEL 3
REMARK VINA RESULT:      -7.5      2.510      3.804
REMARK SMILES Cc1cc(OC(F)(F)F)cc2c1O[C@H](C(F)(F)F)C(C(=O)OCCOCCOCCOCCOC(=O)c1ccc(-c3c4nc(c(-c5cccc(S(=O)(=O)[O-])c5F)c5ccc([nH]5)c(-c5cccc(S(=O)(=O)[O-])c5F)c5nc(c(-c6cccc(S(=O)(=O)[O-])c6F)c6ccc3[nH]6)C=C5)C=C4)cc1)=C2
REMARK SMILES IDX 29 1 28 2 27 3 26 4 25 5 24 6 23 7 22 8 20 9 21 10 19 11
REMARK SMILES IDX 1 12 2 13 3 14 12 15 4 16 11 17 13 18 10 19 100 20 14 21
REMARK SMILES IDX 5 22 6 23 7 24 8 25 9 26 15 27 16 28 17 29 18 30 30 31 31 32
REMARK SMILES IDX 32 33 33 34 34 35 35 36 36 37 37 38 38 39 99 40 39 41 98 42
REMARK SMILES IDX 40 43 41 44 42 45 92 46 43 47 97 48 91 49 93 50 44 51 96 52
REMARK SMILES IDX 90 53 89 54 45 56 77 57 57 58 76 59 58 60 61 61 75 62 94 63
REMARK SMILES IDX 59 64 60 65 74 67 95 68 62 69 46 70 47 71 55 72 48 73 50 74
REMARK SMILES IDX 56 75 49 76 51 77 52 78 53 79 54 80 78 81 79 82 87 83 80 84
REMARK SMILES IDX 82 85 88 86 81 87 83 88 84 89 85 90 86 91 63 92 64 93 72 94
REMARK SMILES IDX 65 95 67 96 73 97 66 98 68 99 69 100 70 101 71 102
REMARK H PARENT 93 55 61 66
REMARK Flexibility Score: inf
ROOT
ATOM      1  C   UNL A   1      41.895  23.220  26.172  1.00  0.00     0.188 C 
ENDROOT
BRANCH   1   2
ATOM      2  O   UNL A   1      41.760  22.851  27.542  1.00  0.00    -0.377 OA
BRANCH   2   3
ATOM      3  C   UNL A   1      42.077  23.838  28.506  1.00  0.00     0.188 C 
BRANCH   3   4
ATOM      4  C   UNL A   1      42.629  25.129  27.873  1.00  0.00     0.188 C 
BRANCH   4   5
ATOM      5  O   UNL A   1      41.856  26.303  28.021  1.00  0.00    -0.376 OA
BRANCH   5   6
ATOM      6  C   UNL A   1      41.102  26.604  29.187  1.00  0.00     0.202 C 
BRANCH   6   7
ATOM      7  C   UNL A   1      41.431  27.639  30.282  1.00  0.00     0.261 C 
BRANCH   7   8
ATOM      8  O   UNL A   1      40.493  28.681  30.528  1.00  0.00    -0.460 OA
BRANCH   8   9
ATOM      9  C   UNL A   1      40.392  29.645  29.599  1.00  0.00     0.338 C 
ATOM     10  O   UNL A   1      41.070  29.776  28.596  1.00  0.00    -0.246 OA
BRANCH   9  11
ATOM     11  C   UNL A   1      39.180  30.431  29.909  1.00  0.00     0.087 C 
ATOM     12  C   UNL A   1      34.589  32.721  29.870  1.00  0.00     0.048 C 
ATOM     13  C   UNL A   1      35.656  32.437  30.893  1.00  0.00    -0.005 A 
ATOM     14  C   UNL A   1      35.377  32.688  32.248  1.00  0.00     0.054 A 
ATOM     15  C   UNL A   1      36.879  31.845  30.541  1.00  0.00     0.131 A 
ATOM     16  C   UNL A   1      36.313  32.388  33.239  1.00  0.00     0.130 A 
ATOM     17  C   UNL A   1      37.797  31.504  31.534  1.00  0.00     0.021 A 
ATOM     18  O   UNL A   1      37.100  31.618  29.214  1.00  0.00    -0.475 OA
ATOM     19  C   UNL A   1      37.530  31.812  32.870  1.00  0.00     0.058 A 
ATOM     20  C   UNL A   1      38.990  30.751  31.194  1.00  0.00     0.027 C 
ATOM     21  C   UNL A   1      38.281  30.885  28.787  1.00  0.00     0.316 C 
BRANCH  16  22
ATOM     22  O   UNL A   1      36.168  32.584  34.581  1.00  0.00    -0.406 OA
BRANCH  22  23
ATOM     23  C   UNL A   1      36.333  33.902  35.073  1.00  0.00     0.573 C 
ATOM     24  F   UNL A   1      36.842  33.895  36.323  1.00  0.00    -0.132 F 
ATOM     25  F   UNL A   1      37.127  34.634  34.263  1.00  0.00    -0.132 F 
ATOM     26  F   UNL A   1      35.121  34.500  35.119  1.00  0.00    -0.132 F 
ENDBRANCH  22  23
ENDBRANCH  16  22
BRANCH  21  27
ATOM     27  C   UNL A   1      37.818  29.715  27.911  1.00  0.00     0.430 C 
ATOM     28  F   UNL A   1      38.437  29.720  26.710  1.00  0.00    -0.167 F 
ATOM     29  F   UNL A   1      38.074  28.518  28.486  1.00  0.00    -0.167 F 
ATOM     30  F   UNL A   1      36.484  29.773  27.681  1.00  0.00    -0.167 F 
ENDBRANCH  21  27
ENDBRANCH   9  11
ENDBRANCH   8   9
ENDBRANCH   7   8
ENDBRANCH   6   7
ENDBRANCH   5   6
ENDBRANCH   4   5
ENDBRANCH   3   4
ENDBRANCH   2   3
ENDBRANCH   1   2
BRANCH   1  31
ATOM     31  C   UNL A   1      42.726  22.337  25.212  1.00  0.00     0.188 C 
BRANCH  31  32
ATOM     32  O   UNL A   1      43.697  23.058  24.461  1.00  0.00    -0.376 OA
BRANCH  32  33
ATOM     33  C   UNL A   1      45.045  22.619  24.513  1.00  0.00     0.202 C 
BRANCH  33  34
ATOM     34  C   UNL A   1      46.107  23.696  24.776  1.00  0.00     0.261 C 
BRANCH  34  35
ATOM     35  O   UNL A   1      45.690  25.054  24.586  1.00  0.00    -0.460 OA
BRANCH  35  36
ATOM     36  C   UNL A   1      46.646  26.007  24.558  1.00  0.00     0.338 C 
ATOM     37  O   UNL A   1      47.581  26.090  23.781  1.00  0.00    -0.246 OA
BRANCH  36  38
ATOM     38  C   UNL A   1      46.247  27.050  25.524  1.00  0.00     0.060 A 
ATOM     39  C   UNL A   1      47.232  27.698  26.283  1.00  0.00     0.016 A 
ATOM     40  C   UNL A   1      44.901  27.396  25.664  1.00  0.00     0.016 A 
ATOM     41  C   UNL A   1      46.867  28.681  27.202  1.00  0.00     0.010 A 
ATOM     42  C   UNL A   1      44.535  28.354  26.611  1.00  0.00     0.010 A 
ATOM     43  C   UNL A   1      45.514  28.976  27.405  1.00  0.00    -0.014 A 
BRANCH  43  44
ATOM     44  C   UNL A   1      45.106  29.744  28.602  1.00  0.00     0.031 A 
ATOM     45  C   UNL A   1      44.930  31.231  28.451  1.00  0.00     0.074 A 
ATOM     46  C   UNL A   1      44.905  29.150  29.792  1.00  0.00     0.049 A 
ATOM     47  N   UNL A   1      44.642  32.123  29.360  1.00  0.00    -0.248 NA
ATOM     48  C   UNL A   1      45.098  31.785  27.095  1.00  0.00     0.031 C 
ATOM     49  C   UNL A   1      45.028  27.718  30.058  1.00  0.00     0.029 A 
ATOM     50  N   UNL A   1      44.581  29.694  31.010  1.00  0.00    -0.354 N 
ATOM     51  C   UNL A   1      44.614  33.340  28.693  1.00  0.00     0.074 A 
ATOM     52  C   UNL A   1      44.911  33.080  27.303  1.00  0.00     0.031 C 
ATOM     53  C   UNL A   1      44.819  27.501  31.369  1.00  0.00     0.029 A 
ATOM     54  C   UNL A   1      44.569  28.779  32.036  1.00  0.00     0.049 A 
ATOM     55  H   UNL A   1      44.376  30.649  31.136  1.00  0.00     0.167 HD
ATOM     56  C   UNL A   1      44.350  34.566  29.193  1.00  0.00     0.034 A 
ATOM     57  C   UNL A   1      44.406  28.959  33.362  1.00  0.00     0.034 A 
ATOM     58  C   UNL A   1      44.038  34.827  30.568  1.00  0.00     0.049 A 
ATOM     59  C   UNL A   1      44.151  30.344  33.900  1.00  0.00     0.074 A 
ATOM     60  C   UNL A   1      43.728  36.040  31.157  1.00  0.00     0.029 A 
ATOM     61  N   UNL A   1      44.007  33.870  31.566  1.00  0.00    -0.354 N 
ATOM     62  N   UNL A   1      44.043  31.473  33.243  1.00  0.00    -0.248 NA
ATOM     63  C   UNL A   1      43.972  30.479  35.354  1.00  0.00     0.031 C 
ATOM     64  C   UNL A   1      43.524  35.819  32.519  1.00  0.00     0.029 A 
ATOM     65  C   UNL A   1      43.686  34.466  32.772  1.00  0.00     0.049 A 
ATOM     66  H   UNL A   1      44.187  32.911  31.439  1.00  0.00     0.167 HD
ATOM     67  C   UNL A   1      43.757  32.444  34.198  1.00  0.00     0.074 A 
ATOM     68  C   UNL A   1      43.698  31.772  35.478  1.00  0.00     0.031 C 
ATOM     69  C   UNL A   1      43.573  33.775  34.027  1.00  0.00     0.034 A 
BRANCH  56  70
ATOM     70  C   UNL A   1      44.340  35.735  28.253  1.00  0.00     0.023 A 
ATOM     71  C   UNL A   1      43.113  36.174  27.721  1.00  0.00     0.012 A 
ATOM     72  C   UNL A   1      45.511  36.482  28.027  1.00  0.00     0.148 A 
ATOM     73  C   UNL A   1      43.049  37.354  26.984  1.00  0.00     0.002 A 
ATOM     74  C   UNL A   1      45.434  37.671  27.315  1.00  0.00     0.091 A 
ATOM     75  F   UNL A   1      46.664  36.028  28.538  1.00  0.00    -0.205 F 
ATOM     76  C   UNL A   1      44.204  38.108  26.794  1.00  0.00     0.022 A 
BRANCH  74  77
ATOM     77  S   UNL A   1      46.850  38.746  27.061  1.00  0.00     0.127 S 
ATOM     78  O   UNL A   1      47.716  37.901  26.239  1.00  0.00    -0.237 OA
ATOM     79  O   UNL A   1      46.251  39.876  26.355  1.00  0.00    -0.237 OA
ATOM     80  O   UNL A   1      47.371  39.049  28.387  1.00  0.00    -0.744 OA
ENDBRANCH  74  77
ENDBRANCH  56  70
BRANCH  57  81
ATOM     81  C   UNL A   1      44.469  27.790  34.281  1.00  0.00     0.023 A 
ATOM     82  C   UNL A   1      45.670  27.494  34.952  1.00  0.00     0.012 A 
ATOM     83  C   UNL A   1      43.337  26.981  34.504  1.00  0.00     0.148 A 
ATOM     84  C   UNL A   1      45.748  26.403  35.819  1.00  0.00     0.002 A 
ATOM     85  C   UNL A   1      43.410  25.919  35.396  1.00  0.00     0.091 A 
ATOM     86  F   UNL A   1      42.209  27.277  33.842  1.00  0.00    -0.205 F 
ATOM     87  C   UNL A   1      44.617  25.622  36.047  1.00  0.00     0.022 A 
BRANCH  85  88
ATOM     88  S   UNL A   1      41.987  24.907  35.817  1.00  0.00     0.127 S 
ATOM     89  O   UNL A   1      42.027  24.929  37.277  1.00  0.00    -0.237 OA
ATOM     90  O   UNL A   1      40.891  25.668  35.218  1.00  0.00    -0.237 OA
ATOM     91  O   UNL A   1      42.229  23.609  35.203  1.00  0.00    -0.744 OA
ENDBRANCH  85  88
ENDBRANCH  57  81
BRANCH  69  92
ATOM     92  C   UNL A   1      43.255  34.619  35.230  1.00  0.00     0.023 A 
ATOM     93  C   UNL A   1      44.270  35.395  35.820  1.00  0.00     0.012 A 
ATOM     94  C   UNL A   1      41.923  34.764  35.665  1.00  0.00     0.148 A 
ATOM     95  C   UNL A   1      43.963  36.305  36.830  1.00  0.00     0.002 A 
ATOM     96  C   UNL A   1      41.619  35.697  36.648  1.00  0.00     0.091 A 
ATOM     97  F   UNL A   1      40.977  34.013  35.082  1.00  0.00    -0.205 F 
ATOM     98  C   UNL A   1      42.639  36.465  37.234  1.00  0.00     0.022 A 
BRANCH  96  99
ATOM     99  S   UNL A   1      39.937  36.030  37.182  1.00  0.00     0.127 S 
ATOM    100  O   UNL A   1      40.139  37.119  38.137  1.00  0.00    -0.237 OA
ATOM    101  O   UNL A   1      39.288  36.426  35.931  1.00  0.00    -0.237 OA
ATOM    102  O   UNL A   1      39.440  34.789  37.760  1.00  0.00    -0.744 OA
ENDBRANCH  96  99
ENDBRANCH  69  92
ENDBRANCH  43  44
ENDBRANCH  36  38
ENDBRANCH  35  36
ENDBRANCH  34  35
ENDBRANCH  33  34
ENDBRANCH  32  33
ENDBRANCH  31  32
ENDBRANCH   1  31
TORSDOF 26
ENDMDL
