MODEL 1
REMARK VINA RESULT:      -5.3      0.000      0.000
REMARK SMILES CCCCCCNC(=O)Oc1cccc(-c2ccc([C@@H](C)C(=O)OCCOCCOCCOCCOC(=O)c3ccc(-c4c5nc(c(-c6cccc(S(=O)(=O)[O-])c6F)c6ccc([nH]6)c(-c6cccc(S(=O)(=O)[O-])c6F)c6nc(c(-c7cccc(S(=O)(=O)[O-])c7F)c7ccc4[nH]7)C=C6)C=C5)cc3)cc2N)c1
REMARK SMILES IDX 27 1 26 2 25 3 24 4 22 5 23 6 20 7 21 8 19 9 16 10 17 11
REMARK SMILES IDX 103 12 18 13 102 14 15 15 11 16 12 17 105 18 13 19 14 20
REMARK SMILES IDX 10 21 8 22 7 23 9 25 6 26 5 27 4 28 3 29 2 30 1 31 104 32
REMARK SMILES IDX 28 35 29 36 30 37 31 38 32 39 33 40 34 41 35 42 36 43 37 44
REMARK SMILES IDX 38 45 39 46 40 47 101 48 41 49 100 50 42 51 43 52 44 53
REMARK SMILES IDX 94 54 45 55 99 56 93 57 95 58 46 59 98 60 92 61 91 62 47 64
REMARK SMILES IDX 79 65 59 66 78 67 60 68 63 69 77 70 96 71 61 72 62 73 76 75
REMARK SMILES IDX 97 76 64 77 48 78 49 79 57 80 50 81 52 82 58 83 51 84 53 85
REMARK SMILES IDX 54 86 55 87 56 88 80 89 81 90 89 91 82 92 84 93 90 94 83 95
REMARK SMILES IDX 85 96 86 97 87 98 88 99 65 100 66 101 74 102 67 103 69 104
REMARK SMILES IDX 75 105 68 106 70 107 71 108 72 109 73 110
REMARK H PARENT 7 24 104 33 104 34 95 63 63 74
REMARK Flexibility Score: inf
ROOT
ATOM      1  O   UNL A   1      46.916  21.462  38.081  1.00  0.00    -0.376 OA
ENDROOT
BRANCH   1   2
ATOM      2  C   UNL A   1      46.116  22.582  37.724  1.00  0.00     0.202 C 
BRANCH   2   3
ATOM      3  C   UNL A   1      45.288  22.575  36.424  1.00  0.00     0.261 C 
BRANCH   3   4
ATOM      4  O   UNL A   1      44.370  23.670  36.226  1.00  0.00    -0.463 OA
BRANCH   4   5
ATOM      5  C   UNL A   1      44.791  24.668  35.418  1.00  0.00     0.313 C 
ATOM      6  O   UNL A   1      45.575  24.501  34.483  1.00  0.00    -0.252 OA
BRANCH   5   7
ATOM      7  C   UNL A   1      44.261  26.063  35.744  1.00  0.00     0.126 C 
ATOM      8  C   UNL A   1      43.818  26.087  37.203  1.00  0.00     0.025 C 
BRANCH   7   9
ATOM      9  C   UNL A   1      43.244  26.761  34.841  1.00  0.00    -0.032 A 
ATOM     10  C   UNL A   1      41.441  28.183  33.112  1.00  0.00     0.005 A 
ATOM     11  C   UNL A   1      40.989  27.226  34.047  1.00  0.00     0.011 A 
ATOM     12  C   UNL A   1      42.832  28.423  33.047  1.00  0.00     0.040 A 
ATOM     13  C   UNL A   1      41.868  26.532  34.902  1.00  0.00     0.005 A 
ATOM     14  C   UNL A   1      43.701  27.703  33.892  1.00  0.00     0.030 A 
BRANCH  10  15
ATOM     15  C   UNL A   1      40.454  28.971  32.326  1.00  0.00    -0.013 A 
ATOM     16  C   UNL A   1      38.929  30.849  32.040  1.00  0.00     0.133 A 
ATOM     17  C   UNL A   1      38.410  30.290  30.874  1.00  0.00     0.047 A 
ATOM     18  C   UNL A   1      39.947  30.213  32.760  1.00  0.00     0.056 A 
ATOM     19  C   UNL A   1      38.927  29.086  30.409  1.00  0.00     0.004 A 
ATOM     20  C   UNL A   1      39.932  28.434  31.132  1.00  0.00     0.009 A 
BRANCH  16  21
ATOM     21  O   UNL A   1      38.259  31.990  32.526  1.00  0.00    -0.410 OA
BRANCH  21  22
ATOM     22  C   UNL A   1      37.397  31.880  33.607  1.00  0.00     0.412 C 
ATOM     23  N   UNL A   1      36.076  31.892  33.247  1.00  0.00    -0.321 N 
ATOM     24  H   UNL A   1      35.424  31.824  33.983  1.00  0.00     0.167 HD
ATOM     25  O   UNL A   1      37.726  31.783  34.783  1.00  0.00    -0.224 OA
BRANCH  23  26
ATOM     26  C   UNL A   1      35.526  31.995  31.909  1.00  0.00     0.119 C 
BRANCH  26  27
ATOM     27  C   UNL A   1      34.539  33.158  31.783  1.00  0.00     0.021 C 
BRANCH  27  28
ATOM     28  C   UNL A   1      34.782  34.089  30.588  1.00  0.00     0.002 C 
BRANCH  28  29
ATOM     29  C   UNL A   1      34.071  33.696  29.288  1.00  0.00    -0.000 C 
BRANCH  29  30
ATOM     30  C   UNL A   1      33.306  34.823  28.589  1.00  0.00    -0.003 C 
ATOM     31  C   UNL A   1      33.266  36.115  29.393  1.00  0.00     0.004 C 
ENDBRANCH  29  30
ENDBRANCH  28  29
ENDBRANCH  27  28
ENDBRANCH  26  27
ENDBRANCH  23  26
ENDBRANCH  21  22
ENDBRANCH  16  21
ENDBRANCH  10  15
BRANCH  12  32
ATOM     32  N   UNL A   1      43.401  29.280  32.100  1.00  0.00    -0.398 N 
ATOM     33  H   UNL A   1      42.846  29.655  31.378  1.00  0.00     0.156 HD
ATOM     34  H   UNL A   1      44.356  29.510  32.156  1.00  0.00     0.156 HD
ENDBRANCH  12  32
ENDBRANCH   7   9
ENDBRANCH   5   7
ENDBRANCH   4   5
ENDBRANCH   3   4
ENDBRANCH   2   3
ENDBRANCH   1   2
BRANCH   1  35
ATOM     35  C   UNL A   1      47.418  20.582  37.082  1.00  0.00     0.188 C 
BRANCH  35  36
ATOM     36  C   UNL A   1      48.851  20.035  37.141  1.00  0.00     0.188 C 
BRANCH  36  37
ATOM     37  O   UNL A   1      49.851  21.005  37.361  1.00  0.00    -0.377 OA
BRANCH  37  38
ATOM     38  C   UNL A   1      50.994  20.934  36.529  1.00  0.00     0.188 C 
BRANCH  38  39
ATOM     39  C   UNL A   1      51.110  19.685  35.638  1.00  0.00     0.188 C 
BRANCH  39  40
ATOM     40  O   UNL A   1      52.453  19.285  35.375  1.00  0.00    -0.376 OA
BRANCH  40  41
ATOM     41  C   UNL A   1      52.994  19.543  34.085  1.00  0.00     0.202 C 
BRANCH  41  42
ATOM     42  C   UNL A   1      53.792  20.840  33.866  1.00  0.00     0.261 C 
BRANCH  42  43
ATOM     43  O   UNL A   1      53.055  22.070  33.899  1.00  0.00    -0.460 OA
BRANCH  43  44
ATOM     44  C   UNL A   1      52.118  22.298  32.953  1.00  0.00     0.338 C 
ATOM     45  O   UNL A   1      51.910  21.649  31.953  1.00  0.00    -0.246 OA
BRANCH  44  46
ATOM     46  C   UNL A   1      51.223  23.356  33.483  1.00  0.00     0.060 A 
ATOM     47  C   UNL A   1      49.842  23.117  33.527  1.00  0.00     0.016 A 
ATOM     48  C   UNL A   1      51.747  24.562  33.951  1.00  0.00     0.016 A 
ATOM     49  C   UNL A   1      48.976  24.100  34.009  1.00  0.00     0.010 A 
ATOM     50  C   UNL A   1      50.877  25.555  34.407  1.00  0.00     0.010 A 
ATOM     51  C   UNL A   1      49.485  25.342  34.408  1.00  0.00    -0.014 A 
BRANCH  51  52
ATOM     52  C   UNL A   1      48.570  26.489  34.625  1.00  0.00     0.031 A 
ATOM     53  C   UNL A   1      48.297  27.404  33.463  1.00  0.00     0.074 A 
ATOM     54  C   UNL A   1      48.023  26.741  35.828  1.00  0.00     0.049 A 
ATOM     55  N   UNL A   1      47.632  28.528  33.429  1.00  0.00    -0.248 NA
ATOM     56  C   UNL A   1      48.858  26.996  32.163  1.00  0.00     0.031 C 
ATOM     57  C   UNL A   1      48.193  25.921  37.024  1.00  0.00     0.029 A 
ATOM     58  N   UNL A   1      47.241  27.791  36.245  1.00  0.00    -0.354 N 
ATOM     59  C   UNL A   1      47.733  28.986  32.120  1.00  0.00     0.074 A 
ATOM     60  C   UNL A   1      48.517  28.016  31.389  1.00  0.00     0.031 C 
ATOM     61  C   UNL A   1      47.575  26.524  38.056  1.00  0.00     0.029 A 
ATOM     62  C   UNL A   1      46.999  27.788  37.600  1.00  0.00     0.049 A 
ATOM     63  H   UNL A   1      46.889  28.479  35.635  1.00  0.00     0.167 HD
ATOM     64  C   UNL A   1      47.219  30.113  31.576  1.00  0.00     0.034 A 
ATOM     65  C   UNL A   1      46.418  28.719  38.383  1.00  0.00     0.034 A 
ATOM     66  C   UNL A   1      46.430  31.069  32.301  1.00  0.00     0.049 A 
ATOM     67  C   UNL A   1      45.881  29.984  37.759  1.00  0.00     0.074 A 
ATOM     68  C   UNL A   1      45.818  32.214  31.824  1.00  0.00     0.029 A 
ATOM     69  N   UNL A   1      46.163  31.006  33.659  1.00  0.00    -0.354 N 
ATOM     70  N   UNL A   1      45.884  30.351  36.500  1.00  0.00    -0.248 NA
ATOM     71  C   UNL A   1      45.237  30.954  38.659  1.00  0.00     0.031 C 
ATOM     72  C   UNL A   1      45.217  32.867  32.904  1.00  0.00     0.029 A 
ATOM     73  C   UNL A   1      45.413  32.103  34.043  1.00  0.00     0.049 A 
ATOM     74  H   UNL A   1      46.463  30.288  34.262  1.00  0.00     0.167 HD
ATOM     75  C   UNL A   1      45.210  31.568  36.452  1.00  0.00     0.074 A 
ATOM     76  C   UNL A   1      44.799  31.870  37.807  1.00  0.00     0.031 C 
ATOM     77  C   UNL A   1      44.961  32.366  35.385  1.00  0.00     0.034 A 
BRANCH  64  78
ATOM     78  C   UNL A   1      47.497  30.379  30.121  1.00  0.00     0.023 A 
ATOM     79  C   UNL A   1      48.720  30.960  29.730  1.00  0.00     0.012 A 
ATOM     80  C   UNL A   1      46.567  29.994  29.135  1.00  0.00     0.148 A 
ATOM     81  C   UNL A   1      49.001  31.180  28.383  1.00  0.00     0.002 A 
ATOM     82  C   UNL A   1      46.874  30.173  27.792  1.00  0.00     0.091 A 
ATOM     83  F   UNL A   1      45.400  29.466  29.530  1.00  0.00    -0.205 F 
ATOM     84  C   UNL A   1      48.085  30.776  27.414  1.00  0.00     0.022 A 
BRANCH  82  85
ATOM     85  S   UNL A   1      45.797  29.610  26.470  1.00  0.00     0.127 S 
ATOM     86  O   UNL A   1      45.641  28.195  26.799  1.00  0.00    -0.237 OA
ATOM     87  O   UNL A   1      44.599  30.421  26.685  1.00  0.00    -0.237 OA
ATOM     88  O   UNL A   1      46.504  29.885  25.227  1.00  0.00    -0.744 OA
ENDBRANCH  82  85
ENDBRANCH  64  78
BRANCH  65  89
ATOM     89  C   UNL A   1      46.310  28.499  39.856  1.00  0.00     0.023 A 
ATOM     90  C   UNL A   1      45.203  27.805  40.381  1.00  0.00     0.012 A 
ATOM     91  C   UNL A   1      47.299  28.980  40.737  1.00  0.00     0.148 A 
ATOM     92  C   UNL A   1      45.064  27.625  41.758  1.00  0.00     0.002 A 
ATOM     93  C   UNL A   1      47.184  28.747  42.102  1.00  0.00     0.091 A 
ATOM     94  F   UNL A   1      48.335  29.655  40.220  1.00  0.00    -0.205 F 
ATOM     95  C   UNL A   1      46.057  28.088  42.617  1.00  0.00     0.022 A 
BRANCH  93  96
ATOM     96  S   UNL A   1      48.472  29.196  43.271  1.00  0.00     0.127 S 
ATOM     97  O   UNL A   1      48.900  30.495  42.759  1.00  0.00    -0.237 OA
ATOM     98  O   UNL A   1      47.729  29.242  44.530  1.00  0.00    -0.237 OA
ATOM     99  O   UNL A   1      49.463  28.131  43.195  1.00  0.00    -0.744 OA
ENDBRANCH  93  96
ENDBRANCH  65  89
BRANCH  77 100
ATOM    100  C   UNL A   1      44.157  33.622  35.608  1.00  0.00     0.023 A 
ATOM    101  C   UNL A   1      44.809  34.848  35.837  1.00  0.00     0.012 A 
ATOM    102  C   UNL A   1      42.752  33.597  35.488  1.00  0.00     0.148 A 
ATOM    103  C   UNL A   1      44.074  36.026  35.971  1.00  0.00     0.002 A 
ATOM    104  C   UNL A   1      42.031  34.781  35.569  1.00  0.00     0.091 A 
ATOM    105  F   UNL A   1      42.151  32.416  35.283  1.00  0.00    -0.205 F 
ATOM    106  C   UNL A   1      42.688  35.996  35.823  1.00  0.00     0.022 A 
BRANCH 104 107
ATOM    107  S   UNL A   1      40.258  34.854  35.289  1.00  0.00     0.127 S 
ATOM    108  O   UNL A   1      40.133  34.178  33.998  1.00  0.00    -0.237 OA
ATOM    109  O   UNL A   1      39.735  34.097  36.427  1.00  0.00    -0.237 OA
ATOM    110  O   UNL A   1      39.906  36.267  35.286  1.00  0.00    -0.744 OA
ENDBRANCH 104 107
ENDBRANCH  77 100
ENDBRANCH  51  52
ENDBRANCH  44  46
ENDBRANCH  43  44
ENDBRANCH  42  43
ENDBRANCH  41  42
ENDBRANCH  40  41
ENDBRANCH  39  40
ENDBRANCH  38  39
ENDBRANCH  37  38
ENDBRANCH  36  37
ENDBRANCH  35  36
ENDBRANCH   1  35
TORSDOF 33
ENDMDL
MODEL 2
REMARK VINA RESULT:      -5.2      7.949     11.888
REMARK SMILES CCCCCCNC(=O)Oc1cccc(-c2ccc([C@@H](C)C(=O)OCCOCCOCCOCCOC(=O)c3ccc(-c4c5nc(c(-c6cccc(S(=O)(=O)[O-])c6F)c6ccc([nH]6)c(-c6cccc(S(=O)(=O)[O-])c6F)c6nc(c(-c7cccc(S(=O)(=O)[O-])c7F)c7ccc4[nH]7)C=C6)C=C5)cc3)cc2N)c1
REMARK SMILES IDX 27 1 26 2 25 3 24 4 22 5 23 6 20 7 21 8 19 9 16 10 17 11
REMARK SMILES IDX 103 12 18 13 102 14 15 15 11 16 12 17 105 18 13 19 14 20
REMARK SMILES IDX 10 21 8 22 7 23 9 25 6 26 5 27 4 28 3 29 2 30 1 31 104 32
REMARK SMILES IDX 28 35 29 36 30 37 31 38 32 39 33 40 34 41 35 42 36 43 37 44
REMARK SMILES IDX 38 45 39 46 40 47 101 48 41 49 100 50 42 51 43 52 44 53
REMARK SMILES IDX 94 54 45 55 99 56 93 57 95 58 46 59 98 60 92 61 91 62 47 64
REMARK SMILES IDX 79 65 59 66 78 67 60 68 63 69 77 70 96 71 61 72 62 73 76 75
REMARK SMILES IDX 97 76 64 77 48 78 49 79 57 80 50 81 52 82 58 83 51 84 53 85
REMARK SMILES IDX 54 86 55 87 56 88 80 89 81 90 89 91 82 92 84 93 90 94 83 95
REMARK SMILES IDX 85 96 86 97 87 98 88 99 65 100 66 101 74 102 67 103 69 104
REMARK SMILES IDX 75 105 68 106 70 107 71 108 72 109 73 110
REMARK H PARENT 7 24 104 33 104 34 95 63 63 74
REMARK Flexibility Score: inf
ROOT
ATOM      1  O   UNL A   1      40.137  25.269  27.153  1.00  0.00    -0.376 OA
ENDROOT
BRANCH   1   2
ATOM      2  C   UNL A   1      40.800  24.146  26.587  1.00  0.00     0.202 C 
BRANCH   2   3
ATOM      3  C   UNL A   1      40.304  22.715  26.873  1.00  0.00     0.261 C 
BRANCH   3   4
ATOM      4  O   UNL A   1      38.890  22.469  26.724  1.00  0.00    -0.463 OA
BRANCH   4   5
ATOM      5  C   UNL A   1      38.539  21.458  25.899  1.00  0.00     0.313 C 
ATOM      6  O   UNL A   1      39.352  20.690  25.382  1.00  0.00    -0.252 OA
BRANCH   5   7
ATOM      7  C   UNL A   1      37.048  21.322  25.601  1.00  0.00     0.126 C 
ATOM      8  C   UNL A   1      36.857  20.225  24.559  1.00  0.00     0.025 C 
BRANCH   7   9
ATOM      9  C   UNL A   1      36.182  22.543  25.290  1.00  0.00    -0.032 A 
ATOM     10  C   UNL A   1      34.541  24.787  24.557  1.00  0.00     0.005 A 
ATOM     11  C   UNL A   1      35.328  24.781  25.730  1.00  0.00     0.011 A 
ATOM     12  C   UNL A   1      34.581  23.634  23.741  1.00  0.00     0.040 A 
ATOM     13  C   UNL A   1      36.139  23.687  26.089  1.00  0.00     0.005 A 
ATOM     14  C   UNL A   1      35.379  22.538  24.127  1.00  0.00     0.030 A 
BRANCH  10  15
ATOM     15  C   UNL A   1      33.804  26.019  24.169  1.00  0.00    -0.013 A 
ATOM     16  C   UNL A   1      31.969  27.176  23.060  1.00  0.00     0.133 A 
ATOM     17  C   UNL A   1      32.582  28.411  23.267  1.00  0.00     0.047 A 
ATOM     18  C   UNL A   1      32.558  25.989  23.511  1.00  0.00     0.056 A 
ATOM     19  C   UNL A   1      33.791  28.463  23.952  1.00  0.00     0.004 A 
ATOM     20  C   UNL A   1      34.395  27.280  24.390  1.00  0.00     0.009 A 
BRANCH  16  21
ATOM     21  O   UNL A   1      30.825  27.188  22.236  1.00  0.00    -0.410 OA
BRANCH  21  22
ATOM     22  C   UNL A   1      29.880  28.193  22.378  1.00  0.00     0.412 C 
ATOM     23  N   UNL A   1      28.799  27.814  23.129  1.00  0.00    -0.321 N 
ATOM     24  H   UNL A   1      28.096  28.493  23.252  1.00  0.00     0.167 HD
ATOM     25  O   UNL A   1      29.948  29.319  21.901  1.00  0.00    -0.224 OA
BRANCH  23  26
ATOM     26  C   UNL A   1      28.571  26.530  23.762  1.00  0.00     0.119 C 
BRANCH  26  27
ATOM     27  C   UNL A   1      29.498  26.309  24.961  1.00  0.00     0.021 C 
BRANCH  27  28
ATOM     28  C   UNL A   1      30.066  24.890  25.089  1.00  0.00     0.002 C 
BRANCH  28  29
ATOM     29  C   UNL A   1      30.270  24.385  26.522  1.00  0.00    -0.000 C 
BRANCH  29  30
ATOM     30  C   UNL A   1      30.928  23.009  26.648  1.00  0.00    -0.003 C 
ATOM     31  C   UNL A   1      32.403  23.076  27.017  1.00  0.00     0.004 C 
ENDBRANCH  29  30
ENDBRANCH  28  29
ENDBRANCH  27  28
ENDBRANCH  26  27
ENDBRANCH  23  26
ENDBRANCH  21  22
ENDBRANCH  16  21
ENDBRANCH  10  15
BRANCH  12  32
ATOM     32  N   UNL A   1      33.777  23.491  22.606  1.00  0.00    -0.398 N 
ATOM     33  H   UNL A   1      32.941  24.005  22.527  1.00  0.00     0.156 HD
ATOM     34  H   UNL A   1      34.048  22.878  21.885  1.00  0.00     0.156 HD
ENDBRANCH  12  32
ENDBRANCH   7   9
ENDBRANCH   5   7
ENDBRANCH   4   5
ENDBRANCH   3   4
ENDBRANCH   2   3
ENDBRANCH   1   2
BRANCH   1  35
ATOM     35  C   UNL A   1      40.856  26.459  27.456  1.00  0.00     0.188 C 
BRANCH  35  36
ATOM     36  C   UNL A   1      41.959  26.480  28.524  1.00  0.00     0.188 C 
BRANCH  36  37
ATOM     37  O   UNL A   1      41.688  27.289  29.646  1.00  0.00    -0.377 OA
BRANCH  37  38
ATOM     38  C   UNL A   1      40.542  28.117  29.564  1.00  0.00     0.188 C 
BRANCH  38  39
ATOM     39  C   UNL A   1      40.598  29.437  30.353  1.00  0.00     0.188 C 
BRANCH  39  40
ATOM     40  O   UNL A   1      40.153  30.572  29.614  1.00  0.00    -0.376 OA
BRANCH  40  41
ATOM     41  C   UNL A   1      38.850  30.539  29.045  1.00  0.00     0.202 C 
BRANCH  41  42
ATOM     42  C   UNL A   1      37.634  30.539  29.987  1.00  0.00     0.261 C 
BRANCH  42  43
ATOM     43  O   UNL A   1      37.842  31.029  31.317  1.00  0.00    -0.460 OA
BRANCH  43  44
ATOM     44  C   UNL A   1      37.070  30.557  32.320  1.00  0.00     0.338 C 
ATOM     45  O   UNL A   1      36.335  29.596  32.291  1.00  0.00    -0.246 OA
BRANCH  44  46
ATOM     46  C   UNL A   1      37.466  31.288  33.548  1.00  0.00     0.060 A 
ATOM     47  C   UNL A   1      36.824  32.495  33.856  1.00  0.00     0.016 A 
ATOM     48  C   UNL A   1      38.447  30.773  34.397  1.00  0.00     0.016 A 
ATOM     49  C   UNL A   1      37.186  33.211  34.999  1.00  0.00     0.010 A 
ATOM     50  C   UNL A   1      38.828  31.503  35.526  1.00  0.00     0.010 A 
ATOM     51  C   UNL A   1      38.223  32.741  35.814  1.00  0.00    -0.014 A 
BRANCH  51  52
ATOM     52  C   UNL A   1      38.824  33.627  36.842  1.00  0.00     0.031 A 
ATOM     53  C   UNL A   1      39.951  34.530  36.423  1.00  0.00     0.074 A 
ATOM     54  C   UNL A   1      38.412  33.607  38.122  1.00  0.00     0.049 A 
ATOM     55  N   UNL A   1      40.710  35.304  37.151  1.00  0.00    -0.248 NA
ATOM     56  C   UNL A   1      40.269  34.556  34.984  1.00  0.00     0.031 C 
ATOM     57  C   UNL A   1      37.319  32.794  38.648  1.00  0.00     0.029 A 
ATOM     58  N   UNL A   1      38.900  34.271  39.222  1.00  0.00    -0.354 N 
ATOM     59  C   UNL A   1      41.623  35.873  36.271  1.00  0.00     0.074 A 
ATOM     60  C   UNL A   1      41.320  35.361  34.954  1.00  0.00     0.031 C 
ATOM     61  C   UNL A   1      37.250  32.968  39.981  1.00  0.00     0.029 A 
ATOM     62  C   UNL A   1      38.316  33.876  40.403  1.00  0.00     0.049 A 
ATOM     63  H   UNL A   1      39.601  34.961  39.170  1.00  0.00     0.167 HD
ATOM     64  C   UNL A   1      42.624  36.744  36.536  1.00  0.00     0.034 A 
ATOM     65  C   UNL A   1      38.634  34.180  41.678  1.00  0.00     0.034 A 
ATOM     66  C   UNL A   1      42.915  37.261  37.844  1.00  0.00     0.049 A 
ATOM     67  C   UNL A   1      39.776  35.128  41.951  1.00  0.00     0.074 A 
ATOM     68  C   UNL A   1      43.873  38.191  38.205  1.00  0.00     0.029 A 
ATOM     69  N   UNL A   1      42.269  36.877  39.008  1.00  0.00    -0.354 N 
ATOM     70  N   UNL A   1      40.559  35.747  41.100  1.00  0.00    -0.248 NA
ATOM     71  C   UNL A   1      40.065  35.441  43.360  1.00  0.00     0.031 C 
ATOM     72  C   UNL A   1      43.836  38.337  39.595  1.00  0.00     0.029 A 
ATOM     73  C   UNL A   1      42.821  37.535  40.092  1.00  0.00     0.049 A 
ATOM     74  H   UNL A   1      41.527  36.232  39.057  1.00  0.00     0.167 HD
ATOM     75  C   UNL A   1      41.400  36.550  41.865  1.00  0.00     0.074 A 
ATOM     76  C   UNL A   1      41.023  36.351  43.248  1.00  0.00     0.031 C 
ATOM     77  C   UNL A   1      42.400  37.372  41.460  1.00  0.00     0.034 A 
BRANCH  64  78
ATOM     78  C   UNL A   1      43.486  37.194  35.388  1.00  0.00     0.023 A 
ATOM     79  C   UNL A   1      43.083  38.280  34.586  1.00  0.00     0.012 A 
ATOM     80  C   UNL A   1      44.728  36.575  35.142  1.00  0.00     0.148 A 
ATOM     81  C   UNL A   1      43.891  38.727  33.540  1.00  0.00     0.002 A 
ATOM     82  C   UNL A   1      45.548  37.056  34.129  1.00  0.00     0.091 A 
ATOM     83  F   UNL A   1      45.080  35.528  35.901  1.00  0.00    -0.205 F 
ATOM     84  C   UNL A   1      45.126  38.123  33.320  1.00  0.00     0.022 A 
BRANCH  82  85
ATOM     85  S   UNL A   1      47.191  36.400  33.821  1.00  0.00     0.127 S 
ATOM     86  O   UNL A   1      47.803  36.504  35.145  1.00  0.00    -0.237 OA
ATOM     87  O   UNL A   1      46.898  35.032  33.392  1.00  0.00    -0.237 OA
ATOM     88  O   UNL A   1      47.780  37.248  32.796  1.00  0.00    -0.744 OA
ENDBRANCH  82  85
ENDBRANCH  64  78
BRANCH  65  89
ATOM     89  C   UNL A   1      37.864  33.580  42.807  1.00  0.00     0.023 A 
ATOM     90  C   UNL A   1      36.688  34.206  43.263  1.00  0.00     0.012 A 
ATOM     91  C   UNL A   1      38.297  32.394  43.434  1.00  0.00     0.148 A 
ATOM     92  C   UNL A   1      35.977  33.683  44.344  1.00  0.00     0.002 A 
ATOM     93  C   UNL A   1      37.552  31.847  44.471  1.00  0.00     0.091 A 
ATOM     94  F   UNL A   1      39.429  31.823  42.998  1.00  0.00    -0.205 F 
ATOM     95  C   UNL A   1      36.404  32.500  44.942  1.00  0.00     0.022 A 
BRANCH  93  96
ATOM     96  S   UNL A   1      37.956  30.264  45.218  1.00  0.00     0.127 S 
ATOM     97  O   UNL A   1      36.873  30.106  46.186  1.00  0.00    -0.237 OA
ATOM     98  O   UNL A   1      37.890  29.365  44.067  1.00  0.00    -0.237 OA
ATOM     99  O   UNL A   1      39.289  30.422  45.784  1.00  0.00    -0.744 OA
ENDBRANCH  93  96
ENDBRANCH  65  89
BRANCH  77 100
ATOM    100  C   UNL A   1      43.131  38.173  42.507  1.00  0.00     0.023 A 
ATOM    101  C   UNL A   1      42.654  39.441  42.889  1.00  0.00     0.012 A 
ATOM    102  C   UNL A   1      44.236  37.617  43.184  1.00  0.00     0.148 A 
ATOM    103  C   UNL A   1      43.283  40.156  43.909  1.00  0.00     0.002 A 
ATOM    104  C   UNL A   1      44.824  38.311  44.233  1.00  0.00     0.091 A 
ATOM    105  F   UNL A   1      44.682  36.413  42.795  1.00  0.00    -0.205 F 
ATOM    106  C   UNL A   1      44.357  39.586  44.590  1.00  0.00     0.022 A 
BRANCH 104 107
ATOM    107  S   UNL A   1      46.143  37.614  45.234  1.00  0.00     0.127 S 
ATOM    108  O   UNL A   1      45.517  36.395  45.744  1.00  0.00    -0.237 OA
ATOM    109  O   UNL A   1      47.196  37.390  44.243  1.00  0.00    -0.237 OA
ATOM    110  O   UNL A   1      46.460  38.617  46.241  1.00  0.00    -0.744 OA
ENDBRANCH 104 107
ENDBRANCH  77 100
ENDBRANCH  51  52
ENDBRANCH  44  46
ENDBRANCH  43  44
ENDBRANCH  42  43
ENDBRANCH  41  42
ENDBRANCH  40  41
ENDBRANCH  39  40
ENDBRANCH  38  39
ENDBRANCH  37  38
ENDBRANCH  36  37
ENDBRANCH  35  36
ENDBRANCH   1  35
TORSDOF 33
ENDMDL
MODEL 3
REMARK VINA RESULT:      -5.2      4.214     11.579
REMARK SMILES CCCCCCNC(=O)Oc1cccc(-c2ccc([C@@H](C)C(=O)OCCOCCOCCOCCOC(=O)c3ccc(-c4c5nc(c(-c6cccc(S(=O)(=O)[O-])c6F)c6ccc([nH]6)c(-c6cccc(S(=O)(=O)[O-])c6F)c6nc(c(-c7cccc(S(=O)(=O)[O-])c7F)c7ccc4[nH]7)C=C6)C=C5)cc3)cc2N)c1
REMARK SMILES IDX 27 1 26 2 25 3 24 4 22 5 23 6 20 7 21 8 19 9 16 10 17 11
REMARK SMILES IDX 103 12 18 13 102 14 15 15 11 16 12 17 105 18 13 19 14 20
REMARK SMILES IDX 10 21 8 22 7 23 9 25 6 26 5 27 4 28 3 29 2 30 1 31 104 32
REMARK SMILES IDX 28 35 29 36 30 37 31 38 32 39 33 40 34 41 35 42 36 43 37 44
REMARK SMILES IDX 38 45 39 46 40 47 101 48 41 49 100 50 42 51 43 52 44 53
REMARK SMILES IDX 94 54 45 55 99 56 93 57 95 58 46 59 98 60 92 61 91 62 47 64
REMARK SMILES IDX 79 65 59 66 78 67 60 68 63 69 77 70 96 71 61 72 62 73 76 75
REMARK SMILES IDX 97 76 64 77 48 78 49 79 57 80 50 81 52 82 58 83 51 84 53 85
REMARK SMILES IDX 54 86 55 87 56 88 80 89 81 90 89 91 82 92 84 93 90 94 83 95
REMARK SMILES IDX 85 96 86 97 87 98 88 99 65 100 66 101 74 102 67 103 69 104
REMARK SMILES IDX 75 105 68 106 70 107 71 108 72 109 73 110
REMARK H PARENT 7 24 104 33 104 34 95 63 63 74
REMARK Flexibility Score: inf
ROOT
ATOM      1  O   UNL A   1      54.024  26.622  37.907  1.00  0.00    -0.376 OA
ENDROOT
BRANCH   1   2
ATOM      2  C   UNL A   1      54.912  25.749  38.594  1.00  0.00     0.202 C 
BRANCH   2   3
ATOM      3  C   UNL A   1      54.577  24.252  38.750  1.00  0.00     0.261 C 
BRANCH   3   4
ATOM      4  O   UNL A   1      54.643  23.438  37.560  1.00  0.00    -0.463 OA
BRANCH   4   5
ATOM      5  C   UNL A   1      53.463  23.022  37.050  1.00  0.00     0.313 C 
ATOM      6  O   UNL A   1      52.468  22.794  37.739  1.00  0.00    -0.252 OA
BRANCH   5   7
ATOM      7  C   UNL A   1      53.424  22.811  35.538  1.00  0.00     0.126 C 
ATOM      8  C   UNL A   1      54.843  22.922  34.994  1.00  0.00     0.025 C 
BRANCH   7   9
ATOM      9  C   UNL A   1      52.427  23.559  34.653  1.00  0.00    -0.032 A 
ATOM     10  C   UNL A   1      50.444  24.857  33.026  1.00  0.00     0.005 A 
ATOM     11  C   UNL A   1      51.824  25.123  32.887  1.00  0.00     0.011 A 
ATOM     12  C   UNL A   1      50.058  23.919  34.011  1.00  0.00     0.040 A 
ATOM     13  C   UNL A   1      52.800  24.484  33.676  1.00  0.00     0.005 A 
ATOM     14  C   UNL A   1      51.045  23.306  34.809  1.00  0.00     0.030 A 
BRANCH  10  15
ATOM     15  C   UNL A   1      49.474  25.471  32.080  1.00  0.00    -0.013 A 
ATOM     16  C   UNL A   1      48.619  25.893  29.838  1.00  0.00     0.133 A 
ATOM     17  C   UNL A   1      47.738  26.857  30.322  1.00  0.00     0.047 A 
ATOM     18  C   UNL A   1      49.473  25.192  30.699  1.00  0.00     0.056 A 
ATOM     19  C   UNL A   1      47.696  27.115  31.688  1.00  0.00     0.004 A 
ATOM     20  C   UNL A   1      48.559  26.434  32.552  1.00  0.00     0.009 A 
BRANCH  16  21
ATOM     21  O   UNL A   1      48.708  25.790  28.435  1.00  0.00    -0.410 OA
BRANCH  21  22
ATOM     22  C   UNL A   1      47.656  25.250  27.712  1.00  0.00     0.412 C 
ATOM     23  N   UNL A   1      47.604  25.700  26.419  1.00  0.00    -0.321 N 
ATOM     24  H   UNL A   1      46.868  25.350  25.866  1.00  0.00     0.167 HD
ATOM     25  O   UNL A   1      46.826  24.453  28.132  1.00  0.00    -0.224 OA
BRANCH  23  26
ATOM     26  C   UNL A   1      48.506  26.633  25.772  1.00  0.00     0.119 C 
BRANCH  26  27
ATOM     27  C   UNL A   1      48.777  26.250  24.314  1.00  0.00     0.021 C 
BRANCH  27  28
ATOM     28  C   UNL A   1      49.149  27.420  23.395  1.00  0.00     0.002 C 
BRANCH  28  29
ATOM     29  C   UNL A   1      50.011  27.059  22.179  1.00  0.00    -0.000 C 
BRANCH  29  30
ATOM     30  C   UNL A   1      51.028  28.121  21.754  1.00  0.00    -0.003 C 
ATOM     31  C   UNL A   1      50.435  29.206  20.869  1.00  0.00     0.004 C 
ENDBRANCH  29  30
ENDBRANCH  28  29
ENDBRANCH  27  28
ENDBRANCH  26  27
ENDBRANCH  23  26
ENDBRANCH  21  22
ENDBRANCH  16  21
ENDBRANCH  10  15
BRANCH  12  32
ATOM     32  N   UNL A   1      48.718  23.644  34.299  1.00  0.00    -0.398 N 
ATOM     33  H   UNL A   1      48.009  24.229  33.947  1.00  0.00     0.156 HD
ATOM     34  H   UNL A   1      48.485  22.865  34.853  1.00  0.00     0.156 HD
ENDBRANCH  12  32
ENDBRANCH   7   9
ENDBRANCH   5   7
ENDBRANCH   4   5
ENDBRANCH   3   4
ENDBRANCH   2   3
ENDBRANCH   1   2
BRANCH   1  35
ATOM     35  C   UNL A   1      52.646  26.676  38.257  1.00  0.00     0.188 C 
BRANCH  35  36
ATOM     36  C   UNL A   1      52.192  26.747  39.722  1.00  0.00     0.188 C 
BRANCH  36  37
ATOM     37  O   UNL A   1      51.120  27.629  39.972  1.00  0.00    -0.377 OA
BRANCH  37  38
ATOM     38  C   UNL A   1      49.956  27.061  40.543  1.00  0.00     0.188 C 
BRANCH  38  39
ATOM     39  C   UNL A   1      49.778  25.544  40.360  1.00  0.00     0.188 C 
BRANCH  39  40
ATOM     40  O   UNL A   1      48.422  25.136  40.193  1.00  0.00    -0.376 OA
BRANCH  40  41
ATOM     41  C   UNL A   1      48.128  24.160  39.202  1.00  0.00     0.202 C 
BRANCH  41  42
ATOM     42  C   UNL A   1      48.143  24.584  37.723  1.00  0.00     0.261 C 
BRANCH  42  43
ATOM     43  O   UNL A   1      46.996  25.295  37.239  1.00  0.00    -0.460 OA
BRANCH  43  44
ATOM     44  C   UNL A   1      47.048  26.642  37.147  1.00  0.00     0.338 C 
ATOM     45  O   UNL A   1      47.835  27.385  37.688  1.00  0.00    -0.246 OA
BRANCH  44  46
ATOM     46  C   UNL A   1      46.112  27.035  36.065  1.00  0.00     0.060 A 
ATOM     47  C   UNL A   1      46.404  28.168  35.294  1.00  0.00     0.016 A 
ATOM     48  C   UNL A   1      44.970  26.277  35.804  1.00  0.00     0.016 A 
ATOM     49  C   UNL A   1      45.534  28.568  34.278  1.00  0.00     0.010 A 
ATOM     50  C   UNL A   1      44.085  26.693  34.806  1.00  0.00     0.010 A 
ATOM     51  C   UNL A   1      44.346  27.859  34.060  1.00  0.00    -0.014 A 
BRANCH  51  52
ATOM     52  C   UNL A   1      43.276  28.438  33.210  1.00  0.00     0.031 A 
ATOM     53  C   UNL A   1      42.287  29.368  33.858  1.00  0.00     0.074 A 
ATOM     54  C   UNL A   1      43.157  28.121  31.909  1.00  0.00     0.049 A 
ATOM     55  N   UNL A   1      41.205  29.906  33.361  1.00  0.00    -0.248 NA
ATOM     56  C   UNL A   1      42.553  29.735  35.260  1.00  0.00     0.031 C 
ATOM     57  C   UNL A   1      44.060  27.251  31.163  1.00  0.00     0.029 A 
ATOM     58  N   UNL A   1      42.192  28.472  30.995  1.00  0.00    -0.354 N 
ATOM     59  C   UNL A   1      40.636  30.636  34.400  1.00  0.00     0.074 A 
ATOM     60  C   UNL A   1      41.496  30.477  35.551  1.00  0.00     0.031 C 
ATOM     61  C   UNL A   1      43.581  27.094  29.915  1.00  0.00     0.029 A 
ATOM     62  C   UNL A   1      42.320  27.824  29.788  1.00  0.00     0.049 A 
ATOM     63  H   UNL A   1      41.478  29.124  31.185  1.00  0.00     0.167 HD
ATOM     64  C   UNL A   1      39.501  31.371  34.394  1.00  0.00     0.034 A 
ATOM     65  C   UNL A   1      41.492  27.790  28.724  1.00  0.00     0.034 A 
ATOM     66  C   UNL A   1      38.656  31.537  33.245  1.00  0.00     0.049 A 
ATOM     67  C   UNL A   1      40.214  28.593  28.754  1.00  0.00     0.074 A 
ATOM     68  C   UNL A   1      37.514  32.308  33.124  1.00  0.00     0.029 A 
ATOM     69  N   UNL A   1      38.845  30.906  32.025  1.00  0.00    -0.354 N 
ATOM     70  N   UNL A   1      39.746  29.368  29.701  1.00  0.00    -0.248 NA
ATOM     71  C   UNL A   1      39.361  28.536  27.556  1.00  0.00     0.031 C 
ATOM     72  C   UNL A   1      36.987  32.108  31.845  1.00  0.00     0.029 A 
ATOM     73  C   UNL A   1      37.829  31.252  31.153  1.00  0.00     0.049 A 
ATOM     74  H   UNL A   1      39.591  30.301  31.812  1.00  0.00     0.167 HD
ATOM     75  C   UNL A   1      38.571  29.922  29.201  1.00  0.00     0.074 A 
ATOM     76  C   UNL A   1      38.405  29.404  27.859  1.00  0.00     0.031 C 
ATOM     77  C   UNL A   1      37.705  30.775  29.800  1.00  0.00     0.034 A 
BRANCH  64  78
ATOM     78  C   UNL A   1      39.100  32.053  35.674  1.00  0.00     0.023 A 
ATOM     79  C   UNL A   1      38.267  31.390  36.596  1.00  0.00     0.012 A 
ATOM     80  C   UNL A   1      39.604  33.331  35.990  1.00  0.00     0.148 A 
ATOM     81  C   UNL A   1      37.918  31.998  37.801  1.00  0.00     0.002 A 
ATOM     82  C   UNL A   1      39.290  33.911  37.212  1.00  0.00     0.091 A 
ATOM     83  F   UNL A   1      40.375  33.954  35.087  1.00  0.00    -0.205 F 
ATOM     84  C   UNL A   1      38.439  33.252  38.113  1.00  0.00     0.022 A 
BRANCH  82  85
ATOM     85  S   UNL A   1      39.976  35.484  37.741  1.00  0.00     0.127 S 
ATOM     86  O   UNL A   1      39.174  35.770  38.929  1.00  0.00    -0.237 OA
ATOM     87  O   UNL A   1      41.369  35.132  38.017  1.00  0.00    -0.237 OA
ATOM     88  O   UNL A   1      39.788  36.403  36.628  1.00  0.00    -0.744 OA
ENDBRANCH  82  85
ENDBRANCH  64  78
BRANCH  65  89
ATOM     89  C   UNL A   1      41.838  26.964  27.531  1.00  0.00     0.023 A 
ATOM     90  C   UNL A   1      42.421  27.572  26.403  1.00  0.00     0.012 A 
ATOM     91  C   UNL A   1      41.585  25.578  27.507  1.00  0.00     0.148 A 
ATOM     92  C   UNL A   1      42.714  26.824  25.262  1.00  0.00     0.002 A 
ATOM     93  C   UNL A   1      41.932  24.828  26.391  1.00  0.00     0.091 A 
ATOM     94  F   UNL A   1      41.012  25.019  28.583  1.00  0.00    -0.205 F 
ATOM     95  C   UNL A   1      42.478  25.452  25.259  1.00  0.00     0.022 A 
BRANCH  93  96
ATOM     96  S   UNL A   1      41.780  23.038  26.343  1.00  0.00     0.127 S 
ATOM     97  O   UNL A   1      42.638  22.695  25.212  1.00  0.00    -0.237 OA
ATOM     98  O   UNL A   1      42.307  22.659  27.654  1.00  0.00    -0.237 OA
ATOM     99  O   UNL A   1      40.360  22.767  26.163  1.00  0.00    -0.744 OA
ENDBRANCH  93  96
ENDBRANCH  65  89
BRANCH  77 100
ATOM    100  C   UNL A   1      36.520  31.262  29.003  1.00  0.00     0.023 A 
ATOM    101  C   UNL A   1      36.397  32.626  28.680  1.00  0.00     0.012 A 
ATOM    102  C   UNL A   1      35.582  30.342  28.491  1.00  0.00     0.148 A 
ATOM    103  C   UNL A   1      35.344  33.073  27.882  1.00  0.00     0.002 A 
ATOM    104  C   UNL A   1      34.567  30.785  27.654  1.00  0.00     0.091 A 
ATOM    105  F   UNL A   1      35.711  29.049  28.823  1.00  0.00    -0.205 F 
ATOM    106  C   UNL A   1      34.438  32.152  27.357  1.00  0.00     0.022 A 
BRANCH 104 107
ATOM    107  S   UNL A   1      33.418  29.663  26.850  1.00  0.00     0.127 S 
ATOM    108  O   UNL A   1      34.323  28.817  26.073  1.00  0.00    -0.237 OA
ATOM    109  O   UNL A   1      32.789  28.996  27.990  1.00  0.00    -0.237 OA
ATOM    110  O   UNL A   1      32.520  30.497  26.063  1.00  0.00    -0.744 OA
ENDBRANCH 104 107
ENDBRANCH  77 100
ENDBRANCH  51  52
ENDBRANCH  44  46
ENDBRANCH  43  44
ENDBRANCH  42  43
ENDBRANCH  41  42
ENDBRANCH  40  41
ENDBRANCH  39  40
ENDBRANCH  38  39
ENDBRANCH  37  38
ENDBRANCH  36  37
ENDBRANCH  35  36
ENDBRANCH   1  35
TORSDOF 33
ENDMDL
