MODEL 1
REMARK VINA RESULT:      -8.9      0.000      0.000
REMARK SMILES Cc1ccc2c(CC(=O)N3CCC(C(=O)OCCOCCOCCOCCOC(=O)c4ccc(-c5c6nc(c(-c7cccc(S(=O)(=O)[O-])c7F)c7ccc([nH]7)c(-c7cccc(S(=O)(=O)[O-])c7F)c7nc(c(-c8cccc(S(=O)(=O)[O-])c8F)c8ccc5[nH]8)C=C7)C=C6)cc4)CC3)coc2c1
REMARK SMILES IDX 23 1 22 2 21 3 20 4 19 5 18 6 17 7 16 8 14 9 15 10 13 11
REMARK SMILES IDX 8 12 9 13 10 14 11 15 95 16 12 17 94 18 7 19 6 20 1 21 2 22
REMARK SMILES IDX 3 23 99 24 4 25 98 26 5 27 97 28 96 29 24 30 25 31 26 32
REMARK SMILES IDX 27 33 28 34 29 35 30 36 31 37 32 38 93 39 33 40 92 41 34 42
REMARK SMILES IDX 35 43 36 44 86 45 37 46 91 47 85 48 87 49 38 50 90 51 84 52
REMARK SMILES IDX 83 53 39 55 71 56 51 57 70 58 52 59 55 60 69 61 88 62 53 63
REMARK SMILES IDX 54 64 68 66 89 67 56 68 40 69 41 70 49 71 42 72 44 73 50 74
REMARK SMILES IDX 43 75 45 76 46 77 47 78 48 79 72 80 73 81 81 82 74 83 76 84
REMARK SMILES IDX 82 85 75 86 77 87 78 88 79 89 80 90 57 91 58 92 66 93 59 94
REMARK SMILES IDX 61 95 67 96 60 97 62 98 63 99 64 100 65 101
REMARK H PARENT 87 54 55 65
REMARK Flexibility Score: inf
ROOT
ATOM      1  C   UNL A   1      47.204  43.188  28.290  1.00  0.00     0.188 C 
ENDROOT
BRANCH   1   2
ATOM      2  O   UNL A   1      46.182  43.442  29.241  1.00  0.00    -0.377 OA
BRANCH   2   3
ATOM      3  C   UNL A   1      44.856  43.093  28.939  1.00  0.00     0.188 C 
BRANCH   3   4
ATOM      4  C   UNL A   1      44.458  41.712  29.462  1.00  0.00     0.188 C 
BRANCH   4   5
ATOM      5  O   UNL A   1      43.373  41.510  30.352  1.00  0.00    -0.376 OA
BRANCH   5   6
ATOM      6  C   UNL A   1      42.115  40.991  29.945  1.00  0.00     0.202 C 
BRANCH   6   7
ATOM      7  C   UNL A   1      41.917  40.074  28.729  1.00  0.00     0.261 C 
BRANCH   7   8
ATOM      8  O   UNL A   1      41.185  40.659  27.650  1.00  0.00    -0.463 OA
BRANCH   8   9
ATOM      9  C   UNL A   1      41.686  40.382  26.433  1.00  0.00     0.309 C 
ATOM     10  O   UNL A   1      41.240  39.541  25.658  1.00  0.00    -0.252 OA
BRANCH   9  11
ATOM     11  C   UNL A   1      42.849  41.258  26.048  1.00  0.00     0.103 C 
ATOM     12  C   UNL A   1      45.435  42.400  23.111  1.00  0.00     0.227 C 
ATOM     13  O   UNL A   1      46.310  41.534  22.959  1.00  0.00    -0.275 OA
ATOM     14  N   UNL A   1      44.771  42.520  24.327  1.00  0.00    -0.342 N 
ATOM     15  C   UNL A   1      45.232  41.710  25.448  1.00  0.00     0.120 C 
ATOM     16  C   UNL A   1      43.470  43.137  24.568  1.00  0.00     0.120 C 
ATOM     17  C   UNL A   1      44.214  40.615  25.762  1.00  0.00     0.037 C 
ATOM     18  C   UNL A   1      42.421  42.071  24.832  1.00  0.00     0.037 C 
BRANCH  12  19
ATOM     19  C   UNL A   1      45.293  43.453  22.015  1.00  0.00     0.139 C 
BRANCH  19  20
ATOM     20  C   UNL A   1      44.209  43.274  21.017  1.00  0.00     0.008 A 
ATOM     21  C   UNL A   1      41.984  46.358  16.791  1.00  0.00     0.044 C 
ATOM     22  C   UNL A   1      42.683  45.532  17.832  1.00  0.00    -0.047 A 
ATOM     23  C   UNL A   1      43.937  45.946  18.309  1.00  0.00     0.004 A 
ATOM     24  C   UNL A   1      42.080  44.366  18.333  1.00  0.00     0.051 A 
ATOM     25  C   UNL A   1      44.603  45.233  19.313  1.00  0.00     0.012 A 
ATOM     26  C   UNL A   1      42.755  43.697  19.350  1.00  0.00     0.134 A 
ATOM     27  C   UNL A   1      43.979  44.096  19.863  1.00  0.00     0.024 A 
ATOM     28  O   UNL A   1      42.295  42.611  20.028  1.00  0.00    -0.464 OA
ATOM     29  C   UNL A   1      43.172  42.363  21.037  1.00  0.00     0.200 A 
ENDBRANCH  19  20
ENDBRANCH  12  19
ENDBRANCH   9  11
ENDBRANCH   8   9
ENDBRANCH   7   8
ENDBRANCH   6   7
ENDBRANCH   5   6
ENDBRANCH   4   5
ENDBRANCH   3   4
ENDBRANCH   2   3
ENDBRANCH   1   2
BRANCH   1  30
ATOM     30  C   UNL A   1      48.466  42.431  28.737  1.00  0.00     0.188 C 
BRANCH  30  31
ATOM     31  O   UNL A   1      48.610  41.166  28.098  1.00  0.00    -0.376 OA
BRANCH  31  32
ATOM     32  C   UNL A   1      47.481  40.302  28.093  1.00  0.00     0.202 C 
BRANCH  32  33
ATOM     33  C   UNL A   1      47.764  38.832  28.436  1.00  0.00     0.261 C 
BRANCH  33  34
ATOM     34  O   UNL A   1      46.575  38.060  28.668  1.00  0.00    -0.460 OA
BRANCH  34  35
ATOM     35  C   UNL A   1      46.153  37.229  27.684  1.00  0.00     0.338 C 
ATOM     36  O   UNL A   1      46.770  36.911  26.691  1.00  0.00    -0.246 OA
BRANCH  35  37
ATOM     37  C   UNL A   1      44.985  36.512  28.262  1.00  0.00     0.060 A 
ATOM     38  C   UNL A   1      44.889  36.273  29.639  1.00  0.00     0.016 A 
ATOM     39  C   UNL A   1      44.178  35.810  27.357  1.00  0.00     0.016 A 
ATOM     40  C   UNL A   1      44.074  35.240  30.093  1.00  0.00     0.010 A 
ATOM     41  C   UNL A   1      43.391  34.758  27.812  1.00  0.00     0.010 A 
ATOM     42  C   UNL A   1      43.375  34.442  29.173  1.00  0.00    -0.014 A 
BRANCH  42  43
ATOM     43  C   UNL A   1      42.502  33.384  29.696  1.00  0.00     0.031 A 
ATOM     44  C   UNL A   1      41.216  33.899  30.231  1.00  0.00     0.074 A 
ATOM     45  C   UNL A   1      42.713  32.057  29.563  1.00  0.00     0.049 A 
ATOM     46  N   UNL A   1      40.716  33.776  31.419  1.00  0.00    -0.248 NA
ATOM     47  C   UNL A   1      40.442  34.764  29.324  1.00  0.00     0.031 C 
ATOM     48  C   UNL A   1      43.751  31.423  28.754  1.00  0.00     0.029 A 
ATOM     49  N   UNL A   1      41.974  30.990  30.013  1.00  0.00    -0.354 N 
ATOM     50  C   UNL A   1      39.462  34.372  31.335  1.00  0.00     0.074 A 
ATOM     51  C   UNL A   1      39.413  35.105  30.095  1.00  0.00     0.031 C 
ATOM     52  C   UNL A   1      43.478  30.108  28.620  1.00  0.00     0.029 A 
ATOM     53  C   UNL A   1      42.275  29.791  29.366  1.00  0.00     0.049 A 
ATOM     54  H   UNL A   1      41.297  31.065  30.723  1.00  0.00     0.167 HD
ATOM     55  C   UNL A   1      38.423  34.031  32.139  1.00  0.00     0.034 A 
ATOM     56  C   UNL A   1      41.541  28.647  29.345  1.00  0.00     0.034 A 
ATOM     57  C   UNL A   1      38.813  33.326  33.318  1.00  0.00     0.049 A 
ATOM     58  C   UNL A   1      40.582  28.710  30.470  1.00  0.00     0.074 A 
ATOM     59  C   UNL A   1      39.595  33.613  34.416  1.00  0.00     0.029 A 
ATOM     60  N   UNL A   1      38.635  31.966  33.308  1.00  0.00    -0.354 N 
ATOM     61  N   UNL A   1      40.911  28.652  31.729  1.00  0.00    -0.248 NA
ATOM     62  C   UNL A   1      39.233  29.176  30.194  1.00  0.00     0.031 C 
ATOM     63  C   UNL A   1      40.185  32.373  34.793  1.00  0.00     0.029 A 
ATOM     64  C   UNL A   1      39.722  31.392  33.913  1.00  0.00     0.049 A 
ATOM     65  H   UNL A   1      37.861  31.487  32.933  1.00  0.00     0.167 HD
ATOM     66  C   UNL A   1      39.978  29.456  32.369  1.00  0.00     0.074 A 
ATOM     67  C   UNL A   1      38.906  29.644  31.400  1.00  0.00     0.031 C 
ATOM     68  C   UNL A   1      40.293  30.122  33.516  1.00  0.00     0.034 A 
BRANCH  55  69
ATOM     69  C   UNL A   1      37.014  34.060  31.630  1.00  0.00     0.023 A 
ATOM     70  C   UNL A   1      36.011  34.688  32.384  1.00  0.00     0.012 A 
ATOM     71  C   UNL A   1      36.618  33.316  30.493  1.00  0.00     0.148 A 
ATOM     72  C   UNL A   1      34.672  34.624  31.986  1.00  0.00     0.002 A 
ATOM     73  C   UNL A   1      35.305  33.336  30.049  1.00  0.00     0.091 A 
ATOM     74  F   UNL A   1      37.505  32.507  29.896  1.00  0.00    -0.205 F 
ATOM     75  C   UNL A   1      34.322  33.976  30.802  1.00  0.00     0.022 A 
BRANCH  73  76
ATOM     76  S   UNL A   1      34.850  32.603  28.475  1.00  0.00     0.127 S 
ATOM     77  O   UNL A   1      34.958  31.178  28.770  1.00  0.00    -0.237 OA
ATOM     78  O   UNL A   1      33.486  33.099  28.293  1.00  0.00    -0.237 OA
ATOM     79  O   UNL A   1      35.809  33.143  27.518  1.00  0.00    -0.744 OA
ENDBRANCH  73  76
ENDBRANCH  55  69
BRANCH  56  80
ATOM     80  C   UNL A   1      41.445  27.595  28.291  1.00  0.00     0.023 A 
ATOM     81  C   UNL A   1      40.980  27.928  27.000  1.00  0.00     0.012 A 
ATOM     82  C   UNL A   1      42.024  26.317  28.459  1.00  0.00     0.148 A 
ATOM     83  C   UNL A   1      41.109  27.035  25.924  1.00  0.00     0.002 A 
ATOM     84  C   UNL A   1      42.118  25.420  27.398  1.00  0.00     0.091 A 
ATOM     85  F   UNL A   1      42.588  26.001  29.631  1.00  0.00    -0.205 F 
ATOM     86  C   UNL A   1      41.676  25.780  26.122  1.00  0.00     0.022 A 
BRANCH  84  87
ATOM     87  S   UNL A   1      42.821  23.783  27.638  1.00  0.00     0.127 S 
ATOM     88  O   UNL A   1      42.007  23.243  28.728  1.00  0.00    -0.237 OA
ATOM     89  O   UNL A   1      42.596  23.158  26.339  1.00  0.00    -0.237 OA
ATOM     90  O   UNL A   1      44.213  24.023  28.005  1.00  0.00    -0.744 OA
ENDBRANCH  84  87
ENDBRANCH  56  80
BRANCH  68  91
ATOM     91  C   UNL A   1      41.506  29.670  34.285  1.00  0.00     0.023 A 
ATOM     92  C   UNL A   1      41.445  28.648  35.254  1.00  0.00     0.012 A 
ATOM     93  C   UNL A   1      42.761  30.162  33.883  1.00  0.00     0.148 A 
ATOM     94  C   UNL A   1      42.615  28.130  35.814  1.00  0.00     0.002 A 
ATOM     95  C   UNL A   1      43.923  29.617  34.413  1.00  0.00     0.091 A 
ATOM     96  F   UNL A   1      42.792  31.132  32.955  1.00  0.00    -0.205 F 
ATOM     97  C   UNL A   1      43.854  28.604  35.381  1.00  0.00     0.022 A 
BRANCH  95  98
ATOM     98  S   UNL A   1      45.548  30.097  33.820  1.00  0.00     0.127 S 
ATOM     99  O   UNL A   1      45.617  31.501  34.218  1.00  0.00    -0.237 OA
ATOM    100  O   UNL A   1      46.430  29.202  34.570  1.00  0.00    -0.237 OA
ATOM    101  O   UNL A   1      45.540  29.859  32.382  1.00  0.00    -0.744 OA
ENDBRANCH  95  98
ENDBRANCH  68  91
ENDBRANCH  42  43
ENDBRANCH  35  37
ENDBRANCH  34  35
ENDBRANCH  33  34
ENDBRANCH  32  33
ENDBRANCH  31  32
ENDBRANCH  30  31
ENDBRANCH   1  30
TORSDOF 25
ENDMDL
MODEL 2
REMARK VINA RESULT:      -8.7      6.201     16.374
REMARK SMILES Cc1ccc2c(CC(=O)N3CCC(C(=O)OCCOCCOCCOCCOC(=O)c4ccc(-c5c6nc(c(-c7cccc(S(=O)(=O)[O-])c7F)c7ccc([nH]7)c(-c7cccc(S(=O)(=O)[O-])c7F)c7nc(c(-c8cccc(S(=O)(=O)[O-])c8F)c8ccc5[nH]8)C=C7)C=C6)cc4)CC3)coc2c1
REMARK SMILES IDX 23 1 22 2 21 3 20 4 19 5 18 6 17 7 16 8 14 9 15 10 13 11
REMARK SMILES IDX 8 12 9 13 10 14 11 15 95 16 12 17 94 18 7 19 6 20 1 21 2 22
REMARK SMILES IDX 3 23 99 24 4 25 98 26 5 27 97 28 96 29 24 30 25 31 26 32
REMARK SMILES IDX 27 33 28 34 29 35 30 36 31 37 32 38 93 39 33 40 92 41 34 42
REMARK SMILES IDX 35 43 36 44 86 45 37 46 91 47 85 48 87 49 38 50 90 51 84 52
REMARK SMILES IDX 83 53 39 55 71 56 51 57 70 58 52 59 55 60 69 61 88 62 53 63
REMARK SMILES IDX 54 64 68 66 89 67 56 68 40 69 41 70 49 71 42 72 44 73 50 74
REMARK SMILES IDX 43 75 45 76 46 77 47 78 48 79 72 80 73 81 81 82 74 83 76 84
REMARK SMILES IDX 82 85 75 86 77 87 78 88 79 89 80 90 57 91 58 92 66 93 59 94
REMARK SMILES IDX 61 95 67 96 60 97 62 98 63 99 64 100 65 101
REMARK H PARENT 87 54 55 65
REMARK Flexibility Score: inf
ROOT
ATOM      1  C   UNL A   1      36.354  31.319  31.152  1.00  0.00     0.188 C 
ENDROOT
BRANCH   1   2
ATOM      2  O   UNL A   1      36.439  30.762  29.851  1.00  0.00    -0.377 OA
BRANCH   2   3
ATOM      3  C   UNL A   1      35.629  31.276  28.825  1.00  0.00     0.188 C 
BRANCH   3   4
ATOM      4  C   UNL A   1      35.525  30.349  27.613  1.00  0.00     0.188 C 
BRANCH   4   5
ATOM      5  O   UNL A   1      34.303  29.763  27.196  1.00  0.00    -0.376 OA
BRANCH   5   6
ATOM      6  C   UNL A   1      33.109  30.504  26.993  1.00  0.00     0.202 C 
BRANCH   6   7
ATOM      7  C   UNL A   1      31.817  29.909  26.415  1.00  0.00     0.261 C 
BRANCH   7   8
ATOM      8  O   UNL A   1      31.724  29.947  24.990  1.00  0.00    -0.463 OA
BRANCH   8   9
ATOM      9  C   UNL A   1      32.486  29.032  24.365  1.00  0.00     0.309 C 
ATOM     10  O   UNL A   1      33.385  29.284  23.567  1.00  0.00    -0.252 OA
BRANCH   9  11
ATOM     11  C   UNL A   1      32.184  27.615  24.776  1.00  0.00     0.103 C 
ATOM     12  C   UNL A   1      31.483  23.786  23.565  1.00  0.00     0.227 C 
ATOM     13  O   UNL A   1      30.324  23.685  23.137  1.00  0.00    -0.275 OA
ATOM     14  N   UNL A   1      31.809  24.783  24.478  1.00  0.00    -0.342 N 
ATOM     15  C   UNL A   1      30.731  25.598  25.025  1.00  0.00     0.120 C 
ATOM     16  C   UNL A   1      33.134  25.333  24.754  1.00  0.00     0.120 C 
ATOM     17  C   UNL A   1      30.805  27.017  24.463  1.00  0.00     0.037 C 
ATOM     18  C   UNL A   1      33.259  26.727  24.162  1.00  0.00     0.037 C 
BRANCH  12  19
ATOM     19  C   UNL A   1      32.453  22.654  23.238  1.00  0.00     0.139 C 
BRANCH  19  20
ATOM     20  C   UNL A   1      32.810  21.709  24.326  1.00  0.00     0.008 A 
ATOM     21  C   UNL A   1      32.396  16.105  25.185  1.00  0.00     0.044 C 
ATOM     22  C   UNL A   1      32.598  17.558  24.864  1.00  0.00    -0.047 A 
ATOM     23  C   UNL A   1      32.448  17.996  23.539  1.00  0.00     0.004 A 
ATOM     24  C   UNL A   1      32.918  18.471  25.883  1.00  0.00     0.051 A 
ATOM     25  C   UNL A   1      32.579  19.348  23.201  1.00  0.00     0.012 A 
ATOM     26  C   UNL A   1      33.014  19.811  25.519  1.00  0.00     0.134 A 
ATOM     27  C   UNL A   1      32.843  20.278  24.226  1.00  0.00     0.024 A 
ATOM     28  O   UNL A   1      33.220  20.852  26.369  1.00  0.00    -0.464 OA
ATOM     29  C   UNL A   1      33.090  21.996  25.647  1.00  0.00     0.200 A 
ENDBRANCH  19  20
ENDBRANCH  12  19
ENDBRANCH   9  11
ENDBRANCH   8   9
ENDBRANCH   7   8
ENDBRANCH   6   7
ENDBRANCH   5   6
ENDBRANCH   4   5
ENDBRANCH   3   4
ENDBRANCH   2   3
ENDBRANCH   1   2
BRANCH   1  30
ATOM     30  C   UNL A   1      37.555  31.180  32.103  1.00  0.00     0.188 C 
BRANCH  30  31
ATOM     31  O   UNL A   1      38.587  30.352  31.575  1.00  0.00    -0.376 OA
BRANCH  31  32
ATOM     32  C   UNL A   1      39.926  30.808  31.712  1.00  0.00     0.202 C 
BRANCH  32  33
ATOM     33  C   UNL A   1      40.580  31.356  30.435  1.00  0.00     0.261 C 
BRANCH  33  34
ATOM     34  O   UNL A   1      40.844  32.766  30.487  1.00  0.00    -0.460 OA
BRANCH  34  35
ATOM     35  C   UNL A   1      40.056  33.590  29.753  1.00  0.00     0.338 C 
ATOM     36  O   UNL A   1      38.868  33.463  29.551  1.00  0.00    -0.246 OA
BRANCH  35  37
ATOM     37  C   UNL A   1      40.848  34.839  29.596  1.00  0.00     0.060 A 
ATOM     38  C   UNL A   1      40.775  35.602  28.423  1.00  0.00     0.016 A 
ATOM     39  C   UNL A   1      41.894  35.029  30.508  1.00  0.00     0.016 A 
ATOM     40  C   UNL A   1      41.821  36.464  28.108  1.00  0.00     0.010 A 
ATOM     41  C   UNL A   1      42.953  35.866  30.173  1.00  0.00     0.010 A 
ATOM     42  C   UNL A   1      42.940  36.546  28.952  1.00  0.00    -0.014 A 
BRANCH  42  43
ATOM     43  C   UNL A   1      44.007  37.491  28.599  1.00  0.00     0.031 A 
ATOM     44  C   UNL A   1      45.297  36.825  28.284  1.00  0.00     0.074 A 
ATOM     45  C   UNL A   1      43.843  38.814  28.389  1.00  0.00     0.049 A 
ATOM     46  N   UNL A   1      46.455  36.981  28.839  1.00  0.00    -0.248 NA
ATOM     47  C   UNL A   1      45.238  35.757  27.270  1.00  0.00     0.031 C 
ATOM     48  C   UNL A   1      42.571  39.528  28.318  1.00  0.00     0.029 A 
ATOM     49  N   UNL A   1      44.762  39.782  28.063  1.00  0.00    -0.354 N 
ATOM     50  C   UNL A   1      47.313  36.178  28.092  1.00  0.00     0.074 A 
ATOM     51  C   UNL A   1      46.497  35.328  27.263  1.00  0.00     0.031 C 
ATOM     52  C   UNL A   1      42.772  40.759  27.803  1.00  0.00     0.029 A 
ATOM     53  C   UNL A   1      44.187  40.945  27.545  1.00  0.00     0.049 A 
ATOM     54  H   UNL A   1      45.731  39.667  28.183  1.00  0.00     0.167 HD
ATOM     55  C   UNL A   1      48.643  36.421  27.978  1.00  0.00     0.034 A 
ATOM     56  C   UNL A   1      44.800  41.942  26.856  1.00  0.00     0.034 A 
ATOM     57  C   UNL A   1      49.159  37.296  28.982  1.00  0.00     0.049 A 
ATOM     58  C   UNL A   1      46.254  41.833  27.107  1.00  0.00     0.074 A 
ATOM     59  C   UNL A   1      49.264  37.254  30.356  1.00  0.00     0.029 A 
ATOM     60  N   UNL A   1      49.372  38.599  28.612  1.00  0.00    -0.354 N 
ATOM     61  N   UNL A   1      46.828  42.071  28.252  1.00  0.00    -0.248 NA
ATOM     62  C   UNL A   1      47.066  41.123  26.133  1.00  0.00     0.031 C 
ATOM     63  C   UNL A   1      49.141  38.606  30.784  1.00  0.00     0.029 A 
ATOM     64  C   UNL A   1      48.979  39.403  29.649  1.00  0.00     0.049 A 
ATOM     65  H   UNL A   1      49.744  38.902  27.752  1.00  0.00     0.167 HD
ATOM     66  C   UNL A   1      47.901  41.191  28.292  1.00  0.00     0.074 A 
ATOM     67  C   UNL A   1      48.069  40.730  26.920  1.00  0.00     0.031 C 
ATOM     68  C   UNL A   1      48.367  40.705  29.477  1.00  0.00     0.034 A 
BRANCH  55  69
ATOM     69  C   UNL A   1      49.376  36.107  26.709  1.00  0.00     0.023 A 
ATOM     70  C   UNL A   1      49.311  36.995  25.626  1.00  0.00     0.012 A 
ATOM     71  C   UNL A   1      49.991  34.850  26.498  1.00  0.00     0.148 A 
ATOM     72  C   UNL A   1      49.890  36.666  24.395  1.00  0.00     0.002 A 
ATOM     73  C   UNL A   1      50.646  34.567  25.309  1.00  0.00     0.091 A 
ATOM     74  F   UNL A   1      49.856  33.888  27.422  1.00  0.00    -0.205 F 
ATOM     75  C   UNL A   1      50.585  35.466  24.245  1.00  0.00     0.022 A 
BRANCH  73  76
ATOM     76  S   UNL A   1      51.636  33.081  25.130  1.00  0.00     0.127 S 
ATOM     77  O   UNL A   1      52.766  33.371  26.007  1.00  0.00    -0.237 OA
ATOM     78  O   UNL A   1      50.722  32.046  25.614  1.00  0.00    -0.237 OA
ATOM     79  O   UNL A   1      51.928  32.993  23.704  1.00  0.00    -0.744 OA
ENDBRANCH  73  76
ENDBRANCH  55  69
BRANCH  56  80
ATOM     80  C   UNL A   1      44.252  42.853  25.808  1.00  0.00     0.023 A 
ATOM     81  C   UNL A   1      44.859  44.106  25.574  1.00  0.00     0.012 A 
ATOM     82  C   UNL A   1      43.288  42.417  24.872  1.00  0.00     0.148 A 
ATOM     83  C   UNL A   1      44.535  44.875  24.444  1.00  0.00     0.002 A 
ATOM     84  C   UNL A   1      42.942  43.199  23.772  1.00  0.00     0.091 A 
ATOM     85  F   UNL A   1      42.774  41.187  24.983  1.00  0.00    -0.205 F 
ATOM     86  C   UNL A   1      43.575  44.424  23.543  1.00  0.00     0.022 A 
BRANCH  84  87
ATOM     87  S   UNL A   1      41.685  42.647  22.611  1.00  0.00     0.127 S 
ATOM     88  O   UNL A   1      41.711  43.696  21.590  1.00  0.00    -0.237 OA
ATOM     89  O   UNL A   1      42.213  41.358  22.177  1.00  0.00    -0.237 OA
ATOM     90  O   UNL A   1      40.450  42.610  23.386  1.00  0.00    -0.744 OA
ENDBRANCH  84  87
ENDBRANCH  56  80
BRANCH  68  91
ATOM     91  C   UNL A   1      47.978  41.426  30.740  1.00  0.00     0.023 A 
ATOM     92  C   UNL A   1      48.753  42.475  31.275  1.00  0.00     0.012 A 
ATOM     93  C   UNL A   1      46.710  41.160  31.285  1.00  0.00     0.148 A 
ATOM     94  C   UNL A   1      48.270  43.242  32.339  1.00  0.00     0.002 A 
ATOM     95  C   UNL A   1      46.218  41.949  32.316  1.00  0.00     0.091 A 
ATOM     96  F   UNL A   1      45.991  40.159  30.754  1.00  0.00    -0.205 F 
ATOM     97  C   UNL A   1      46.996  42.989  32.849  1.00  0.00     0.022 A 
BRANCH  95  98
ATOM     98  S   UNL A   1      44.546  41.753  32.942  1.00  0.00     0.127 S 
ATOM     99  O   UNL A   1      44.624  42.423  34.238  1.00  0.00    -0.237 OA
ATOM    100  O   UNL A   1      43.753  42.457  31.933  1.00  0.00    -0.237 OA
ATOM    101  O   UNL A   1      44.301  40.317  32.997  1.00  0.00    -0.744 OA
ENDBRANCH  95  98
ENDBRANCH  68  91
ENDBRANCH  42  43
ENDBRANCH  35  37
ENDBRANCH  34  35
ENDBRANCH  33  34
ENDBRANCH  32  33
ENDBRANCH  31  32
ENDBRANCH  30  31
ENDBRANCH   1  30
TORSDOF 25
ENDMDL
MODEL 3
REMARK VINA RESULT:      -8.4      6.320     13.718
REMARK SMILES Cc1ccc2c(CC(=O)N3CCC(C(=O)OCCOCCOCCOCCOC(=O)c4ccc(-c5c6nc(c(-c7cccc(S(=O)(=O)[O-])c7F)c7ccc([nH]7)c(-c7cccc(S(=O)(=O)[O-])c7F)c7nc(c(-c8cccc(S(=O)(=O)[O-])c8F)c8ccc5[nH]8)C=C7)C=C6)cc4)CC3)coc2c1
REMARK SMILES IDX 23 1 22 2 21 3 20 4 19 5 18 6 17 7 16 8 14 9 15 10 13 11
REMARK SMILES IDX 8 12 9 13 10 14 11 15 95 16 12 17 94 18 7 19 6 20 1 21 2 22
REMARK SMILES IDX 3 23 99 24 4 25 98 26 5 27 97 28 96 29 24 30 25 31 26 32
REMARK SMILES IDX 27 33 28 34 29 35 30 36 31 37 32 38 93 39 33 40 92 41 34 42
REMARK SMILES IDX 35 43 36 44 86 45 37 46 91 47 85 48 87 49 38 50 90 51 84 52
REMARK SMILES IDX 83 53 39 55 71 56 51 57 70 58 52 59 55 60 69 61 88 62 53 63
REMARK SMILES IDX 54 64 68 66 89 67 56 68 40 69 41 70 49 71 42 72 44 73 50 74
REMARK SMILES IDX 43 75 45 76 46 77 47 78 48 79 72 80 73 81 81 82 74 83 76 84
REMARK SMILES IDX 82 85 75 86 77 87 78 88 79 89 80 90 57 91 58 92 66 93 59 94
REMARK SMILES IDX 61 95 67 96 60 97 62 98 63 99 64 100 65 101
REMARK H PARENT 87 54 55 65
REMARK Flexibility Score: inf
ROOT
ATOM      1  C   UNL A   1      35.244  23.385  24.620  1.00  0.00     0.188 C 
ENDROOT
BRANCH   1   2
ATOM      2  O   UNL A   1      34.595  23.770  25.820  1.00  0.00    -0.377 OA
BRANCH   2   3
ATOM      3  C   UNL A   1      33.324  23.250  26.116  1.00  0.00     0.188 C 
BRANCH   3   4
ATOM      4  C   UNL A   1      32.341  23.352  24.948  1.00  0.00     0.188 C 
BRANCH   4   5
ATOM      5  O   UNL A   1      31.769  24.580  24.531  1.00  0.00    -0.376 OA
BRANCH   5   6
ATOM      6  C   UNL A   1      30.838  25.315  25.313  1.00  0.00     0.202 C 
BRANCH   6   7
ATOM      7  C   UNL A   1      30.821  26.848  25.410  1.00  0.00     0.261 C 
BRANCH   7   8
ATOM      8  O   UNL A   1      31.040  27.530  24.175  1.00  0.00    -0.463 OA
BRANCH   8   9
ATOM      9  C   UNL A   1      32.146  28.295  24.158  1.00  0.00     0.309 C 
ATOM     10  O   UNL A   1      32.731  28.674  23.147  1.00  0.00    -0.252 OA
BRANCH   9  11
ATOM     11  C   UNL A   1      32.603  28.722  25.528  1.00  0.00     0.103 C 
ATOM     12  C   UNL A   1      34.883  31.298  27.716  1.00  0.00     0.227 C 
ATOM     13  O   UNL A   1      36.075  30.962  27.655  1.00  0.00    -0.275 OA
ATOM     14  N   UNL A   1      33.878  30.357  27.516  1.00  0.00    -0.342 N 
ATOM     15  C   UNL A   1      34.261  28.957  27.383  1.00  0.00     0.120 C 
ATOM     16  C   UNL A   1      32.495  30.609  27.121  1.00  0.00     0.120 C 
ATOM     17  C   UNL A   1      34.064  28.490  25.942  1.00  0.00     0.037 C 
ATOM     18  C   UNL A   1      32.278  30.204  25.673  1.00  0.00     0.037 C 
BRANCH  12  19
ATOM     19  C   UNL A   1      34.574  32.697  28.244  1.00  0.00     0.139 C 
BRANCH  19  20
ATOM     20  C   UNL A   1      35.111  33.071  29.575  1.00  0.00     0.008 A 
ATOM     21  C   UNL A   1      40.218  34.349  31.721  1.00  0.00     0.044 C 
ATOM     22  C   UNL A   1      38.875  34.128  31.086  1.00  0.00    -0.047 A 
ATOM     23  C   UNL A   1      38.762  34.168  29.688  1.00  0.00     0.004 A 
ATOM     24  C   UNL A   1      37.749  33.868  31.885  1.00  0.00     0.051 A 
ATOM     25  C   UNL A   1      37.540  33.920  29.051  1.00  0.00     0.012 A 
ATOM     26  C   UNL A   1      36.556  33.598  31.220  1.00  0.00     0.134 A 
ATOM     27  C   UNL A   1      36.418  33.601  29.841  1.00  0.00     0.024 A 
ATOM     28  O   UNL A   1      35.385  33.232  31.806  1.00  0.00    -0.464 OA
ATOM     29  C   UNL A   1      34.517  32.909  30.811  1.00  0.00     0.200 A 
ENDBRANCH  19  20
ENDBRANCH  12  19
ENDBRANCH   9  11
ENDBRANCH   8   9
ENDBRANCH   7   8
ENDBRANCH   6   7
ENDBRANCH   5   6
ENDBRANCH   4   5
ENDBRANCH   3   4
ENDBRANCH   2   3
ENDBRANCH   1   2
BRANCH   1  30
ATOM     30  C   UNL A   1      36.779  23.463  24.544  1.00  0.00     0.188 C 
BRANCH  30  31
ATOM     31  O   UNL A   1      37.422  22.805  25.632  1.00  0.00    -0.376 OA
BRANCH  31  32
ATOM     32  C   UNL A   1      37.763  21.436  25.460  1.00  0.00     0.202 C 
BRANCH  32  33
ATOM     33  C   UNL A   1      39.211  21.059  25.805  1.00  0.00     0.261 C 
BRANCH  33  34
ATOM     34  O   UNL A   1      39.885  22.044  26.602  1.00  0.00    -0.460 OA
BRANCH  34  35
ATOM     35  C   UNL A   1      41.218  21.896  26.807  1.00  0.00     0.338 C 
ATOM     36  O   UNL A   1      41.951  21.107  26.253  1.00  0.00    -0.246 OA
BRANCH  35  37
ATOM     37  C   UNL A   1      41.634  23.126  27.532  1.00  0.00     0.060 A 
ATOM     38  C   UNL A   1      41.724  24.360  26.875  1.00  0.00     0.016 A 
ATOM     39  C   UNL A   1      42.240  22.935  28.781  1.00  0.00     0.016 A 
ATOM     40  C   UNL A   1      42.529  25.359  27.414  1.00  0.00     0.010 A 
ATOM     41  C   UNL A   1      43.070  23.923  29.298  1.00  0.00     0.010 A 
ATOM     42  C   UNL A   1      43.253  25.116  28.593  1.00  0.00    -0.014 A 
BRANCH  42  43
ATOM     43  C   UNL A   1      44.065  26.207  29.145  1.00  0.00     0.031 A 
ATOM     44  C   UNL A   1      45.519  25.901  29.164  1.00  0.00     0.074 A 
ATOM     45  C   UNL A   1      43.616  27.444  29.445  1.00  0.00     0.049 A 
ATOM     46  N   UNL A   1      46.336  25.873  30.167  1.00  0.00    -0.248 NA
ATOM     47  C   UNL A   1      46.101  25.461  27.884  1.00  0.00     0.031 C 
ATOM     48  C   UNL A   1      42.292  27.980  29.141  1.00  0.00     0.029 A 
ATOM     49  N   UNL A   1      44.279  28.528  29.966  1.00  0.00    -0.354 N 
ATOM     50  C   UNL A   1      47.581  25.619  29.599  1.00  0.00     0.074 A 
ATOM     51  C   UNL A   1      47.358  25.208  28.236  1.00  0.00     0.031 C 
ATOM     52  C   UNL A   1      42.297  29.318  29.312  1.00  0.00     0.029 A 
ATOM     53  C   UNL A   1      43.606  29.736  29.779  1.00  0.00     0.049 A 
ATOM     54  H   UNL A   1      45.145  28.459  30.427  1.00  0.00     0.167 HD
ATOM     55  C   UNL A   1      48.749  26.008  30.169  1.00  0.00     0.034 A 
ATOM     56  C   UNL A   1      44.105  30.995  29.888  1.00  0.00     0.034 A 
ATOM     57  C   UNL A   1      48.637  26.327  31.557  1.00  0.00     0.049 A 
ATOM     58  C   UNL A   1      45.363  30.912  30.662  1.00  0.00     0.074 A 
ATOM     59  C   UNL A   1      48.290  25.631  32.695  1.00  0.00     0.029 A 
ATOM     60  N   UNL A   1      48.585  27.658  31.880  1.00  0.00    -0.354 N 
ATOM     61  N   UNL A   1      45.436  30.614  31.929  1.00  0.00    -0.248 NA
ATOM     62  C   UNL A   1      46.616  30.845  29.929  1.00  0.00     0.031 C 
ATOM     63  C   UNL A   1      47.658  26.586  33.541  1.00  0.00     0.029 A 
ATOM     64  C   UNL A   1      47.662  27.816  32.880  1.00  0.00     0.049 A 
ATOM     65  H   UNL A   1      49.119  28.375  31.465  1.00  0.00     0.167 HD
ATOM     66  C   UNL A   1      46.637  29.930  32.056  1.00  0.00     0.074 A 
ATOM     67  C   UNL A   1      47.371  30.213  30.830  1.00  0.00     0.031 C 
ATOM     68  C   UNL A   1      46.802  28.974  33.014  1.00  0.00     0.034 A 
BRANCH  55  69
ATOM     69  C   UNL A   1      49.917  26.420  29.325  1.00  0.00     0.023 A 
ATOM     70  C   UNL A   1      51.170  25.822  29.525  1.00  0.00     0.012 A 
ATOM     71  C   UNL A   1      49.846  27.528  28.448  1.00  0.00     0.148 A 
ATOM     72  C   UNL A   1      52.297  26.274  28.831  1.00  0.00     0.002 A 
ATOM     73  C   UNL A   1      50.943  27.911  27.691  1.00  0.00     0.091 A 
ATOM     74  F   UNL A   1      48.732  28.275  28.420  1.00  0.00    -0.205 F 
ATOM     75  C   UNL A   1      52.179  27.297  27.891  1.00  0.00     0.022 A 
BRANCH  73  76
ATOM     76  S   UNL A   1      50.790  29.148  26.400  1.00  0.00     0.127 S 
ATOM     77  O   UNL A   1      52.086  29.046  25.738  1.00  0.00    -0.237 OA
ATOM     78  O   UNL A   1      49.655  28.642  25.628  1.00  0.00    -0.237 OA
ATOM     79  O   UNL A   1      50.517  30.395  27.105  1.00  0.00    -0.744 OA
ENDBRANCH  73  76
ENDBRANCH  55  69
BRANCH  56  80
ATOM     80  C   UNL A   1      43.702  32.245  29.180  1.00  0.00     0.023 A 
ATOM     81  C   UNL A   1      43.226  33.352  29.917  1.00  0.00     0.012 A 
ATOM     82  C   UNL A   1      43.995  32.457  27.815  1.00  0.00     0.148 A 
ATOM     83  C   UNL A   1      43.075  34.615  29.323  1.00  0.00     0.002 A 
ATOM     84  C   UNL A   1      43.810  33.703  27.220  1.00  0.00     0.091 A 
ATOM     85  F   UNL A   1      44.561  31.474  27.105  1.00  0.00    -0.205 F 
ATOM     86  C   UNL A   1      43.365  34.792  27.973  1.00  0.00     0.022 A 
BRANCH  84  87
ATOM     87  S   UNL A   1      44.152  33.945  25.471  1.00  0.00     0.127 S 
ATOM     88  O   UNL A   1      43.820  32.640  24.897  1.00  0.00    -0.237 OA
ATOM     89  O   UNL A   1      43.228  35.019  25.123  1.00  0.00    -0.237 OA
ATOM     90  O   UNL A   1      45.572  34.272  25.408  1.00  0.00    -0.744 OA
ENDBRANCH  84  87
ENDBRANCH  56  80
BRANCH  68  91
ATOM     91  C   UNL A   1      45.832  28.950  34.164  1.00  0.00     0.023 A 
ATOM     92  C   UNL A   1      45.998  29.762  35.305  1.00  0.00     0.012 A 
ATOM     93  C   UNL A   1      44.635  28.231  34.000  1.00  0.00     0.148 A 
ATOM     94  C   UNL A   1      44.988  29.850  36.266  1.00  0.00     0.002 A 
ATOM     95  C   UNL A   1      43.618  28.352  34.938  1.00  0.00     0.091 A 
ATOM     96  F   UNL A   1      44.500  27.469  32.904  1.00  0.00    -0.205 F 
ATOM     97  C   UNL A   1      43.792  29.158  36.074  1.00  0.00     0.022 A 
BRANCH  95  98
ATOM     98  S   UNL A   1      42.014  27.582  34.699  1.00  0.00     0.127 S 
ATOM     99  O   UNL A   1      42.369  26.172  34.556  1.00  0.00    -0.237 OA
ATOM    100  O   UNL A   1      41.319  27.917  35.942  1.00  0.00    -0.237 OA
ATOM    101  O   UNL A   1      41.441  28.202  33.509  1.00  0.00    -0.744 OA
ENDBRANCH  95  98
ENDBRANCH  68  91
ENDBRANCH  42  43
ENDBRANCH  35  37
ENDBRANCH  34  35
ENDBRANCH  33  34
ENDBRANCH  32  33
ENDBRANCH  31  32
ENDBRANCH  30  31
ENDBRANCH   1  30
TORSDOF 25
ENDMDL
