MODEL 1
REMARK VINA RESULT:     -10.6      0.000      0.000
REMARK SMILES O=C(OCCOCCOCCOCCOC(=O)[C@@H]1C[N@H+](Cc2ccco2)CC12CCOCC2)c1ccc(-c2c3nc(c(-c4cccc(S(=O)(=O)[O-])c4F)c4ccc([nH]4)c(-c4cccc(S(=O)(=O)[O-])c4F)c4nc(c(-c5cccc(S(=O)(=O)[O-])c5F)c5ccc2[nH]5)C=C4)C=C3)cc1
REMARK SMILES IDX 8 1 7 2 6 3 5 4 4 5 3 6 2 7 1 8 34 9 35 10 96 11 36 12 95 13
REMARK SMILES IDX 37 14 38 15 39 16 89 17 40 18 94 19 88 20 90 21 41 22 93 23
REMARK SMILES IDX 87 24 86 25 42 27 74 28 54 29 73 30 55 31 58 32 72 33 91 34
REMARK SMILES IDX 56 35 57 36 71 38 92 39 59 40 43 41 44 42 52 43 45 44 47 45
REMARK SMILES IDX 53 46 46 47 48 48 49 49 50 50 51 51 75 52 76 53 84 54 77 55
REMARK SMILES IDX 79 56 85 57 78 58 80 59 81 60 82 61 83 62 60 63 61 64 69 65
REMARK SMILES IDX 62 66 64 67 70 68 63 69 65 70 66 71 67 72 68 73 9 74 10 75
REMARK SMILES IDX 11 76 12 77 13 78 14 79 15 80 16 81 17 82 18 83 19 84 28 85
REMARK SMILES IDX 20 86 27 87 29 88 33 89 30 91 32 92 31 93 21 94 22 95 23 96
REMARK SMILES IDX 26 97 24 98 25 99
REMARK H PARENT 90 26 58 37 20 90
REMARK Flexibility Score: inf
ROOT
ATOM      1  C   UNL A   1      34.318  21.739  26.530  1.00  0.00     0.188 C 
ENDROOT
BRANCH   1   2
ATOM      2  C   UNL A   1      34.040  20.671  25.498  1.00  0.00     0.188 C 
BRANCH   2   3
ATOM      3  O   UNL A   1      35.241  20.294  24.836  1.00  0.00    -0.376 OA
BRANCH   3   4
ATOM      4  C   UNL A   1      36.264  21.279  24.679  1.00  0.00     0.202 C 
BRANCH   4   5
ATOM      5  C   UNL A   1      37.652  20.776  25.067  1.00  0.00     0.261 C 
BRANCH   5   6
ATOM      6  O   UNL A   1      38.514  21.878  25.387  1.00  0.00    -0.460 OA
BRANCH   6   7
ATOM      7  C   UNL A   1      39.607  21.568  26.130  1.00  0.00     0.338 C 
ATOM      8  O   UNL A   1      40.139  20.469  26.223  1.00  0.00    -0.246 OA
BRANCH   7   9
ATOM      9  C   UNL A   1      39.994  22.773  26.894  1.00  0.00     0.060 A 
ATOM     10  C   UNL A   1      39.296  23.967  26.658  1.00  0.00     0.016 A 
ATOM     11  C   UNL A   1      41.006  22.735  27.853  1.00  0.00     0.016 A 
ATOM     12  C   UNL A   1      39.574  25.113  27.348  1.00  0.00     0.010 A 
ATOM     13  C   UNL A   1      41.376  23.928  28.480  1.00  0.00     0.010 A 
ATOM     14  C   UNL A   1      40.675  25.111  28.190  1.00  0.00    -0.014 A 
BRANCH  14  15
ATOM     15  C   UNL A   1      41.233  26.446  28.416  1.00  0.00     0.031 A 
ATOM     16  C   UNL A   1      42.536  26.746  27.740  1.00  0.00     0.074 A 
ATOM     17  C   UNL A   1      40.463  27.398  28.960  1.00  0.00     0.049 A 
ATOM     18  N   UNL A   1      43.241  27.840  27.751  1.00  0.00    -0.248 NA
ATOM     19  C   UNL A   1      43.109  25.670  26.906  1.00  0.00     0.031 C 
ATOM     20  C   UNL A   1      39.086  27.207  29.423  1.00  0.00     0.029 A 
ATOM     21  N   UNL A   1      40.717  28.718  29.186  1.00  0.00    -0.354 N 
ATOM     22  C   UNL A   1      44.370  27.558  26.992  1.00  0.00     0.074 A 
ATOM     23  C   UNL A   1      44.243  26.210  26.498  1.00  0.00     0.031 C 
ATOM     24  C   UNL A   1      38.625  28.373  29.906  1.00  0.00     0.029 A 
ATOM     25  C   UNL A   1      39.697  29.359  29.841  1.00  0.00     0.049 A 
ATOM     26  H   UNL A   1      41.549  29.166  28.906  1.00  0.00     0.167 HD
ATOM     27  C   UNL A   1      45.430  28.362  26.758  1.00  0.00     0.034 A 
ATOM     28  C   UNL A   1      39.677  30.593  30.373  1.00  0.00     0.034 A 
ATOM     29  C   UNL A   1      45.505  29.696  27.278  1.00  0.00     0.049 A 
ATOM     30  C   UNL A   1      40.915  31.433  30.202  1.00  0.00     0.074 A 
ATOM     31  C   UNL A   1      46.538  30.605  27.190  1.00  0.00     0.029 A 
ATOM     32  N   UNL A   1      44.487  30.302  28.007  1.00  0.00    -0.354 N 
ATOM     33  N   UNL A   1      42.012  31.156  29.534  1.00  0.00    -0.248 NA
ATOM     34  C   UNL A   1      40.915  32.750  30.844  1.00  0.00     0.031 C 
ATOM     35  C   UNL A   1      46.162  31.746  27.908  1.00  0.00     0.029 A 
ATOM     36  C   UNL A   1      44.873  31.569  28.395  1.00  0.00     0.049 A 
ATOM     37  H   UNL A   1      43.619  29.888  28.216  1.00  0.00     0.167 HD
ATOM     38  C   UNL A   1      42.822  32.277  29.645  1.00  0.00     0.074 A 
ATOM     39  C   UNL A   1      42.077  33.241  30.436  1.00  0.00     0.031 C 
ATOM     40  C   UNL A   1      44.067  32.498  29.150  1.00  0.00     0.034 A 
BRANCH  27  41
ATOM     41  C   UNL A   1      46.590  27.760  26.015  1.00  0.00     0.023 A 
ATOM     42  C   UNL A   1      46.649  27.801  24.606  1.00  0.00     0.012 A 
ATOM     43  C   UNL A   1      47.597  27.078  26.727  1.00  0.00     0.148 A 
ATOM     44  C   UNL A   1      47.661  27.128  23.919  1.00  0.00     0.002 A 
ATOM     45  C   UNL A   1      48.628  26.453  26.038  1.00  0.00     0.091 A 
ATOM     46  F   UNL A   1      47.502  27.017  28.063  1.00  0.00    -0.205 F 
ATOM     47  C   UNL A   1      48.652  26.460  24.635  1.00  0.00     0.022 A 
BRANCH  45  48
ATOM     48  S   UNL A   1      49.981  25.623  26.875  1.00  0.00     0.127 S 
ATOM     49  O   UNL A   1      50.946  25.458  25.787  1.00  0.00    -0.237 OA
ATOM     50  O   UNL A   1      50.365  26.608  27.885  1.00  0.00    -0.237 OA
ATOM     51  O   UNL A   1      49.428  24.386  27.410  1.00  0.00    -0.744 OA
ENDBRANCH  45  48
ENDBRANCH  27  41
BRANCH  28  52
ATOM     52  C   UNL A   1      38.483  31.070  31.122  1.00  0.00     0.023 A 
ATOM     53  C   UNL A   1      38.308  30.706  32.469  1.00  0.00     0.012 A 
ATOM     54  C   UNL A   1      37.532  31.916  30.513  1.00  0.00     0.148 A 
ATOM     55  C   UNL A   1      37.199  31.155  33.189  1.00  0.00     0.002 A 
ATOM     56  C   UNL A   1      36.460  32.404  31.248  1.00  0.00     0.091 A 
ATOM     57  F   UNL A   1      37.708  32.243  29.224  1.00  0.00    -0.205 F 
ATOM     58  C   UNL A   1      36.281  32.009  32.583  1.00  0.00     0.022 A 
BRANCH  56  59
ATOM     59  S   UNL A   1      35.298  33.605  30.589  1.00  0.00     0.127 S 
ATOM     60  O   UNL A   1      36.010  34.095  29.412  1.00  0.00    -0.237 OA
ATOM     61  O   UNL A   1      34.133  32.767  30.301  1.00  0.00    -0.237 OA
ATOM     62  O   UNL A   1      35.089  34.581  31.650  1.00  0.00    -0.744 OA
ENDBRANCH  56  59
ENDBRANCH  28  52
BRANCH  40  63
ATOM     63  C   UNL A   1      44.671  33.848  29.405  1.00  0.00     0.023 A 
ATOM     64  C   UNL A   1      45.565  34.034  30.476  1.00  0.00     0.012 A 
ATOM     65  C   UNL A   1      44.417  34.907  28.512  1.00  0.00     0.148 A 
ATOM     66  C   UNL A   1      46.176  35.270  30.673  1.00  0.00     0.002 A 
ATOM     67  C   UNL A   1      45.077  36.115  28.679  1.00  0.00     0.091 A 
ATOM     68  F   UNL A   1      43.546  34.707  27.512  1.00  0.00    -0.205 F 
ATOM     69  C   UNL A   1      45.944  36.304  29.766  1.00  0.00     0.022 A 
BRANCH  67  70
ATOM     70  S   UNL A   1      44.929  37.454  27.494  1.00  0.00     0.127 S 
ATOM     71  O   UNL A   1      45.157  38.625  28.339  1.00  0.00    -0.237 OA
ATOM     72  O   UNL A   1      46.013  37.156  26.556  1.00  0.00    -0.237 OA
ATOM     73  O   UNL A   1      43.592  37.344  26.926  1.00  0.00    -0.744 OA
ENDBRANCH  67  70
ENDBRANCH  40  63
ENDBRANCH  14  15
ENDBRANCH   7   9
ENDBRANCH   6   7
ENDBRANCH   5   6
ENDBRANCH   4   5
ENDBRANCH   3   4
ENDBRANCH   2   3
ENDBRANCH   1   2
BRANCH   1  74
ATOM     74  O   UNL A   1      33.064  22.139  27.054  1.00  0.00    -0.377 OA
BRANCH  74  75
ATOM     75  C   UNL A   1      32.577  23.362  26.530  1.00  0.00     0.188 C 
BRANCH  75  76
ATOM     76  C   UNL A   1      31.106  23.708  26.168  1.00  0.00     0.188 C 
BRANCH  76  77
ATOM     77  O   UNL A   1      30.741  24.225  24.907  1.00  0.00    -0.376 OA
BRANCH  77  78
ATOM     78  C   UNL A   1      31.109  23.710  23.644  1.00  0.00     0.202 C 
BRANCH  78  79
ATOM     79  C   UNL A   1      32.145  24.335  22.704  1.00  0.00     0.261 C 
BRANCH  79  80
ATOM     80  O   UNL A   1      31.852  25.664  22.265  1.00  0.00    -0.463 OA
BRANCH  80  81
ATOM     81  C   UNL A   1      32.310  26.673  23.050  1.00  0.00     0.315 C 
ATOM     82  O   UNL A   1      33.150  26.509  23.931  1.00  0.00    -0.252 OA
BRANCH  81  83
ATOM     83  C   UNL A   1      31.834  28.066  22.609  1.00  0.00     0.166 C 
ATOM     84  C   UNL A   1      32.796  29.080  23.216  1.00  0.00     0.278 C 
ATOM     85  C   UNL A   1      30.412  28.648  22.942  1.00  0.00     0.043 C 
ATOM     86  N   UNL A   1      32.127  29.576  24.410  1.00  0.00    -0.327 N 
ATOM     87  C   UNL A   1      30.721  29.708  24.042  1.00  0.00     0.270 C 
ATOM     88  C   UNL A   1      29.802  29.374  21.696  1.00  0.00     0.042 C 
ATOM     89  C   UNL A   1      29.315  27.645  23.359  1.00  0.00     0.042 C 
ATOM     90  H   UNL A   1      32.489  30.487  24.692  1.00  0.00     0.348 HD
ATOM     91  C   UNL A   1      28.422  29.973  21.990  1.00  0.00     0.161 C 
ATOM     92  C   UNL A   1      27.984  28.330  23.650  1.00  0.00     0.161 C 
ATOM     93  O   UNL A   1      27.510  28.994  22.480  1.00  0.00    -0.381 OA
BRANCH  86  94
ATOM     94  C   UNL A   1      32.429  28.837  25.653  1.00  0.00     0.338 C 
BRANCH  94  95
ATOM     95  C   UNL A   1      33.531  29.311  26.551  1.00  0.00     0.157 A 
ATOM     96  C   UNL A   1      34.572  28.676  27.202  1.00  0.00     0.052 A 
ATOM     97  O   UNL A   1      33.633  30.661  26.752  1.00  0.00    -0.463 OA
ATOM     98  C   UNL A   1      35.279  29.675  27.917  1.00  0.00     0.042 A 
ATOM     99  C   UNL A   1      34.683  30.869  27.590  1.00  0.00     0.195 A 
ENDBRANCH  94  95
ENDBRANCH  86  94
ENDBRANCH  81  83
ENDBRANCH  80  81
ENDBRANCH  79  80
ENDBRANCH  78  79
ENDBRANCH  77  78
ENDBRANCH  76  77
ENDBRANCH  75  76
ENDBRANCH  74  75
ENDBRANCH   1  74
TORSDOF 25
ENDMDL
MODEL 2
REMARK VINA RESULT:     -10.4      4.431     10.205
REMARK SMILES O=C(OCCOCCOCCOCCOC(=O)[C@@H]1C[N@H+](Cc2ccco2)CC12CCOCC2)c1ccc(-c2c3nc(c(-c4cccc(S(=O)(=O)[O-])c4F)c4ccc([nH]4)c(-c4cccc(S(=O)(=O)[O-])c4F)c4nc(c(-c5cccc(S(=O)(=O)[O-])c5F)c5ccc2[nH]5)C=C4)C=C3)cc1
REMARK SMILES IDX 8 1 7 2 6 3 5 4 4 5 3 6 2 7 1 8 34 9 35 10 96 11 36 12 95 13
REMARK SMILES IDX 37 14 38 15 39 16 89 17 40 18 94 19 88 20 90 21 41 22 93 23
REMARK SMILES IDX 87 24 86 25 42 27 74 28 54 29 73 30 55 31 58 32 72 33 91 34
REMARK SMILES IDX 56 35 57 36 71 38 92 39 59 40 43 41 44 42 52 43 45 44 47 45
REMARK SMILES IDX 53 46 46 47 48 48 49 49 50 50 51 51 75 52 76 53 84 54 77 55
REMARK SMILES IDX 79 56 85 57 78 58 80 59 81 60 82 61 83 62 60 63 61 64 69 65
REMARK SMILES IDX 62 66 64 67 70 68 63 69 65 70 66 71 67 72 68 73 9 74 10 75
REMARK SMILES IDX 11 76 12 77 13 78 14 79 15 80 16 81 17 82 18 83 19 84 28 85
REMARK SMILES IDX 20 86 27 87 29 88 33 89 30 91 32 92 31 93 21 94 22 95 23 96
REMARK SMILES IDX 26 97 24 98 25 99
REMARK H PARENT 90 26 58 37 20 90
REMARK Flexibility Score: inf
ROOT
ATOM      1  C   UNL A   1      33.030  28.964  25.373  1.00  0.00     0.188 C 
ENDROOT
BRANCH   1   2
ATOM      2  C   UNL A   1      32.147  29.711  26.345  1.00  0.00     0.188 C 
BRANCH   2   3
ATOM      3  O   UNL A   1      31.649  30.903  25.751  1.00  0.00    -0.376 OA
BRANCH   3   4
ATOM      4  C   UNL A   1      31.099  31.907  26.607  1.00  0.00     0.202 C 
BRANCH   4   5
ATOM      5  C   UNL A   1      32.098  32.998  26.979  1.00  0.00     0.261 C 
BRANCH   5   6
ATOM      6  O   UNL A   1      33.165  32.455  27.771  1.00  0.00    -0.460 OA
BRANCH   6   7
ATOM      7  C   UNL A   1      33.989  33.366  28.346  1.00  0.00     0.338 C 
ATOM      8  O   UNL A   1      33.724  34.536  28.594  1.00  0.00    -0.246 OA
BRANCH   7   9
ATOM      9  C   UNL A   1      35.309  32.730  28.538  1.00  0.00     0.060 A 
ATOM     10  C   UNL A   1      35.354  31.353  28.808  1.00  0.00     0.016 A 
ATOM     11  C   UNL A   1      36.494  33.457  28.427  1.00  0.00     0.016 A 
ATOM     12  C   UNL A   1      36.537  30.688  28.966  1.00  0.00     0.010 A 
ATOM     13  C   UNL A   1      37.702  32.811  28.701  1.00  0.00     0.010 A 
ATOM     14  C   UNL A   1      37.702  31.438  29.003  1.00  0.00    -0.014 A 
BRANCH  14  15
ATOM     15  C   UNL A   1      38.791  30.778  29.726  1.00  0.00     0.031 A 
ATOM     16  C   UNL A   1      38.868  31.044  31.199  1.00  0.00     0.074 A 
ATOM     17  C   UNL A   1      39.476  29.793  29.131  1.00  0.00     0.049 A 
ATOM     18  N   UNL A   1      39.709  30.584  32.079  1.00  0.00    -0.248 NA
ATOM     19  C   UNL A   1      37.828  31.927  31.765  1.00  0.00     0.031 C 
ATOM     20  C   UNL A   1      39.270  29.336  27.753  1.00  0.00     0.029 A 
ATOM     21  N   UNL A   1      40.456  28.979  29.616  1.00  0.00    -0.354 N 
ATOM     22  C   UNL A   1      39.346  31.178  33.282  1.00  0.00     0.074 A 
ATOM     23  C   UNL A   1      38.186  31.997  33.035  1.00  0.00     0.031 C 
ATOM     24  C   UNL A   1      40.127  28.333  27.498  1.00  0.00     0.029 A 
ATOM     25  C   UNL A   1      40.972  28.134  28.669  1.00  0.00     0.049 A 
ATOM     26  H   UNL A   1      40.762  28.997  30.553  1.00  0.00     0.167 HD
ATOM     27  C   UNL A   1      39.957  31.059  34.480  1.00  0.00     0.034 A 
ATOM     28  C   UNL A   1      42.050  27.334  28.746  1.00  0.00     0.034 A 
ATOM     29  C   UNL A   1      41.111  30.231  34.669  1.00  0.00     0.049 A 
ATOM     30  C   UNL A   1      42.789  27.304  30.057  1.00  0.00     0.074 A 
ATOM     31  C   UNL A   1      41.884  30.062  35.798  1.00  0.00     0.029 A 
ATOM     32  N   UNL A   1      41.667  29.436  33.670  1.00  0.00    -0.354 N 
ATOM     33  N   UNL A   1      42.487  27.906  31.186  1.00  0.00    -0.248 NA
ATOM     34  C   UNL A   1      44.002  26.486  30.115  1.00  0.00     0.031 C 
ATOM     35  C   UNL A   1      42.936  29.199  35.468  1.00  0.00     0.029 A 
ATOM     36  C   UNL A   1      42.786  28.787  34.150  1.00  0.00     0.049 A 
ATOM     37  H   UNL A   1      41.312  29.350  32.756  1.00  0.00     0.167 HD
ATOM     38  C   UNL A   1      43.454  27.514  32.100  1.00  0.00     0.074 A 
ATOM     39  C   UNL A   1      44.343  26.611  31.390  1.00  0.00     0.031 C 
ATOM     40  C   UNL A   1      43.608  27.866  33.402  1.00  0.00     0.034 A 
BRANCH  27  41
ATOM     41  C   UNL A   1      39.441  31.924  35.596  1.00  0.00     0.023 A 
ATOM     42  C   UNL A   1      38.415  31.469  36.451  1.00  0.00     0.012 A 
ATOM     43  C   UNL A   1      39.933  33.235  35.748  1.00  0.00     0.148 A 
ATOM     44  C   UNL A   1      37.852  32.325  37.401  1.00  0.00     0.002 A 
ATOM     45  C   UNL A   1      39.402  34.064  36.728  1.00  0.00     0.091 A 
ATOM     46  F   UNL A   1      40.880  33.663  34.900  1.00  0.00    -0.205 F 
ATOM     47  C   UNL A   1      38.349  33.618  37.542  1.00  0.00     0.022 A 
BRANCH  45  48
ATOM     48  S   UNL A   1      40.020  35.722  37.026  1.00  0.00     0.127 S 
ATOM     49  O   UNL A   1      39.593  36.420  35.814  1.00  0.00    -0.237 OA
ATOM     50  O   UNL A   1      39.293  36.104  38.238  1.00  0.00    -0.237 OA
ATOM     51  O   UNL A   1      41.460  35.593  37.197  1.00  0.00    -0.744 OA
ENDBRANCH  45  48
ENDBRANCH  27  41
BRANCH  28  52
ATOM     52  C   UNL A   1      42.490  26.549  27.561  1.00  0.00     0.023 A 
ATOM     53  C   UNL A   1      42.886  27.215  26.386  1.00  0.00     0.012 A 
ATOM     54  C   UNL A   1      42.554  25.140  27.603  1.00  0.00     0.148 A 
ATOM     55  C   UNL A   1      43.314  26.494  25.270  1.00  0.00     0.002 A 
ATOM     56  C   UNL A   1      43.031  24.430  26.509  1.00  0.00     0.091 A 
ATOM     57  F   UNL A   1      42.161  24.522  28.726  1.00  0.00    -0.205 F 
ATOM     58  C   UNL A   1      43.395  25.104  25.333  1.00  0.00     0.022 A 
BRANCH  56  59
ATOM     59  S   UNL A   1      43.286  22.652  26.543  1.00  0.00     0.127 S 
ATOM     60  O   UNL A   1      44.736  22.561  26.686  1.00  0.00    -0.237 OA
ATOM     61  O   UNL A   1      42.522  22.264  27.729  1.00  0.00    -0.237 OA
ATOM     62  O   UNL A   1      42.745  22.148  25.288  1.00  0.00    -0.744 OA
ENDBRANCH  56  59
ENDBRANCH  28  52
BRANCH  40  63
ATOM     63  C   UNL A   1      44.743  27.229  34.150  1.00  0.00     0.023 A 
ATOM     64  C   UNL A   1      46.015  27.832  34.156  1.00  0.00     0.012 A 
ATOM     65  C   UNL A   1      44.509  26.078  34.927  1.00  0.00     0.148 A 
ATOM     66  C   UNL A   1      47.051  27.278  34.903  1.00  0.00     0.002 A 
ATOM     67  C   UNL A   1      45.529  25.568  35.716  1.00  0.00     0.091 A 
ATOM     68  F   UNL A   1      43.293  25.515  34.887  1.00  0.00    -0.205 F 
ATOM     69  C   UNL A   1      46.803  26.156  35.694  1.00  0.00     0.022 A 
BRANCH  67  70
ATOM     70  S   UNL A   1      45.264  24.205  36.853  1.00  0.00     0.127 S 
ATOM     71  O   UNL A   1      44.241  24.753  37.741  1.00  0.00    -0.237 OA
ATOM     72  O   UNL A   1      44.795  23.146  35.958  1.00  0.00    -0.237 OA
ATOM     73  O   UNL A   1      46.556  23.941  37.474  1.00  0.00    -0.744 OA
ENDBRANCH  67  70
ENDBRANCH  40  63
ENDBRANCH  14  15
ENDBRANCH   7   9
ENDBRANCH   6   7
ENDBRANCH   5   6
ENDBRANCH   4   5
ENDBRANCH   3   4
ENDBRANCH   2   3
ENDBRANCH   1   2
BRANCH   1  74
ATOM     74  O   UNL A   1      32.262  28.753  24.201  1.00  0.00    -0.377 OA
BRANCH  74  75
ATOM     75  C   UNL A   1      31.107  27.956  24.397  1.00  0.00     0.188 C 
BRANCH  75  76
ATOM     76  C   UNL A   1      30.379  27.081  23.339  1.00  0.00     0.188 C 
BRANCH  76  77
ATOM     77  O   UNL A   1      30.694  27.140  21.966  1.00  0.00    -0.376 OA
BRANCH  77  78
ATOM     78  C   UNL A   1      31.876  26.672  21.349  1.00  0.00     0.202 C 
BRANCH  78  79
ATOM     79  C   UNL A   1      32.414  25.240  21.444  1.00  0.00     0.261 C 
BRANCH  79  80
ATOM     80  O   UNL A   1      33.788  25.124  21.822  1.00  0.00    -0.463 OA
BRANCH  80  81
ATOM     81  C   UNL A   1      34.064  24.264  22.836  1.00  0.00     0.315 C 
ATOM     82  O   UNL A   1      34.828  23.310  22.717  1.00  0.00    -0.252 OA
BRANCH  81  83
ATOM     83  C   UNL A   1      33.494  24.704  24.193  1.00  0.00     0.166 C 
ATOM     84  C   UNL A   1      34.668  25.187  25.036  1.00  0.00     0.278 C 
ATOM     85  C   UNL A   1      32.703  23.747  25.158  1.00  0.00     0.043 C 
ATOM     86  N   UNL A   1      35.007  24.065  25.898  1.00  0.00    -0.327 N 
ATOM     87  C   UNL A   1      33.731  23.481  26.299  1.00  0.00     0.270 C 
ATOM     88  C   UNL A   1      31.454  24.474  25.762  1.00  0.00     0.042 C 
ATOM     89  C   UNL A   1      32.122  22.452  24.553  1.00  0.00     0.042 C 
ATOM     90  H   UNL A   1      35.515  24.370  26.729  1.00  0.00     0.348 HD
ATOM     91  C   UNL A   1      30.669  23.577  26.725  1.00  0.00     0.161 C 
ATOM     92  C   UNL A   1      31.375  21.615  25.586  1.00  0.00     0.161 C 
ATOM     93  O   UNL A   1      30.274  22.352  26.112  1.00  0.00    -0.381 OA
BRANCH  86  94
ATOM     94  C   UNL A   1      36.027  23.142  25.357  1.00  0.00     0.338 C 
BRANCH  94  95
ATOM     95  C   UNL A   1      37.426  23.183  25.893  1.00  0.00     0.157 A 
ATOM     96  C   UNL A   1      38.168  24.145  26.554  1.00  0.00     0.052 A 
ATOM     97  O   UNL A   1      38.158  22.029  25.813  1.00  0.00    -0.463 OA
ATOM     98  C   UNL A   1      39.446  23.584  26.794  1.00  0.00     0.042 A 
ATOM     99  C   UNL A   1      39.382  22.287  26.346  1.00  0.00     0.195 A 
ENDBRANCH  94  95
ENDBRANCH  86  94
ENDBRANCH  81  83
ENDBRANCH  80  81
ENDBRANCH  79  80
ENDBRANCH  78  79
ENDBRANCH  77  78
ENDBRANCH  76  77
ENDBRANCH  75  76
ENDBRANCH  74  75
ENDBRANCH   1  74
TORSDOF 25
ENDMDL
MODEL 3
REMARK VINA RESULT:     -10.3      1.945      2.236
REMARK SMILES O=C(OCCOCCOCCOCCOC(=O)[C@@H]1C[N@H+](Cc2ccco2)CC12CCOCC2)c1ccc(-c2c3nc(c(-c4cccc(S(=O)(=O)[O-])c4F)c4ccc([nH]4)c(-c4cccc(S(=O)(=O)[O-])c4F)c4nc(c(-c5cccc(S(=O)(=O)[O-])c5F)c5ccc2[nH]5)C=C4)C=C3)cc1
REMARK SMILES IDX 8 1 7 2 6 3 5 4 4 5 3 6 2 7 1 8 34 9 35 10 96 11 36 12 95 13
REMARK SMILES IDX 37 14 38 15 39 16 89 17 40 18 94 19 88 20 90 21 41 22 93 23
REMARK SMILES IDX 87 24 86 25 42 27 74 28 54 29 73 30 55 31 58 32 72 33 91 34
REMARK SMILES IDX 56 35 57 36 71 38 92 39 59 40 43 41 44 42 52 43 45 44 47 45
REMARK SMILES IDX 53 46 46 47 48 48 49 49 50 50 51 51 75 52 76 53 84 54 77 55
REMARK SMILES IDX 79 56 85 57 78 58 80 59 81 60 82 61 83 62 60 63 61 64 69 65
REMARK SMILES IDX 62 66 64 67 70 68 63 69 65 70 66 71 67 72 68 73 9 74 10 75
REMARK SMILES IDX 11 76 12 77 13 78 14 79 15 80 16 81 17 82 18 83 19 84 28 85
REMARK SMILES IDX 20 86 27 87 29 88 33 89 30 91 32 92 31 93 21 94 22 95 23 96
REMARK SMILES IDX 26 97 24 98 25 99
REMARK H PARENT 90 26 58 37 20 90
REMARK Flexibility Score: inf
ROOT
ATOM      1  C   UNL A   1      34.049  22.717  26.549  1.00  0.00     0.188 C 
ENDROOT
BRANCH   1   2
ATOM      2  C   UNL A   1      33.873  21.236  26.310  1.00  0.00     0.188 C 
BRANCH   2   3
ATOM      3  O   UNL A   1      34.910  20.740  25.474  1.00  0.00    -0.376 OA
BRANCH   3   4
ATOM      4  C   UNL A   1      35.843  21.674  24.926  1.00  0.00     0.202 C 
BRANCH   4   5
ATOM      5  C   UNL A   1      37.299  21.273  25.143  1.00  0.00     0.261 C 
BRANCH   5   6
ATOM      6  O   UNL A   1      38.036  22.352  25.735  1.00  0.00    -0.460 OA
BRANCH   6   7
ATOM      7  C   UNL A   1      39.308  22.059  26.103  1.00  0.00     0.338 C 
ATOM      8  O   UNL A   1      39.892  20.996  25.930  1.00  0.00    -0.246 OA
BRANCH   7   9
ATOM      9  C   UNL A   1      39.848  23.220  26.843  1.00  0.00     0.060 A 
ATOM     10  C   UNL A   1      39.290  24.485  26.600  1.00  0.00     0.016 A 
ATOM     11  C   UNL A   1      40.865  23.075  27.786  1.00  0.00     0.016 A 
ATOM     12  C   UNL A   1      39.714  25.599  27.268  1.00  0.00     0.010 A 
ATOM     13  C   UNL A   1      41.383  24.224  28.389  1.00  0.00     0.010 A 
ATOM     14  C   UNL A   1      40.821  25.478  28.093  1.00  0.00    -0.014 A 
BRANCH  14  15
ATOM     15  C   UNL A   1      41.535  26.741  28.290  1.00  0.00     0.031 A 
ATOM     16  C   UNL A   1      42.841  26.886  27.571  1.00  0.00     0.074 A 
ATOM     17  C   UNL A   1      40.898  27.778  28.851  1.00  0.00     0.049 A 
ATOM     18  N   UNL A   1      43.667  27.892  27.551  1.00  0.00    -0.248 NA
ATOM     19  C   UNL A   1      43.260  25.748  26.727  1.00  0.00     0.031 C 
ATOM     20  C   UNL A   1      39.524  27.748  29.360  1.00  0.00     0.029 A 
ATOM     21  N   UNL A   1      41.309  29.061  29.058  1.00  0.00    -0.354 N 
ATOM     22  C   UNL A   1      44.731  27.479  26.758  1.00  0.00     0.074 A 
ATOM     23  C   UNL A   1      44.435  26.153  26.279  1.00  0.00     0.031 C 
ATOM     24  C   UNL A   1      39.216  28.961  29.848  1.00  0.00     0.029 A 
ATOM     25  C   UNL A   1      40.392  29.817  29.741  1.00  0.00     0.049 A 
ATOM     26  H   UNL A   1      42.178  29.409  28.749  1.00  0.00     0.167 HD
ATOM     27  C   UNL A   1      45.868  28.155  26.484  1.00  0.00     0.034 A 
ATOM     28  C   UNL A   1      40.531  31.048  30.263  1.00  0.00     0.034 A 
ATOM     29  C   UNL A   1      46.113  29.473  26.990  1.00  0.00     0.049 A 
ATOM     30  C   UNL A   1      41.850  31.739  30.046  1.00  0.00     0.074 A 
ATOM     31  C   UNL A   1      47.240  30.257  26.862  1.00  0.00     0.029 A 
ATOM     32  N   UNL A   1      45.195  30.196  27.747  1.00  0.00    -0.354 N 
ATOM     33  N   UNL A   1      42.886  31.335  29.345  1.00  0.00    -0.248 NA
ATOM     34  C   UNL A   1      42.022  33.050  30.677  1.00  0.00     0.031 C 
ATOM     35  C   UNL A   1      47.021  31.437  27.583  1.00  0.00     0.029 A 
ATOM     36  C   UNL A   1      45.736  31.411  28.112  1.00  0.00     0.049 A 
ATOM     37  H   UNL A   1      44.293  29.884  27.986  1.00  0.00     0.167 HD
ATOM     38  C   UNL A   1      43.822  32.356  29.421  1.00  0.00     0.074 A 
ATOM     39  C   UNL A   1      43.219  33.403  30.228  1.00  0.00     0.031 C 
ATOM     40  C   UNL A   1      45.068  32.430  28.885  1.00  0.00     0.034 A 
BRANCH  27  41
ATOM     41  C   UNL A   1      46.926  27.420  25.709  1.00  0.00     0.023 A 
ATOM     42  C   UNL A   1      47.754  26.466  26.337  1.00  0.00     0.012 A 
ATOM     43  C   UNL A   1      47.148  27.739  24.355  1.00  0.00     0.148 A 
ATOM     44  C   UNL A   1      48.817  25.884  25.643  1.00  0.00     0.002 A 
ATOM     45  C   UNL A   1      48.176  27.119  23.658  1.00  0.00     0.091 A 
ATOM     46  F   UNL A   1      46.376  28.677  23.786  1.00  0.00    -0.205 F 
ATOM     47  C   UNL A   1      49.024  26.206  24.304  1.00  0.00     0.022 A 
BRANCH  45  48
ATOM     48  S   UNL A   1      48.480  27.422  21.915  1.00  0.00     0.127 S 
ATOM     49  O   UNL A   1      47.199  27.980  21.483  1.00  0.00    -0.237 OA
ATOM     50  O   UNL A   1      49.580  28.386  21.961  1.00  0.00    -0.237 OA
ATOM     51  O   UNL A   1      48.826  26.132  21.334  1.00  0.00    -0.744 OA
ENDBRANCH  45  48
ENDBRANCH  27  41
BRANCH  28  52
ATOM     52  C   UNL A   1      39.424  31.662  31.045  1.00  0.00     0.023 A 
ATOM     53  C   UNL A   1      38.359  32.294  30.378  1.00  0.00     0.012 A 
ATOM     54  C   UNL A   1      39.403  31.591  32.455  1.00  0.00     0.148 A 
ATOM     55  C   UNL A   1      37.308  32.864  31.098  1.00  0.00     0.002 A 
ATOM     56  C   UNL A   1      38.328  32.112  33.163  1.00  0.00     0.091 A 
ATOM     57  F   UNL A   1      40.432  30.995  33.075  1.00  0.00    -0.205 F 
ATOM     58  C   UNL A   1      37.286  32.766  32.487  1.00  0.00     0.022 A 
BRANCH  56  59
ATOM     59  S   UNL A   1      38.155  31.922  34.941  1.00  0.00     0.127 S 
ATOM     60  O   UNL A   1      36.845  32.520  35.180  1.00  0.00    -0.237 OA
ATOM     61  O   UNL A   1      38.207  30.468  35.093  1.00  0.00    -0.237 OA
ATOM     62  O   UNL A   1      39.286  32.629  35.529  1.00  0.00    -0.744 OA
ENDBRANCH  56  59
ENDBRANCH  28  52
BRANCH  40  63
ATOM     63  C   UNL A   1      45.831  33.703  29.110  1.00  0.00     0.023 A 
ATOM     64  C   UNL A   1      46.713  33.818  30.200  1.00  0.00     0.012 A 
ATOM     65  C   UNL A   1      45.736  34.749  28.172  1.00  0.00     0.148 A 
ATOM     66  C   UNL A   1      47.470  34.974  30.371  1.00  0.00     0.002 A 
ATOM     67  C   UNL A   1      46.538  35.870  28.315  1.00  0.00     0.091 A 
ATOM     68  F   UNL A   1      44.873  34.620  27.153  1.00  0.00    -0.205 F 
ATOM     69  C   UNL A   1      47.394  35.992  29.421  1.00  0.00     0.022 A 
BRANCH  67  70
ATOM     70  S   UNL A   1      46.592  37.170  27.079  1.00  0.00     0.127 S 
ATOM     71  O   UNL A   1      45.212  37.650  27.093  1.00  0.00    -0.237 OA
ATOM     72  O   UNL A   1      47.568  38.098  27.651  1.00  0.00    -0.237 OA
ATOM     73  O   UNL A   1      47.019  36.532  25.841  1.00  0.00    -0.744 OA
ENDBRANCH  67  70
ENDBRANCH  40  63
ENDBRANCH  14  15
ENDBRANCH   7   9
ENDBRANCH   6   7
ENDBRANCH   5   6
ENDBRANCH   4   5
ENDBRANCH   3   4
ENDBRANCH   2   3
ENDBRANCH   1   2
BRANCH   1  74
ATOM     74  O   UNL A   1      32.826  23.194  27.082  1.00  0.00    -0.377 OA
BRANCH  74  75
ATOM     75  C   UNL A   1      32.255  24.271  26.358  1.00  0.00     0.188 C 
BRANCH  75  76
ATOM     76  C   UNL A   1      31.119  24.194  25.302  1.00  0.00     0.188 C 
BRANCH  76  77
ATOM     77  O   UNL A   1      31.346  23.764  23.978  1.00  0.00    -0.376 OA
BRANCH  77  78
ATOM     78  C   UNL A   1      32.593  23.439  23.398  1.00  0.00     0.202 C 
BRANCH  78  79
ATOM     79  C   UNL A   1      33.481  24.410  22.614  1.00  0.00     0.261 C 
BRANCH  79  80
ATOM     80  O   UNL A   1      32.900  25.688  22.339  1.00  0.00    -0.463 OA
BRANCH  80  81
ATOM     81  C   UNL A   1      33.240  26.698  23.181  1.00  0.00     0.315 C 
ATOM     82  O   UNL A   1      34.018  26.555  24.120  1.00  0.00    -0.252 OA
BRANCH  81  83
ATOM     83  C   UNL A   1      32.722  28.075  22.737  1.00  0.00     0.166 C 
ATOM     84  C   UNL A   1      33.655  29.118  23.339  1.00  0.00     0.278 C 
ATOM     85  C   UNL A   1      31.284  28.615  23.069  1.00  0.00     0.043 C 
ATOM     86  N   UNL A   1      32.973  29.598  24.532  1.00  0.00    -0.327 N 
ATOM     87  C   UNL A   1      31.563  29.687  24.166  1.00  0.00     0.270 C 
ATOM     88  C   UNL A   1      30.652  29.319  21.822  1.00  0.00     0.042 C 
ATOM     89  C   UNL A   1      30.219  27.581  23.491  1.00  0.00     0.042 C 
ATOM     90  H   UNL A   1      33.309  30.520  24.811  1.00  0.00     0.348 HD
ATOM     91  C   UNL A   1      29.255  29.878  22.116  1.00  0.00     0.161 C 
ATOM     92  C   UNL A   1      28.868  28.228  23.781  1.00  0.00     0.161 C 
ATOM     93  O   UNL A   1      28.373  28.874  22.611  1.00  0.00    -0.381 OA
BRANCH  86  94
ATOM     94  C   UNL A   1      33.298  28.871  25.778  1.00  0.00     0.338 C 
BRANCH  94  95
ATOM     95  C   UNL A   1      34.146  29.530  26.823  1.00  0.00     0.157 A 
ATOM     96  C   UNL A   1      35.417  29.291  27.312  1.00  0.00     0.052 A 
ATOM     97  O   UNL A   1      33.648  30.665  27.405  1.00  0.00    -0.463 OA
ATOM     98  C   UNL A   1      35.661  30.263  28.313  1.00  0.00     0.042 A 
ATOM     99  C   UNL A   1      34.565  31.090  28.314  1.00  0.00     0.195 A 
ENDBRANCH  94  95
ENDBRANCH  86  94
ENDBRANCH  81  83
ENDBRANCH  80  81
ENDBRANCH  79  80
ENDBRANCH  78  79
ENDBRANCH  77  78
ENDBRANCH  76  77
ENDBRANCH  75  76
ENDBRANCH  74  75
ENDBRANCH   1  74
TORSDOF 25
ENDMDL
