MODEL 1
REMARK VINA RESULT:      -8.4      0.000      0.000
REMARK SMILES O=C(OCCOCCOCCOCCOC(=O)[C@H]1CCCC[C@H]1C(=O)N1CCN(S(=O)(=O)c2ccc(F)cc2)CC1)c1ccc(-c2c3nc(c(-c4cccc(S(=O)(=O)[O-])c4F)c4ccc([nH]4)c(-c4cccc(S(=O)(=O)[O-])c4F)c4nc(c(-c5cccc(S(=O)(=O)[O-])c5F)c5ccc2[nH]5)C=C4)C=C3)cc1
REMARK SMILES IDX 9 1 8 2 7 3 6 4 5 5 4 6 3 7 2 8 1 9 42 10 43 11 104 12 44 13
REMARK SMILES IDX 103 14 45 15 46 16 47 17 97 18 48 19 102 20 96 21 98 22
REMARK SMILES IDX 49 23 101 24 95 25 94 26 50 28 82 29 62 30 81 31 63 32 66 33
REMARK SMILES IDX 80 34 99 35 64 36 65 37 79 39 100 40 67 41 51 42 52 43 60 44
REMARK SMILES IDX 53 45 55 46 61 47 54 48 56 49 57 50 58 51 59 52 83 53 84 54
REMARK SMILES IDX 92 55 85 56 87 57 93 58 86 59 88 60 89 61 90 62 91 63 68 64
REMARK SMILES IDX 69 65 77 66 70 67 72 68 78 69 71 70 73 71 74 72 75 73 76 74
REMARK SMILES IDX 10 75 11 76 12 77 13 78 14 79 15 80 16 81 17 82 18 83 19 84
REMARK SMILES IDX 23 85 20 86 22 87 21 88 24 89 25 90 26 91 27 92 41 93 28 94
REMARK SMILES IDX 40 95 29 96 30 97 31 98 32 99 33 100 34 101 39 102 35 103
REMARK SMILES IDX 38 104 36 105 37 106
REMARK H PARENT 98 27 66 38
REMARK Flexibility Score: inf
ROOT
ATOM      1  O   UNL A   1      47.278  29.411  25.841  1.00  0.00    -0.377 OA
ENDROOT
BRANCH   1   2
ATOM      2  C   UNL A   1      46.853  30.481  26.671  1.00  0.00     0.188 C 
BRANCH   2   3
ATOM      3  C   UNL A   1      45.549  31.197  26.362  1.00  0.00     0.188 C 
BRANCH   3   4
ATOM      4  O   UNL A   1      45.504  32.507  26.859  1.00  0.00    -0.376 OA
BRANCH   4   5
ATOM      5  C   UNL A   1      46.573  33.413  26.719  1.00  0.00     0.202 C 
BRANCH   5   6
ATOM      6  C   UNL A   1      46.182  34.870  26.564  1.00  0.00     0.261 C 
BRANCH   6   7
ATOM      7  O   UNL A   1      44.818  35.143  26.180  1.00  0.00    -0.460 OA
BRANCH   7   8
ATOM      8  C   UNL A   1      43.724  35.607  26.822  1.00  0.00     0.338 C 
ATOM      9  O   UNL A   1      42.964  36.342  26.191  1.00  0.00    -0.246 OA
BRANCH   8  10
ATOM     10  C   UNL A   1      43.337  35.264  28.220  1.00  0.00     0.060 A 
ATOM     11  C   UNL A   1      43.002  33.996  28.673  1.00  0.00     0.016 A 
ATOM     12  C   UNL A   1      43.413  36.288  29.178  1.00  0.00     0.016 A 
ATOM     13  C   UNL A   1      42.653  33.737  29.978  1.00  0.00     0.010 A 
ATOM     14  C   UNL A   1      43.089  36.042  30.517  1.00  0.00     0.010 A 
ATOM     15  C   UNL A   1      42.661  34.766  30.899  1.00  0.00    -0.014 A 
BRANCH  15  16
ATOM     16  C   UNL A   1      41.969  34.484  32.160  1.00  0.00     0.031 A 
ATOM     17  C   UNL A   1      40.482  34.384  32.109  1.00  0.00     0.074 A 
ATOM     18  C   UNL A   1      42.669  34.095  33.239  1.00  0.00     0.049 A 
ATOM     19  N   UNL A   1      39.651  34.105  33.069  1.00  0.00    -0.248 NA
ATOM     20  C   UNL A   1      39.844  34.587  30.794  1.00  0.00     0.031 C 
ATOM     21  C   UNL A   1      44.126  33.973  33.287  1.00  0.00     0.029 A 
ATOM     22  N   UNL A   1      42.260  33.698  34.483  1.00  0.00    -0.354 N 
ATOM     23  C   UNL A   1      38.394  34.176  32.496  1.00  0.00     0.074 A 
ATOM     24  C   UNL A   1      38.562  34.487  31.097  1.00  0.00     0.031 C 
ATOM     25  C   UNL A   1      44.479  33.539  34.504  1.00  0.00     0.029 A 
ATOM     26  C   UNL A   1      43.300  33.413  35.330  1.00  0.00     0.049 A 
ATOM     27  H   UNL A   1      41.312  33.623  34.743  1.00  0.00     0.167 HD
ATOM     28  C   UNL A   1      37.204  34.015  33.109  1.00  0.00     0.034 A 
ATOM     29  C   UNL A   1      43.324  33.122  36.642  1.00  0.00     0.034 A 
ATOM     30  C   UNL A   1      37.092  33.712  34.506  1.00  0.00     0.049 A 
ATOM     31  C   UNL A   1      42.000  33.045  37.327  1.00  0.00     0.074 A 
ATOM     32  C   UNL A   1      35.950  33.588  35.269  1.00  0.00     0.029 A 
ATOM     33  N   UNL A   1      38.175  33.508  35.354  1.00  0.00    -0.354 N 
ATOM     34  N   UNL A   1      40.809  33.167  36.794  1.00  0.00    -0.248 NA
ATOM     35  C   UNL A   1      42.005  32.783  38.768  1.00  0.00     0.031 C 
ATOM     36  C   UNL A   1      36.345  33.367  36.590  1.00  0.00     0.029 A 
ATOM     37  C   UNL A   1      37.730  33.284  36.640  1.00  0.00     0.049 A 
ATOM     38  H   UNL A   1      39.120  33.522  35.077  1.00  0.00     0.167 HD
ATOM     39  C   UNL A   1      39.912  32.976  37.827  1.00  0.00     0.074 A 
ATOM     40  C   UNL A   1      40.703  32.720  39.019  1.00  0.00     0.031 C 
ATOM     41  C   UNL A   1      38.559  33.010  37.790  1.00  0.00     0.034 A 
BRANCH  28  42
ATOM     42  C   UNL A   1      35.975  34.274  32.290  1.00  0.00     0.023 A 
ATOM     43  C   UNL A   1      35.574  33.381  31.277  1.00  0.00     0.012 A 
ATOM     44  C   UNL A   1      35.236  35.451  32.509  1.00  0.00     0.148 A 
ATOM     45  C   UNL A   1      34.477  33.676  30.470  1.00  0.00     0.002 A 
ATOM     46  C   UNL A   1      34.112  35.712  31.739  1.00  0.00     0.091 A 
ATOM     47  F   UNL A   1      35.666  36.311  33.444  1.00  0.00    -0.205 F 
ATOM     48  C   UNL A   1      33.740  34.835  30.707  1.00  0.00     0.022 A 
BRANCH  46  49
ATOM     49  S   UNL A   1      33.062  37.138  32.021  1.00  0.00     0.127 S 
ATOM     50  O   UNL A   1      32.608  37.444  30.665  1.00  0.00    -0.237 OA
ATOM     51  O   UNL A   1      32.032  36.584  32.900  1.00  0.00    -0.237 OA
ATOM     52  O   UNL A   1      33.909  38.151  32.636  1.00  0.00    -0.744 OA
ENDBRANCH  46  49
ENDBRANCH  28  42
BRANCH  29  53
ATOM     53  C   UNL A   1      44.620  32.888  37.342  1.00  0.00     0.023 A 
ATOM     54  C   UNL A   1      45.387  33.987  37.770  1.00  0.00     0.012 A 
ATOM     55  C   UNL A   1      45.057  31.583  37.660  1.00  0.00     0.148 A 
ATOM     56  C   UNL A   1      46.566  33.791  38.496  1.00  0.00     0.002 A 
ATOM     57  C   UNL A   1      46.222  31.397  38.400  1.00  0.00     0.091 A 
ATOM     58  F   UNL A   1      44.318  30.545  37.245  1.00  0.00    -0.205 F 
ATOM     59  C   UNL A   1      46.977  32.500  38.819  1.00  0.00     0.022 A 
BRANCH  57  60
ATOM     60  S   UNL A   1      46.790  29.759  38.880  1.00  0.00     0.127 S 
ATOM     61  O   UNL A   1      47.975  30.073  39.672  1.00  0.00    -0.237 OA
ATOM     62  O   UNL A   1      45.658  29.239  39.648  1.00  0.00    -0.237 OA
ATOM     63  O   UNL A   1      47.023  29.052  37.627  1.00  0.00    -0.744 OA
ENDBRANCH  57  60
ENDBRANCH  29  53
BRANCH  41  64
ATOM     64  C   UNL A   1      37.835  32.731  39.070  1.00  0.00     0.023 A 
ATOM     65  C   UNL A   1      37.179  31.500  39.253  1.00  0.00     0.012 A 
ATOM     66  C   UNL A   1      37.959  33.633  40.141  1.00  0.00     0.148 A 
ATOM     67  C   UNL A   1      36.654  31.170  40.498  1.00  0.00     0.002 A 
ATOM     68  C   UNL A   1      37.489  33.270  41.392  1.00  0.00     0.091 A 
ATOM     69  F   UNL A   1      38.571  34.806  39.921  1.00  0.00    -0.205 F 
ATOM     70  C   UNL A   1      36.827  32.043  41.571  1.00  0.00     0.022 A 
BRANCH  68  71
ATOM     71  S   UNL A   1      37.791  34.268  42.852  1.00  0.00     0.127 S 
ATOM     72  O   UNL A   1      37.538  35.616  42.346  1.00  0.00    -0.237 OA
ATOM     73  O   UNL A   1      36.783  33.762  43.781  1.00  0.00    -0.237 OA
ATOM     74  O   UNL A   1      39.169  34.004  43.247  1.00  0.00    -0.744 OA
ENDBRANCH  68  71
ENDBRANCH  41  64
ENDBRANCH  15  16
ENDBRANCH   8  10
ENDBRANCH   7   8
ENDBRANCH   6   7
ENDBRANCH   5   6
ENDBRANCH   4   5
ENDBRANCH   3   4
ENDBRANCH   2   3
ENDBRANCH   1   2
BRANCH   1  75
ATOM     75  C   UNL A   1      47.838  28.221  26.396  1.00  0.00     0.188 C 
BRANCH  75  76
ATOM     76  C   UNL A   1      46.984  26.938  26.445  1.00  0.00     0.188 C 
BRANCH  76  77
ATOM     77  O   UNL A   1      46.881  26.268  25.194  1.00  0.00    -0.376 OA
BRANCH  77  78
ATOM     78  C   UNL A   1      47.131  24.871  25.243  1.00  0.00     0.202 C 
BRANCH  78  79
ATOM     79  C   UNL A   1      45.939  23.963  24.897  1.00  0.00     0.261 C 
BRANCH  79  80
ATOM     80  O   UNL A   1      44.624  24.127  25.496  1.00  0.00    -0.463 OA
BRANCH  80  81
ATOM     81  C   UNL A   1      43.968  23.224  26.245  1.00  0.00     0.309 C 
ATOM     82  O   UNL A   1      44.412  22.700  27.258  1.00  0.00    -0.252 OA
BRANCH  81  83
ATOM     83  C   UNL A   1      42.587  22.848  25.737  1.00  0.00     0.111 C 
ATOM     84  C   UNL A   1      42.301  21.340  25.815  1.00  0.00     0.016 C 
ATOM     85  C   UNL A   1      41.463  23.652  26.403  1.00  0.00     0.093 C 
ATOM     86  C   UNL A   1      42.097  20.846  27.242  1.00  0.00     0.001 C 
ATOM     87  C   UNL A   1      41.272  23.216  27.858  1.00  0.00     0.014 C 
ATOM     88  C   UNL A   1      41.061  21.695  27.978  1.00  0.00     0.001 C 
BRANCH  85  89
ATOM     89  C   UNL A   1      41.518  25.181  26.169  1.00  0.00     0.226 C 
ATOM     90  O   UNL A   1      41.823  25.636  25.066  1.00  0.00    -0.275 OA
ATOM     91  N   UNL A   1      41.314  26.003  27.254  1.00  0.00    -0.340 N 
ATOM     92  C   UNL A   1      40.103  26.804  27.434  1.00  0.00     0.136 C 
ATOM     93  C   UNL A   1      42.459  26.713  27.798  1.00  0.00     0.136 C 
ATOM     94  C   UNL A   1      39.843  27.155  28.933  1.00  0.00     0.124 C 
ATOM     95  C   UNL A   1      42.260  26.718  29.301  1.00  0.00     0.124 C 
ATOM     96  N   UNL A   1      41.080  27.488  29.707  1.00  0.00    -0.194 NA
BRANCH  96  97
ATOM     97  S   UNL A   1      41.339  28.976  30.457  1.00  0.00     0.243 S 
ATOM     98  O   UNL A   1      42.240  28.738  31.556  1.00  0.00    -0.207 OA
ATOM     99  O   UNL A   1      41.644  29.930  29.403  1.00  0.00    -0.207 OA
BRANCH  97 100
ATOM    100  C   UNL A   1      39.717  29.365  31.123  1.00  0.00     0.082 A 
ATOM    101  C   UNL A   1      39.012  30.472  30.633  1.00  0.00     0.025 A 
ATOM    102  C   UNL A   1      39.175  28.617  32.170  1.00  0.00     0.025 A 
ATOM    103  C   UNL A   1      37.924  30.968  31.341  1.00  0.00     0.040 A 
ATOM    104  C   UNL A   1      38.000  29.051  32.798  1.00  0.00     0.040 A 
ATOM    105  C   UNL A   1      37.422  30.254  32.419  1.00  0.00     0.123 A 
ATOM    106  F   UNL A   1      36.364  30.732  33.086  1.00  0.00    -0.207 F 
ENDBRANCH  97 100
ENDBRANCH  96  97
ENDBRANCH  85  89
ENDBRANCH  81  83
ENDBRANCH  80  81
ENDBRANCH  79  80
ENDBRANCH  78  79
ENDBRANCH  77  78
ENDBRANCH  76  77
ENDBRANCH  75  76
ENDBRANCH   1  75
TORSDOF 26
ENDMDL
MODEL 2
REMARK VINA RESULT:      -8.1      6.805     10.659
REMARK SMILES O=C(OCCOCCOCCOCCOC(=O)[C@H]1CCCC[C@H]1C(=O)N1CCN(S(=O)(=O)c2ccc(F)cc2)CC1)c1ccc(-c2c3nc(c(-c4cccc(S(=O)(=O)[O-])c4F)c4ccc([nH]4)c(-c4cccc(S(=O)(=O)[O-])c4F)c4nc(c(-c5cccc(S(=O)(=O)[O-])c5F)c5ccc2[nH]5)C=C4)C=C3)cc1
REMARK SMILES IDX 9 1 8 2 7 3 6 4 5 5 4 6 3 7 2 8 1 9 42 10 43 11 104 12 44 13
REMARK SMILES IDX 103 14 45 15 46 16 47 17 97 18 48 19 102 20 96 21 98 22
REMARK SMILES IDX 49 23 101 24 95 25 94 26 50 28 82 29 62 30 81 31 63 32 66 33
REMARK SMILES IDX 80 34 99 35 64 36 65 37 79 39 100 40 67 41 51 42 52 43 60 44
REMARK SMILES IDX 53 45 55 46 61 47 54 48 56 49 57 50 58 51 59 52 83 53 84 54
REMARK SMILES IDX 92 55 85 56 87 57 93 58 86 59 88 60 89 61 90 62 91 63 68 64
REMARK SMILES IDX 69 65 77 66 70 67 72 68 78 69 71 70 73 71 74 72 75 73 76 74
REMARK SMILES IDX 10 75 11 76 12 77 13 78 14 79 15 80 16 81 17 82 18 83 19 84
REMARK SMILES IDX 23 85 20 86 22 87 21 88 24 89 25 90 26 91 27 92 41 93 28 94
REMARK SMILES IDX 40 95 29 96 30 97 31 98 32 99 33 100 34 101 39 102 35 103
REMARK SMILES IDX 38 104 36 105 37 106
REMARK H PARENT 98 27 66 38
REMARK Flexibility Score: inf
ROOT
ATOM      1  O   UNL A   1      38.560  30.316  28.483  1.00  0.00    -0.377 OA
ENDROOT
BRANCH   1   2
ATOM      2  C   UNL A   1      38.234  31.310  29.444  1.00  0.00     0.188 C 
BRANCH   2   3
ATOM      3  C   UNL A   1      37.717  30.890  30.809  1.00  0.00     0.188 C 
BRANCH   3   4
ATOM      4  O   UNL A   1      38.346  31.558  31.870  1.00  0.00    -0.376 OA
BRANCH   4   5
ATOM      5  C   UNL A   1      38.825  30.891  33.014  1.00  0.00     0.202 C 
BRANCH   5   6
ATOM      6  C   UNL A   1      37.921  30.944  34.230  1.00  0.00     0.261 C 
BRANCH   6   7
ATOM      7  O   UNL A   1      36.886  31.948  34.232  1.00  0.00    -0.460 OA
BRANCH   7   8
ATOM      8  C   UNL A   1      36.649  33.069  34.947  1.00  0.00     0.338 C 
ATOM      9  O   UNL A   1      35.533  33.580  34.851  1.00  0.00    -0.246 OA
BRANCH   8  10
ATOM     10  C   UNL A   1      37.617  33.714  35.880  1.00  0.00     0.060 A 
ATOM     11  C   UNL A   1      38.620  34.599  35.511  1.00  0.00     0.016 A 
ATOM     12  C   UNL A   1      37.437  33.485  37.253  1.00  0.00     0.016 A 
ATOM     13  C   UNL A   1      39.486  35.167  36.418  1.00  0.00     0.010 A 
ATOM     14  C   UNL A   1      38.289  34.072  38.196  1.00  0.00     0.010 A 
ATOM     15  C   UNL A   1      39.346  34.877  37.761  1.00  0.00    -0.014 A 
BRANCH  15  16
ATOM     16  C   UNL A   1      40.488  35.246  38.603  1.00  0.00     0.031 A 
ATOM     17  C   UNL A   1      40.366  36.502  39.397  1.00  0.00     0.074 A 
ATOM     18  C   UNL A   1      41.474  34.360  38.824  1.00  0.00     0.049 A 
ATOM     19  N   UNL A   1      41.211  37.018  40.239  1.00  0.00    -0.248 NA
ATOM     20  C   UNL A   1      39.110  37.263  39.254  1.00  0.00     0.031 C 
ATOM     21  C   UNL A   1      41.542  33.024  38.232  1.00  0.00     0.029 A 
ATOM     22  N   UNL A   1      42.583  34.428  39.624  1.00  0.00    -0.354 N 
ATOM     23  C   UNL A   1      40.628  38.198  40.666  1.00  0.00     0.074 A 
ATOM     24  C   UNL A   1      39.341  38.312  40.024  1.00  0.00     0.031 C 
ATOM     25  C   UNL A   1      42.642  32.410  38.688  1.00  0.00     0.029 A 
ATOM     26  C   UNL A   1      43.379  33.313  39.541  1.00  0.00     0.049 A 
ATOM     27  H   UNL A   1      42.788  35.199  40.201  1.00  0.00     0.167 HD
ATOM     28  C   UNL A   1      41.149  39.111  41.509  1.00  0.00     0.034 A 
ATOM     29  C   UNL A   1      44.592  33.048  40.056  1.00  0.00     0.034 A 
ATOM     30  C   UNL A   1      42.438  38.952  42.117  1.00  0.00     0.049 A 
ATOM     31  C   UNL A   1      45.198  34.113  40.907  1.00  0.00     0.074 A 
ATOM     32  C   UNL A   1      43.115  39.830  42.936  1.00  0.00     0.029 A 
ATOM     33  N   UNL A   1      43.253  37.839  41.945  1.00  0.00    -0.354 N 
ATOM     34  N   UNL A   1      44.667  35.256  41.266  1.00  0.00    -0.248 NA
ATOM     35  C   UNL A   1      46.542  33.867  41.432  1.00  0.00     0.031 C 
ATOM     36  C   UNL A   1      44.365  39.272  43.214  1.00  0.00     0.029 A 
ATOM     37  C   UNL A   1      44.441  38.017  42.624  1.00  0.00     0.049 A 
ATOM     38  H   UNL A   1      43.019  37.041  41.418  1.00  0.00     0.167 HD
ATOM     39  C   UNL A   1      45.600  35.866  42.082  1.00  0.00     0.074 A 
ATOM     40  C   UNL A   1      46.730  34.956  42.169  1.00  0.00     0.031 C 
ATOM     41  C   UNL A   1      45.527  37.068  42.700  1.00  0.00     0.034 A 
BRANCH  28  42
ATOM     42  C   UNL A   1      40.370  40.377  41.709  1.00  0.00     0.023 A 
ATOM     43  C   UNL A   1      40.416  41.417  40.760  1.00  0.00     0.012 A 
ATOM     44  C   UNL A   1      39.615  40.544  42.885  1.00  0.00     0.148 A 
ATOM     45  C   UNL A   1      39.752  42.619  40.998  1.00  0.00     0.002 A 
ATOM     46  C   UNL A   1      38.912  41.721  43.090  1.00  0.00     0.091 A 
ATOM     47  F   UNL A   1      39.627  39.560  43.796  1.00  0.00    -0.205 F 
ATOM     48  C   UNL A   1      38.992  42.768  42.156  1.00  0.00     0.022 A 
BRANCH  46  49
ATOM     49  S   UNL A   1      37.849  41.971  44.513  1.00  0.00     0.127 S 
ATOM     50  O   UNL A   1      37.325  43.313  44.258  1.00  0.00    -0.237 OA
ATOM     51  O   UNL A   1      36.872  40.894  44.353  1.00  0.00    -0.237 OA
ATOM     52  O   UNL A   1      38.705  41.851  45.685  1.00  0.00    -0.744 OA
ENDBRANCH  46  49
ENDBRANCH  28  42
BRANCH  29  53
ATOM     53  C   UNL A   1      45.263  31.746  39.776  1.00  0.00     0.023 A 
ATOM     54  C   UNL A   1      46.169  31.648  38.704  1.00  0.00     0.012 A 
ATOM     55  C   UNL A   1      45.074  30.627  40.616  1.00  0.00     0.148 A 
ATOM     56  C   UNL A   1      46.869  30.460  38.471  1.00  0.00     0.002 A 
ATOM     57  C   UNL A   1      45.788  29.453  40.388  1.00  0.00     0.091 A 
ATOM     58  F   UNL A   1      44.207  30.733  41.633  1.00  0.00    -0.205 F 
ATOM     59  C   UNL A   1      46.687  29.368  39.317  1.00  0.00     0.022 A 
BRANCH  57  60
ATOM     60  S   UNL A   1      45.625  28.020  41.464  1.00  0.00     0.127 S 
ATOM     61  O   UNL A   1      45.811  28.616  42.784  1.00  0.00    -0.237 OA
ATOM     62  O   UNL A   1      44.264  27.561  41.185  1.00  0.00    -0.237 OA
ATOM     63  O   UNL A   1      46.660  27.093  41.026  1.00  0.00    -0.744 OA
ENDBRANCH  57  60
ENDBRANCH  29  53
BRANCH  41  64
ATOM     64  C   UNL A   1      46.687  37.465  43.560  1.00  0.00     0.023 A 
ATOM     65  C   UNL A   1      46.734  37.061  44.906  1.00  0.00     0.012 A 
ATOM     66  C   UNL A   1      47.797  38.094  42.969  1.00  0.00     0.148 A 
ATOM     67  C   UNL A   1      47.885  37.280  45.657  1.00  0.00     0.002 A 
ATOM     68  C   UNL A   1      48.959  38.250  43.704  1.00  0.00     0.091 A 
ATOM     69  F   UNL A   1      47.704  38.484  41.689  1.00  0.00    -0.205 F 
ATOM     70  C   UNL A   1      49.002  37.854  45.052  1.00  0.00     0.022 A 
BRANCH  68  71
ATOM     71  S   UNL A   1      50.481  38.849  42.968  1.00  0.00     0.127 S 
ATOM     72  O   UNL A   1      50.472  38.170  41.674  1.00  0.00    -0.237 OA
ATOM     73  O   UNL A   1      50.244  40.291  42.907  1.00  0.00    -0.237 OA
ATOM     74  O   UNL A   1      51.554  38.448  43.869  1.00  0.00    -0.744 OA
ENDBRANCH  68  71
ENDBRANCH  41  64
ENDBRANCH  15  16
ENDBRANCH   8  10
ENDBRANCH   7   8
ENDBRANCH   6   7
ENDBRANCH   5   6
ENDBRANCH   4   5
ENDBRANCH   3   4
ENDBRANCH   2   3
ENDBRANCH   1   2
BRANCH   1  75
ATOM     75  C   UNL A   1      37.571  29.416  27.987  1.00  0.00     0.188 C 
BRANCH  75  76
ATOM     76  C   UNL A   1      36.223  29.976  27.487  1.00  0.00     0.188 C 
BRANCH  76  77
ATOM     77  O   UNL A   1      35.097  29.199  27.878  1.00  0.00    -0.376 OA
BRANCH  77  78
ATOM     78  C   UNL A   1      33.879  29.551  27.238  1.00  0.00     0.202 C 
BRANCH  78  79
ATOM     79  C   UNL A   1      32.809  28.447  27.179  1.00  0.00     0.261 C 
BRANCH  79  80
ATOM     80  O   UNL A   1      32.508  27.707  25.963  1.00  0.00    -0.463 OA
BRANCH  80  81
ATOM     81  C   UNL A   1      31.338  27.124  25.651  1.00  0.00     0.309 C 
ATOM     82  O   UNL A   1      30.656  26.465  26.425  1.00  0.00    -0.252 OA
BRANCH  81  83
ATOM     83  C   UNL A   1      30.889  27.311  24.213  1.00  0.00     0.111 C 
ATOM     84  C   UNL A   1      31.004  28.764  23.724  1.00  0.00     0.016 C 
ATOM     85  C   UNL A   1      31.581  26.350  23.237  1.00  0.00     0.093 C 
ATOM     86  C   UNL A   1      32.446  29.207  23.510  1.00  0.00     0.001 C 
ATOM     87  C   UNL A   1      33.050  26.737  23.045  1.00  0.00     0.014 C 
ATOM     88  C   UNL A   1      33.205  28.213  22.631  1.00  0.00     0.001 C 
BRANCH  85  89
ATOM     89  C   UNL A   1      31.318  24.847  23.493  1.00  0.00     0.226 C 
ATOM     90  O   UNL A   1      30.194  24.371  23.334  1.00  0.00    -0.275 OA
ATOM     91  N   UNL A   1      32.352  24.093  23.999  1.00  0.00    -0.340 N 
ATOM     92  C   UNL A   1      33.071  23.090  23.212  1.00  0.00     0.136 C 
ATOM     93  C   UNL A   1      32.272  23.664  25.385  1.00  0.00     0.136 C 
ATOM     94  C   UNL A   1      34.505  22.820  23.766  1.00  0.00     0.124 C 
ATOM     95  C   UNL A   1      33.688  23.744  25.921  1.00  0.00     0.124 C 
ATOM     96  N   UNL A   1      34.590  22.796  25.259  1.00  0.00    -0.194 NA
BRANCH  96  97
ATOM     97  S   UNL A   1      35.096  21.453  26.144  1.00  0.00     0.243 S 
ATOM     98  O   UNL A   1      36.532  21.398  26.036  1.00  0.00    -0.207 OA
ATOM     99  O   UNL A   1      34.423  21.521  27.432  1.00  0.00    -0.207 OA
BRANCH  97 100
ATOM    100  C   UNL A   1      34.401  20.085  25.211  1.00  0.00     0.082 A 
ATOM    101  C   UNL A   1      33.010  19.958  25.098  1.00  0.00     0.025 A 
ATOM    102  C   UNL A   1      35.226  19.109  24.649  1.00  0.00     0.025 A 
ATOM    103  C   UNL A   1      32.459  18.758  24.664  1.00  0.00     0.040 A 
ATOM    104  C   UNL A   1      34.657  17.957  24.091  1.00  0.00     0.040 A 
ATOM    105  C   UNL A   1      33.285  17.764  24.160  1.00  0.00     0.123 A 
ATOM    106  F   UNL A   1      32.744  16.617  23.730  1.00  0.00    -0.207 F 
ENDBRANCH  97 100
ENDBRANCH  96  97
ENDBRANCH  85  89
ENDBRANCH  81  83
ENDBRANCH  80  81
ENDBRANCH  79  80
ENDBRANCH  78  79
ENDBRANCH  77  78
ENDBRANCH  76  77
ENDBRANCH  75  76
ENDBRANCH   1  75
TORSDOF 26
ENDMDL
MODEL 3
REMARK VINA RESULT:      -7.7      6.695     11.624
REMARK SMILES O=C(OCCOCCOCCOCCOC(=O)[C@H]1CCCC[C@H]1C(=O)N1CCN(S(=O)(=O)c2ccc(F)cc2)CC1)c1ccc(-c2c3nc(c(-c4cccc(S(=O)(=O)[O-])c4F)c4ccc([nH]4)c(-c4cccc(S(=O)(=O)[O-])c4F)c4nc(c(-c5cccc(S(=O)(=O)[O-])c5F)c5ccc2[nH]5)C=C4)C=C3)cc1
REMARK SMILES IDX 9 1 8 2 7 3 6 4 5 5 4 6 3 7 2 8 1 9 42 10 43 11 104 12 44 13
REMARK SMILES IDX 103 14 45 15 46 16 47 17 97 18 48 19 102 20 96 21 98 22
REMARK SMILES IDX 49 23 101 24 95 25 94 26 50 28 82 29 62 30 81 31 63 32 66 33
REMARK SMILES IDX 80 34 99 35 64 36 65 37 79 39 100 40 67 41 51 42 52 43 60 44
REMARK SMILES IDX 53 45 55 46 61 47 54 48 56 49 57 50 58 51 59 52 83 53 84 54
REMARK SMILES IDX 92 55 85 56 87 57 93 58 86 59 88 60 89 61 90 62 91 63 68 64
REMARK SMILES IDX 69 65 77 66 70 67 72 68 78 69 71 70 73 71 74 72 75 73 76 74
REMARK SMILES IDX 10 75 11 76 12 77 13 78 14 79 15 80 16 81 17 82 18 83 19 84
REMARK SMILES IDX 23 85 20 86 22 87 21 88 24 89 25 90 26 91 27 92 41 93 28 94
REMARK SMILES IDX 40 95 29 96 30 97 31 98 32 99 33 100 34 101 39 102 35 103
REMARK SMILES IDX 38 104 36 105 37 106
REMARK H PARENT 98 27 66 38
REMARK Flexibility Score: inf
ROOT
ATOM      1  O   UNL A   1      57.314  25.701  36.009  1.00  0.00    -0.377 OA
ENDROOT
BRANCH   1   2
ATOM      2  C   UNL A   1      56.148  26.493  36.181  1.00  0.00     0.188 C 
BRANCH   2   3
ATOM      3  C   UNL A   1      55.145  26.124  37.261  1.00  0.00     0.188 C 
BRANCH   3   4
ATOM      4  O   UNL A   1      53.989  26.918  37.239  1.00  0.00    -0.376 OA
BRANCH   4   5
ATOM      5  C   UNL A   1      53.799  27.964  36.315  1.00  0.00     0.202 C 
BRANCH   5   6
ATOM      6  C   UNL A   1      52.500  27.921  35.534  1.00  0.00     0.261 C 
BRANCH   6   7
ATOM      7  O   UNL A   1      52.325  26.819  34.619  1.00  0.00    -0.460 OA
BRANCH   7   8
ATOM      8  C   UNL A   1      51.913  26.704  33.338  1.00  0.00     0.338 C 
ATOM      9  O   UNL A   1      52.766  26.445  32.488  1.00  0.00    -0.246 OA
BRANCH   8  10
ATOM     10  C   UNL A   1      50.501  26.819  32.874  1.00  0.00     0.060 A 
ATOM     11  C   UNL A   1      50.055  27.648  31.855  1.00  0.00     0.016 A 
ATOM     12  C   UNL A   1      49.563  25.945  33.448  1.00  0.00     0.016 A 
ATOM     13  C   UNL A   1      48.736  27.713  31.468  1.00  0.00     0.010 A 
ATOM     14  C   UNL A   1      48.221  25.974  33.051  1.00  0.00     0.010 A 
ATOM     15  C   UNL A   1      47.808  26.900  32.089  1.00  0.00    -0.014 A 
BRANCH  15  16
ATOM     16  C   UNL A   1      46.405  27.263  31.858  1.00  0.00     0.031 A 
ATOM     17  C   UNL A   1      45.873  28.428  32.621  1.00  0.00     0.074 A 
ATOM     18  C   UNL A   1      45.731  26.720  30.830  1.00  0.00     0.049 A 
ATOM     19  N   UNL A   1      44.691  28.966  32.564  1.00  0.00    -0.248 NA
ATOM     20  C   UNL A   1      46.804  29.103  33.545  1.00  0.00     0.031 C 
ATOM     21  C   UNL A   1      46.275  25.717  29.913  1.00  0.00     0.029 A 
ATOM     22  N   UNL A   1      44.467  26.952  30.360  1.00  0.00    -0.354 N 
ATOM     23  C   UNL A   1      44.711  29.989  33.496  1.00  0.00     0.074 A 
ATOM     24  C   UNL A   1      46.028  30.028  34.083  1.00  0.00     0.031 C 
ATOM     25  C   UNL A   1      45.339  25.421  29.001  1.00  0.00     0.029 A 
ATOM     26  C   UNL A   1      44.129  26.152  29.297  1.00  0.00     0.049 A 
ATOM     27  H   UNL A   1      43.861  27.626  30.745  1.00  0.00     0.167 HD
ATOM     28  C   UNL A   1      43.694  30.805  33.839  1.00  0.00     0.034 A 
ATOM     29  C   UNL A   1      42.965  25.984  28.647  1.00  0.00     0.034 A 
ATOM     30  C   UNL A   1      42.399  30.720  33.228  1.00  0.00     0.049 A 
ATOM     31  C   UNL A   1      41.822  26.826  29.106  1.00  0.00     0.074 A 
ATOM     32  C   UNL A   1      41.261  31.439  33.526  1.00  0.00     0.029 A 
ATOM     33  N   UNL A   1      42.071  29.839  32.204  1.00  0.00    -0.354 N 
ATOM     34  N   UNL A   1      41.827  27.757  30.028  1.00  0.00    -0.248 NA
ATOM     35  C   UNL A   1      40.531  26.619  28.448  1.00  0.00     0.031 C 
ATOM     36  C   UNL A   1      40.229  30.952  32.721  1.00  0.00     0.029 A 
ATOM     37  C   UNL A   1      40.739  29.977  31.873  1.00  0.00     0.049 A 
ATOM     38  H   UNL A   1      42.697  29.209  31.778  1.00  0.00     0.167 HD
ATOM     39  C   UNL A   1      40.545  28.271  30.053  1.00  0.00     0.074 A 
ATOM     40  C   UNL A   1      39.791  27.548  29.042  1.00  0.00     0.031 C 
ATOM     41  C   UNL A   1      40.040  29.249  30.841  1.00  0.00     0.034 A 
BRANCH  28  42
ATOM     42  C   UNL A   1      43.933  31.750  34.978  1.00  0.00     0.023 A 
ATOM     43  C   UNL A   1      44.372  33.070  34.748  1.00  0.00     0.012 A 
ATOM     44  C   UNL A   1      43.757  31.298  36.298  1.00  0.00     0.148 A 
ATOM     45  C   UNL A   1      44.669  33.911  35.819  1.00  0.00     0.002 A 
ATOM     46  C   UNL A   1      44.001  32.158  37.359  1.00  0.00     0.091 A 
ATOM     47  F   UNL A   1      43.388  30.024  36.493  1.00  0.00    -0.205 F 
ATOM     48  C   UNL A   1      44.473  33.460  37.123  1.00  0.00     0.022 A 
BRANCH  46  49
ATOM     49  S   UNL A   1      43.706  31.690  39.064  1.00  0.00     0.127 S 
ATOM     50  O   UNL A   1      44.071  32.915  39.775  1.00  0.00    -0.237 OA
ATOM     51  O   UNL A   1      42.273  31.395  39.053  1.00  0.00    -0.237 OA
ATOM     52  O   UNL A   1      44.563  30.542  39.325  1.00  0.00    -0.744 OA
ENDBRANCH  46  49
ENDBRANCH  28  42
BRANCH  29  53
ATOM     53  C   UNL A   1      42.859  25.003  27.528  1.00  0.00     0.023 A 
ATOM     54  C   UNL A   1      43.449  25.300  26.286  1.00  0.00     0.012 A 
ATOM     55  C   UNL A   1      42.250  23.742  27.713  1.00  0.00     0.148 A 
ATOM     56  C   UNL A   1      43.429  24.364  25.248  1.00  0.00     0.002 A 
ATOM     57  C   UNL A   1      42.251  22.808  26.680  1.00  0.00     0.091 A 
ATOM     58  F   UNL A   1      41.691  23.473  28.900  1.00  0.00    -0.205 F 
ATOM     59  C   UNL A   1      42.841  23.117  25.447  1.00  0.00     0.022 A 
BRANCH  57  60
ATOM     60  S   UNL A   1      41.539  21.168  26.884  1.00  0.00     0.127 S 
ATOM     61  O   UNL A   1      42.246  20.681  28.065  1.00  0.00    -0.237 OA
ATOM     62  O   UNL A   1      40.120  21.457  27.095  1.00  0.00    -0.237 OA
ATOM     63  O   UNL A   1      41.818  20.472  25.635  1.00  0.00    -0.744 OA
ENDBRANCH  57  60
ENDBRANCH  29  53
BRANCH  41  64
ATOM     64  C   UNL A   1      38.608  29.628  30.624  1.00  0.00     0.023 A 
ATOM     65  C   UNL A   1      37.586  28.908  31.267  1.00  0.00     0.012 A 
ATOM     66  C   UNL A   1      38.308  30.805  29.915  1.00  0.00     0.148 A 
ATOM     67  C   UNL A   1      36.272  29.361  31.206  1.00  0.00     0.002 A 
ATOM     68  C   UNL A   1      37.009  31.283  29.913  1.00  0.00     0.091 A 
ATOM     69  F   UNL A   1      39.308  31.451  29.297  1.00  0.00    -0.205 F 
ATOM     70  C   UNL A   1      35.987  30.557  30.549  1.00  0.00     0.022 A 
BRANCH  68  71
ATOM     71  S   UNL A   1      36.580  32.877  29.212  1.00  0.00     0.127 S 
ATOM     72  O   UNL A   1      37.787  33.655  29.486  1.00  0.00    -0.237 OA
ATOM     73  O   UNL A   1      36.370  32.545  27.804  1.00  0.00    -0.237 OA
ATOM     74  O   UNL A   1      35.385  33.322  29.917  1.00  0.00    -0.744 OA
ENDBRANCH  68  71
ENDBRANCH  41  64
ENDBRANCH  15  16
ENDBRANCH   8  10
ENDBRANCH   7   8
ENDBRANCH   6   7
ENDBRANCH   5   6
ENDBRANCH   4   5
ENDBRANCH   3   4
ENDBRANCH   2   3
ENDBRANCH   1   2
BRANCH   1  75
ATOM     75  C   UNL A   1      57.463  24.842  34.880  1.00  0.00     0.188 C 
BRANCH  75  76
ATOM     76  C   UNL A   1      56.209  24.395  34.101  1.00  0.00     0.188 C 
BRANCH  76  77
ATOM     77  O   UNL A   1      56.423  23.262  33.267  1.00  0.00    -0.376 OA
BRANCH  77  78
ATOM     78  C   UNL A   1      55.405  23.029  32.305  1.00  0.00     0.202 C 
BRANCH  78  79
ATOM     79  C   UNL A   1      53.961  23.250  32.788  1.00  0.00     0.261 C 
BRANCH  79  80
ATOM     80  O   UNL A   1      53.188  22.216  33.456  1.00  0.00    -0.463 OA
BRANCH  80  81
ATOM     81  C   UNL A   1      52.037  21.673  33.025  1.00  0.00     0.309 C 
ATOM     82  O   UNL A   1      51.112  22.299  32.525  1.00  0.00    -0.252 OA
BRANCH  81  83
ATOM     83  C   UNL A   1      51.922  20.171  33.216  1.00  0.00     0.111 C 
ATOM     84  C   UNL A   1      53.261  19.497  33.556  1.00  0.00     0.016 C 
ATOM     85  C   UNL A   1      50.839  19.775  34.229  1.00  0.00     0.093 C 
ATOM     86  C   UNL A   1      53.743  19.810  34.967  1.00  0.00     0.001 C 
ATOM     87  C   UNL A   1      51.272  20.131  35.653  1.00  0.00     0.014 C 
ATOM     88  C   UNL A   1      52.650  19.535  35.999  1.00  0.00     0.001 C 
BRANCH  85  89
ATOM     89  C   UNL A   1      49.397  20.192  33.849  1.00  0.00     0.226 C 
ATOM     90  O   UNL A   1      48.950  19.953  32.727  1.00  0.00    -0.275 OA
ATOM     91  N   UNL A   1      48.678  20.921  34.768  1.00  0.00    -0.340 N 
ATOM     92  C   UNL A   1      47.547  20.372  35.518  1.00  0.00     0.136 C 
ATOM     93  C   UNL A   1      48.449  22.330  34.495  1.00  0.00     0.136 C 
ATOM     94  C   UNL A   1      47.298  21.136  36.855  1.00  0.00     0.124 C 
ATOM     95  C   UNL A   1      48.543  23.028  35.837  1.00  0.00     0.124 C 
ATOM     96  N   UNL A   1      47.477  22.618  36.757  1.00  0.00    -0.194 NA
BRANCH  96  97
ATOM     97  S   UNL A   1      46.249  23.731  37.072  1.00  0.00     0.243 S 
ATOM     98  O   UNL A   1      45.427  23.161  38.109  1.00  0.00    -0.207 OA
ATOM     99  O   UNL A   1      46.887  25.029  37.221  1.00  0.00    -0.207 OA
BRANCH  97 100
ATOM    100  C   UNL A   1      45.316  23.728  35.537  1.00  0.00     0.082 A 
ATOM    101  C   UNL A   1      44.797  22.526  35.042  1.00  0.00     0.025 A 
ATOM    102  C   UNL A   1      45.156  24.901  34.796  1.00  0.00     0.025 A 
ATOM    103  C   UNL A   1      44.360  22.452  33.725  1.00  0.00     0.040 A 
ATOM    104  C   UNL A   1      44.591  24.840  33.515  1.00  0.00     0.040 A 
ATOM    105  C   UNL A   1      44.256  23.610  32.969  1.00  0.00     0.123 A 
ATOM    106  F   UNL A   1      43.820  23.531  31.705  1.00  0.00    -0.207 F 
ENDBRANCH  97 100
ENDBRANCH  96  97
ENDBRANCH  85  89
ENDBRANCH  81  83
ENDBRANCH  80  81
ENDBRANCH  79  80
ENDBRANCH  78  79
ENDBRANCH  77  78
ENDBRANCH  76  77
ENDBRANCH  75  76
ENDBRANCH   1  75
TORSDOF 26
ENDMDL
