MODEL 1
REMARK VINA RESULT:      -9.8      0.000      0.000
REMARK SMILES O=C(CC[N@H+]1CCC[C@@H](C(=O)OCCOCCOCCOCCOC(=O)c2ccc(-c3c4nc(c(-c5cccc(S(=O)(=O)[O-])c5F)c5ccc([nH]5)c(-c5cccc(S(=O)(=O)[O-])c5F)c5nc(c(-c6cccc(S(=O)(=O)[O-])c6F)c6ccc3[nH]6)C=C5)C=C4)cc2)C1)Nc1cccc(F)c1
REMARK SMILES IDX 17 1 16 2 15 3 14 4 13 5 12 6 10 7 11 8 9 9 5 10 6 11 90 12
REMARK SMILES IDX 7 14 8 15 4 16 3 17 2 18 1 19 91 20 92 22 93 23 98 24 94 25
REMARK SMILES IDX 96 26 95 27 97 28 18 29 19 30 20 31 21 32 22 33 23 34 24 35
REMARK SMILES IDX 25 36 26 37 27 38 28 39 89 40 29 41 88 42 30 43 31 44 32 45
REMARK SMILES IDX 82 46 33 47 87 48 81 49 83 50 34 51 86 52 80 53 79 54 35 56
REMARK SMILES IDX 67 57 47 58 66 59 48 60 51 61 65 62 84 63 49 64 50 65 64 67
REMARK SMILES IDX 85 68 52 69 36 70 37 71 45 72 38 73 40 74 46 75 39 76 41 77
REMARK SMILES IDX 42 78 43 79 44 80 68 81 69 82 77 83 70 84 72 85 78 86 71 87
REMARK SMILES IDX 73 88 74 89 75 90 76 91 53 92 54 93 62 94 55 95 57 96 63 97
REMARK SMILES IDX 56 98 58 99 59 100 60 101 61 102
REMARK H PARENT 5 13 91 21 83 55 51 66
REMARK Flexibility Score: inf
ROOT
ATOM      1  C   UNL A   1      33.365  29.647  27.208  1.00  0.00     0.188 C 
ENDROOT
BRANCH   1   2
ATOM      2  C   UNL A   1      32.140  29.240  26.344  1.00  0.00     0.188 C 
BRANCH   2   3
ATOM      3  O   UNL A   1      32.112  29.810  25.053  1.00  0.00    -0.376 OA
BRANCH   3   4
ATOM      4  C   UNL A   1      31.036  29.499  24.192  1.00  0.00     0.202 C 
BRANCH   4   5
ATOM      5  C   UNL A   1      30.355  28.124  24.274  1.00  0.00     0.261 C 
BRANCH   5   6
ATOM      6  O   UNL A   1      30.403  27.302  23.098  1.00  0.00    -0.463 OA
BRANCH   6   7
ATOM      7  C   UNL A   1      31.183  26.196  23.110  1.00  0.00     0.314 C 
ATOM      8  O   UNL A   1      31.229  25.372  22.205  1.00  0.00    -0.252 OA
BRANCH   7   9
ATOM      9  C   UNL A   1      32.097  26.148  24.332  1.00  0.00     0.154 C 
ATOM     10  N   UNL A   1      32.847  24.702  26.241  1.00  0.00    -0.334 N 
ATOM     11  C   UNL A   1      34.253  25.068  25.954  1.00  0.00     0.262 C 
ATOM     12  C   UNL A   1      32.052  24.760  24.995  1.00  0.00     0.277 C 
ATOM     13  H   UNL A   1      32.453  25.365  26.907  1.00  0.00     0.348 HD
ATOM     14  C   UNL A   1      34.358  26.471  25.354  1.00  0.00     0.062 C 
ATOM     15  C   UNL A   1      33.537  26.598  24.073  1.00  0.00     0.027 C 
BRANCH  10  16
ATOM     16  C   UNL A   1      32.787  23.343  26.847  1.00  0.00     0.272 C 
BRANCH  16  17
ATOM     17  C   UNL A   1      34.010  22.509  26.449  1.00  0.00     0.161 C 
BRANCH  17  18
ATOM     18  C   UNL A   1      33.684  21.046  26.177  1.00  0.00     0.230 C 
ATOM     19  O   UNL A   1      33.260  20.315  27.067  1.00  0.00    -0.275 OA
ATOM     20  N   UNL A   1      33.914  20.683  24.866  1.00  0.00    -0.326 N 
ATOM     21  H   UNL A   1      34.237  21.398  24.273  1.00  0.00     0.169 HD
BRANCH  20  22
ATOM     22  C   UNL A   1      33.744  19.424  24.273  1.00  0.00     0.044 A 
ATOM     23  C   UNL A   1      34.664  18.421  24.611  1.00  0.00     0.026 A 
ATOM     24  C   UNL A   1      32.737  19.139  23.359  1.00  0.00     0.065 A 
ATOM     25  C   UNL A   1      34.575  17.143  24.059  1.00  0.00     0.005 A 
ATOM     26  C   UNL A   1      32.679  17.875  22.779  1.00  0.00     0.125 A 
ATOM     27  C   UNL A   1      33.584  16.873  23.124  1.00  0.00     0.039 A 
ATOM     28  F   UNL A   1      31.744  17.616  21.856  1.00  0.00    -0.207 F 
ENDBRANCH  20  22
ENDBRANCH  17  18
ENDBRANCH  16  17
ENDBRANCH  10  16
ENDBRANCH   7   9
ENDBRANCH   6   7
ENDBRANCH   5   6
ENDBRANCH   4   5
ENDBRANCH   3   4
ENDBRANCH   2   3
ENDBRANCH   1   2
BRANCH   1  29
ATOM     29  O   UNL A   1      34.006  30.907  27.124  1.00  0.00    -0.377 OA
BRANCH  29  30
ATOM     30  C   UNL A   1      33.828  31.841  28.168  1.00  0.00     0.188 C 
BRANCH  30  31
ATOM     31  C   UNL A   1      35.066  32.661  28.577  1.00  0.00     0.188 C 
BRANCH  31  32
ATOM     32  O   UNL A   1      34.758  33.947  29.099  1.00  0.00    -0.376 OA
BRANCH  32  33
ATOM     33  C   UNL A   1      33.844  34.027  30.178  1.00  0.00     0.202 C 
BRANCH  33  34
ATOM     34  C   UNL A   1      34.336  33.672  31.591  1.00  0.00     0.261 C 
BRANCH  34  35
ATOM     35  O   UNL A   1      35.725  33.888  31.860  1.00  0.00    -0.460 OA
BRANCH  35  36
ATOM     36  C   UNL A   1      36.315  33.052  32.743  1.00  0.00     0.338 C 
ATOM     37  O   UNL A   1      36.007  32.873  33.901  1.00  0.00    -0.246 OA
BRANCH  36  38
ATOM     38  C   UNL A   1      37.287  32.234  31.983  1.00  0.00     0.060 A 
ATOM     39  C   UNL A   1      38.246  31.497  32.689  1.00  0.00     0.016 A 
ATOM     40  C   UNL A   1      37.225  32.171  30.590  1.00  0.00     0.016 A 
ATOM     41  C   UNL A   1      39.155  30.695  32.001  1.00  0.00     0.010 A 
ATOM     42  C   UNL A   1      38.162  31.399  29.898  1.00  0.00     0.010 A 
ATOM     43  C   UNL A   1      39.145  30.682  30.601  1.00  0.00    -0.014 A 
BRANCH  43  44
ATOM     44  C   UNL A   1      40.299  30.102  29.878  1.00  0.00     0.031 A 
ATOM     45  C   UNL A   1      41.539  30.939  29.750  1.00  0.00     0.074 A 
ATOM     46  C   UNL A   1      40.253  28.864  29.355  1.00  0.00     0.049 A 
ATOM     47  N   UNL A   1      42.664  30.669  29.145  1.00  0.00    -0.248 NA
ATOM     48  C   UNL A   1      41.504  32.265  30.393  1.00  0.00     0.031 C 
ATOM     49  C   UNL A   1      39.112  27.955  29.431  1.00  0.00     0.029 A 
ATOM     50  N   UNL A   1      41.193  28.171  28.634  1.00  0.00    -0.354 N 
ATOM     51  C   UNL A   1      43.458  31.797  29.306  1.00  0.00     0.074 A 
ATOM     52  C   UNL A   1      42.684  32.761  30.057  1.00  0.00     0.031 C 
ATOM     53  C   UNL A   1      39.407  26.831  28.752  1.00  0.00     0.029 A 
ATOM     54  C   UNL A   1      40.744  26.956  28.173  1.00  0.00     0.049 A 
ATOM     55  H   UNL A   1      42.101  28.512  28.464  1.00  0.00     0.167 HD
ATOM     56  C   UNL A   1      44.723  32.010  28.876  1.00  0.00     0.034 A 
ATOM     57  C   UNL A   1      41.339  26.065  27.354  1.00  0.00     0.034 A 
ATOM     58  C   UNL A   1      45.488  31.050  28.132  1.00  0.00     0.049 A 
ATOM     59  C   UNL A   1      42.733  26.344  26.852  1.00  0.00     0.074 A 
ATOM     60  C   UNL A   1      46.794  31.153  27.684  1.00  0.00     0.029 A 
ATOM     61  N   UNL A   1      45.013  29.820  27.705  1.00  0.00    -0.354 N 
ATOM     62  N   UNL A   1      43.516  27.367  27.104  1.00  0.00    -0.248 NA
ATOM     63  C   UNL A   1      43.339  25.330  25.975  1.00  0.00     0.031 C 
ATOM     64  C   UNL A   1      47.091  30.002  26.947  1.00  0.00     0.029 A 
ATOM     65  C   UNL A   1      45.991  29.161  26.980  1.00  0.00     0.049 A 
ATOM     66  H   UNL A   1      44.113  29.467  27.889  1.00  0.00     0.167 HD
ATOM     67  C   UNL A   1      44.716  27.101  26.453  1.00  0.00     0.074 A 
ATOM     68  C   UNL A   1      44.564  25.812  25.809  1.00  0.00     0.031 C 
ATOM     69  C   UNL A   1      45.840  27.858  26.383  1.00  0.00     0.034 A 
BRANCH  56  70
ATOM     70  C   UNL A   1      45.353  33.338  29.201  1.00  0.00     0.023 A 
ATOM     71  C   UNL A   1      46.225  33.454  30.302  1.00  0.00     0.012 A 
ATOM     72  C   UNL A   1      45.111  34.463  28.388  1.00  0.00     0.148 A 
ATOM     73  C   UNL A   1      46.818  34.678  30.612  1.00  0.00     0.002 A 
ATOM     74  C   UNL A   1      45.746  35.666  28.672  1.00  0.00     0.091 A 
ATOM     75  F   UNL A   1      44.259  34.338  27.361  1.00  0.00    -0.205 F 
ATOM     76  C   UNL A   1      46.587  35.778  29.791  1.00  0.00     0.022 A 
BRANCH  74  77
ATOM     77  S   UNL A   1      45.577  37.117  27.630  1.00  0.00     0.127 S 
ATOM     78  O   UNL A   1      44.144  37.389  27.733  1.00  0.00    -0.237 OA
ATOM     79  O   UNL A   1      46.432  38.086  28.316  1.00  0.00    -0.237 OA
ATOM     80  O   UNL A   1      46.042  36.723  26.308  1.00  0.00    -0.744 OA
ENDBRANCH  74  77
ENDBRANCH  56  70
BRANCH  57  81
ATOM     81  C   UNL A   1      40.626  24.815  26.964  1.00  0.00     0.023 A 
ATOM     82  C   UNL A   1      39.383  24.896  26.304  1.00  0.00     0.012 A 
ATOM     83  C   UNL A   1      41.173  23.548  27.243  1.00  0.00     0.148 A 
ATOM     84  C   UNL A   1      38.684  23.737  25.963  1.00  0.00     0.002 A 
ATOM     85  C   UNL A   1      40.500  22.399  26.847  1.00  0.00     0.091 A 
ATOM     86  F   UNL A   1      42.348  23.492  27.886  1.00  0.00    -0.205 F 
ATOM     87  C   UNL A   1      39.245  22.490  26.225  1.00  0.00     0.022 A 
BRANCH  85  88
ATOM     88  S   UNL A   1      41.202  20.756  27.030  1.00  0.00     0.127 S 
ATOM     89  O   UNL A   1      42.602  20.989  26.687  1.00  0.00    -0.237 OA
ATOM     90  O   UNL A   1      40.949  20.480  28.443  1.00  0.00    -0.237 OA
ATOM     91  O   UNL A   1      40.461  19.905  26.109  1.00  0.00    -0.744 OA
ENDBRANCH  85  88
ENDBRANCH  57  81
BRANCH  69  92
ATOM     92  C   UNL A   1      47.019  27.299  25.628  1.00  0.00     0.023 A 
ATOM     93  C   UNL A   1      47.832  26.310  26.214  1.00  0.00     0.012 A 
ATOM     94  C   UNL A   1      47.273  27.706  24.302  1.00  0.00     0.148 A 
ATOM     95  C   UNL A   1      48.903  25.761  25.508  1.00  0.00     0.002 A 
ATOM     96  C   UNL A   1      48.307  27.115  23.585  1.00  0.00     0.091 A 
ATOM     97  F   UNL A   1      46.498  28.658  23.765  1.00  0.00    -0.205 F 
ATOM     98  C   UNL A   1      49.132  26.156  24.191  1.00  0.00     0.022 A 
BRANCH  96  99
ATOM     99  S   UNL A   1      48.615  27.486  21.854  1.00  0.00     0.127 S 
ATOM    100  O   UNL A   1      49.139  26.211  21.366  1.00  0.00    -0.237 OA
ATOM    101  O   UNL A   1      47.276  27.822  21.369  1.00  0.00    -0.237 OA
ATOM    102  O   UNL A   1      49.559  28.594  21.840  1.00  0.00    -0.744 OA
ENDBRANCH  96  99
ENDBRANCH  69  92
ENDBRANCH  43  44
ENDBRANCH  36  38
ENDBRANCH  35  36
ENDBRANCH  34  35
ENDBRANCH  33  34
ENDBRANCH  32  33
ENDBRANCH  31  32
ENDBRANCH  30  31
ENDBRANCH  29  30
ENDBRANCH   1  29
TORSDOF 27
ENDMDL
MODEL 2
REMARK VINA RESULT:      -9.7      5.432      9.774
REMARK SMILES O=C(CC[N@H+]1CCC[C@@H](C(=O)OCCOCCOCCOCCOC(=O)c2ccc(-c3c4nc(c(-c5cccc(S(=O)(=O)[O-])c5F)c5ccc([nH]5)c(-c5cccc(S(=O)(=O)[O-])c5F)c5nc(c(-c6cccc(S(=O)(=O)[O-])c6F)c6ccc3[nH]6)C=C5)C=C4)cc2)C1)Nc1cccc(F)c1
REMARK SMILES IDX 17 1 16 2 15 3 14 4 13 5 12 6 10 7 11 8 9 9 5 10 6 11 90 12
REMARK SMILES IDX 7 14 8 15 4 16 3 17 2 18 1 19 91 20 92 22 93 23 98 24 94 25
REMARK SMILES IDX 96 26 95 27 97 28 18 29 19 30 20 31 21 32 22 33 23 34 24 35
REMARK SMILES IDX 25 36 26 37 27 38 28 39 89 40 29 41 88 42 30 43 31 44 32 45
REMARK SMILES IDX 82 46 33 47 87 48 81 49 83 50 34 51 86 52 80 53 79 54 35 56
REMARK SMILES IDX 67 57 47 58 66 59 48 60 51 61 65 62 84 63 49 64 50 65 64 67
REMARK SMILES IDX 85 68 52 69 36 70 37 71 45 72 38 73 40 74 46 75 39 76 41 77
REMARK SMILES IDX 42 78 43 79 44 80 68 81 69 82 77 83 70 84 72 85 78 86 71 87
REMARK SMILES IDX 73 88 74 89 75 90 76 91 53 92 54 93 62 94 55 95 57 96 63 97
REMARK SMILES IDX 56 98 58 99 59 100 60 101 61 102
REMARK H PARENT 5 13 91 21 83 55 51 66
REMARK Flexibility Score: inf
ROOT
ATOM      1  C   UNL A   1      33.031  29.803  27.255  1.00  0.00     0.188 C 
ENDROOT
BRANCH   1   2
ATOM      2  C   UNL A   1      31.789  29.243  26.509  1.00  0.00     0.188 C 
BRANCH   2   3
ATOM      3  O   UNL A   1      31.752  29.528  25.128  1.00  0.00    -0.376 OA
BRANCH   3   4
ATOM      4  C   UNL A   1      31.055  28.649  24.268  1.00  0.00     0.202 C 
BRANCH   4   5
ATOM      5  C   UNL A   1      31.097  27.133  24.516  1.00  0.00     0.261 C 
BRANCH   5   6
ATOM      6  O   UNL A   1      32.099  26.385  23.810  1.00  0.00    -0.463 OA
BRANCH   6   7
ATOM      7  C   UNL A   1      33.285  26.154  24.419  1.00  0.00     0.314 C 
ATOM      8  O   UNL A   1      34.032  27.032  24.831  1.00  0.00    -0.252 OA
BRANCH   7   9
ATOM      9  C   UNL A   1      33.536  24.666  24.649  1.00  0.00     0.154 C 
ATOM     10  N   UNL A   1      35.231  22.836  24.370  1.00  0.00    -0.334 N 
ATOM     11  C   UNL A   1      34.959  22.386  25.754  1.00  0.00     0.262 C 
ATOM     12  C   UNL A   1      34.977  24.288  24.258  1.00  0.00     0.277 C 
ATOM     13  H   UNL A   1      34.608  22.348  23.727  1.00  0.00     0.348 HD
ATOM     14  C   UNL A   1      33.515  22.679  26.168  1.00  0.00     0.062 C 
ATOM     15  C   UNL A   1      33.188  24.165  26.052  1.00  0.00     0.027 C 
BRANCH  10  16
ATOM     16  C   UNL A   1      36.634  22.511  23.994  1.00  0.00     0.272 C 
BRANCH  16  17
ATOM     17  C   UNL A   1      37.369  21.827  25.153  1.00  0.00     0.161 C 
BRANCH  17  18
ATOM     18  C   UNL A   1      38.406  22.718  25.824  1.00  0.00     0.230 C 
ATOM     19  O   UNL A   1      38.144  23.877  26.130  1.00  0.00    -0.275 OA
ATOM     20  N   UNL A   1      39.608  22.073  26.033  1.00  0.00    -0.326 N 
ATOM     21  H   UNL A   1      39.647  21.133  25.746  1.00  0.00     0.169 HD
BRANCH  20  22
ATOM     22  C   UNL A   1      40.780  22.589  26.603  1.00  0.00     0.044 A 
ATOM     23  C   UNL A   1      40.876  22.582  28.002  1.00  0.00     0.026 A 
ATOM     24  C   UNL A   1      41.823  23.123  25.856  1.00  0.00     0.065 A 
ATOM     25  C   UNL A   1      42.002  23.086  28.653  1.00  0.00     0.005 A 
ATOM     26  C   UNL A   1      42.926  23.663  26.513  1.00  0.00     0.125 A 
ATOM     27  C   UNL A   1      43.029  23.644  27.902  1.00  0.00     0.039 A 
ATOM     28  F   UNL A   1      43.906  24.229  25.796  1.00  0.00    -0.207 F 
ENDBRANCH  20  22
ENDBRANCH  17  18
ENDBRANCH  16  17
ENDBRANCH  10  16
ENDBRANCH   7   9
ENDBRANCH   6   7
ENDBRANCH   5   6
ENDBRANCH   4   5
ENDBRANCH   3   4
ENDBRANCH   2   3
ENDBRANCH   1   2
BRANCH   1  29
ATOM     29  O   UNL A   1      33.674  31.019  26.916  1.00  0.00    -0.377 OA
BRANCH  29  30
ATOM     30  C   UNL A   1      33.372  32.185  27.652  1.00  0.00     0.188 C 
BRANCH  30  31
ATOM     31  C   UNL A   1      34.510  32.773  28.507  1.00  0.00     0.188 C 
BRANCH  31  32
ATOM     32  O   UNL A   1      34.720  34.165  28.308  1.00  0.00    -0.376 OA
BRANCH  32  33
ATOM     33  C   UNL A   1      33.589  34.980  28.053  1.00  0.00     0.202 C 
BRANCH  33  34
ATOM     34  C   UNL A   1      32.811  35.558  29.247  1.00  0.00     0.261 C 
BRANCH  34  35
ATOM     35  O   UNL A   1      33.583  35.948  30.388  1.00  0.00    -0.460 OA
BRANCH  35  36
ATOM     36  C   UNL A   1      33.390  35.246  31.527  1.00  0.00     0.338 C 
ATOM     37  O   UNL A   1      32.356  35.125  32.146  1.00  0.00    -0.246 OA
BRANCH  36  38
ATOM     38  C   UNL A   1      34.629  34.476  31.777  1.00  0.00     0.060 A 
ATOM     39  C   UNL A   1      34.549  33.292  32.522  1.00  0.00     0.016 A 
ATOM     40  C   UNL A   1      35.850  34.904  31.250  1.00  0.00     0.016 A 
ATOM     41  C   UNL A   1      35.695  32.532  32.748  1.00  0.00     0.010 A 
ATOM     42  C   UNL A   1      37.004  34.163  31.511  1.00  0.00     0.010 A 
ATOM     43  C   UNL A   1      36.933  32.991  32.284  1.00  0.00    -0.014 A 
BRANCH  43  44
ATOM     44  C   UNL A   1      38.173  32.366  32.798  1.00  0.00     0.031 A 
ATOM     45  C   UNL A   1      38.782  31.254  31.994  1.00  0.00     0.074 A 
ATOM     46  C   UNL A   1      38.747  32.778  33.942  1.00  0.00     0.049 A 
ATOM     47  N   UNL A   1      39.843  30.534  32.244  1.00  0.00    -0.248 NA
ATOM     48  C   UNL A   1      38.100  30.905  30.735  1.00  0.00     0.031 C 
ATOM     49  C   UNL A   1      38.256  33.857  34.796  1.00  0.00     0.029 A 
ATOM     50  N   UNL A   1      39.864  32.312  34.590  1.00  0.00    -0.354 N 
ATOM     51  C   UNL A   1      39.939  29.629  31.195  1.00  0.00     0.074 A 
ATOM     52  C   UNL A   1      38.824  29.883  30.309  1.00  0.00     0.031 C 
ATOM     53  C   UNL A   1      39.052  33.950  35.877  1.00  0.00     0.029 A 
ATOM     54  C   UNL A   1      40.088  32.920  35.802  1.00  0.00     0.049 A 
ATOM     55  H   UNL A   1      40.448  31.610  34.222  1.00  0.00     0.167 HD
ATOM     56  C   UNL A   1      40.876  28.678  30.981  1.00  0.00     0.034 A 
ATOM     57  C   UNL A   1      41.008  32.653  36.751  1.00  0.00     0.034 A 
ATOM     58  C   UNL A   1      41.983  28.431  31.863  1.00  0.00     0.049 A 
ATOM     59  C   UNL A   1      42.017  31.558  36.509  1.00  0.00     0.074 A 
ATOM     60  C   UNL A   1      43.012  27.517  31.715  1.00  0.00     0.029 A 
ATOM     61  N   UNL A   1      42.194  29.083  33.067  1.00  0.00    -0.354 N 
ATOM     62  N   UNL A   1      42.165  30.784  35.460  1.00  0.00    -0.248 NA
ATOM     63  C   UNL A   1      43.008  31.321  37.570  1.00  0.00     0.031 C 
ATOM     64  C   UNL A   1      43.820  27.587  32.854  1.00  0.00     0.029 A 
ATOM     65  C   UNL A   1      43.325  28.579  33.686  1.00  0.00     0.049 A 
ATOM     66  H   UNL A   1      41.624  29.798  33.430  1.00  0.00     0.167 HD
ATOM     67  C   UNL A   1      43.284  29.999  35.717  1.00  0.00     0.074 A 
ATOM     68  C   UNL A   1      43.787  30.404  37.014  1.00  0.00     0.031 C 
ATOM     69  C   UNL A   1      43.840  29.023  34.956  1.00  0.00     0.034 A 
BRANCH  56  70
ATOM     70  C   UNL A   1      40.740  27.833  29.743  1.00  0.00     0.023 A 
ATOM     71  C   UNL A   1      39.760  26.821  29.684  1.00  0.00     0.012 A 
ATOM     72  C   UNL A   1      41.559  28.069  28.622  1.00  0.00     0.148 A 
ATOM     73  C   UNL A   1      39.621  26.033  28.541  1.00  0.00     0.002 A 
ATOM     74  C   UNL A   1      41.381  27.315  27.469  1.00  0.00     0.091 A 
ATOM     75  F   UNL A   1      42.502  29.018  28.707  1.00  0.00    -0.205 F 
ATOM     76  C   UNL A   1      40.423  26.288  27.432  1.00  0.00     0.022 A 
BRANCH  74  77
ATOM     77  S   UNL A   1      42.308  27.618  25.962  1.00  0.00     0.127 S 
ATOM     78  O   UNL A   1      43.677  27.345  26.398  1.00  0.00    -0.237 OA
ATOM     79  O   UNL A   1      41.747  26.619  25.052  1.00  0.00    -0.237 OA
ATOM     80  O   UNL A   1      42.037  29.000  25.592  1.00  0.00    -0.744 OA
ENDBRANCH  74  77
ENDBRANCH  56  70
BRANCH  57  81
ATOM     81  C   UNL A   1      41.030  33.442  38.016  1.00  0.00     0.023 A 
ATOM     82  C   UNL A   1      41.895  34.548  38.134  1.00  0.00     0.012 A 
ATOM     83  C   UNL A   1      40.198  33.102  39.100  1.00  0.00     0.148 A 
ATOM     84  C   UNL A   1      41.956  35.278  39.322  1.00  0.00     0.002 A 
ATOM     85  C   UNL A   1      40.221  33.870  40.259  1.00  0.00     0.091 A 
ATOM     86  F   UNL A   1      39.394  32.037  38.974  1.00  0.00    -0.205 F 
ATOM     87  C   UNL A   1      41.113  34.946  40.380  1.00  0.00     0.022 A 
BRANCH  85  88
ATOM     88  S   UNL A   1      39.085  33.595  41.622  1.00  0.00     0.127 S 
ATOM     89  O   UNL A   1      37.788  33.724  40.962  1.00  0.00    -0.237 OA
ATOM     90  O   UNL A   1      39.436  32.236  42.032  1.00  0.00    -0.237 OA
ATOM     91  O   UNL A   1      39.395  34.620  42.609  1.00  0.00    -0.744 OA
ENDBRANCH  85  88
ENDBRANCH  57  81
BRANCH  69  92
ATOM     92  C   UNL A   1      45.088  28.352  35.473  1.00  0.00     0.023 A 
ATOM     93  C   UNL A   1      46.351  28.932  35.243  1.00  0.00     0.012 A 
ATOM     94  C   UNL A   1      44.996  27.182  36.254  1.00  0.00     0.148 A 
ATOM     95  C   UNL A   1      47.507  28.337  35.749  1.00  0.00     0.002 A 
ATOM     96  C   UNL A   1      46.147  26.626  36.801  1.00  0.00     0.091 A 
ATOM     97  F   UNL A   1      43.788  26.638  36.451  1.00  0.00    -0.205 F 
ATOM     98  C   UNL A   1      47.403  27.193  36.537  1.00  0.00     0.022 A 
BRANCH  96  99
ATOM     99  S   UNL A   1      46.101  25.213  37.910  1.00  0.00     0.127 S 
ATOM    100  O   UNL A   1      45.229  25.701  38.978  1.00  0.00    -0.237 OA
ATOM    101  O   UNL A   1      45.508  24.177  37.063  1.00  0.00    -0.237 OA
ATOM    102  O   UNL A   1      47.481  24.960  38.299  1.00  0.00    -0.744 OA
ENDBRANCH  96  99
ENDBRANCH  69  92
ENDBRANCH  43  44
ENDBRANCH  36  38
ENDBRANCH  35  36
ENDBRANCH  34  35
ENDBRANCH  33  34
ENDBRANCH  32  33
ENDBRANCH  31  32
ENDBRANCH  30  31
ENDBRANCH  29  30
ENDBRANCH   1  29
TORSDOF 27
ENDMDL
MODEL 3
REMARK VINA RESULT:      -9.1      4.530     10.243
REMARK SMILES O=C(CC[N@H+]1CCC[C@@H](C(=O)OCCOCCOCCOCCOC(=O)c2ccc(-c3c4nc(c(-c5cccc(S(=O)(=O)[O-])c5F)c5ccc([nH]5)c(-c5cccc(S(=O)(=O)[O-])c5F)c5nc(c(-c6cccc(S(=O)(=O)[O-])c6F)c6ccc3[nH]6)C=C5)C=C4)cc2)C1)Nc1cccc(F)c1
REMARK SMILES IDX 17 1 16 2 15 3 14 4 13 5 12 6 10 7 11 8 9 9 5 10 6 11 90 12
REMARK SMILES IDX 7 14 8 15 4 16 3 17 2 18 1 19 91 20 92 22 93 23 98 24 94 25
REMARK SMILES IDX 96 26 95 27 97 28 18 29 19 30 20 31 21 32 22 33 23 34 24 35
REMARK SMILES IDX 25 36 26 37 27 38 28 39 89 40 29 41 88 42 30 43 31 44 32 45
REMARK SMILES IDX 82 46 33 47 87 48 81 49 83 50 34 51 86 52 80 53 79 54 35 56
REMARK SMILES IDX 67 57 47 58 66 59 48 60 51 61 65 62 84 63 49 64 50 65 64 67
REMARK SMILES IDX 85 68 52 69 36 70 37 71 45 72 38 73 40 74 46 75 39 76 41 77
REMARK SMILES IDX 42 78 43 79 44 80 68 81 69 82 77 83 70 84 72 85 78 86 71 87
REMARK SMILES IDX 73 88 74 89 75 90 76 91 53 92 54 93 62 94 55 95 57 96 63 97
REMARK SMILES IDX 56 98 58 99 59 100 60 101 61 102
REMARK H PARENT 5 13 91 21 83 55 51 66
REMARK Flexibility Score: inf
ROOT
ATOM      1  C   UNL A   1      42.878  24.830  25.031  1.00  0.00     0.188 C 
ENDROOT
BRANCH   1   2
ATOM      2  C   UNL A   1      43.194  26.332  25.268  1.00  0.00     0.188 C 
BRANCH   2   3
ATOM      3  O   UNL A   1      42.220  27.226  24.776  1.00  0.00    -0.376 OA
BRANCH   3   4
ATOM      4  C   UNL A   1      41.654  28.173  25.659  1.00  0.00     0.202 C 
BRANCH   4   5
ATOM      5  C   UNL A   1      40.843  27.704  26.877  1.00  0.00     0.261 C 
BRANCH   5   6
ATOM      6  O   UNL A   1      40.203  26.423  26.779  1.00  0.00    -0.463 OA
BRANCH   6   7
ATOM      7  C   UNL A   1      39.715  25.854  27.906  1.00  0.00     0.314 C 
ATOM      8  O   UNL A   1      39.414  26.473  28.918  1.00  0.00    -0.252 OA
BRANCH   7   9
ATOM      9  C   UNL A   1      39.463  24.358  27.735  1.00  0.00     0.154 C 
ATOM     10  N   UNL A   1      38.132  22.666  26.445  1.00  0.00    -0.334 N 
ATOM     11  C   UNL A   1      39.362  21.868  26.239  1.00  0.00     0.262 C 
ATOM     12  C   UNL A   1      38.481  24.097  26.579  1.00  0.00     0.277 C 
ATOM     13  H   UNL A   1      37.671  22.364  27.303  1.00  0.00     0.348 HD
ATOM     14  C   UNL A   1      40.346  22.041  27.398  1.00  0.00     0.062 C 
ATOM     15  C   UNL A   1      40.727  23.506  27.598  1.00  0.00     0.027 C 
BRANCH  10  16
ATOM     16  C   UNL A   1      37.190  22.452  25.312  1.00  0.00     0.272 C 
BRANCH  16  17
ATOM     17  C   UNL A   1      35.866  21.856  25.804  1.00  0.00     0.161 C 
BRANCH  17  18
ATOM     18  C   UNL A   1      34.641  22.634  25.341  1.00  0.00     0.230 C 
ATOM     19  O   UNL A   1      34.063  22.346  24.299  1.00  0.00    -0.275 OA
ATOM     20  N   UNL A   1      34.291  23.644  26.214  1.00  0.00    -0.326 N 
ATOM     21  H   UNL A   1      34.850  23.729  27.019  1.00  0.00     0.169 HD
BRANCH  20  22
ATOM     22  C   UNL A   1      33.239  24.564  26.097  1.00  0.00     0.044 A 
ATOM     23  C   UNL A   1      31.932  24.054  26.088  1.00  0.00     0.026 A 
ATOM     24  C   UNL A   1      33.431  25.934  25.965  1.00  0.00     0.065 A 
ATOM     25  C   UNL A   1      30.828  24.896  25.965  1.00  0.00     0.005 A 
ATOM     26  C   UNL A   1      32.327  26.765  25.800  1.00  0.00     0.125 A 
ATOM     27  C   UNL A   1      31.028  26.261  25.805  1.00  0.00     0.039 A 
ATOM     28  F   UNL A   1      32.514  28.079  25.616  1.00  0.00    -0.207 F 
ENDBRANCH  20  22
ENDBRANCH  17  18
ENDBRANCH  16  17
ENDBRANCH  10  16
ENDBRANCH   7   9
ENDBRANCH   6   7
ENDBRANCH   5   6
ENDBRANCH   4   5
ENDBRANCH   3   4
ENDBRANCH   2   3
ENDBRANCH   1   2
BRANCH   1  29
ATOM     29  O   UNL A   1      43.669  23.768  25.534  1.00  0.00    -0.377 OA
BRANCH  29  30
ATOM     30  C   UNL A   1      44.078  22.740  24.657  1.00  0.00     0.188 C 
BRANCH  30  31
ATOM     31  C   UNL A   1      45.594  22.496  24.542  1.00  0.00     0.188 C 
BRANCH  31  32
ATOM     32  O   UNL A   1      46.306  23.567  23.937  1.00  0.00    -0.376 OA
BRANCH  32  33
ATOM     33  C   UNL A   1      46.868  24.555  24.782  1.00  0.00     0.202 C 
BRANCH  33  34
ATOM     34  C   UNL A   1      48.014  25.426  24.241  1.00  0.00     0.261 C 
BRANCH  34  35
ATOM     35  O   UNL A   1      47.721  26.811  24.026  1.00  0.00    -0.460 OA
BRANCH  35  36
ATOM     36  C   UNL A   1      48.536  27.709  24.623  1.00  0.00     0.338 C 
ATOM     37  O   UNL A   1      49.638  28.054  24.257  1.00  0.00    -0.246 OA
BRANCH  36  38
ATOM     38  C   UNL A   1      47.753  28.355  25.701  1.00  0.00     0.060 A 
ATOM     39  C   UNL A   1      48.440  28.971  26.756  1.00  0.00     0.016 A 
ATOM     40  C   UNL A   1      46.359  28.379  25.649  1.00  0.00     0.016 A 
ATOM     41  C   UNL A   1      47.729  29.612  27.769  1.00  0.00     0.010 A 
ATOM     42  C   UNL A   1      45.646  28.986  26.686  1.00  0.00     0.010 A 
ATOM     43  C   UNL A   1      46.330  29.579  27.761  1.00  0.00    -0.014 A 
BRANCH  43  44
ATOM     44  C   UNL A   1      45.593  29.965  28.986  1.00  0.00     0.031 A 
ATOM     45  C   UNL A   1      44.937  31.316  29.012  1.00  0.00     0.074 A 
ATOM     46  C   UNL A   1      45.499  29.138  30.042  1.00  0.00     0.049 A 
ATOM     47  N   UNL A   1      44.261  31.892  29.970  1.00  0.00    -0.248 NA
ATOM     48  C   UNL A   1      45.062  32.129  27.790  1.00  0.00     0.031 C 
ATOM     49  C   UNL A   1      46.079  27.800  30.124  1.00  0.00     0.029 A 
ATOM     50  N   UNL A   1      44.895  29.323  31.260  1.00  0.00    -0.354 N 
ATOM     51  C   UNL A   1      43.908  33.142  29.481  1.00  0.00     0.074 A 
ATOM     52  C   UNL A   1      44.451  33.248  28.145  1.00  0.00     0.031 C 
ATOM     53  C   UNL A   1      45.830  27.293  31.345  1.00  0.00     0.029 A 
ATOM     54  C   UNL A   1      45.099  28.283  32.137  1.00  0.00     0.049 A 
ATOM     55  H   UNL A   1      44.367  30.122  31.485  1.00  0.00     0.167 HD
ATOM     56  C   UNL A   1      43.187  34.114  30.086  1.00  0.00     0.034 A 
ATOM     57  C   UNL A   1      44.757  28.162  33.435  1.00  0.00     0.034 A 
ATOM     58  C   UNL A   1      42.648  34.004  31.413  1.00  0.00     0.049 A 
ATOM     59  C   UNL A   1      43.991  29.277  34.101  1.00  0.00     0.074 A 
ATOM     60  C   UNL A   1      41.868  34.917  32.101  1.00  0.00     0.029 A 
ATOM     61  N   UNL A   1      42.851  32.928  32.261  1.00  0.00    -0.354 N 
ATOM     62  N   UNL A   1      43.565  30.409  33.592  1.00  0.00    -0.248 NA
ATOM     63  C   UNL A   1      43.629  29.085  35.513  1.00  0.00     0.031 C 
ATOM     64  C   UNL A   1      41.638  34.409  33.384  1.00  0.00     0.029 A 
ATOM     65  C   UNL A   1      42.230  33.159  33.476  1.00  0.00     0.049 A 
ATOM     66  H   UNL A   1      43.362  32.118  32.034  1.00  0.00     0.167 HD
ATOM     67  C   UNL A   1      42.855  31.043  34.606  1.00  0.00     0.074 A 
ATOM     68  C   UNL A   1      42.891  30.161  35.754  1.00  0.00     0.031 C 
ATOM     69  C   UNL A   1      42.237  32.251  34.595  1.00  0.00     0.034 A 
BRANCH  56  70
ATOM     70  C   UNL A   1      42.944  35.383  29.313  1.00  0.00     0.023 A 
ATOM     71  C   UNL A   1      42.005  35.399  28.262  1.00  0.00     0.012 A 
ATOM     72  C   UNL A   1      43.620  36.570  29.655  1.00  0.00     0.148 A 
ATOM     73  C   UNL A   1      41.768  36.569  27.540  1.00  0.00     0.002 A 
ATOM     74  C   UNL A   1      43.342  37.743  28.966  1.00  0.00     0.091 A 
ATOM     75  F   UNL A   1      44.529  36.527  30.640  1.00  0.00    -0.205 F 
ATOM     76  C   UNL A   1      42.428  37.742  27.900  1.00  0.00     0.022 A 
BRANCH  74  77
ATOM     77  S   UNL A   1      44.079  39.320  29.404  1.00  0.00     0.127 S 
ATOM     78  O   UNL A   1      45.481  38.949  29.590  1.00  0.00    -0.237 OA
ATOM     79  O   UNL A   1      43.814  40.123  28.210  1.00  0.00    -0.237 OA
ATOM     80  O   UNL A   1      43.389  39.769  30.605  1.00  0.00    -0.744 OA
ENDBRANCH  74  77
ENDBRANCH  56  70
BRANCH  57  81
ATOM     81  C   UNL A   1      45.123  26.932  34.194  1.00  0.00     0.023 A 
ATOM     82  C   UNL A   1      46.224  26.956  35.074  1.00  0.00     0.012 A 
ATOM     83  C   UNL A   1      44.386  25.741  34.050  1.00  0.00     0.148 A 
ATOM     84  C   UNL A   1      46.604  25.806  35.767  1.00  0.00     0.002 A 
ATOM     85  C   UNL A   1      44.734  24.616  34.788  1.00  0.00     0.091 A 
ATOM     86  F   UNL A   1      43.353  25.734  33.196  1.00  0.00    -0.205 F 
ATOM     87  C   UNL A   1      45.855  24.640  35.632  1.00  0.00     0.022 A 
BRANCH  85  88
ATOM     88  S   UNL A   1      43.756  23.111  34.774  1.00  0.00     0.127 S 
ATOM     89  O   UNL A   1      42.512  23.556  35.396  1.00  0.00    -0.237 OA
ATOM     90  O   UNL A   1      43.664  22.829  33.342  1.00  0.00    -0.237 OA
ATOM     91  O   UNL A   1      44.524  22.132  35.531  1.00  0.00    -0.744 OA
ENDBRANCH  85  88
ENDBRANCH  57  81
BRANCH  69  92
ATOM     92  C   UNL A   1      41.502  32.678  35.841  1.00  0.00     0.023 A 
ATOM     93  C   UNL A   1      42.120  33.543  36.765  1.00  0.00     0.012 A 
ATOM     94  C   UNL A   1      40.167  32.278  36.053  1.00  0.00     0.148 A 
ATOM     95  C   UNL A   1      41.434  33.972  37.902  1.00  0.00     0.002 A 
ATOM     96  C   UNL A   1      39.472  32.754  37.159  1.00  0.00     0.091 A 
ATOM     97  F   UNL A   1      39.601  31.444  35.170  1.00  0.00    -0.205 F 
ATOM     98  C   UNL A   1      40.108  33.587  38.092  1.00  0.00     0.022 A 
BRANCH  96  99
ATOM     99  S   UNL A   1      37.733  32.394  37.433  1.00  0.00     0.127 S 
ATOM    100  O   UNL A   1      37.471  33.122  38.674  1.00  0.00    -0.237 OA
ATOM    101  O   UNL A   1      37.109  32.972  36.242  1.00  0.00    -0.237 OA
ATOM    102  O   UNL A   1      37.631  30.944  37.527  1.00  0.00    -0.744 OA
ENDBRANCH  96  99
ENDBRANCH  69  92
ENDBRANCH  43  44
ENDBRANCH  36  38
ENDBRANCH  35  36
ENDBRANCH  34  35
ENDBRANCH  33  34
ENDBRANCH  32  33
ENDBRANCH  31  32
ENDBRANCH  30  31
ENDBRANCH  29  30
ENDBRANCH   1  29
TORSDOF 27
ENDMDL
