MODEL 1
REMARK VINA RESULT:     -10.3      0.000      0.000
REMARK SMILES O=C(OCCOCCOCCOCCOC(=O)[C@H]1CCCC[N@@H+]1Cc1ccc(F)cc1Cl)c1ccc(-c2c3nc(c(-c4cccc(S(=O)(=O)[O-])c4F)c4ccc([nH]4)c(-c4cccc(S(=O)(=O)[O-])c4F)c4nc(c(-c5cccc(S(=O)(=O)[O-])c5F)c5ccc2[nH]5)C=C4)C=C3)cc1
REMARK SMILES IDX 8 1 7 2 6 3 5 4 4 5 3 6 2 7 1 8 33 9 34 10 95 11 35 12 94 13
REMARK SMILES IDX 36 14 37 15 38 16 88 17 39 18 93 19 87 20 89 21 40 22 92 23
REMARK SMILES IDX 86 24 85 25 41 27 73 28 53 29 72 30 54 31 57 32 71 33 90 34
REMARK SMILES IDX 55 35 56 36 70 38 91 39 58 40 42 41 43 42 51 43 44 44 46 45
REMARK SMILES IDX 52 46 45 47 47 48 48 49 49 50 50 51 74 52 75 53 83 54 76 55
REMARK SMILES IDX 78 56 84 57 77 58 79 59 80 60 81 61 82 62 59 63 60 64 68 65
REMARK SMILES IDX 61 66 63 67 69 68 62 69 64 70 65 71 66 72 67 73 9 74 10 75
REMARK SMILES IDX 11 76 12 77 13 78 14 79 15 80 16 81 17 82 18 83 19 84 23 85
REMARK SMILES IDX 20 86 22 87 21 89 24 90 25 91 26 92 31 93 27 94 30 95 32 96
REMARK SMILES IDX 28 97 29 98
REMARK H PARENT 89 26 57 37 23 88
REMARK Flexibility Score: inf
ROOT
ATOM      1  C   UNL A   1      31.122  29.315  22.094  1.00  0.00     0.188 C 
ENDROOT
BRANCH   1   2
ATOM      2  C   UNL A   1      32.257  28.333  22.365  1.00  0.00     0.188 C 
BRANCH   2   3
ATOM      3  O   UNL A   1      33.065  28.822  23.445  1.00  0.00    -0.376 OA
BRANCH   3   4
ATOM      4  C   UNL A   1      32.329  29.390  24.526  1.00  0.00     0.202 C 
BRANCH   4   5
ATOM      5  C   UNL A   1      33.156  29.609  25.795  1.00  0.00     0.261 C 
BRANCH   5   6
ATOM      6  O   UNL A   1      32.737  30.751  26.555  1.00  0.00    -0.460 OA
BRANCH   6   7
ATOM      7  C   UNL A   1      33.482  31.585  27.324  1.00  0.00     0.338 C 
ATOM      8  O   UNL A   1      33.095  32.749  27.440  1.00  0.00    -0.246 OA
BRANCH   7   9
ATOM      9  C   UNL A   1      34.733  31.196  28.052  1.00  0.00     0.060 A 
ATOM     10  C   UNL A   1      34.990  29.953  28.627  1.00  0.00     0.016 A 
ATOM     11  C   UNL A   1      35.769  32.150  28.086  1.00  0.00     0.016 A 
ATOM     12  C   UNL A   1      36.215  29.669  29.222  1.00  0.00     0.010 A 
ATOM     13  C   UNL A   1      37.019  31.855  28.650  1.00  0.00     0.010 A 
ATOM     14  C   UNL A   1      37.246  30.598  29.213  1.00  0.00    -0.014 A 
BRANCH  14  15
ATOM     15  C   UNL A   1      38.477  30.254  29.949  1.00  0.00     0.031 A 
ATOM     16  C   UNL A   1      39.471  29.370  29.263  1.00  0.00     0.074 A 
ATOM     17  C   UNL A   1      38.761  30.827  31.134  1.00  0.00     0.049 A 
ATOM     18  N   UNL A   1      40.582  28.867  29.719  1.00  0.00    -0.248 NA
ATOM     19  C   UNL A   1      39.177  29.023  27.861  1.00  0.00     0.031 C 
ATOM     20  C   UNL A   1      37.929  31.821  31.816  1.00  0.00     0.029 A 
ATOM     21  N   UNL A   1      39.837  30.667  31.970  1.00  0.00    -0.354 N 
ATOM     22  C   UNL A   1      41.078  28.078  28.692  1.00  0.00     0.074 A 
ATOM     23  C   UNL A   1      40.183  28.214  27.567  1.00  0.00     0.031 C 
ATOM     24  C   UNL A   1      38.523  32.175  32.969  1.00  0.00     0.029 A 
ATOM     25  C   UNL A   1      39.737  31.383  33.143  1.00  0.00     0.049 A 
ATOM     26  H   UNL A   1      40.609  30.096  31.752  1.00  0.00     0.167 HD
ATOM     27  C   UNL A   1      42.170  27.284  28.708  1.00  0.00     0.034 A 
ATOM     28  C   UNL A   1      40.512  31.348  34.246  1.00  0.00     0.034 A 
ATOM     29  C   UNL A   1      43.054  27.178  29.832  1.00  0.00     0.049 A 
ATOM     30  C   UNL A   1      41.693  30.406  34.254  1.00  0.00     0.074 A 
ATOM     31  C   UNL A   1      44.167  26.373  29.976  1.00  0.00     0.029 A 
ATOM     32  N   UNL A   1      42.913  27.892  31.012  1.00  0.00    -0.354 N 
ATOM     33  N   UNL A   1      42.157  29.655  33.283  1.00  0.00    -0.248 NA
ATOM     34  C   UNL A   1      42.454  30.303  35.507  1.00  0.00     0.031 C 
ATOM     35  C   UNL A   1      44.676  26.571  31.263  1.00  0.00     0.029 A 
ATOM     36  C   UNL A   1      43.907  27.534  31.901  1.00  0.00     0.049 A 
ATOM     37  H   UNL A   1      42.208  28.557  31.190  1.00  0.00     0.167 HD
ATOM     38  C   UNL A   1      43.269  29.002  33.802  1.00  0.00     0.074 A 
ATOM     39  C   UNL A   1      43.434  29.480  35.160  1.00  0.00     0.031 C 
ATOM     40  C   UNL A   1      44.068  28.070  33.227  1.00  0.00     0.034 A 
BRANCH  27  41
ATOM     41  C   UNL A   1      42.406  26.409  27.512  1.00  0.00     0.023 A 
ATOM     42  C   UNL A   1      43.090  26.900  26.383  1.00  0.00     0.012 A 
ATOM     43  C   UNL A   1      41.954  25.076  27.529  1.00  0.00     0.148 A 
ATOM     44  C   UNL A   1      43.301  26.076  25.277  1.00  0.00     0.002 A 
ATOM     45  C   UNL A   1      42.209  24.250  26.445  1.00  0.00     0.091 A 
ATOM     46  F   UNL A   1      41.276  24.647  28.604  1.00  0.00    -0.205 F 
ATOM     47  C   UNL A   1      42.871  24.750  25.312  1.00  0.00     0.022 A 
BRANCH  45  48
ATOM     48  S   UNL A   1      41.754  22.513  26.425  1.00  0.00     0.127 S 
ATOM     49  O   UNL A   1      42.313  22.046  27.693  1.00  0.00    -0.237 OA
ATOM     50  O   UNL A   1      40.294  22.586  26.389  1.00  0.00    -0.237 OA
ATOM     51  O   UNL A   1      42.370  21.946  25.233  1.00  0.00    -0.744 OA
ENDBRANCH  45  48
ENDBRANCH  27  41
BRANCH  28  52
ATOM     52  C   UNL A   1      40.181  32.163  35.456  1.00  0.00     0.023 A 
ATOM     53  C   UNL A   1      40.985  33.266  35.807  1.00  0.00     0.012 A 
ATOM     54  C   UNL A   1      39.101  31.820  36.296  1.00  0.00     0.148 A 
ATOM     55  C   UNL A   1      40.751  33.976  36.988  1.00  0.00     0.002 A 
ATOM     56  C   UNL A   1      38.833  32.572  37.435  1.00  0.00     0.091 A 
ATOM     57  F   UNL A   1      38.363  30.746  35.980  1.00  0.00    -0.205 F 
ATOM     58  C   UNL A   1      39.671  33.636  37.797  1.00  0.00     0.022 A 
BRANCH  56  59
ATOM     59  S   UNL A   1      37.386  32.280  38.458  1.00  0.00     0.127 S 
ATOM     60  O   UNL A   1      37.748  32.957  39.695  1.00  0.00    -0.237 OA
ATOM     61  O   UNL A   1      36.326  32.924  37.684  1.00  0.00    -0.237 OA
ATOM     62  O   UNL A   1      37.259  30.824  38.541  1.00  0.00    -0.744 OA
ENDBRANCH  56  59
ENDBRANCH  28  52
BRANCH  40  63
ATOM     63  C   UNL A   1      45.208  27.528  34.047  1.00  0.00     0.023 A 
ATOM     64  C   UNL A   1      46.411  28.253  34.142  1.00  0.00     0.012 A 
ATOM     65  C   UNL A   1      45.044  26.349  34.801  1.00  0.00     0.148 A 
ATOM     66  C   UNL A   1      47.449  27.794  34.951  1.00  0.00     0.002 A 
ATOM     67  C   UNL A   1      46.060  25.929  35.648  1.00  0.00     0.091 A 
ATOM     68  F   UNL A   1      43.893  25.669  34.683  1.00  0.00    -0.205 F 
ATOM     69  C   UNL A   1      47.268  26.642  35.714  1.00  0.00     0.022 A 
BRANCH  67  70
ATOM     70  S   UNL A   1      45.873  24.524  36.749  1.00  0.00     0.127 S 
ATOM     71  O   UNL A   1      46.361  23.427  35.915  1.00  0.00    -0.237 OA
ATOM     72  O   UNL A   1      46.753  24.883  37.861  1.00  0.00    -0.237 OA
ATOM     73  O   UNL A   1      44.459  24.464  37.092  1.00  0.00    -0.744 OA
ENDBRANCH  67  70
ENDBRANCH  40  63
ENDBRANCH  14  15
ENDBRANCH   7   9
ENDBRANCH   6   7
ENDBRANCH   5   6
ENDBRANCH   4   5
ENDBRANCH   3   4
ENDBRANCH   2   3
ENDBRANCH   1   2
BRANCH   1  74
ATOM     74  O   UNL A   1      29.889  28.621  21.910  1.00  0.00    -0.377 OA
BRANCH  74  75
ATOM     75  C   UNL A   1      29.021  28.735  23.029  1.00  0.00     0.188 C 
BRANCH  75  76
ATOM     76  C   UNL A   1      28.483  27.401  23.586  1.00  0.00     0.188 C 
BRANCH  76  77
ATOM     77  O   UNL A   1      29.462  26.388  23.543  1.00  0.00    -0.376 OA
BRANCH  77  78
ATOM     78  C   UNL A   1      30.297  26.333  24.678  1.00  0.00     0.202 C 
BRANCH  78  79
ATOM     79  C   UNL A   1      29.704  25.698  25.957  1.00  0.00     0.261 C 
BRANCH  79  80
ATOM     80  O   UNL A   1      30.392  24.537  26.506  1.00  0.00    -0.459 OA
BRANCH  80  81
ATOM     81  C   UNL A   1      31.698  24.300  26.191  1.00  0.00     0.364 C 
ATOM     82  O   UNL A   1      32.582  25.125  26.383  1.00  0.00    -0.245 OA
BRANCH  81  83
ATOM     83  C   UNL A   1      31.915  22.842  25.576  1.00  0.00     0.295 C 
ATOM     84  C   UNL A   1      31.397  22.912  24.125  1.00  0.00     0.078 C 
ATOM     85  N   UNL A   1      33.338  22.382  25.754  1.00  0.00    -0.319 N 
ATOM     86  C   UNL A   1      32.381  23.611  23.205  1.00  0.00     0.013 C 
ATOM     87  C   UNL A   1      34.247  22.832  24.698  1.00  0.00     0.263 C 
ATOM     88  H   UNL A   1      33.503  22.903  26.616  1.00  0.00     0.349 HD
ATOM     89  C   UNL A   1      33.694  22.866  23.275  1.00  0.00     0.062 C 
BRANCH  85  90
ATOM     90  C   UNL A   1      33.686  21.029  26.293  1.00  0.00     0.301 C 
BRANCH  90  91
ATOM     91  C   UNL A   1      33.737  19.925  25.196  1.00  0.00     0.025 A 
ATOM     92  C   UNL A   1      32.545  19.455  24.640  1.00  0.00     0.014 A 
ATOM     93  C   UNL A   1      34.882  19.220  24.795  1.00  0.00     0.052 A 
ATOM     94  C   UNL A   1      32.419  18.158  24.139  1.00  0.00     0.040 A 
ATOM     95  C   UNL A   1      34.788  17.949  24.196  1.00  0.00     0.060 A 
ATOM     96  Cl  UNL A   1      36.456  19.925  24.898  1.00  0.00    -0.084 Cl
ATOM     97  C   UNL A   1      33.545  17.390  23.961  1.00  0.00     0.124 A 
ATOM     98  F   UNL A   1      33.431  16.137  23.508  1.00  0.00    -0.207 F 
ENDBRANCH  90  91
ENDBRANCH  85  90
ENDBRANCH  81  83
ENDBRANCH  80  81
ENDBRANCH  79  80
ENDBRANCH  78  79
ENDBRANCH  77  78
ENDBRANCH  76  77
ENDBRANCH  75  76
ENDBRANCH  74  75
ENDBRANCH   1  74
TORSDOF 25
ENDMDL
MODEL 2
REMARK VINA RESULT:      -9.9      2.204      7.659
REMARK SMILES O=C(OCCOCCOCCOCCOC(=O)[C@H]1CCCC[N@@H+]1Cc1ccc(F)cc1Cl)c1ccc(-c2c3nc(c(-c4cccc(S(=O)(=O)[O-])c4F)c4ccc([nH]4)c(-c4cccc(S(=O)(=O)[O-])c4F)c4nc(c(-c5cccc(S(=O)(=O)[O-])c5F)c5ccc2[nH]5)C=C4)C=C3)cc1
REMARK SMILES IDX 8 1 7 2 6 3 5 4 4 5 3 6 2 7 1 8 33 9 34 10 95 11 35 12 94 13
REMARK SMILES IDX 36 14 37 15 38 16 88 17 39 18 93 19 87 20 89 21 40 22 92 23
REMARK SMILES IDX 86 24 85 25 41 27 73 28 53 29 72 30 54 31 57 32 71 33 90 34
REMARK SMILES IDX 55 35 56 36 70 38 91 39 58 40 42 41 43 42 51 43 44 44 46 45
REMARK SMILES IDX 52 46 45 47 47 48 48 49 49 50 50 51 74 52 75 53 83 54 76 55
REMARK SMILES IDX 78 56 84 57 77 58 79 59 80 60 81 61 82 62 59 63 60 64 68 65
REMARK SMILES IDX 61 66 63 67 69 68 62 69 64 70 65 71 66 72 67 73 9 74 10 75
REMARK SMILES IDX 11 76 12 77 13 78 14 79 15 80 16 81 17 82 18 83 19 84 23 85
REMARK SMILES IDX 20 86 22 87 21 89 24 90 25 91 26 92 31 93 27 94 30 95 32 96
REMARK SMILES IDX 28 97 29 98
REMARK H PARENT 89 26 57 37 23 88
REMARK Flexibility Score: inf
ROOT
ATOM      1  C   UNL A   1      30.206  28.553  23.953  1.00  0.00     0.188 C 
ENDROOT
BRANCH   1   2
ATOM      2  C   UNL A   1      31.308  29.094  23.050  1.00  0.00     0.188 C 
BRANCH   2   3
ATOM      3  O   UNL A   1      32.478  29.368  23.834  1.00  0.00    -0.376 OA
BRANCH   3   4
ATOM      4  C   UNL A   1      32.254  29.404  25.241  1.00  0.00     0.202 C 
BRANCH   4   5
ATOM      5  C   UNL A   1      33.521  29.216  26.079  1.00  0.00     0.261 C 
BRANCH   5   6
ATOM      6  O   UNL A   1      33.565  30.059  27.238  1.00  0.00    -0.460 OA
BRANCH   6   7
ATOM      7  C   UNL A   1      34.598  30.796  27.719  1.00  0.00     0.338 C 
ATOM      8  O   UNL A   1      34.452  32.019  27.763  1.00  0.00    -0.246 OA
BRANCH   7   9
ATOM      9  C   UNL A   1      35.899  30.236  28.211  1.00  0.00     0.060 A 
ATOM     10  C   UNL A   1      36.091  29.547  29.406  1.00  0.00     0.016 A 
ATOM     11  C   UNL A   1      37.006  30.351  27.347  1.00  0.00     0.016 A 
ATOM     12  C   UNL A   1      37.328  29.005  29.740  1.00  0.00     0.010 A 
ATOM     13  C   UNL A   1      38.244  29.774  27.661  1.00  0.00     0.010 A 
ATOM     14  C   UNL A   1      38.402  29.084  28.864  1.00  0.00    -0.014 A 
BRANCH  14  15
ATOM     15  C   UNL A   1      39.702  28.569  29.335  1.00  0.00     0.031 A 
ATOM     16  C   UNL A   1      40.345  29.266  30.493  1.00  0.00     0.074 A 
ATOM     17  C   UNL A   1      40.220  27.431  28.836  1.00  0.00     0.049 A 
ATOM     18  N   UNL A   1      41.507  29.057  31.041  1.00  0.00    -0.248 NA
ATOM     19  C   UNL A   1      39.555  30.334  31.133  1.00  0.00     0.031 C 
ATOM     20  C   UNL A   1      39.593  26.592  27.812  1.00  0.00     0.029 A 
ATOM     21  N   UNL A   1      41.387  26.774  29.134  1.00  0.00    -0.354 N 
ATOM     22  C   UNL A   1      41.627  30.019  32.033  1.00  0.00     0.074 A 
ATOM     23  C   UNL A   1      40.396  30.774  32.056  1.00  0.00     0.031 C 
ATOM     24  C   UNL A   1      40.388  25.537  27.563  1.00  0.00     0.029 A 
ATOM     25  C   UNL A   1      41.609  25.661  28.352  1.00  0.00     0.049 A 
ATOM     26  H   UNL A   1      42.007  27.068  29.840  1.00  0.00     0.167 HD
ATOM     27  C   UNL A   1      42.689  30.265  32.828  1.00  0.00     0.034 A 
ATOM     28  C   UNL A   1      42.702  24.877  28.254  1.00  0.00     0.034 A 
ATOM     29  C   UNL A   1      43.896  29.490  32.798  1.00  0.00     0.049 A 
ATOM     30  C   UNL A   1      43.896  25.215  29.117  1.00  0.00     0.074 A 
ATOM     31  C   UNL A   1      45.054  29.675  33.528  1.00  0.00     0.029 A 
ATOM     32  N   UNL A   1      44.102  28.389  31.980  1.00  0.00    -0.354 N 
ATOM     33  N   UNL A   1      44.009  26.130  30.051  1.00  0.00    -0.248 NA
ATOM     34  C   UNL A   1      45.114  24.417  28.910  1.00  0.00     0.031 C 
ATOM     35  C   UNL A   1      45.977  28.707  33.120  1.00  0.00     0.029 A 
ATOM     36  C   UNL A   1      45.376  27.893  32.171  1.00  0.00     0.049 A 
ATOM     37  H   UNL A   1      43.437  28.016  31.356  1.00  0.00     0.167 HD
ATOM     38  C   UNL A   1      45.300  26.009  30.551  1.00  0.00     0.074 A 
ATOM     39  C   UNL A   1      45.917  24.904  29.847  1.00  0.00     0.031 C 
ATOM     40  C   UNL A   1      45.936  26.758  31.485  1.00  0.00     0.034 A 
BRANCH  27  41
ATOM     41  C   UNL A   1      42.620  31.469  33.721  1.00  0.00     0.023 A 
ATOM     42  C   UNL A   1      43.112  32.716  33.290  1.00  0.00     0.012 A 
ATOM     43  C   UNL A   1      42.038  31.350  34.997  1.00  0.00     0.148 A 
ATOM     44  C   UNL A   1      43.042  33.826  34.133  1.00  0.00     0.002 A 
ATOM     45  C   UNL A   1      41.930  32.469  35.810  1.00  0.00     0.091 A 
ATOM     46  F   UNL A   1      41.609  30.143  35.393  1.00  0.00    -0.205 F 
ATOM     47  C   UNL A   1      42.442  33.706  35.385  1.00  0.00     0.022 A 
BRANCH  45  48
ATOM     48  S   UNL A   1      41.116  32.428  37.409  1.00  0.00     0.127 S 
ATOM     49  O   UNL A   1      39.841  31.794  37.076  1.00  0.00    -0.237 OA
ATOM     50  O   UNL A   1      42.028  31.593  38.189  1.00  0.00    -0.237 OA
ATOM     51  O   UNL A   1      41.019  33.812  37.852  1.00  0.00    -0.744 OA
ENDBRANCH  45  48
ENDBRANCH  27  41
BRANCH  28  52
ATOM     52  C   UNL A   1      42.766  23.748  27.276  1.00  0.00     0.023 A 
ATOM     53  C   UNL A   1      43.379  23.935  26.021  1.00  0.00     0.012 A 
ATOM     54  C   UNL A   1      42.173  22.500  27.559  1.00  0.00     0.148 A 
ATOM     55  C   UNL A   1      43.358  22.924  25.056  1.00  0.00     0.002 A 
ATOM     56  C   UNL A   1      42.215  21.475  26.620  1.00  0.00     0.091 A 
ATOM     57  F   UNL A   1      41.557  22.340  28.739  1.00  0.00    -0.205 F 
ATOM     58  C   UNL A   1      42.786  21.691  25.358  1.00  0.00     0.022 A 
BRANCH  56  59
ATOM     59  S   UNL A   1      41.617  19.820  26.980  1.00  0.00     0.127 S 
ATOM     60  O   UNL A   1      40.655  20.071  28.045  1.00  0.00    -0.237 OA
ATOM     61  O   UNL A   1      41.036  19.418  25.700  1.00  0.00    -0.237 OA
ATOM     62  O   UNL A   1      42.805  19.054  27.360  1.00  0.00    -0.744 OA
ENDBRANCH  56  59
ENDBRANCH  28  52
BRANCH  40  63
ATOM     63  C   UNL A   1      47.356  26.391  31.823  1.00  0.00     0.023 A 
ATOM     64  C   UNL A   1      48.422  27.026  31.156  1.00  0.00     0.012 A 
ATOM     65  C   UNL A   1      47.629  25.490  32.871  1.00  0.00     0.148 A 
ATOM     66  C   UNL A   1      49.741  26.744  31.506  1.00  0.00     0.002 A 
ATOM     67  C   UNL A   1      48.943  25.257  33.251  1.00  0.00     0.091 A 
ATOM     68  F   UNL A   1      46.596  24.888  33.481  1.00  0.00    -0.205 F 
ATOM     69  C   UNL A   1      50.000  25.872  32.562  1.00  0.00     0.022 A 
BRANCH  67  70
ATOM     70  S   UNL A   1      49.366  24.239  34.669  1.00  0.00     0.127 S 
ATOM     71  O   UNL A   1      48.652  23.000  34.367  1.00  0.00    -0.237 OA
ATOM     72  O   UNL A   1      50.822  24.147  34.559  1.00  0.00    -0.237 OA
ATOM     73  O   UNL A   1      48.891  24.961  35.841  1.00  0.00    -0.744 OA
ENDBRANCH  67  70
ENDBRANCH  40  63
ENDBRANCH  14  15
ENDBRANCH   7   9
ENDBRANCH   6   7
ENDBRANCH   5   6
ENDBRANCH   4   5
ENDBRANCH   3   4
ENDBRANCH   2   3
ENDBRANCH   1   2
BRANCH   1  74
ATOM     74  O   UNL A   1      29.414  27.589  23.261  1.00  0.00    -0.377 OA
BRANCH  74  75
ATOM     75  C   UNL A   1      29.351  26.341  23.937  1.00  0.00     0.188 C 
BRANCH  75  76
ATOM     76  C   UNL A   1      30.713  25.729  24.323  1.00  0.00     0.188 C 
BRANCH  76  77
ATOM     77  O   UNL A   1      31.629  25.783  23.253  1.00  0.00    -0.376 OA
BRANCH  77  78
ATOM     78  C   UNL A   1      31.592  24.666  22.394  1.00  0.00     0.202 C 
BRANCH  78  79
ATOM     79  C   UNL A   1      32.947  24.030  22.010  1.00  0.00     0.261 C 
BRANCH  79  80
ATOM     80  O   UNL A   1      34.148  24.613  22.597  1.00  0.00    -0.459 OA
BRANCH  80  81
ATOM     81  C   UNL A   1      34.451  24.388  23.908  1.00  0.00     0.364 C 
ATOM     82  O   UNL A   1      34.360  25.259  24.763  1.00  0.00    -0.245 OA
BRANCH  81  83
ATOM     83  C   UNL A   1      34.905  22.879  24.171  1.00  0.00     0.295 C 
ATOM     84  C   UNL A   1      36.284  22.727  23.499  1.00  0.00     0.078 C 
ATOM     85  N   UNL A   1      34.836  22.538  25.637  1.00  0.00    -0.319 N 
ATOM     86  C   UNL A   1      37.389  23.363  24.323  1.00  0.00     0.013 C 
ATOM     87  C   UNL A   1      36.036  22.905  26.391  1.00  0.00     0.263 C 
ATOM     88  H   UNL A   1      34.069  23.176  25.851  1.00  0.00     0.349 HD
ATOM     89  C   UNL A   1      37.380  22.719  25.690  1.00  0.00     0.062 C 
BRANCH  85  90
ATOM     90  C   UNL A   1      34.180  21.292  26.144  1.00  0.00     0.301 C 
BRANCH  90  91
ATOM     91  C   UNL A   1      34.044  20.183  25.059  1.00  0.00     0.025 A 
ATOM     92  C   UNL A   1      32.822  20.009  24.406  1.00  0.00     0.014 A 
ATOM     93  C   UNL A   1      35.008  19.207  24.759  1.00  0.00     0.052 A 
ATOM     94  C   UNL A   1      32.420  18.770  23.900  1.00  0.00     0.040 A 
ATOM     95  C   UNL A   1      34.650  17.985  24.158  1.00  0.00     0.060 A 
ATOM     96  Cl  UNL A   1      36.694  19.505  24.992  1.00  0.00    -0.084 Cl
ATOM     97  C   UNL A   1      33.332  17.745  23.820  1.00  0.00     0.124 A 
ATOM     98  F   UNL A   1      32.947  16.548  23.364  1.00  0.00    -0.207 F 
ENDBRANCH  90  91
ENDBRANCH  85  90
ENDBRANCH  81  83
ENDBRANCH  80  81
ENDBRANCH  79  80
ENDBRANCH  78  79
ENDBRANCH  77  78
ENDBRANCH  76  77
ENDBRANCH  75  76
ENDBRANCH  74  75
ENDBRANCH   1  74
TORSDOF 25
ENDMDL
MODEL 3
REMARK VINA RESULT:      -9.4      2.020      2.952
REMARK SMILES O=C(OCCOCCOCCOCCOC(=O)[C@H]1CCCC[N@@H+]1Cc1ccc(F)cc1Cl)c1ccc(-c2c3nc(c(-c4cccc(S(=O)(=O)[O-])c4F)c4ccc([nH]4)c(-c4cccc(S(=O)(=O)[O-])c4F)c4nc(c(-c5cccc(S(=O)(=O)[O-])c5F)c5ccc2[nH]5)C=C4)C=C3)cc1
REMARK SMILES IDX 8 1 7 2 6 3 5 4 4 5 3 6 2 7 1 8 33 9 34 10 95 11 35 12 94 13
REMARK SMILES IDX 36 14 37 15 38 16 88 17 39 18 93 19 87 20 89 21 40 22 92 23
REMARK SMILES IDX 86 24 85 25 41 27 73 28 53 29 72 30 54 31 57 32 71 33 90 34
REMARK SMILES IDX 55 35 56 36 70 38 91 39 58 40 42 41 43 42 51 43 44 44 46 45
REMARK SMILES IDX 52 46 45 47 47 48 48 49 49 50 50 51 74 52 75 53 83 54 76 55
REMARK SMILES IDX 78 56 84 57 77 58 79 59 80 60 81 61 82 62 59 63 60 64 68 65
REMARK SMILES IDX 61 66 63 67 69 68 62 69 64 70 65 71 66 72 67 73 9 74 10 75
REMARK SMILES IDX 11 76 12 77 13 78 14 79 15 80 16 81 17 82 18 83 19 84 23 85
REMARK SMILES IDX 20 86 22 87 21 89 24 90 25 91 26 92 31 93 27 94 30 95 32 96
REMARK SMILES IDX 28 97 29 98
REMARK H PARENT 89 26 57 37 23 88
REMARK Flexibility Score: inf
ROOT
ATOM      1  C   UNL A   1      29.647  27.782  23.259  1.00  0.00     0.188 C 
ENDROOT
BRANCH   1   2
ATOM      2  C   UNL A   1      30.790  28.308  22.398  1.00  0.00     0.188 C 
BRANCH   2   3
ATOM      3  O   UNL A   1      31.193  29.599  22.875  1.00  0.00    -0.376 OA
BRANCH   3   4
ATOM      4  C   UNL A   1      31.130  29.755  24.291  1.00  0.00     0.202 C 
BRANCH   4   5
ATOM      5  C   UNL A   1      32.499  29.826  24.972  1.00  0.00     0.261 C 
BRANCH   5   6
ATOM      6  O   UNL A   1      32.425  30.183  26.359  1.00  0.00    -0.460 OA
BRANCH   6   7
ATOM      7  C   UNL A   1      33.099  31.153  27.028  1.00  0.00     0.338 C 
ATOM      8  O   UNL A   1      32.599  32.279  27.052  1.00  0.00    -0.246 OA
BRANCH   7   9
ATOM      9  C   UNL A   1      34.399  30.957  27.749  1.00  0.00     0.060 A 
ATOM     10  C   UNL A   1      35.376  31.929  27.947  1.00  0.00     0.016 A 
ATOM     11  C   UNL A   1      34.609  29.698  28.345  1.00  0.00     0.016 A 
ATOM     12  C   UNL A   1      36.521  31.665  28.692  1.00  0.00     0.010 A 
ATOM     13  C   UNL A   1      35.743  29.440  29.129  1.00  0.00     0.010 A 
ATOM     14  C   UNL A   1      36.701  30.437  29.313  1.00  0.00    -0.014 A 
BRANCH  14  15
ATOM     15  C   UNL A   1      37.985  30.207  30.003  1.00  0.00     0.031 A 
ATOM     16  C   UNL A   1      39.020  29.397  29.288  1.00  0.00     0.074 A 
ATOM     17  C   UNL A   1      38.267  30.821  31.168  1.00  0.00     0.049 A 
ATOM     18  N   UNL A   1      40.186  28.994  29.704  1.00  0.00    -0.248 NA
ATOM     19  C   UNL A   1      38.700  29.004  27.903  1.00  0.00     0.031 C 
ATOM     20  C   UNL A   1      37.383  31.754  31.870  1.00  0.00     0.029 A 
ATOM     21  N   UNL A   1      39.385  30.763  31.961  1.00  0.00    -0.354 N 
ATOM     22  C   UNL A   1      40.705  28.232  28.668  1.00  0.00     0.074 A 
ATOM     23  C   UNL A   1      39.757  28.276  27.580  1.00  0.00     0.031 C 
ATOM     24  C   UNL A   1      37.992  32.174  32.993  1.00  0.00     0.029 A 
ATOM     25  C   UNL A   1      39.273  31.487  33.127  1.00  0.00     0.049 A 
ATOM     26  H   UNL A   1      40.192  30.254  31.719  1.00  0.00     0.167 HD
ATOM     27  C   UNL A   1      41.858  27.530  28.650  1.00  0.00     0.034 A 
ATOM     28  C   UNL A   1      40.091  31.535  34.198  1.00  0.00     0.034 A 
ATOM     29  C   UNL A   1      42.792  27.515  29.739  1.00  0.00     0.049 A 
ATOM     30  C   UNL A   1      41.345  30.693  34.170  1.00  0.00     0.074 A 
ATOM     31  C   UNL A   1      43.973  26.807  29.847  1.00  0.00     0.029 A 
ATOM     32  N   UNL A   1      42.639  28.235  30.914  1.00  0.00    -0.354 N 
ATOM     33  N   UNL A   1      41.831  29.966  33.191  1.00  0.00    -0.248 NA
ATOM     34  C   UNL A   1      42.162  30.673  35.392  1.00  0.00     0.031 C 
ATOM     35  C   UNL A   1      44.515  27.067  31.109  1.00  0.00     0.029 A 
ATOM     36  C   UNL A   1      43.694  27.974  31.766  1.00  0.00     0.049 A 
ATOM     37  H   UNL A   1      41.890  28.842  31.112  1.00  0.00     0.167 HD
ATOM     38  C   UNL A   1      43.013  29.416  33.673  1.00  0.00     0.074 A 
ATOM     39  C   UNL A   1      43.192  29.927  35.016  1.00  0.00     0.031 C 
ATOM     40  C   UNL A   1      43.863  28.543  33.077  1.00  0.00     0.034 A 
BRANCH  27  41
ATOM     41  C   UNL A   1      42.118  26.659  27.457  1.00  0.00     0.023 A 
ATOM     42  C   UNL A   1      42.724  27.183  26.299  1.00  0.00     0.012 A 
ATOM     43  C   UNL A   1      41.768  25.296  27.506  1.00  0.00     0.148 A 
ATOM     44  C   UNL A   1      42.958  26.361  25.196  1.00  0.00     0.002 A 
ATOM     45  C   UNL A   1      42.047  24.476  26.423  1.00  0.00     0.091 A 
ATOM     46  F   UNL A   1      41.162  24.833  28.609  1.00  0.00    -0.205 F 
ATOM     47  C   UNL A   1      42.631  25.008  25.262  1.00  0.00     0.022 A 
BRANCH  45  48
ATOM     48  S   UNL A   1      41.724  22.710  26.439  1.00  0.00     0.127 S 
ATOM     49  O   UNL A   1      42.356  22.305  27.694  1.00  0.00    -0.237 OA
ATOM     50  O   UNL A   1      40.262  22.672  26.450  1.00  0.00    -0.237 OA
ATOM     51  O   UNL A   1      42.344  22.172  25.235  1.00  0.00    -0.744 OA
ENDBRANCH  45  48
ENDBRANCH  27  41
BRANCH  28  52
ATOM     52  C   UNL A   1      39.742  32.339  35.411  1.00  0.00     0.023 A 
ATOM     53  C   UNL A   1      38.964  31.767  36.437  1.00  0.00     0.012 A 
ATOM     54  C   UNL A   1      40.132  33.689  35.530  1.00  0.00     0.148 A 
ATOM     55  C   UNL A   1      38.543  32.533  37.528  1.00  0.00     0.002 A 
ATOM     56  C   UNL A   1      39.767  34.427  36.651  1.00  0.00     0.091 A 
ATOM     57  F   UNL A   1      40.839  34.239  34.532  1.00  0.00    -0.205 F 
ATOM     58  C   UNL A   1      38.952  33.859  37.641  1.00  0.00     0.022 A 
BRANCH  56  59
ATOM     59  S   UNL A   1      40.361  36.098  36.933  1.00  0.00     0.127 S 
ATOM     60  O   UNL A   1      39.778  36.820  35.811  1.00  0.00    -0.237 OA
ATOM     61  O   UNL A   1      39.786  36.412  38.240  1.00  0.00    -0.237 OA
ATOM     62  O   UNL A   1      41.821  35.994  36.936  1.00  0.00    -0.744 OA
ENDBRANCH  56  59
ENDBRANCH  28  52
BRANCH  40  63
ATOM     63  C   UNL A   1      45.075  28.110  33.857  1.00  0.00     0.023 A 
ATOM     64  C   UNL A   1      46.242  28.898  33.836  1.00  0.00     0.012 A 
ATOM     65  C   UNL A   1      45.018  26.973  34.687  1.00  0.00     0.148 A 
ATOM     66  C   UNL A   1      47.347  28.542  34.606  1.00  0.00     0.002 A 
ATOM     67  C   UNL A   1      46.102  26.657  35.493  1.00  0.00     0.091 A 
ATOM     68  F   UNL A   1      43.900  26.230  34.678  1.00  0.00    -0.205 F 
ATOM     69  C   UNL A   1      47.272  27.432  35.445  1.00  0.00     0.022 A 
BRANCH  67  70
ATOM     70  S   UNL A   1      46.054  25.313  36.684  1.00  0.00     0.127 S 
ATOM     71  O   UNL A   1      46.123  24.142  35.812  1.00  0.00    -0.237 OA
ATOM     72  O   UNL A   1      47.261  25.557  37.474  1.00  0.00    -0.237 OA
ATOM     73  O   UNL A   1      44.807  25.470  37.420  1.00  0.00    -0.744 OA
ENDBRANCH  67  70
ENDBRANCH  40  63
ENDBRANCH  14  15
ENDBRANCH   7   9
ENDBRANCH   6   7
ENDBRANCH   5   6
ENDBRANCH   4   5
ENDBRANCH   3   4
ENDBRANCH   2   3
ENDBRANCH   1   2
BRANCH   1  74
ATOM     74  O   UNL A   1      29.990  26.524  23.838  1.00  0.00    -0.377 OA
BRANCH  74  75
ATOM     75  C   UNL A   1      29.802  26.497  25.246  1.00  0.00     0.188 C 
BRANCH  75  76
ATOM     76  C   UNL A   1      31.087  26.313  26.080  1.00  0.00     0.188 C 
BRANCH  76  77
ATOM     77  O   UNL A   1      32.237  26.663  25.345  1.00  0.00    -0.376 OA
BRANCH  77  78
ATOM     78  C   UNL A   1      33.456  26.321  25.967  1.00  0.00     0.202 C 
BRANCH  78  79
ATOM     79  C   UNL A   1      34.498  25.571  25.106  1.00  0.00     0.261 C 
BRANCH  79  80
ATOM     80  O   UNL A   1      35.422  24.683  25.801  1.00  0.00    -0.459 OA
BRANCH  80  81
ATOM     81  C   UNL A   1      35.105  23.368  25.982  1.00  0.00     0.364 C 
ATOM     82  O   UNL A   1      34.873  22.893  27.086  1.00  0.00    -0.245 OA
BRANCH  81  83
ATOM     83  C   UNL A   1      35.058  22.564  24.602  1.00  0.00     0.295 C 
ATOM     84  C   UNL A   1      36.528  22.310  24.209  1.00  0.00     0.078 C 
ATOM     85  N   UNL A   1      34.178  21.347  24.711  1.00  0.00    -0.319 N 
ATOM     86  C   UNL A   1      37.145  21.185  25.019  1.00  0.00     0.013 C 
ATOM     87  C   UNL A   1      34.859  20.164  25.240  1.00  0.00     0.263 C 
ATOM     88  H   UNL A   1      33.549  21.742  25.411  1.00  0.00     0.349 HD
ATOM     89  C   UNL A   1      36.307  19.945  24.807  1.00  0.00     0.062 C 
BRANCH  85  90
ATOM     90  C   UNL A   1      33.130  21.018  23.694  1.00  0.00     0.301 C 
BRANCH  90  91
ATOM     91  C   UNL A   1      32.649  22.256  22.882  1.00  0.00     0.025 A 
ATOM     92  C   UNL A   1      33.091  22.429  21.569  1.00  0.00     0.014 A 
ATOM     93  C   UNL A   1      31.909  23.334  23.393  1.00  0.00     0.052 A 
ATOM     94  C   UNL A   1      33.218  23.693  20.987  1.00  0.00     0.040 A 
ATOM     95  C   UNL A   1      31.937  24.599  22.774  1.00  0.00     0.060 A 
ATOM     96  Cl  UNL A   1      30.830  23.135  24.727  1.00  0.00    -0.084 Cl
ATOM     97  C   UNL A   1      32.675  24.785  21.620  1.00  0.00     0.124 A 
ATOM     98  F   UNL A   1      32.817  26.002  21.085  1.00  0.00    -0.207 F 
ENDBRANCH  90  91
ENDBRANCH  85  90
ENDBRANCH  81  83
ENDBRANCH  80  81
ENDBRANCH  79  80
ENDBRANCH  78  79
ENDBRANCH  77  78
ENDBRANCH  76  77
ENDBRANCH  75  76
ENDBRANCH  74  75
ENDBRANCH   1  74
TORSDOF 25
ENDMDL
