MODEL 1
REMARK VINA RESULT:      -9.5      0.000      0.000
REMARK SMILES CC[C@@H](C)[C@@H](C(=O)OCCOCCOCCOCCOC(=O)c1ccc(-c2c3nc(c(-c4cccc(S(=O)(=O)[O-])c4F)c4ccc([nH]4)c(-c4cccc(S(=O)(=O)[O-])c4F)c4nc(c(-c5cccc(S(=O)(=O)[O-])c5F)c5ccc2[nH]5)C=C4)C=C3)cc1)S(=O)(=O)c1ccc(OC)cc1
REMARK SMILES IDX 14 1 13 2 12 3 11 4 10 5 9 6 8 7 6 8 7 9 5 10 3 11 4 12 2 13
REMARK SMILES IDX 1 14 86 15 87 16 88 17 89 18 90 19 96 20 91 21 95 22 92 23
REMARK SMILES IDX 93 24 94 25 15 26 16 27 17 28 18 29 19 30 20 31 21 32 22 33
REMARK SMILES IDX 23 34 24 35 85 36 25 37 84 38 26 39 27 40 28 41 78 42 29 43
REMARK SMILES IDX 83 44 77 45 79 46 30 47 82 48 76 49 75 50 31 52 63 53 43 54
REMARK SMILES IDX 62 55 44 56 47 57 61 58 80 59 45 60 46 61 60 63 81 64 48 65
REMARK SMILES IDX 32 66 33 67 41 68 34 69 36 70 42 71 35 72 37 73 38 74 39 75
REMARK SMILES IDX 40 76 64 77 65 78 73 79 66 80 68 81 74 82 67 83 69 84 70 85
REMARK SMILES IDX 71 86 72 87 49 88 50 89 58 90 51 91 53 92 59 93 52 94 54 95
REMARK SMILES IDX 55 96 56 97 57 98
REMARK H PARENT 79 51 47 62
REMARK Flexibility Score: inf
ROOT
ATOM      1  O   UNL A   1      32.042  18.256  24.549  1.00  0.00    -0.377 OA
ENDROOT
BRANCH   1   2
ATOM      2  C   UNL A   1      32.054  18.866  23.270  1.00  0.00     0.188 C 
BRANCH   2   3
ATOM      3  C   UNL A   1      32.612  20.289  23.088  1.00  0.00     0.188 C 
BRANCH   3   4
ATOM      4  O   UNL A   1      31.686  21.321  23.375  1.00  0.00    -0.376 OA
BRANCH   4   5
ATOM      5  C   UNL A   1      32.134  22.339  24.252  1.00  0.00     0.202 C 
BRANCH   5   6
ATOM      6  C   UNL A   1      31.078  23.255  24.889  1.00  0.00     0.261 C 
BRANCH   6   7
ATOM      7  O   UNL A   1      31.583  24.241  25.819  1.00  0.00    -0.462 OA
BRANCH   7   8
ATOM      8  C   UNL A   1      31.203  25.530  25.711  1.00  0.00     0.325 C 
ATOM      9  O   UNL A   1      30.377  26.016  26.473  1.00  0.00    -0.251 OA
BRANCH   8  10
ATOM     10  C   UNL A   1      31.842  26.282  24.531  1.00  0.00     0.225 C 
BRANCH  10  11
ATOM     11  C   UNL A   1      32.889  27.454  24.710  1.00  0.00     0.015 C 
ATOM     12  C   UNL A   1      33.964  27.399  23.601  1.00  0.00     0.009 C 
BRANCH  11  13
ATOM     13  C   UNL A   1      33.646  27.496  26.069  1.00  0.00     0.002 C 
ATOM     14  C   UNL A   1      33.938  28.914  26.574  1.00  0.00     0.004 C 
ENDBRANCH  11  13
ENDBRANCH  10  11
BRANCH  10  15
ATOM     15  S   UNL A   1      30.512  26.669  23.334  1.00  0.00     0.192 S 
ATOM     16  O   UNL A   1      31.057  26.576  21.989  1.00  0.00    -0.223 OA
ATOM     17  O   UNL A   1      29.323  25.888  23.618  1.00  0.00    -0.223 OA
BRANCH  15  18
ATOM     18  C   UNL A   1      29.995  28.384  23.501  1.00  0.00     0.068 A 
ATOM     19  C   UNL A   1      29.237  28.977  22.487  1.00  0.00     0.024 A 
ATOM     20  C   UNL A   1      30.537  29.195  24.506  1.00  0.00     0.024 A 
ATOM     21  C   UNL A   1      28.941  30.345  22.539  1.00  0.00     0.048 A 
ATOM     22  C   UNL A   1      30.256  30.574  24.538  1.00  0.00     0.048 A 
ATOM     23  C   UNL A   1      29.444  31.152  23.562  1.00  0.00     0.118 A 
BRANCH  23  24
ATOM     24  O   UNL A   1      29.079  32.467  23.480  1.00  0.00    -0.497 OA
ATOM     25  C   UNL A   1      28.498  32.917  22.263  1.00  0.00     0.278 C 
ENDBRANCH  23  24
ENDBRANCH  15  18
ENDBRANCH  10  15
ENDBRANCH   8  10
ENDBRANCH   7   8
ENDBRANCH   6   7
ENDBRANCH   5   6
ENDBRANCH   4   5
ENDBRANCH   3   4
ENDBRANCH   2   3
ENDBRANCH   1   2
BRANCH   1  26
ATOM     26  C   UNL A   1      33.215  18.341  25.347  1.00  0.00     0.188 C 
BRANCH  26  27
ATOM     27  C   UNL A   1      33.489  19.655  26.112  1.00  0.00     0.188 C 
BRANCH  27  28
ATOM     28  O   UNL A   1      34.431  20.521  25.495  1.00  0.00    -0.376 OA
BRANCH  28  29
ATOM     29  C   UNL A   1      35.717  20.004  25.192  1.00  0.00     0.202 C 
BRANCH  29  30
ATOM     30  C   UNL A   1      36.767  20.942  24.577  1.00  0.00     0.261 C 
BRANCH  30  31
ATOM     31  O   UNL A   1      37.475  21.796  25.484  1.00  0.00    -0.460 OA
BRANCH  31  32
ATOM     32  C   UNL A   1      38.699  21.393  25.903  1.00  0.00     0.338 C 
ATOM     33  O   UNL A   1      39.233  20.329  25.692  1.00  0.00    -0.246 OA
BRANCH  32  34
ATOM     34  C   UNL A   1      39.355  22.582  26.494  1.00  0.00     0.060 A 
ATOM     35  C   UNL A   1      38.869  23.858  26.175  1.00  0.00     0.016 A 
ATOM     36  C   UNL A   1      40.403  22.427  27.401  1.00  0.00     0.016 A 
ATOM     37  C   UNL A   1      39.438  24.987  26.760  1.00  0.00     0.010 A 
ATOM     38  C   UNL A   1      41.000  23.560  27.955  1.00  0.00     0.010 A 
ATOM     39  C   UNL A   1      40.536  24.843  27.615  1.00  0.00    -0.014 A 
BRANCH  39  40
ATOM     40  C   UNL A   1      41.351  26.029  27.962  1.00  0.00     0.031 A 
ATOM     41  C   UNL A   1      40.681  27.130  28.735  1.00  0.00     0.074 A 
ATOM     42  C   UNL A   1      42.638  26.138  27.590  1.00  0.00     0.049 A 
ATOM     43  N   UNL A   1      41.146  28.297  29.089  1.00  0.00    -0.248 NA
ATOM     44  C   UNL A   1      39.292  26.878  29.161  1.00  0.00     0.031 C 
ATOM     45  C   UNL A   1      43.397  25.125  26.861  1.00  0.00     0.029 A 
ATOM     46  N   UNL A   1      43.523  27.174  27.754  1.00  0.00    -0.354 N 
ATOM     47  C   UNL A   1      40.099  28.933  29.746  1.00  0.00     0.074 A 
ATOM     48  C   UNL A   1      38.975  28.026  29.739  1.00  0.00     0.031 C 
ATOM     49  C   UNL A   1      44.627  25.607  26.603  1.00  0.00     0.029 A 
ATOM     50  C   UNL A   1      44.727  26.971  27.122  1.00  0.00     0.049 A 
ATOM     51  H   UNL A   1      43.316  27.983  28.274  1.00  0.00     0.167 HD
ATOM     52  C   UNL A   1      40.079  30.162  30.310  1.00  0.00     0.034 A 
ATOM     53  C   UNL A   1      45.770  27.808  26.952  1.00  0.00     0.034 A 
ATOM     54  C   UNL A   1      41.202  31.058  30.315  1.00  0.00     0.049 A 
ATOM     55  C   UNL A   1      45.707  29.192  27.550  1.00  0.00     0.074 A 
ATOM     56  C   UNL A   1      41.298  32.310  30.893  1.00  0.00     0.029 A 
ATOM     57  N   UNL A   1      42.415  30.806  29.694  1.00  0.00    -0.354 N 
ATOM     58  N   UNL A   1      44.751  29.744  28.259  1.00  0.00    -0.248 NA
ATOM     59  C   UNL A   1      46.878  30.059  27.350  1.00  0.00     0.031 C 
ATOM     60  C   UNL A   1      42.557  32.834  30.584  1.00  0.00     0.029 A 
ATOM     61  C   UNL A   1      43.262  31.887  29.858  1.00  0.00     0.049 A 
ATOM     62  H   UNL A   1      42.641  29.980  29.208  1.00  0.00     0.167 HD
ATOM     63  C   UNL A   1      45.221  31.002  28.623  1.00  0.00     0.074 A 
ATOM     64  C   UNL A   1      46.553  31.125  28.069  1.00  0.00     0.031 C 
ATOM     65  C   UNL A   1      44.605  31.972  29.344  1.00  0.00     0.034 A 
BRANCH  52  66
ATOM     66  C   UNL A   1      38.800  30.608  30.964  1.00  0.00     0.023 A 
ATOM     67  C   UNL A   1      38.626  30.450  32.354  1.00  0.00     0.012 A 
ATOM     68  C   UNL A   1      37.787  31.224  30.205  1.00  0.00     0.148 A 
ATOM     69  C   UNL A   1      37.449  30.866  32.973  1.00  0.00     0.002 A 
ATOM     70  C   UNL A   1      36.638  31.681  30.836  1.00  0.00     0.091 A 
ATOM     71  F   UNL A   1      37.961  31.340  28.881  1.00  0.00    -0.205 F 
ATOM     72  C   UNL A   1      36.461  31.492  32.217  1.00  0.00     0.022 A 
BRANCH  70  73
ATOM     73  S   UNL A   1      35.344  32.572  29.965  1.00  0.00     0.127 S 
ATOM     74  O   UNL A   1      34.936  31.590  28.962  1.00  0.00    -0.237 OA
ATOM     75  O   UNL A   1      34.365  32.802  31.027  1.00  0.00    -0.237 OA
ATOM     76  O   UNL A   1      35.968  33.777  29.438  1.00  0.00    -0.744 OA
ENDBRANCH  70  73
ENDBRANCH  52  66
BRANCH  53  77
ATOM     77  C   UNL A   1      46.972  27.364  26.188  1.00  0.00     0.023 A 
ATOM     78  C   UNL A   1      47.959  26.590  26.828  1.00  0.00     0.012 A 
ATOM     79  C   UNL A   1      47.142  27.709  24.833  1.00  0.00     0.148 A 
ATOM     80  C   UNL A   1      49.110  26.196  26.143  1.00  0.00     0.002 A 
ATOM     81  C   UNL A   1      48.262  27.265  24.141  1.00  0.00     0.091 A 
ATOM     82  F   UNL A   1      46.200  28.460  24.247  1.00  0.00    -0.205 F 
ATOM     83  C   UNL A   1      49.257  26.525  24.799  1.00  0.00     0.022 A 
BRANCH  81  84
ATOM     84  S   UNL A   1      48.477  27.533  22.378  1.00  0.00     0.127 S 
ATOM     85  O   UNL A   1      47.228  28.201  22.021  1.00  0.00    -0.237 OA
ATOM     86  O   UNL A   1      49.664  28.388  22.350  1.00  0.00    -0.237 OA
ATOM     87  O   UNL A   1      48.673  26.212  21.799  1.00  0.00    -0.744 OA
ENDBRANCH  81  84
ENDBRANCH  53  77
BRANCH  65  88
ATOM     88  C   UNL A   1      45.375  33.234  29.635  1.00  0.00     0.023 A 
ATOM     89  C   UNL A   1      46.155  33.337  30.803  1.00  0.00     0.012 A 
ATOM     90  C   UNL A   1      45.396  34.285  28.695  1.00  0.00     0.148 A 
ATOM     91  C   UNL A   1      46.918  34.478  31.047  1.00  0.00     0.002 A 
ATOM     92  C   UNL A   1      46.200  35.395  28.919  1.00  0.00     0.091 A 
ATOM     93  F   UNL A   1      44.636  34.174  27.596  1.00  0.00    -0.205 F 
ATOM     94  C   UNL A   1      46.951  35.500  30.100  1.00  0.00     0.022 A 
BRANCH  92  95
ATOM     95  S   UNL A   1      46.386  36.711  27.710  1.00  0.00     0.127 S 
ATOM     96  O   UNL A   1      47.753  37.162  27.970  1.00  0.00    -0.237 OA
ATOM     97  O   UNL A   1      46.209  35.995  26.446  1.00  0.00    -0.237 OA
ATOM     98  O   UNL A   1      45.344  37.684  28.007  1.00  0.00    -0.744 OA
ENDBRANCH  92  95
ENDBRANCH  65  88
ENDBRANCH  39  40
ENDBRANCH  32  34
ENDBRANCH  31  32
ENDBRANCH  30  31
ENDBRANCH  29  30
ENDBRANCH  28  29
ENDBRANCH  27  28
ENDBRANCH  26  27
ENDBRANCH   1  26
TORSDOF 28
ENDMDL
MODEL 2
REMARK VINA RESULT:      -9.3      2.254      7.776
REMARK SMILES CC[C@@H](C)[C@@H](C(=O)OCCOCCOCCOCCOC(=O)c1ccc(-c2c3nc(c(-c4cccc(S(=O)(=O)[O-])c4F)c4ccc([nH]4)c(-c4cccc(S(=O)(=O)[O-])c4F)c4nc(c(-c5cccc(S(=O)(=O)[O-])c5F)c5ccc2[nH]5)C=C4)C=C3)cc1)S(=O)(=O)c1ccc(OC)cc1
REMARK SMILES IDX 14 1 13 2 12 3 11 4 10 5 9 6 8 7 6 8 7 9 5 10 3 11 4 12 2 13
REMARK SMILES IDX 1 14 86 15 87 16 88 17 89 18 90 19 96 20 91 21 95 22 92 23
REMARK SMILES IDX 93 24 94 25 15 26 16 27 17 28 18 29 19 30 20 31 21 32 22 33
REMARK SMILES IDX 23 34 24 35 85 36 25 37 84 38 26 39 27 40 28 41 78 42 29 43
REMARK SMILES IDX 83 44 77 45 79 46 30 47 82 48 76 49 75 50 31 52 63 53 43 54
REMARK SMILES IDX 62 55 44 56 47 57 61 58 80 59 45 60 46 61 60 63 81 64 48 65
REMARK SMILES IDX 32 66 33 67 41 68 34 69 36 70 42 71 35 72 37 73 38 74 39 75
REMARK SMILES IDX 40 76 64 77 65 78 73 79 66 80 68 81 74 82 67 83 69 84 70 85
REMARK SMILES IDX 71 86 72 87 49 88 50 89 58 90 51 91 53 92 59 93 52 94 54 95
REMARK SMILES IDX 55 96 56 97 57 98
REMARK H PARENT 79 51 47 62
REMARK Flexibility Score: inf
ROOT
ATOM      1  O   UNL A   1      34.048  17.579  25.242  1.00  0.00    -0.377 OA
ENDROOT
BRANCH   1   2
ATOM      2  C   UNL A   1      32.659  17.789  25.052  1.00  0.00     0.188 C 
BRANCH   2   3
ATOM      3  C   UNL A   1      32.142  18.505  23.791  1.00  0.00     0.188 C 
BRANCH   3   4
ATOM      4  O   UNL A   1      31.871  19.883  23.973  1.00  0.00    -0.376 OA
BRANCH   4   5
ATOM      5  C   UNL A   1      32.494  20.769  23.059  1.00  0.00     0.202 C 
BRANCH   5   6
ATOM      6  C   UNL A   1      31.776  22.088  22.736  1.00  0.00     0.261 C 
BRANCH   6   7
ATOM      7  O   UNL A   1      31.339  22.859  23.878  1.00  0.00    -0.462 OA
BRANCH   7   8
ATOM      8  C   UNL A   1      32.007  23.974  24.236  1.00  0.00     0.325 C 
ATOM      9  O   UNL A   1      33.223  23.969  24.386  1.00  0.00    -0.251 OA
BRANCH   8  10
ATOM     10  C   UNL A   1      31.108  25.196  24.492  1.00  0.00     0.225 C 
BRANCH  10  11
ATOM     11  C   UNL A   1      31.107  26.484  23.573  1.00  0.00     0.015 C 
ATOM     12  C   UNL A   1      29.689  27.092  23.488  1.00  0.00     0.009 C 
BRANCH  11  13
ATOM     13  C   UNL A   1      31.600  26.284  22.111  1.00  0.00     0.002 C 
ATOM     14  C   UNL A   1      33.102  26.533  21.923  1.00  0.00     0.004 C 
ENDBRANCH  11  13
ENDBRANCH  10  11
BRANCH  10  15
ATOM     15  S   UNL A   1      31.185  25.576  26.280  1.00  0.00     0.192 S 
ATOM     16  O   UNL A   1      29.855  25.952  26.733  1.00  0.00    -0.223 OA
ATOM     17  O   UNL A   1      31.850  24.509  27.004  1.00  0.00    -0.223 OA
BRANCH  15  18
ATOM     18  C   UNL A   1      32.196  27.036  26.570  1.00  0.00     0.068 A 
ATOM     19  C   UNL A   1      31.605  28.192  27.092  1.00  0.00     0.024 A 
ATOM     20  C   UNL A   1      33.499  27.111  26.063  1.00  0.00     0.024 A 
ATOM     21  C   UNL A   1      32.347  29.375  27.198  1.00  0.00     0.048 A 
ATOM     22  C   UNL A   1      34.230  28.311  26.150  1.00  0.00     0.048 A 
ATOM     23  C   UNL A   1      33.662  29.444  26.732  1.00  0.00     0.118 A 
BRANCH  23  24
ATOM     24  O   UNL A   1      34.258  30.663  26.895  1.00  0.00    -0.497 OA
ATOM     25  C   UNL A   1      33.854  31.454  28.005  1.00  0.00     0.278 C 
ENDBRANCH  23  24
ENDBRANCH  15  18
ENDBRANCH  10  15
ENDBRANCH   8  10
ENDBRANCH   7   8
ENDBRANCH   6   7
ENDBRANCH   5   6
ENDBRANCH   4   5
ENDBRANCH   3   4
ENDBRANCH   2   3
ENDBRANCH   1   2
BRANCH   1  26
ATOM     26  C   UNL A   1      34.954  18.514  24.675  1.00  0.00     0.188 C 
BRANCH  26  27
ATOM     27  C   UNL A   1      35.055  19.918  25.312  1.00  0.00     0.188 C 
BRANCH  27  28
ATOM     28  O   UNL A   1      35.732  20.886  24.524  1.00  0.00    -0.376 OA
BRANCH  28  29
ATOM     29  C   UNL A   1      37.151  20.891  24.545  1.00  0.00     0.202 C 
BRANCH  29  30
ATOM     30  C   UNL A   1      37.877  22.046  25.253  1.00  0.00     0.261 C 
BRANCH  30  31
ATOM     31  O   UNL A   1      38.481  21.745  26.517  1.00  0.00    -0.460 OA
BRANCH  31  32
ATOM     32  C   UNL A   1      39.834  21.735  26.582  1.00  0.00     0.338 C 
ATOM     33  O   UNL A   1      40.579  20.844  26.244  1.00  0.00    -0.246 OA
BRANCH  32  34
ATOM     34  C   UNL A   1      40.249  23.109  26.949  1.00  0.00     0.060 A 
ATOM     35  C   UNL A   1      39.712  24.194  26.243  1.00  0.00     0.016 A 
ATOM     36  C   UNL A   1      41.115  23.317  28.023  1.00  0.00     0.016 A 
ATOM     37  C   UNL A   1      40.048  25.497  26.607  1.00  0.00     0.010 A 
ATOM     38  C   UNL A   1      41.484  24.619  28.359  1.00  0.00     0.010 A 
ATOM     39  C   UNL A   1      40.973  25.711  27.635  1.00  0.00    -0.014 A 
BRANCH  39  40
ATOM     40  C   UNL A   1      41.588  27.047  27.797  1.00  0.00     0.031 A 
ATOM     41  C   UNL A   1      42.954  27.259  27.207  1.00  0.00     0.074 A 
ATOM     42  C   UNL A   1      40.968  28.037  28.461  1.00  0.00     0.049 A 
ATOM     43  N   UNL A   1      43.737  28.300  27.279  1.00  0.00    -0.248 NA
ATOM     44  C   UNL A   1      43.513  26.135  26.433  1.00  0.00     0.031 C 
ATOM     45  C   UNL A   1      39.634  27.954  29.053  1.00  0.00     0.029 A 
ATOM     46  N   UNL A   1      41.400  29.302  28.772  1.00  0.00    -0.354 N 
ATOM     47  C   UNL A   1      44.893  27.947  26.594  1.00  0.00     0.074 A 
ATOM     48  C   UNL A   1      44.713  26.596  26.116  1.00  0.00     0.031 C 
ATOM     49  C   UNL A   1      39.372  29.108  29.693  1.00  0.00     0.029 A 
ATOM     50  C   UNL A   1      40.530  29.994  29.581  1.00  0.00     0.049 A 
ATOM     51  H   UNL A   1      42.249  29.677  28.446  1.00  0.00     0.167 HD
ATOM     52  C   UNL A   1      46.005  28.687  26.377  1.00  0.00     0.034 A 
ATOM     53  C   UNL A   1      40.675  31.189  30.188  1.00  0.00     0.034 A 
ATOM     54  C   UNL A   1      46.177  30.030  26.854  1.00  0.00     0.049 A 
ATOM     55  C   UNL A   1      41.944  31.976  29.971  1.00  0.00     0.074 A 
ATOM     56  C   UNL A   1      47.249  30.880  26.656  1.00  0.00     0.029 A 
ATOM     57  N   UNL A   1      45.263  30.711  27.641  1.00  0.00    -0.354 N 
ATOM     58  N   UNL A   1      42.988  31.675  29.235  1.00  0.00    -0.248 NA
ATOM     59  C   UNL A   1      42.044  33.280  30.643  1.00  0.00     0.031 C 
ATOM     60  C   UNL A   1      47.002  32.062  27.361  1.00  0.00     0.029 A 
ATOM     61  C   UNL A   1      45.753  31.966  27.955  1.00  0.00     0.049 A 
ATOM     62  H   UNL A   1      44.393  30.355  27.935  1.00  0.00     0.167 HD
ATOM     63  C   UNL A   1      43.846  32.767  29.323  1.00  0.00     0.074 A 
ATOM     64  C   UNL A   1      43.194  33.742  30.171  1.00  0.00     0.031 C 
ATOM     65  C   UNL A   1      45.067  32.945  28.759  1.00  0.00     0.034 A 
BRANCH  52  66
ATOM     66  C   UNL A   1      47.122  28.053  25.594  1.00  0.00     0.023 A 
ATOM     67  C   UNL A   1      47.069  28.026  24.185  1.00  0.00     0.012 A 
ATOM     68  C   UNL A   1      48.245  27.520  26.255  1.00  0.00     0.148 A 
ATOM     69  C   UNL A   1      48.101  27.449  23.448  1.00  0.00     0.002 A 
ATOM     70  C   UNL A   1      49.293  26.992  25.512  1.00  0.00     0.091 A 
ATOM     71  F   UNL A   1      48.263  27.531  27.595  1.00  0.00    -0.205 F 
ATOM     72  C   UNL A   1      49.217  26.943  24.110  1.00  0.00     0.022 A 
BRANCH  70  73
ATOM     73  S   UNL A   1      50.807  26.390  26.266  1.00  0.00     0.127 S 
ATOM     74  O   UNL A   1      51.406  25.638  25.164  1.00  0.00    -0.237 OA
ATOM     75  O   UNL A   1      51.497  27.635  26.600  1.00  0.00    -0.237 OA
ATOM     76  O   UNL A   1      50.398  25.592  27.412  1.00  0.00    -0.744 OA
ENDBRANCH  70  73
ENDBRANCH  52  66
BRANCH  53  77
ATOM     77  C   UNL A   1      39.588  31.725  31.059  1.00  0.00     0.023 A 
ATOM     78  C   UNL A   1      38.560  32.504  30.492  1.00  0.00     0.012 A 
ATOM     79  C   UNL A   1      39.571  31.470  32.444  1.00  0.00     0.148 A 
ATOM     80  C   UNL A   1      37.555  33.046  31.293  1.00  0.00     0.002 A 
ATOM     81  C   UNL A   1      38.536  31.965  33.227  1.00  0.00     0.091 A 
ATOM     82  F   UNL A   1      40.567  30.741  32.966  1.00  0.00    -0.205 F 
ATOM     83  C   UNL A   1      37.537  32.771  32.658  1.00  0.00     0.022 A 
BRANCH  81  84
ATOM     84  S   UNL A   1      38.362  31.558  34.967  1.00  0.00     0.127 S 
ATOM     85  O   UNL A   1      37.101  32.214  35.304  1.00  0.00    -0.237 OA
ATOM     86  O   UNL A   1      38.307  30.096  34.927  1.00  0.00    -0.237 OA
ATOM     87  O   UNL A   1      39.548  32.097  35.620  1.00  0.00    -0.744 OA
ENDBRANCH  81  84
ENDBRANCH  53  77
BRANCH  65  88
ATOM     88  C   UNL A   1      45.764  34.262  28.983  1.00  0.00     0.023 A 
ATOM     89  C   UNL A   1      46.693  34.404  30.033  1.00  0.00     0.012 A 
ATOM     90  C   UNL A   1      45.563  35.334  28.089  1.00  0.00     0.148 A 
ATOM     91  C   UNL A   1      47.386  35.601  30.208  1.00  0.00     0.002 A 
ATOM     92  C   UNL A   1      46.296  36.504  28.237  1.00  0.00     0.091 A 
ATOM     93  F   UNL A   1      44.664  35.183  27.105  1.00  0.00    -0.205 F 
ATOM     94  C   UNL A   1      47.198  36.645  29.304  1.00  0.00     0.022 A 
BRANCH  92  95
ATOM     95  S   UNL A   1      46.196  37.860  27.063  1.00  0.00     0.127 S 
ATOM     96  O   UNL A   1      46.938  38.910  27.759  1.00  0.00    -0.237 OA
ATOM     97  O   UNL A   1      46.878  37.304  25.893  1.00  0.00    -0.237 OA
ATOM     98  O   UNL A   1      44.777  38.125  26.870  1.00  0.00    -0.744 OA
ENDBRANCH  92  95
ENDBRANCH  65  88
ENDBRANCH  39  40
ENDBRANCH  32  34
ENDBRANCH  31  32
ENDBRANCH  30  31
ENDBRANCH  29  30
ENDBRANCH  28  29
ENDBRANCH  27  28
ENDBRANCH  26  27
ENDBRANCH   1  26
TORSDOF 28
ENDMDL
MODEL 3
REMARK VINA RESULT:      -8.2      7.089     11.252
REMARK SMILES CC[C@@H](C)[C@@H](C(=O)OCCOCCOCCOCCOC(=O)c1ccc(-c2c3nc(c(-c4cccc(S(=O)(=O)[O-])c4F)c4ccc([nH]4)c(-c4cccc(S(=O)(=O)[O-])c4F)c4nc(c(-c5cccc(S(=O)(=O)[O-])c5F)c5ccc2[nH]5)C=C4)C=C3)cc1)S(=O)(=O)c1ccc(OC)cc1
REMARK SMILES IDX 14 1 13 2 12 3 11 4 10 5 9 6 8 7 6 8 7 9 5 10 3 11 4 12 2 13
REMARK SMILES IDX 1 14 86 15 87 16 88 17 89 18 90 19 96 20 91 21 95 22 92 23
REMARK SMILES IDX 93 24 94 25 15 26 16 27 17 28 18 29 19 30 20 31 21 32 22 33
REMARK SMILES IDX 23 34 24 35 85 36 25 37 84 38 26 39 27 40 28 41 78 42 29 43
REMARK SMILES IDX 83 44 77 45 79 46 30 47 82 48 76 49 75 50 31 52 63 53 43 54
REMARK SMILES IDX 62 55 44 56 47 57 61 58 80 59 45 60 46 61 60 63 81 64 48 65
REMARK SMILES IDX 32 66 33 67 41 68 34 69 36 70 42 71 35 72 37 73 38 74 39 75
REMARK SMILES IDX 40 76 64 77 65 78 73 79 66 80 68 81 74 82 67 83 69 84 70 85
REMARK SMILES IDX 71 86 72 87 49 88 50 89 58 90 51 91 53 92 59 93 52 94 54 95
REMARK SMILES IDX 55 96 56 97 57 98
REMARK H PARENT 79 51 47 62
REMARK Flexibility Score: inf
ROOT
ATOM      1  O   UNL A   1      33.231  31.348  27.596  1.00  0.00    -0.377 OA
ENDROOT
BRANCH   1   2
ATOM      2  C   UNL A   1      33.235  30.130  26.873  1.00  0.00     0.188 C 
BRANCH   2   3
ATOM      3  C   UNL A   1      32.136  29.830  25.839  1.00  0.00     0.188 C 
BRANCH   3   4
ATOM      4  O   UNL A   1      32.620  29.372  24.589  1.00  0.00    -0.376 OA
BRANCH   4   5
ATOM      5  C   UNL A   1      31.682  28.713  23.757  1.00  0.00     0.202 C 
BRANCH   5   6
ATOM      6  C   UNL A   1      32.165  28.209  22.388  1.00  0.00     0.261 C 
BRANCH   6   7
ATOM      7  O   UNL A   1      31.744  26.873  22.030  1.00  0.00    -0.462 OA
BRANCH   7   8
ATOM      8  C   UNL A   1      32.618  25.848  22.095  1.00  0.00     0.325 C 
ATOM      9  O   UNL A   1      33.696  25.892  21.516  1.00  0.00    -0.251 OA
BRANCH   8  10
ATOM     10  C   UNL A   1      32.112  24.633  22.891  1.00  0.00     0.225 C 
BRANCH  10  11
ATOM     11  C   UNL A   1      31.961  24.625  24.466  1.00  0.00     0.015 C 
ATOM     12  C   UNL A   1      30.541  25.074  24.880  1.00  0.00     0.009 C 
BRANCH  11  13
ATOM     13  C   UNL A   1      32.964  25.514  25.256  1.00  0.00     0.002 C 
ATOM     14  C   UNL A   1      33.722  24.766  26.359  1.00  0.00     0.004 C 
ENDBRANCH  11  13
ENDBRANCH  10  11
BRANCH  10  15
ATOM     15  S   UNL A   1      32.954  23.148  22.231  1.00  0.00     0.192 S 
ATOM     16  O   UNL A   1      32.047  22.015  22.335  1.00  0.00    -0.223 OA
ATOM     17  O   UNL A   1      33.522  23.418  20.924  1.00  0.00    -0.223 OA
BRANCH  15  18
ATOM     18  C   UNL A   1      34.357  22.708  23.268  1.00  0.00     0.068 A 
ATOM     19  C   UNL A   1      34.185  21.788  24.307  1.00  0.00     0.024 A 
ATOM     20  C   UNL A   1      35.547  23.443  23.202  1.00  0.00     0.024 A 
ATOM     21  C   UNL A   1      35.231  21.536  25.204  1.00  0.00     0.048 A 
ATOM     22  C   UNL A   1      36.584  23.202  24.123  1.00  0.00     0.048 A 
ATOM     23  C   UNL A   1      36.436  22.236  25.119  1.00  0.00     0.118 A 
BRANCH  23  24
ATOM     24  O   UNL A   1      37.361  21.891  26.063  1.00  0.00    -0.497 OA
ATOM     25  C   UNL A   1      38.627  21.427  25.611  1.00  0.00     0.278 C 
ENDBRANCH  23  24
ENDBRANCH  15  18
ENDBRANCH  10  15
ENDBRANCH   8  10
ENDBRANCH   7   8
ENDBRANCH   6   7
ENDBRANCH   5   6
ENDBRANCH   4   5
ENDBRANCH   3   4
ENDBRANCH   2   3
ENDBRANCH   1   2
BRANCH   1  26
ATOM     26  C   UNL A   1      34.415  31.725  28.287  1.00  0.00     0.188 C 
BRANCH  26  27
ATOM     27  C   UNL A   1      35.733  31.003  27.932  1.00  0.00     0.188 C 
BRANCH  27  28
ATOM     28  O   UNL A   1      36.238  30.145  28.946  1.00  0.00    -0.376 OA
BRANCH  28  29
ATOM     29  C   UNL A   1      37.636  30.147  29.188  1.00  0.00     0.202 C 
BRANCH  29  30
ATOM     30  C   UNL A   1      38.284  28.893  29.796  1.00  0.00     0.261 C 
BRANCH  30  31
ATOM     31  O   UNL A   1      38.579  28.939  31.197  1.00  0.00    -0.460 OA
BRANCH  31  32
ATOM     32  C   UNL A   1      37.778  29.693  31.986  1.00  0.00     0.338 C 
ATOM     33  O   UNL A   1      36.636  29.460  32.310  1.00  0.00    -0.246 OA
BRANCH  32  34
ATOM     34  C   UNL A   1      38.632  30.761  32.557  1.00  0.00     0.060 A 
ATOM     35  C   UNL A   1      39.959  30.463  32.897  1.00  0.00     0.016 A 
ATOM     36  C   UNL A   1      38.135  32.057  32.697  1.00  0.00     0.016 A 
ATOM     37  C   UNL A   1      40.795  31.465  33.386  1.00  0.00     0.010 A 
ATOM     38  C   UNL A   1      38.959  33.050  33.226  1.00  0.00     0.010 A 
ATOM     39  C   UNL A   1      40.282  32.751  33.597  1.00  0.00    -0.014 A 
BRANCH  39  40
ATOM     40  C   UNL A   1      41.045  33.713  34.422  1.00  0.00     0.031 A 
ATOM     41  C   UNL A   1      40.868  33.644  35.913  1.00  0.00     0.074 A 
ATOM     42  C   UNL A   1      41.854  34.633  33.871  1.00  0.00     0.049 A 
ATOM     43  N   UNL A   1      41.354  34.419  36.844  1.00  0.00    -0.248 NA
ATOM     44  C   UNL A   1      40.019  32.549  36.419  1.00  0.00     0.031 C 
ATOM     45  C   UNL A   1      42.122  34.779  32.441  1.00  0.00     0.029 A 
ATOM     46  N   UNL A   1      42.578  35.642  34.456  1.00  0.00    -0.354 N 
ATOM     47  C   UNL A   1      40.844  33.931  38.041  1.00  0.00     0.074 A 
ATOM     48  C   UNL A   1      40.008  32.797  37.720  1.00  0.00     0.031 C 
ATOM     49  C   UNL A   1      42.922  35.845  32.256  1.00  0.00     0.029 A 
ATOM     50  C   UNL A   1      43.194  36.472  33.550  1.00  0.00     0.049 A 
ATOM     51  H   UNL A   1      42.650  35.758  35.431  1.00  0.00     0.167 HD
ATOM     52  C   UNL A   1      41.057  34.385  39.297  1.00  0.00     0.034 A 
ATOM     53  C   UNL A   1      43.866  37.624  33.745  1.00  0.00     0.034 A 
ATOM     54  C   UNL A   1      41.891  35.512  39.608  1.00  0.00     0.049 A 
ATOM     55  C   UNL A   1      44.052  38.137  35.152  1.00  0.00     0.074 A 
ATOM     56  C   UNL A   1      42.204  36.030  40.851  1.00  0.00     0.029 A 
ATOM     57  N   UNL A   1      42.525  36.308  38.668  1.00  0.00    -0.354 N 
ATOM     58  N   UNL A   1      43.653  37.609  36.285  1.00  0.00    -0.248 NA
ATOM     59  C   UNL A   1      44.807  39.389  35.311  1.00  0.00     0.031 C 
ATOM     60  C   UNL A   1      42.994  37.167  40.660  1.00  0.00     0.029 A 
ATOM     61  C   UNL A   1      43.215  37.327  39.301  1.00  0.00     0.049 A 
ATOM     62  H   UNL A   1      42.490  36.170  37.694  1.00  0.00     0.167 HD
ATOM     63  C   UNL A   1      44.141  38.440  37.288  1.00  0.00     0.074 A 
ATOM     64  C   UNL A   1      44.880  39.498  36.631  1.00  0.00     0.031 C 
ATOM     65  C   UNL A   1      43.988  38.342  38.633  1.00  0.00     0.034 A 
BRANCH  52  66
ATOM     66  C   UNL A   1      40.374  33.662  40.425  1.00  0.00     0.023 A 
ATOM     67  C   UNL A   1      40.990  32.544  41.022  1.00  0.00     0.012 A 
ATOM     68  C   UNL A   1      39.137  34.118  40.921  1.00  0.00     0.148 A 
ATOM     69  C   UNL A   1      40.370  31.870  42.074  1.00  0.00     0.002 A 
ATOM     70  C   UNL A   1      38.550  33.473  42.001  1.00  0.00     0.091 A 
ATOM     71  F   UNL A   1      38.556  35.167  40.320  1.00  0.00    -0.205 F 
ATOM     72  C   UNL A   1      39.158  32.342  42.570  1.00  0.00     0.022 A 
BRANCH  70  73
ATOM     73  S   UNL A   1      37.031  34.051  42.764  1.00  0.00     0.127 S 
ATOM     74  O   UNL A   1      36.740  32.965  43.699  1.00  0.00    -0.237 OA
ATOM     75  O   UNL A   1      37.462  35.299  43.394  1.00  0.00    -0.237 OA
ATOM     76  O   UNL A   1      36.072  34.214  41.681  1.00  0.00    -0.744 OA
ENDBRANCH  70  73
ENDBRANCH  52  66
BRANCH  53  77
ATOM     77  C   UNL A   1      44.423  38.374  32.583  1.00  0.00     0.023 A 
ATOM     78  C   UNL A   1      45.620  37.940  31.979  1.00  0.00     0.012 A 
ATOM     79  C   UNL A   1      43.775  39.518  32.075  1.00  0.00     0.148 A 
ATOM     80  C   UNL A   1      46.178  38.649  30.915  1.00  0.00     0.002 A 
ATOM     81  C   UNL A   1      44.306  40.186  30.979  1.00  0.00     0.091 A 
ATOM     82  F   UNL A   1      42.647  39.924  32.673  1.00  0.00    -0.205 F 
ATOM     83  C   UNL A   1      45.518  39.765  30.409  1.00  0.00     0.022 A 
BRANCH  81  84
ATOM     84  S   UNL A   1      43.462  41.556  30.182  1.00  0.00     0.127 S 
ATOM     85  O   UNL A   1      43.874  42.686  31.010  1.00  0.00    -0.237 OA
ATOM     86  O   UNL A   1      44.048  41.527  28.841  1.00  0.00    -0.237 OA
ATOM     87  O   UNL A   1      42.044  41.226  30.224  1.00  0.00    -0.744 OA
ENDBRANCH  81  84
ENDBRANCH  53  77
BRANCH  65  88
ATOM     88  C   UNL A   1      44.676  39.365  39.499  1.00  0.00     0.023 A 
ATOM     89  C   UNL A   1      43.978  40.508  39.937  1.00  0.00     0.012 A 
ATOM     90  C   UNL A   1      45.991  39.142  39.955  1.00  0.00     0.148 A 
ATOM     91  C   UNL A   1      44.590  41.428  40.789  1.00  0.00     0.002 A 
ATOM     92  C   UNL A   1      46.574  40.033  40.845  1.00  0.00     0.091 A 
ATOM     93  F   UNL A   1      46.642  38.055  39.515  1.00  0.00    -0.205 F 
ATOM     94  C   UNL A   1      45.881  41.184  41.253  1.00  0.00     0.022 A 
BRANCH  92  95
ATOM     95  S   UNL A   1      48.191  39.749  41.576  1.00  0.00     0.127 S 
ATOM     96  O   UNL A   1      48.329  40.910  42.453  1.00  0.00    -0.237 OA
ATOM     97  O   UNL A   1      47.994  38.477  42.273  1.00  0.00    -0.237 OA
ATOM     98  O   UNL A   1      49.133  39.693  40.466  1.00  0.00    -0.744 OA
ENDBRANCH  92  95
ENDBRANCH  65  88
ENDBRANCH  39  40
ENDBRANCH  32  34
ENDBRANCH  31  32
ENDBRANCH  30  31
ENDBRANCH  29  30
ENDBRANCH  28  29
ENDBRANCH  27  28
ENDBRANCH  26  27
ENDBRANCH   1  26
TORSDOF 28
ENDMDL
