MODEL 1
REMARK VINA RESULT:      -9.1      0.000      0.000
REMARK SMILES COc1cc(N[C@H]2C=C[C@@H](C(=O)OCCOCCOCCOCCOC(=O)c3ccc(-c4c5nc(c(-c6cccc(S(=O)(=O)[O-])c6F)c6ccc([nH]6)c(-c6cccc(S(=O)(=O)[O-])c6F)c6nc(c(-c7cccc(S(=O)(=O)[O-])c7F)c7ccc4[nH]7)C=C6)C=C5)cc3)C2)c([N+](=O)[O-])cc1F
REMARK SMILES IDX 19 1 18 2 17 3 16 4 15 5 14 6 13 7 11 8 12 9 10 10 7 11 8 12
REMARK SMILES IDX 91 13 9 14 6 15 5 17 3 18 4 19 97 20 96 21 98 22 92 23 2 24
REMARK SMILES IDX 1 25 93 26 94 27 95 28 20 29 21 30 22 31 23 32 24 33 25 34
REMARK SMILES IDX 26 35 27 36 28 37 29 38 90 39 30 40 89 41 31 42 32 43 33 44
REMARK SMILES IDX 83 45 34 46 88 47 82 48 84 49 35 50 87 51 81 52 80 53 36 55
REMARK SMILES IDX 68 56 48 57 67 58 49 59 52 60 66 61 85 62 50 63 51 64 65 66
REMARK SMILES IDX 86 67 53 68 37 69 38 70 46 71 39 72 41 73 47 74 40 75 42 76
REMARK SMILES IDX 43 77 44 78 45 79 69 80 70 81 78 82 71 83 73 84 79 85 72 86
REMARK SMILES IDX 74 87 75 88 76 89 77 90 54 91 55 92 63 93 56 94 58 95 64 96
REMARK SMILES IDX 57 97 59 98 60 99 61 100 62 101
REMARK H PARENT 6 16 84 54 52 65
REMARK Flexibility Score: inf
ROOT
ATOM      1  O   UNL A   1      35.284  30.550  27.969  1.00  0.00    -0.377 OA
ENDROOT
BRANCH   1   2
ATOM      2  C   UNL A   1      34.689  29.492  27.245  1.00  0.00     0.188 C 
BRANCH   2   3
ATOM      3  C   UNL A   1      33.152  29.522  27.210  1.00  0.00     0.188 C 
BRANCH   3   4
ATOM      4  O   UNL A   1      32.401  28.315  27.207  1.00  0.00    -0.376 OA
BRANCH   4   5
ATOM      5  C   UNL A   1      31.756  27.876  26.016  1.00  0.00     0.202 C 
BRANCH   5   6
ATOM      6  C   UNL A   1      31.330  28.869  24.921  1.00  0.00     0.261 C 
BRANCH   6   7
ATOM      7  O   UNL A   1      32.124  28.841  23.723  1.00  0.00    -0.463 OA
BRANCH   7   8
ATOM      8  C   UNL A   1      31.789  27.922  22.790  1.00  0.00     0.312 C 
ATOM      9  O   UNL A   1      30.674  27.833  22.279  1.00  0.00    -0.252 OA
BRANCH   8  10
ATOM     10  C   UNL A   1      32.942  27.012  22.356  1.00  0.00     0.124 C 
ATOM     11  C   UNL A   1      33.853  24.791  22.903  1.00  0.00     0.103 C 
ATOM     12  C   UNL A   1      32.857  24.719  21.804  1.00  0.00    -0.006 C 
ATOM     13  C   UNL A   1      33.768  26.236  23.396  1.00  0.00     0.048 C 
ATOM     14  C   UNL A   1      32.386  25.929  21.480  1.00  0.00    -0.014 C 
BRANCH  11  15
ATOM     15  N   UNL A   1      33.638  23.779  23.917  1.00  0.00    -0.373 N 
ATOM     16  H   UNL A   1      32.794  23.877  24.414  1.00  0.00     0.161 HD
BRANCH  15  17
ATOM     17  C   UNL A   1      34.410  22.698  24.311  1.00  0.00     0.117 A 
ATOM     18  C   UNL A   1      36.626  21.761  24.851  1.00  0.00     0.157 A 
ATOM     19  C   UNL A   1      35.783  22.843  24.576  1.00  0.00     0.082 A 
ATOM     20  C   UNL A   1      36.073  20.494  24.976  1.00  0.00     0.172 A 
ATOM     21  C   UNL A   1      34.710  20.297  24.800  1.00  0.00     0.131 A 
ATOM     22  F   UNL A   1      36.834  19.428  25.250  1.00  0.00    -0.203 F 
ATOM     23  C   UNL A   1      33.887  21.385  24.450  1.00  0.00     0.295 A 
BRANCH  18  24
ATOM     24  O   UNL A   1      37.949  22.094  24.974  1.00  0.00    -0.494 OA
ATOM     25  C   UNL A   1      38.245  23.055  25.982  1.00  0.00     0.278 C 
ENDBRANCH  18  24
BRANCH  23  26
ATOM     26  N   UNL A   1      32.462  21.092  24.198  1.00  0.00     0.065 N 
ATOM     27  O   UNL A   1      31.823  20.466  25.063  1.00  0.00    -0.258 OA
ATOM     28  O   UNL A   1      31.956  21.507  23.146  1.00  0.00    -0.258 OA
ENDBRANCH  23  26
ENDBRANCH  15  17
ENDBRANCH  11  15
ENDBRANCH   8  10
ENDBRANCH   7   8
ENDBRANCH   6   7
ENDBRANCH   5   6
ENDBRANCH   4   5
ENDBRANCH   3   4
ENDBRANCH   2   3
ENDBRANCH   1   2
BRANCH   1  29
ATOM     29  C   UNL A   1      34.844  31.869  27.666  1.00  0.00     0.188 C 
BRANCH  29  30
ATOM     30  C   UNL A   1      35.325  33.020  28.575  1.00  0.00     0.188 C 
BRANCH  30  31
ATOM     31  O   UNL A   1      34.758  34.289  28.272  1.00  0.00    -0.376 OA
BRANCH  31  32
ATOM     32  C   UNL A   1      33.353  34.461  28.404  1.00  0.00     0.202 C 
BRANCH  32  33
ATOM     33  C   UNL A   1      32.833  35.567  29.340  1.00  0.00     0.261 C 
BRANCH  33  34
ATOM     34  O   UNL A   1      32.404  35.157  30.646  1.00  0.00    -0.460 OA
BRANCH  34  35
ATOM     35  C   UNL A   1      33.125  35.567  31.708  1.00  0.00     0.338 C 
ATOM     36  O   UNL A   1      32.792  36.392  32.545  1.00  0.00    -0.246 OA
BRANCH  35  37
ATOM     37  C   UNL A   1      34.313  34.697  31.814  1.00  0.00     0.060 A 
ATOM     38  C   UNL A   1      34.149  33.384  32.274  1.00  0.00     0.016 A 
ATOM     39  C   UNL A   1      35.580  35.175  31.471  1.00  0.00     0.016 A 
ATOM     40  C   UNL A   1      35.261  32.559  32.441  1.00  0.00     0.010 A 
ATOM     41  C   UNL A   1      36.695  34.354  31.661  1.00  0.00     0.010 A 
ATOM     42  C   UNL A   1      36.544  33.058  32.186  1.00  0.00    -0.014 A 
BRANCH  42  43
ATOM     43  C   UNL A   1      37.731  32.303  32.653  1.00  0.00     0.031 A 
ATOM     44  C   UNL A   1      38.351  32.686  33.968  1.00  0.00     0.074 A 
ATOM     45  C   UNL A   1      38.246  31.292  31.934  1.00  0.00     0.049 A 
ATOM     46  N   UNL A   1      39.414  32.203  34.553  1.00  0.00    -0.248 NA
ATOM     47  C   UNL A   1      37.682  33.759  34.724  1.00  0.00     0.031 C 
ATOM     48  C   UNL A   1      37.720  30.815  30.658  1.00  0.00     0.029 A 
ATOM     49  N   UNL A   1      39.342  30.500  32.168  1.00  0.00    -0.354 N 
ATOM     50  C   UNL A   1      39.561  32.931  35.728  1.00  0.00     0.074 A 
ATOM     51  C   UNL A   1      38.486  33.897  35.768  1.00  0.00     0.031 C 
ATOM     52  C   UNL A   1      38.512  29.828  30.205  1.00  0.00     0.029 A 
ATOM     53  C   UNL A   1      39.616  29.627  31.142  1.00  0.00     0.049 A 
ATOM     54  H   UNL A   1      39.881  30.553  32.990  1.00  0.00     0.167 HD
ATOM     55  C   UNL A   1      40.500  32.797  36.692  1.00  0.00     0.034 A 
ATOM     56  C   UNL A   1      40.655  28.784  30.964  1.00  0.00     0.034 A 
ATOM     57  C   UNL A   1      41.558  31.825  36.656  1.00  0.00     0.049 A 
ATOM     58  C   UNL A   1      41.713  28.678  32.032  1.00  0.00     0.074 A 
ATOM     59  C   UNL A   1      42.534  31.588  37.606  1.00  0.00     0.029 A 
ATOM     60  N   UNL A   1      41.791  30.944  35.611  1.00  0.00    -0.354 N 
ATOM     61  N   UNL A   1      41.790  29.308  33.179  1.00  0.00    -0.248 NA
ATOM     62  C   UNL A   1      42.810  27.729  31.796  1.00  0.00     0.031 C 
ATOM     63  C   UNL A   1      43.383  30.591  37.118  1.00  0.00     0.029 A 
ATOM     64  C   UNL A   1      42.906  30.172  35.886  1.00  0.00     0.049 A 
ATOM     65  H   UNL A   1      41.245  30.878  34.795  1.00  0.00     0.167 HD
ATOM     66  C   UNL A   1      42.921  28.808  33.817  1.00  0.00     0.074 A 
ATOM     67  C   UNL A   1      43.491  27.814  32.933  1.00  0.00     0.031 C 
ATOM     68  C   UNL A   1      43.442  29.150  35.021  1.00  0.00     0.034 A 
BRANCH  55  69
ATOM     69  C   UNL A   1      40.419  33.712  37.886  1.00  0.00     0.023 A 
ATOM     70  C   UNL A   1      41.145  34.920  37.893  1.00  0.00     0.012 A 
ATOM     71  C   UNL A   1      39.562  33.413  38.963  1.00  0.00     0.148 A 
ATOM     72  C   UNL A   1      41.038  35.805  38.967  1.00  0.00     0.002 A 
ATOM     73  C   UNL A   1      39.422  34.322  40.003  1.00  0.00     0.091 A 
ATOM     74  F   UNL A   1      38.899  32.248  38.947  1.00  0.00    -0.205 F 
ATOM     75  C   UNL A   1      40.168  35.512  40.013  1.00  0.00     0.022 A 
BRANCH  73  76
ATOM     76  S   UNL A   1      38.260  34.082  41.352  1.00  0.00     0.127 S 
ATOM     77  O   UNL A   1      38.209  35.422  41.938  1.00  0.00    -0.237 OA
ATOM     78  O   UNL A   1      37.046  33.680  40.642  1.00  0.00    -0.237 OA
ATOM     79  O   UNL A   1      38.838  33.053  42.204  1.00  0.00    -0.744 OA
ENDBRANCH  73  76
ENDBRANCH  55  69
BRANCH  56  80
ATOM     80  C   UNL A   1      40.713  27.947  29.732  1.00  0.00     0.023 A 
ATOM     81  C   UNL A   1      39.835  26.856  29.591  1.00  0.00     0.012 A 
ATOM     82  C   UNL A   1      41.586  28.270  28.674  1.00  0.00     0.148 A 
ATOM     83  C   UNL A   1      39.834  26.093  28.423  1.00  0.00     0.002 A 
ATOM     84  C   UNL A   1      41.538  27.543  27.491  1.00  0.00     0.091 A 
ATOM     85  F   UNL A   1      42.425  29.303  28.837  1.00  0.00    -0.205 F 
ATOM     86  C   UNL A   1      40.673  26.444  27.369  1.00  0.00     0.022 A 
BRANCH  84  87
ATOM     87  S   UNL A   1      42.480  28.005  26.033  1.00  0.00     0.127 S 
ATOM     88  O   UNL A   1      42.085  29.400  25.851  1.00  0.00    -0.237 OA
ATOM     89  O   UNL A   1      43.853  27.809  26.495  1.00  0.00    -0.237 OA
ATOM     90  O   UNL A   1      42.059  27.093  24.978  1.00  0.00    -0.744 OA
ENDBRANCH  84  87
ENDBRANCH  56  80
BRANCH  68  91
ATOM     91  C   UNL A   1      44.679  28.432  35.498  1.00  0.00     0.023 A 
ATOM     92  C   UNL A   1      44.562  27.198  36.167  1.00  0.00     0.012 A 
ATOM     93  C   UNL A   1      45.959  28.919  35.165  1.00  0.00     0.148 A 
ATOM     94  C   UNL A   1      45.701  26.468  36.511  1.00  0.00     0.002 A 
ATOM     95  C   UNL A   1      47.087  28.161  35.462  1.00  0.00     0.091 A 
ATOM     96  F   UNL A   1      46.050  30.102  34.540  1.00  0.00    -0.205 F 
ATOM     97  C   UNL A   1      46.959  26.941  36.145  1.00  0.00     0.022 A 
BRANCH  95  98
ATOM     98  S   UNL A   1      48.738  28.634  34.935  1.00  0.00     0.127 S 
ATOM     99  O   UNL A   1      49.570  27.694  35.684  1.00  0.00    -0.237 OA
ATOM    100  O   UNL A   1      48.684  28.386  33.494  1.00  0.00    -0.237 OA
ATOM    101  O   UNL A   1      48.896  30.034  35.304  1.00  0.00    -0.744 OA
ENDBRANCH  95  98
ENDBRANCH  68  91
ENDBRANCH  42  43
ENDBRANCH  35  37
ENDBRANCH  34  35
ENDBRANCH  33  34
ENDBRANCH  32  33
ENDBRANCH  31  32
ENDBRANCH  30  31
ENDBRANCH  29  30
ENDBRANCH   1  29
TORSDOF 27
ENDMDL
MODEL 2
REMARK VINA RESULT:      -9.1      1.292      7.516
REMARK SMILES COc1cc(N[C@H]2C=C[C@@H](C(=O)OCCOCCOCCOCCOC(=O)c3ccc(-c4c5nc(c(-c6cccc(S(=O)(=O)[O-])c6F)c6ccc([nH]6)c(-c6cccc(S(=O)(=O)[O-])c6F)c6nc(c(-c7cccc(S(=O)(=O)[O-])c7F)c7ccc4[nH]7)C=C6)C=C5)cc3)C2)c([N+](=O)[O-])cc1F
REMARK SMILES IDX 19 1 18 2 17 3 16 4 15 5 14 6 13 7 11 8 12 9 10 10 7 11 8 12
REMARK SMILES IDX 91 13 9 14 6 15 5 17 3 18 4 19 97 20 96 21 98 22 92 23 2 24
REMARK SMILES IDX 1 25 93 26 94 27 95 28 20 29 21 30 22 31 23 32 24 33 25 34
REMARK SMILES IDX 26 35 27 36 28 37 29 38 90 39 30 40 89 41 31 42 32 43 33 44
REMARK SMILES IDX 83 45 34 46 88 47 82 48 84 49 35 50 87 51 81 52 80 53 36 55
REMARK SMILES IDX 68 56 48 57 67 58 49 59 52 60 66 61 85 62 50 63 51 64 65 66
REMARK SMILES IDX 86 67 53 68 37 69 38 70 46 71 39 72 41 73 47 74 40 75 42 76
REMARK SMILES IDX 43 77 44 78 45 79 69 80 70 81 78 82 71 83 73 84 79 85 72 86
REMARK SMILES IDX 74 87 75 88 76 89 77 90 54 91 55 92 63 93 56 94 58 95 64 96
REMARK SMILES IDX 57 97 59 98 60 99 61 100 62 101
REMARK H PARENT 6 16 84 54 52 65
REMARK Flexibility Score: inf
ROOT
ATOM      1  O   UNL A   1      35.492  30.608  28.011  1.00  0.00    -0.377 OA
ENDROOT
BRANCH   1   2
ATOM      2  C   UNL A   1      34.856  29.623  27.224  1.00  0.00     0.188 C 
BRANCH   2   3
ATOM      3  C   UNL A   1      33.319  29.683  27.236  1.00  0.00     0.188 C 
BRANCH   3   4
ATOM      4  O   UNL A   1      32.545  28.491  27.252  1.00  0.00    -0.376 OA
BRANCH   4   5
ATOM      5  C   UNL A   1      31.946  28.010  26.054  1.00  0.00     0.202 C 
BRANCH   5   6
ATOM      6  C   UNL A   1      31.438  28.973  24.968  1.00  0.00     0.261 C 
BRANCH   6   7
ATOM      7  O   UNL A   1      32.194  28.976  23.745  1.00  0.00    -0.463 OA
BRANCH   7   8
ATOM      8  C   UNL A   1      31.839  28.071  22.806  1.00  0.00     0.312 C 
ATOM      9  O   UNL A   1      30.721  28.007  22.297  1.00  0.00    -0.252 OA
BRANCH   8  10
ATOM     10  C   UNL A   1      32.973  27.142  22.362  1.00  0.00     0.124 C 
ATOM     11  C   UNL A   1      33.834  24.894  22.880  1.00  0.00     0.103 C 
ATOM     12  C   UNL A   1      32.840  24.860  21.777  1.00  0.00    -0.006 C 
ATOM     13  C   UNL A   1      33.779  26.333  23.394  1.00  0.00     0.048 C 
ATOM     14  C   UNL A   1      32.396  26.084  21.469  1.00  0.00    -0.014 C 
BRANCH  11  15
ATOM     15  N   UNL A   1      33.594  23.872  23.878  1.00  0.00    -0.373 N 
ATOM     16  H   UNL A   1      32.737  23.964  24.354  1.00  0.00     0.161 HD
BRANCH  15  17
ATOM     17  C   UNL A   1      34.357  22.789  24.283  1.00  0.00     0.117 A 
ATOM     18  C   UNL A   1      36.564  21.840  24.838  1.00  0.00     0.157 A 
ATOM     19  C   UNL A   1      35.729  22.926  24.552  1.00  0.00     0.082 A 
ATOM     20  C   UNL A   1      36.001  20.578  24.970  1.00  0.00     0.172 A 
ATOM     21  C   UNL A   1      34.637  20.389  24.790  1.00  0.00     0.131 A 
ATOM     22  F   UNL A   1      36.753  19.509  25.255  1.00  0.00    -0.203 F 
ATOM     23  C   UNL A   1      33.823  21.480  24.429  1.00  0.00     0.295 A 
BRANCH  18  24
ATOM     24  O   UNL A   1      37.889  22.164  24.963  1.00  0.00    -0.494 OA
ATOM     25  C   UNL A   1      38.189  23.121  25.974  1.00  0.00     0.278 C 
ENDBRANCH  18  24
BRANCH  23  26
ATOM     26  N   UNL A   1      32.397  21.196  24.174  1.00  0.00     0.065 N 
ATOM     27  O   UNL A   1      31.755  20.563  25.032  1.00  0.00    -0.258 OA
ATOM     28  O   UNL A   1      31.893  21.624  23.127  1.00  0.00    -0.258 OA
ENDBRANCH  23  26
ENDBRANCH  15  17
ENDBRANCH  11  15
ENDBRANCH   8  10
ENDBRANCH   7   8
ENDBRANCH   6   7
ENDBRANCH   5   6
ENDBRANCH   4   5
ENDBRANCH   3   4
ENDBRANCH   2   3
ENDBRANCH   1   2
BRANCH   1  29
ATOM     29  C   UNL A   1      35.119  31.962  27.779  1.00  0.00     0.188 C 
BRANCH  29  30
ATOM     30  C   UNL A   1      35.567  33.024  28.806  1.00  0.00     0.188 C 
BRANCH  30  31
ATOM     31  O   UNL A   1      34.997  34.313  28.610  1.00  0.00    -0.376 OA
BRANCH  31  32
ATOM     32  C   UNL A   1      33.583  34.449  28.642  1.00  0.00     0.202 C 
BRANCH  32  33
ATOM     33  C   UNL A   1      32.962  35.443  29.641  1.00  0.00     0.261 C 
BRANCH  33  34
ATOM     34  O   UNL A   1      32.614  34.924  30.932  1.00  0.00    -0.460 OA
BRANCH  34  35
ATOM     35  C   UNL A   1      33.272  35.403  32.006  1.00  0.00     0.338 C 
ATOM     36  O   UNL A   1      32.845  36.195  32.833  1.00  0.00    -0.246 OA
BRANCH  35  37
ATOM     37  C   UNL A   1      34.535  34.650  32.139  1.00  0.00     0.060 A 
ATOM     38  C   UNL A   1      34.482  33.312  32.550  1.00  0.00     0.016 A 
ATOM     39  C   UNL A   1      35.761  35.261  31.870  1.00  0.00     0.016 A 
ATOM     40  C   UNL A   1      35.662  32.594  32.741  1.00  0.00     0.010 A 
ATOM     41  C   UNL A   1      36.943  34.548  32.085  1.00  0.00     0.010 A 
ATOM     42  C   UNL A   1      36.899  33.225  32.561  1.00  0.00    -0.014 A 
BRANCH  42  43
ATOM     43  C   UNL A   1      38.134  32.573  33.058  1.00  0.00     0.031 A 
ATOM     44  C   UNL A   1      38.747  31.477  32.231  1.00  0.00     0.074 A 
ATOM     45  C   UNL A   1      38.709  32.948  34.213  1.00  0.00     0.049 A 
ATOM     46  N   UNL A   1      39.792  30.736  32.484  1.00  0.00    -0.248 NA
ATOM     47  C   UNL A   1      38.093  31.177  30.946  1.00  0.00     0.031 C 
ATOM     48  C   UNL A   1      38.221  34.010  35.089  1.00  0.00     0.029 A 
ATOM     49  N   UNL A   1      39.817  32.458  34.857  1.00  0.00    -0.354 N 
ATOM     50  C   UNL A   1      39.903  29.862  31.410  1.00  0.00     0.074 A 
ATOM     51  C   UNL A   1      38.813  30.156  30.507  1.00  0.00     0.031 C 
ATOM     52  C   UNL A   1      39.013  34.074  36.173  1.00  0.00     0.029 A 
ATOM     53  C   UNL A   1      40.040  33.038  36.083  1.00  0.00     0.049 A 
ATOM     54  H   UNL A   1      40.397  31.758  34.478  1.00  0.00     0.167 HD
ATOM     55  C   UNL A   1      40.839  28.909  31.189  1.00  0.00     0.034 A 
ATOM     56  C   UNL A   1      40.949  32.748  37.037  1.00  0.00     0.034 A 
ATOM     57  C   UNL A   1      41.929  28.630  32.082  1.00  0.00     0.049 A 
ATOM     58  C   UNL A   1      41.957  31.655  36.789  1.00  0.00     0.074 A 
ATOM     59  C   UNL A   1      42.949  27.710  31.925  1.00  0.00     0.029 A 
ATOM     60  N   UNL A   1      42.135  29.253  33.304  1.00  0.00    -0.354 N 
ATOM     61  N   UNL A   1      42.107  30.898  35.729  1.00  0.00    -0.248 NA
ATOM     62  C   UNL A   1      42.938  31.395  37.853  1.00  0.00     0.031 C 
ATOM     63  C   UNL A   1      43.749  27.747  33.070  1.00  0.00     0.029 A 
ATOM     64  C   UNL A   1      43.256  28.725  33.919  1.00  0.00     0.049 A 
ATOM     65  H   UNL A   1      41.567  29.965  33.678  1.00  0.00     0.167 HD
ATOM     66  C   UNL A   1      43.215  30.096  35.983  1.00  0.00     0.074 A 
ATOM     67  C   UNL A   1      43.708  30.471  37.292  1.00  0.00     0.031 C 
ATOM     68  C   UNL A   1      43.768  29.134  35.203  1.00  0.00     0.034 A 
BRANCH  55  69
ATOM     69  C   UNL A   1      40.737  28.104  29.920  1.00  0.00     0.023 A 
ATOM     70  C   UNL A   1      39.717  27.141  29.781  1.00  0.00     0.012 A 
ATOM     71  C   UNL A   1      41.602  28.358  28.838  1.00  0.00     0.148 A 
ATOM     72  C   UNL A   1      39.576  26.426  28.591  1.00  0.00     0.002 A 
ATOM     73  C   UNL A   1      41.423  27.679  27.640  1.00  0.00     0.091 A 
ATOM     74  F   UNL A   1      42.580  29.260  29.000  1.00  0.00    -0.205 F 
ATOM     75  C   UNL A   1      40.419  26.704  27.519  1.00  0.00     0.022 A 
BRANCH  73  76
ATOM     76  S   UNL A   1      42.397  28.028  26.172  1.00  0.00     0.127 S 
ATOM     77  O   UNL A   1      42.220  29.474  26.039  1.00  0.00    -0.237 OA
ATOM     78  O   UNL A   1      43.737  27.613  26.588  1.00  0.00    -0.237 OA
ATOM     79  O   UNL A   1      41.815  27.230  25.103  1.00  0.00    -0.744 OA
ENDBRANCH  73  76
ENDBRANCH  55  69
BRANCH  56  80
ATOM     80  C   UNL A   1      40.961  33.540  38.299  1.00  0.00     0.023 A 
ATOM     81  C   UNL A   1      41.881  34.595  38.450  1.00  0.00     0.012 A 
ATOM     82  C   UNL A   1      40.020  33.295  39.320  1.00  0.00     0.148 A 
ATOM     83  C   UNL A   1      41.873  35.384  39.600  1.00  0.00     0.002 A 
ATOM     84  C   UNL A   1      39.979  34.123  40.435  1.00  0.00     0.091 A 
ATOM     85  F   UNL A   1      39.165  32.275  39.162  1.00  0.00    -0.205 F 
ATOM     86  C   UNL A   1      40.915  35.158  40.584  1.00  0.00     0.022 A 
BRANCH  84  87
ATOM     87  S   UNL A   1      38.697  33.996  41.687  1.00  0.00     0.127 S 
ATOM     88  O   UNL A   1      37.490  33.897  40.869  1.00  0.00    -0.237 OA
ATOM     89  O   UNL A   1      39.077  32.764  42.375  1.00  0.00    -0.237 OA
ATOM     90  O   UNL A   1      38.807  35.202  42.497  1.00  0.00    -0.744 OA
ENDBRANCH  84  87
ENDBRANCH  56  80
BRANCH  68  91
ATOM     91  C   UNL A   1      44.996  28.420  35.707  1.00  0.00     0.023 A 
ATOM     92  C   UNL A   1      46.256  29.045  35.627  1.00  0.00     0.012 A 
ATOM     93  C   UNL A   1      44.878  27.187  36.381  1.00  0.00     0.148 A 
ATOM     94  C   UNL A   1      47.382  28.444  36.192  1.00  0.00     0.002 A 
ATOM     95  C   UNL A   1      45.993  26.621  36.989  1.00  0.00     0.091 A 
ATOM     96  F   UNL A   1      43.672  26.602  36.435  1.00  0.00    -0.205 F 
ATOM     97  C   UNL A   1      47.248  27.243  36.886  1.00  0.00     0.022 A 
BRANCH  95  98
ATOM     98  S   UNL A   1      45.898  25.136  37.995  1.00  0.00     0.127 S 
ATOM     99  O   UNL A   1      47.302  24.736  38.069  1.00  0.00    -0.237 OA
ATOM    100  O   UNL A   1      45.343  25.647  39.249  1.00  0.00    -0.237 OA
ATOM    101  O   UNL A   1      45.028  24.215  37.276  1.00  0.00    -0.744 OA
ENDBRANCH  95  98
ENDBRANCH  68  91
ENDBRANCH  42  43
ENDBRANCH  35  37
ENDBRANCH  34  35
ENDBRANCH  33  34
ENDBRANCH  32  33
ENDBRANCH  31  32
ENDBRANCH  30  31
ENDBRANCH  29  30
ENDBRANCH   1  29
TORSDOF 27
ENDMDL
MODEL 3
REMARK VINA RESULT:      -8.8      5.849     10.587
REMARK SMILES COc1cc(N[C@H]2C=C[C@@H](C(=O)OCCOCCOCCOCCOC(=O)c3ccc(-c4c5nc(c(-c6cccc(S(=O)(=O)[O-])c6F)c6ccc([nH]6)c(-c6cccc(S(=O)(=O)[O-])c6F)c6nc(c(-c7cccc(S(=O)(=O)[O-])c7F)c7ccc4[nH]7)C=C6)C=C5)cc3)C2)c([N+](=O)[O-])cc1F
REMARK SMILES IDX 19 1 18 2 17 3 16 4 15 5 14 6 13 7 11 8 12 9 10 10 7 11 8 12
REMARK SMILES IDX 91 13 9 14 6 15 5 17 3 18 4 19 97 20 96 21 98 22 92 23 2 24
REMARK SMILES IDX 1 25 93 26 94 27 95 28 20 29 21 30 22 31 23 32 24 33 25 34
REMARK SMILES IDX 26 35 27 36 28 37 29 38 90 39 30 40 89 41 31 42 32 43 33 44
REMARK SMILES IDX 83 45 34 46 88 47 82 48 84 49 35 50 87 51 81 52 80 53 36 55
REMARK SMILES IDX 68 56 48 57 67 58 49 59 52 60 66 61 85 62 50 63 51 64 65 66
REMARK SMILES IDX 86 67 53 68 37 69 38 70 46 71 39 72 41 73 47 74 40 75 42 76
REMARK SMILES IDX 43 77 44 78 45 79 69 80 70 81 78 82 71 83 73 84 79 85 72 86
REMARK SMILES IDX 74 87 75 88 76 89 77 90 54 91 55 92 63 93 56 94 58 95 64 96
REMARK SMILES IDX 57 97 59 98 60 99 61 100 62 101
REMARK H PARENT 6 16 84 54 52 65
REMARK Flexibility Score: inf
ROOT
ATOM      1  O   UNL A   1      39.783  23.430  26.224  1.00  0.00    -0.377 OA
ENDROOT
BRANCH   1   2
ATOM      2  C   UNL A   1      38.437  23.807  26.423  1.00  0.00     0.188 C 
BRANCH   2   3
ATOM      3  C   UNL A   1      37.405  22.898  25.735  1.00  0.00     0.188 C 
BRANCH   3   4
ATOM      4  O   UNL A   1      36.053  22.869  26.173  1.00  0.00    -0.376 OA
BRANCH   4   5
ATOM      5  C   UNL A   1      35.363  21.629  26.283  1.00  0.00     0.202 C 
BRANCH   5   6
ATOM      6  C   UNL A   1      34.127  21.476  27.186  1.00  0.00     0.261 C 
BRANCH   6   7
ATOM      7  O   UNL A   1      32.895  21.197  26.500  1.00  0.00    -0.463 OA
BRANCH   7   8
ATOM      8  C   UNL A   1      32.017  22.218  26.383  1.00  0.00     0.312 C 
ATOM      9  O   UNL A   1      31.713  22.975  27.302  1.00  0.00    -0.252 OA
BRANCH   8  10
ATOM     10  C   UNL A   1      31.457  22.410  24.970  1.00  0.00     0.124 C 
ATOM     11  C   UNL A   1      31.282  24.188  23.275  1.00  0.00     0.103 C 
ATOM     12  C   UNL A   1      32.520  23.387  23.103  1.00  0.00    -0.006 C 
ATOM     13  C   UNL A   1      30.690  23.691  24.594  1.00  0.00     0.048 C 
ATOM     14  C   UNL A   1      32.601  22.397  24.000  1.00  0.00    -0.014 C 
BRANCH  11  15
ATOM     15  N   UNL A   1      31.527  25.614  23.208  1.00  0.00    -0.373 N 
ATOM     16  H   UNL A   1      31.040  26.075  22.487  1.00  0.00     0.161 HD
BRANCH  15  17
ATOM     17  C   UNL A   1      32.327  26.444  23.977  1.00  0.00     0.117 A 
ATOM     18  C   UNL A   1      32.789  27.530  26.142  1.00  0.00     0.157 A 
ATOM     19  C   UNL A   1      32.092  26.609  25.353  1.00  0.00     0.082 A 
ATOM     20  C   UNL A   1      33.835  28.244  25.574  1.00  0.00     0.172 A 
ATOM     21  C   UNL A   1      34.165  28.071  24.236  1.00  0.00     0.131 A 
ATOM     22  F   UNL A   1      34.541  29.128  26.288  1.00  0.00    -0.203 F 
ATOM     23  C   UNL A   1      33.406  27.194  23.437  1.00  0.00     0.295 A 
BRANCH  18  24
ATOM     24  O   UNL A   1      32.341  27.619  27.433  1.00  0.00    -0.494 OA
ATOM     25  C   UNL A   1      31.504  28.735  27.713  1.00  0.00     0.278 C 
ENDBRANCH  18  24
BRANCH  23  26
ATOM     26  N   UNL A   1      33.759  27.118  22.006  1.00  0.00     0.065 N 
ATOM     27  O   UNL A   1      33.676  26.017  21.432  1.00  0.00    -0.258 OA
ATOM     28  O   UNL A   1      34.095  28.161  21.429  1.00  0.00    -0.258 OA
ENDBRANCH  23  26
ENDBRANCH  15  17
ENDBRANCH  11  15
ENDBRANCH   8  10
ENDBRANCH   7   8
ENDBRANCH   6   7
ENDBRANCH   5   6
ENDBRANCH   4   5
ENDBRANCH   3   4
ENDBRANCH   2   3
ENDBRANCH   1   2
BRANCH   1  29
ATOM     29  C   UNL A   1      40.383  22.619  27.227  1.00  0.00     0.188 C 
BRANCH  29  30
ATOM     30  C   UNL A   1      40.641  21.133  26.901  1.00  0.00     0.188 C 
BRANCH  30  31
ATOM     31  O   UNL A   1      41.735  20.555  27.602  1.00  0.00    -0.376 OA
BRANCH  31  32
ATOM     32  C   UNL A   1      42.043  19.185  27.384  1.00  0.00     0.202 C 
BRANCH  32  33
ATOM     33  C   UNL A   1      42.503  18.748  25.980  1.00  0.00     0.261 C 
BRANCH  33  34
ATOM     34  O   UNL A   1      42.840  19.795  25.059  1.00  0.00    -0.460 OA
BRANCH  34  35
ATOM     35  C   UNL A   1      44.110  20.243  25.046  1.00  0.00     0.338 C 
ATOM     36  O   UNL A   1      45.069  19.709  24.509  1.00  0.00    -0.246 OA
BRANCH  35  37
ATOM     37  C   UNL A   1      44.119  21.605  25.615  1.00  0.00     0.060 A 
ATOM     38  C   UNL A   1      43.684  22.672  24.820  1.00  0.00     0.016 A 
ATOM     39  C   UNL A   1      44.561  21.829  26.921  1.00  0.00     0.016 A 
ATOM     40  C   UNL A   1      43.737  23.976  25.311  1.00  0.00     0.010 A 
ATOM     41  C   UNL A   1      44.635  23.138  27.404  1.00  0.00     0.010 A 
ATOM     42  C   UNL A   1      44.263  24.220  26.585  1.00  0.00    -0.014 A 
BRANCH  42  43
ATOM     43  C   UNL A   1      44.609  25.605  26.983  1.00  0.00     0.031 A 
ATOM     44  C   UNL A   1      43.519  26.485  27.531  1.00  0.00     0.074 A 
ATOM     45  C   UNL A   1      45.862  26.075  26.872  1.00  0.00     0.049 A 
ATOM     46  N   UNL A   1      43.573  27.737  27.898  1.00  0.00    -0.248 NA
ATOM     47  C   UNL A   1      42.190  25.869  27.685  1.00  0.00     0.031 C 
ATOM     48  C   UNL A   1      47.005  25.312  26.376  1.00  0.00     0.029 A 
ATOM     49  N   UNL A   1      46.376  27.317  27.147  1.00  0.00    -0.354 N 
ATOM     50  C   UNL A   1      42.284  28.069  28.296  1.00  0.00     0.074 A 
ATOM     51  C   UNL A   1      41.466  26.892  28.114  1.00  0.00     0.031 C 
ATOM     52  C   UNL A   1      48.084  26.113  26.358  1.00  0.00     0.029 A 
ATOM     53  C   UNL A   1      47.701  27.450  26.807  1.00  0.00     0.049 A 
ATOM     54  H   UNL A   1      45.847  28.043  27.550  1.00  0.00     0.167 HD
ATOM     55  C   UNL A   1      41.827  29.246  28.782  1.00  0.00     0.034 A 
ATOM     56  C   UNL A   1      48.506  28.533  26.827  1.00  0.00     0.034 A 
ATOM     57  C   UNL A   1      42.647  30.410  28.974  1.00  0.00     0.049 A 
ATOM     58  C   UNL A   1      47.966  29.846  27.333  1.00  0.00     0.074 A 
ATOM     59  C   UNL A   1      42.281  31.636  29.498  1.00  0.00     0.029 A 
ATOM     60  N   UNL A   1      43.989  30.500  28.638  1.00  0.00    -0.354 N 
ATOM     61  N   UNL A   1      46.769  30.122  27.791  1.00  0.00    -0.248 NA
ATOM     62  C   UNL A   1      48.892  30.988  27.353  1.00  0.00     0.031 C 
ATOM     63  C   UNL A   1      43.392  32.483  29.440  1.00  0.00     0.029 A 
ATOM     64  C   UNL A   1      44.463  31.768  28.927  1.00  0.00     0.049 A 
ATOM     65  H   UNL A   1      44.525  29.771  28.251  1.00  0.00     0.167 HD
ATOM     66  C   UNL A   1      46.807  31.456  28.184  1.00  0.00     0.074 A 
ATOM     67  C   UNL A   1      48.149  31.929  27.923  1.00  0.00     0.031 C 
ATOM     68  C   UNL A   1      45.814  32.219  28.707  1.00  0.00     0.034 A 
BRANCH  55  69
ATOM     69  C   UNL A   1      40.371  29.334  29.159  1.00  0.00     0.023 A 
ATOM     70  C   UNL A   1      39.393  29.461  28.152  1.00  0.00     0.012 A 
ATOM     71  C   UNL A   1      39.969  29.210  30.503  1.00  0.00     0.148 A 
ATOM     72  C   UNL A   1      38.037  29.489  28.480  1.00  0.00     0.002 A 
ATOM     73  C   UNL A   1      38.616  29.187  30.817  1.00  0.00     0.091 A 
ATOM     74  F   UNL A   1      40.916  29.114  31.446  1.00  0.00    -0.205 F 
ATOM     75  C   UNL A   1      37.650  29.339  29.809  1.00  0.00     0.022 A 
BRANCH  73  76
ATOM     76  S   UNL A   1      38.012  28.908  32.485  1.00  0.00     0.127 S 
ATOM     77  O   UNL A   1      38.850  29.824  33.259  1.00  0.00    -0.237 OA
ATOM     78  O   UNL A   1      36.610  29.312  32.373  1.00  0.00    -0.237 OA
ATOM     79  O   UNL A   1      38.221  27.494  32.758  1.00  0.00    -0.744 OA
ENDBRANCH  73  76
ENDBRANCH  55  69
BRANCH  56  80
ATOM     80  C   UNL A   1      49.922  28.399  26.383  1.00  0.00     0.023 A 
ATOM     81  C   UNL A   1      50.231  28.468  25.011  1.00  0.00     0.012 A 
ATOM     82  C   UNL A   1      50.968  28.272  27.319  1.00  0.00     0.148 A 
ATOM     83  C   UNL A   1      51.556  28.401  24.578  1.00  0.00     0.002 A 
ATOM     84  C   UNL A   1      52.288  28.265  26.885  1.00  0.00     0.091 A 
ATOM     85  F   UNL A   1      50.650  28.191  28.619  1.00  0.00    -0.205 F 
ATOM     86  C   UNL A   1      52.583  28.313  25.513  1.00  0.00     0.022 A 
BRANCH  84  87
ATOM     87  S   UNL A   1      53.680  28.294  28.020  1.00  0.00     0.127 S 
ATOM     88  O   UNL A   1      53.378  29.471  28.832  1.00  0.00    -0.237 OA
ATOM     89  O   UNL A   1      53.526  27.014  28.709  1.00  0.00    -0.237 OA
ATOM     90  O   UNL A   1      54.873  28.396  27.189  1.00  0.00    -0.744 OA
ENDBRANCH  84  87
ENDBRANCH  56  80
BRANCH  68  91
ATOM     91  C   UNL A   1      46.125  33.648  29.074  1.00  0.00     0.023 A 
ATOM     92  C   UNL A   1      46.781  33.936  30.287  1.00  0.00     0.012 A 
ATOM     93  C   UNL A   1      45.886  34.689  28.154  1.00  0.00     0.148 A 
ATOM     94  C   UNL A   1      47.177  35.240  30.586  1.00  0.00     0.002 A 
ATOM     95  C   UNL A   1      46.331  35.976  28.434  1.00  0.00     0.091 A 
ATOM     96  F   UNL A   1      45.249  34.397  27.010  1.00  0.00    -0.205 F 
ATOM     97  C   UNL A   1      46.967  36.255  29.654  1.00  0.00     0.022 A 
BRANCH  95  98
ATOM     98  S   UNL A   1      46.205  37.323  27.252  1.00  0.00     0.127 S 
ATOM     99  O   UNL A   1      46.795  38.432  28.000  1.00  0.00    -0.237 OA
ATOM    100  O   UNL A   1      47.021  36.835  26.140  1.00  0.00    -0.237 OA
ATOM    101  O   UNL A   1      44.787  37.464  26.948  1.00  0.00    -0.744 OA
ENDBRANCH  95  98
ENDBRANCH  68  91
ENDBRANCH  42  43
ENDBRANCH  35  37
ENDBRANCH  34  35
ENDBRANCH  33  34
ENDBRANCH  32  33
ENDBRANCH  31  32
ENDBRANCH  30  31
ENDBRANCH  29  30
ENDBRANCH   1  29
TORSDOF 27
ENDMDL
