MODEL 1
REMARK VINA RESULT:      -9.0      0.000      0.000
REMARK SMILES C[C@@H](C(=O)OCCOCCOCCOCCOC(=O)c1ccc(-c2c3nc(c(-c4cccc(S(=O)(=O)[O-])c4F)c4ccc([nH]4)c(-c4cccc(S(=O)(=O)[O-])c4F)c4nc(c(-c5cccc(S(=O)(=O)[O-])c5F)c5ccc2[nH]5)C=C4)C=C3)cc1)c1ccc(C[C@H]2CCC[C@@H]2O)cc1F
REMARK SMILES IDX 10 1 9 2 8 3 7 4 6 5 5 6 3 7 4 8 2 9 1 10 83 11 84 12 95 13
REMARK SMILES IDX 85 14 94 15 96 16 86 17 87 18 88 19 89 20 92 21 90 22 91 23
REMARK SMILES IDX 93 24 11 26 12 27 13 28 14 29 15 30 16 31 17 32 18 33 19 34
REMARK SMILES IDX 20 35 21 36 82 37 22 38 81 39 23 40 24 41 25 42 75 43 26 44
REMARK SMILES IDX 80 45 74 46 76 47 27 48 79 49 73 50 72 51 28 53 60 54 40 55
REMARK SMILES IDX 59 56 41 57 44 58 58 59 77 60 42 61 43 62 57 64 78 65 45 66
REMARK SMILES IDX 29 67 30 68 38 69 31 70 33 71 39 72 32 73 34 74 35 75 36 76
REMARK SMILES IDX 37 77 61 78 62 79 70 80 63 81 65 82 71 83 64 84 66 85 67 86
REMARK SMILES IDX 68 87 69 88 46 89 47 90 55 91 48 92 50 93 56 94 49 95 51 96
REMARK SMILES IDX 52 97 53 98 54 99
REMARK H PARENT 93 25 76 52 44 63
REMARK Flexibility Score: inf
ROOT
ATOM      1  C   UNL A   1      42.475  20.452  26.841  1.00  0.00     0.188 C 
ENDROOT
BRANCH   1   2
ATOM      2  C   UNL A   1      41.088  20.427  26.184  1.00  0.00     0.188 C 
BRANCH   2   3
ATOM      3  O   UNL A   1      40.403  21.645  25.978  1.00  0.00    -0.376 OA
BRANCH   3   4
ATOM      4  C   UNL A   1      38.993  21.728  26.152  1.00  0.00     0.202 C 
BRANCH   4   5
ATOM      5  C   UNL A   1      37.939  21.772  25.022  1.00  0.00     0.261 C 
BRANCH   5   6
ATOM      6  O   UNL A   1      37.238  23.005  24.836  1.00  0.00    -0.463 OA
BRANCH   6   7
ATOM      7  C   UNL A   1      36.299  23.063  23.862  1.00  0.00     0.313 C 
ATOM      8  O   UNL A   1      36.519  22.829  22.677  1.00  0.00    -0.252 OA
BRANCH   7   9
ATOM      9  C   UNL A   1      34.883  23.292  24.413  1.00  0.00     0.129 C 
ATOM     10  C   UNL A   1      34.880  23.973  25.793  1.00  0.00     0.025 C 
BRANCH   9  11
ATOM     11  C   UNL A   1      33.965  22.073  24.271  1.00  0.00     0.002 A 
ATOM     12  C   UNL A   1      33.963  21.038  25.222  1.00  0.00     0.008 A 
ATOM     13  C   UNL A   1      33.161  21.882  23.142  1.00  0.00     0.127 A 
ATOM     14  C   UNL A   1      33.200  19.883  25.057  1.00  0.00     0.004 A 
ATOM     15  C   UNL A   1      32.456  20.692  22.931  1.00  0.00     0.043 A 
ATOM     16  F   UNL A   1      33.099  22.821  22.187  1.00  0.00    -0.207 F 
ATOM     17  C   UNL A   1      32.527  19.650  23.863  1.00  0.00    -0.045 A 
BRANCH  17  18
ATOM     18  C   UNL A   1      32.022  18.265  23.532  1.00  0.00     0.041 C 
BRANCH  18  19
ATOM     19  C   UNL A   1      33.037  17.128  23.814  1.00  0.00     0.022 C 
ATOM     20  C   UNL A   1      34.523  17.517  23.681  1.00  0.00     0.007 C 
ATOM     21  C   UNL A   1      32.930  16.452  25.191  1.00  0.00     0.117 C 
ATOM     22  C   UNL A   1      35.250  16.870  24.861  1.00  0.00     0.003 C 
ATOM     23  C   UNL A   1      34.296  15.818  25.395  1.00  0.00     0.032 C 
BRANCH  21  24
ATOM     24  O   UNL A   1      31.916  15.462  25.210  1.00  0.00    -0.393 OA
ATOM     25  H   UNL A   1      31.623  15.317  26.124  1.00  0.00     0.210 HD
ENDBRANCH  21  24
ENDBRANCH  18  19
ENDBRANCH  17  18
ENDBRANCH   9  11
ENDBRANCH   7   9
ENDBRANCH   6   7
ENDBRANCH   5   6
ENDBRANCH   4   5
ENDBRANCH   3   4
ENDBRANCH   2   3
ENDBRANCH   1   2
BRANCH   1  26
ATOM     26  O   UNL A   1      43.290  19.337  26.548  1.00  0.00    -0.377 OA
BRANCH  26  27
ATOM     27  C   UNL A   1      43.579  19.051  25.185  1.00  0.00     0.188 C 
BRANCH  27  28
ATOM     28  C   UNL A   1      44.529  19.956  24.368  1.00  0.00     0.188 C 
BRANCH  28  29
ATOM     29  O   UNL A   1      45.287  20.888  25.126  1.00  0.00    -0.376 OA
BRANCH  29  30
ATOM     30  C   UNL A   1      45.033  22.274  24.950  1.00  0.00     0.202 C 
BRANCH  30  31
ATOM     31  C   UNL A   1      46.207  23.166  24.517  1.00  0.00     0.261 C 
BRANCH  31  32
ATOM     32  O   UNL A   1      46.683  24.110  25.489  1.00  0.00    -0.460 OA
BRANCH  32  33
ATOM     33  C   UNL A   1      46.869  25.388  25.089  1.00  0.00     0.338 C 
ATOM     34  O   UNL A   1      47.322  25.765  24.029  1.00  0.00    -0.246 OA
BRANCH  33  35
ATOM     35  C   UNL A   1      46.226  26.266  26.092  1.00  0.00     0.060 A 
ATOM     36  C   UNL A   1      47.038  27.007  26.961  1.00  0.00     0.016 A 
ATOM     37  C   UNL A   1      44.835  26.362  26.170  1.00  0.00     0.016 A 
ATOM     38  C   UNL A   1      46.461  27.815  27.939  1.00  0.00     0.010 A 
ATOM     39  C   UNL A   1      44.258  27.153  27.166  1.00  0.00     0.010 A 
ATOM     40  C   UNL A   1      45.068  27.851  28.080  1.00  0.00    -0.014 A 
BRANCH  40  41
ATOM     41  C   UNL A   1      44.471  28.443  29.301  1.00  0.00     0.031 A 
ATOM     42  C   UNL A   1      44.040  29.884  29.254  1.00  0.00     0.074 A 
ATOM     43  C   UNL A   1      44.307  27.724  30.425  1.00  0.00     0.049 A 
ATOM     44  N   UNL A   1      43.542  30.633  30.201  1.00  0.00    -0.248 NA
ATOM     45  C   UNL A   1      44.195  30.574  27.961  1.00  0.00     0.031 C 
ATOM     46  C   UNL A   1      44.670  26.318  30.591  1.00  0.00     0.029 A 
ATOM     47  N   UNL A   1      43.815  28.094  31.652  1.00  0.00    -0.354 N 
ATOM     48  C   UNL A   1      43.353  31.887  29.631  1.00  0.00     0.074 A 
ATOM     49  C   UNL A   1      43.803  31.802  28.260  1.00  0.00     0.031 C 
ATOM     50  C   UNL A   1      44.420  25.953  31.862  1.00  0.00     0.029 A 
ATOM     51  C   UNL A   1      43.911  27.106  32.603  1.00  0.00     0.049 A 
ATOM     52  H   UNL A   1      43.432  28.983  31.835  1.00  0.00     0.167 HD
ATOM     53  C   UNL A   1      42.841  33.006  30.194  1.00  0.00     0.034 A 
ATOM     54  C   UNL A   1      43.649  27.139  33.925  1.00  0.00     0.034 A 
ATOM     55  C   UNL A   1      42.388  33.086  31.556  1.00  0.00     0.049 A 
ATOM     56  C   UNL A   1      43.117  28.411  34.540  1.00  0.00     0.074 A 
ATOM     57  C   UNL A   1      41.820  34.164  32.210  1.00  0.00     0.029 A 
ATOM     58  N   UNL A   1      42.468  32.055  32.479  1.00  0.00    -0.354 N 
ATOM     59  N   UNL A   1      42.848  29.558  33.965  1.00  0.00    -0.248 NA
ATOM     60  C   UNL A   1      42.822  28.380  35.981  1.00  0.00     0.031 C 
ATOM     61  C   UNL A   1      41.593  33.798  33.541  1.00  0.00     0.029 A 
ATOM     62  C   UNL A   1      41.974  32.475  33.701  1.00  0.00     0.049 A 
ATOM     63  H   UNL A   1      42.824  31.157  32.291  1.00  0.00     0.167 HD
ATOM     64  C   UNL A   1      42.317  30.371  34.963  1.00  0.00     0.074 A 
ATOM     65  C   UNL A   1      42.285  29.577  36.173  1.00  0.00     0.031 C 
ATOM     66  C   UNL A   1      41.901  31.659  34.886  1.00  0.00     0.034 A 
BRANCH  53  67
ATOM     67  C   UNL A   1      42.735  34.236  29.331  1.00  0.00     0.023 A 
ATOM     68  C   UNL A   1      41.476  34.649  28.848  1.00  0.00     0.012 A 
ATOM     69  C   UNL A   1      43.876  35.008  29.038  1.00  0.00     0.148 A 
ATOM     70  C   UNL A   1      41.360  35.792  28.058  1.00  0.00     0.002 A 
ATOM     71  C   UNL A   1      43.744  36.173  28.292  1.00  0.00     0.091 A 
ATOM     72  F   UNL A   1      45.066  34.586  29.487  1.00  0.00    -0.205 F 
ATOM     73  C   UNL A   1      42.491  36.559  27.790  1.00  0.00     0.022 A 
BRANCH  71  74
ATOM     74  S   UNL A   1      45.126  37.271  27.959  1.00  0.00     0.127 S 
ATOM     75  O   UNL A   1      44.485  38.318  27.163  1.00  0.00    -0.237 OA
ATOM     76  O   UNL A   1      45.519  37.685  29.306  1.00  0.00    -0.237 OA
ATOM     77  O   UNL A   1      46.117  36.472  27.252  1.00  0.00    -0.744 OA
ENDBRANCH  71  74
ENDBRANCH  53  67
BRANCH  54  78
ATOM     78  C   UNL A   1      43.876  25.928  34.764  1.00  0.00     0.023 A 
ATOM     79  C   UNL A   1      42.862  24.958  34.884  1.00  0.00     0.012 A 
ATOM     80  C   UNL A   1      45.093  25.736  35.447  1.00  0.00     0.148 A 
ATOM     81  C   UNL A   1      43.042  23.837  35.696  1.00  0.00     0.002 A 
ATOM     82  C   UNL A   1      45.288  24.590  36.206  1.00  0.00     0.091 A 
ATOM     83  F   UNL A   1      46.038  26.679  35.334  1.00  0.00    -0.205 F 
ATOM     84  C   UNL A   1      44.258  23.647  36.348  1.00  0.00     0.022 A 
BRANCH  82  85
ATOM     85  S   UNL A   1      46.862  24.200  36.979  1.00  0.00     0.127 S 
ATOM     86  O   UNL A   1      47.790  24.356  35.862  1.00  0.00    -0.237 OA
ATOM     87  O   UNL A   1      46.954  25.236  38.007  1.00  0.00    -0.237 OA
ATOM     88  O   UNL A   1      46.722  22.847  37.498  1.00  0.00    -0.744 OA
ENDBRANCH  82  85
ENDBRANCH  54  78
BRANCH  66  89
ATOM     89  C   UNL A   1      41.322  32.289  36.129  1.00  0.00     0.023 A 
ATOM     90  C   UNL A   1      42.108  33.149  36.921  1.00  0.00     0.012 A 
ATOM     91  C   UNL A   1      39.968  32.084  36.465  1.00  0.00     0.148 A 
ATOM     92  C   UNL A   1      41.566  33.766  38.049  1.00  0.00     0.002 A 
ATOM     93  C   UNL A   1      39.421  32.744  37.559  1.00  0.00     0.091 A 
ATOM     94  F   UNL A   1      39.240  31.251  35.708  1.00  0.00    -0.205 F 
ATOM     95  C   UNL A   1      40.221  33.573  38.361  1.00  0.00     0.022 A 
BRANCH  93  96
ATOM     96  S   UNL A   1      37.678  32.636  37.978  1.00  0.00     0.127 S 
ATOM     97  O   UNL A   1      37.606  33.473  39.174  1.00  0.00    -0.237 OA
ATOM     98  O   UNL A   1      37.040  33.210  36.792  1.00  0.00    -0.237 OA
ATOM     99  O   UNL A   1      37.400  31.222  38.191  1.00  0.00    -0.744 OA
ENDBRANCH  93  96
ENDBRANCH  66  89
ENDBRANCH  40  41
ENDBRANCH  33  35
ENDBRANCH  32  33
ENDBRANCH  31  32
ENDBRANCH  30  31
ENDBRANCH  29  30
ENDBRANCH  28  29
ENDBRANCH  27  28
ENDBRANCH  26  27
ENDBRANCH   1  26
TORSDOF 27
ENDMDL
MODEL 2
REMARK VINA RESULT:      -8.2      8.952     17.701
REMARK SMILES C[C@@H](C(=O)OCCOCCOCCOCCOC(=O)c1ccc(-c2c3nc(c(-c4cccc(S(=O)(=O)[O-])c4F)c4ccc([nH]4)c(-c4cccc(S(=O)(=O)[O-])c4F)c4nc(c(-c5cccc(S(=O)(=O)[O-])c5F)c5ccc2[nH]5)C=C4)C=C3)cc1)c1ccc(C[C@H]2CCC[C@@H]2O)cc1F
REMARK SMILES IDX 10 1 9 2 8 3 7 4 6 5 5 6 3 7 4 8 2 9 1 10 83 11 84 12 95 13
REMARK SMILES IDX 85 14 94 15 96 16 86 17 87 18 88 19 89 20 92 21 90 22 91 23
REMARK SMILES IDX 93 24 11 26 12 27 13 28 14 29 15 30 16 31 17 32 18 33 19 34
REMARK SMILES IDX 20 35 21 36 82 37 22 38 81 39 23 40 24 41 25 42 75 43 26 44
REMARK SMILES IDX 80 45 74 46 76 47 27 48 79 49 73 50 72 51 28 53 60 54 40 55
REMARK SMILES IDX 59 56 41 57 44 58 58 59 77 60 42 61 43 62 57 64 78 65 45 66
REMARK SMILES IDX 29 67 30 68 38 69 31 70 33 71 39 72 32 73 34 74 35 75 36 76
REMARK SMILES IDX 37 77 61 78 62 79 70 80 63 81 65 82 71 83 64 84 66 85 67 86
REMARK SMILES IDX 68 87 69 88 46 89 47 90 55 91 48 92 50 93 56 94 49 95 51 96
REMARK SMILES IDX 52 97 53 98 54 99
REMARK H PARENT 93 25 76 52 44 63
REMARK Flexibility Score: inf
ROOT
ATOM      1  C   UNL A   1      49.058  45.375  21.328  1.00  0.00     0.188 C 
ENDROOT
BRANCH   1   2
ATOM      2  C   UNL A   1      50.211  46.083  20.603  1.00  0.00     0.188 C 
BRANCH   2   3
ATOM      3  O   UNL A   1      49.914  47.042  19.610  1.00  0.00    -0.376 OA
BRANCH   3   4
ATOM      4  C   UNL A   1      50.214  46.795  18.242  1.00  0.00     0.202 C 
BRANCH   4   5
ATOM      5  C   UNL A   1      49.283  47.074  17.041  1.00  0.00     0.261 C 
BRANCH   5   6
ATOM      6  O   UNL A   1      48.220  48.009  17.248  1.00  0.00    -0.463 OA
BRANCH   6   7
ATOM      7  C   UNL A   1      47.601  48.523  16.158  1.00  0.00     0.313 C 
ATOM      8  O   UNL A   1      47.972  48.334  15.003  1.00  0.00    -0.252 OA
BRANCH   7   9
ATOM      9  C   UNL A   1      46.284  49.235  16.501  1.00  0.00     0.129 C 
ATOM     10  C   UNL A   1      46.456  50.336  17.562  1.00  0.00     0.025 C 
BRANCH   9  11
ATOM     11  C   UNL A   1      45.108  48.276  16.723  1.00  0.00     0.002 A 
ATOM     12  C   UNL A   1      45.309  46.904  16.948  1.00  0.00     0.008 A 
ATOM     13  C   UNL A   1      43.780  48.701  16.612  1.00  0.00     0.127 A 
ATOM     14  C   UNL A   1      44.246  46.009  17.061  1.00  0.00     0.004 A 
ATOM     15  C   UNL A   1      42.712  47.798  16.642  1.00  0.00     0.043 A 
ATOM     16  F   UNL A   1      43.496  49.994  16.401  1.00  0.00    -0.207 F 
ATOM     17  C   UNL A   1      42.945  46.427  16.799  1.00  0.00    -0.045 A 
BRANCH  17  18
ATOM     18  C   UNL A   1      41.857  45.410  16.548  1.00  0.00     0.041 C 
BRANCH  18  19
ATOM     19  C   UNL A   1      41.783  44.275  17.601  1.00  0.00     0.022 C 
ATOM     20  C   UNL A   1      43.123  43.892  18.258  1.00  0.00     0.007 C 
ATOM     21  C   UNL A   1      40.821  44.506  18.778  1.00  0.00     0.117 C 
ATOM     22  C   UNL A   1      42.840  43.702  19.749  1.00  0.00     0.003 C 
ATOM     23  C   UNL A   1      41.332  43.568  19.860  1.00  0.00     0.032 C 
BRANCH  21  24
ATOM     24  O   UNL A   1      39.485  44.184  18.432  1.00  0.00    -0.393 OA
ATOM     25  H   UNL A   1      39.061  44.954  18.021  1.00  0.00     0.210 HD
ENDBRANCH  21  24
ENDBRANCH  18  19
ENDBRANCH  17  18
ENDBRANCH   9  11
ENDBRANCH   7   9
ENDBRANCH   6   7
ENDBRANCH   5   6
ENDBRANCH   4   5
ENDBRANCH   3   4
ENDBRANCH   2   3
ENDBRANCH   1   2
BRANCH   1  26
ATOM     26  O   UNL A   1      47.768  45.819  20.966  1.00  0.00    -0.377 OA
BRANCH  26  27
ATOM     27  C   UNL A   1      46.759  45.854  21.967  1.00  0.00     0.188 C 
BRANCH  27  28
ATOM     28  C   UNL A   1      47.037  45.330  23.394  1.00  0.00     0.188 C 
BRANCH  28  29
ATOM     29  O   UNL A   1      45.885  45.073  24.184  1.00  0.00    -0.376 OA
BRANCH  29  30
ATOM     30  C   UNL A   1      44.611  45.415  23.661  1.00  0.00     0.202 C 
BRANCH  30  31
ATOM     31  C   UNL A   1      43.654  44.268  23.300  1.00  0.00     0.261 C 
BRANCH  31  32
ATOM     32  O   UNL A   1      43.317  43.361  24.361  1.00  0.00    -0.460 OA
BRANCH  32  33
ATOM     33  C   UNL A   1      42.445  42.364  24.087  1.00  0.00     0.338 C 
ATOM     34  O   UNL A   1      41.723  42.269  23.117  1.00  0.00    -0.246 OA
BRANCH  33  35
ATOM     35  C   UNL A   1      42.674  41.289  25.078  1.00  0.00     0.060 A 
ATOM     36  C   UNL A   1      41.565  40.627  25.623  1.00  0.00     0.016 A 
ATOM     37  C   UNL A   1      43.968  40.934  25.461  1.00  0.00     0.016 A 
ATOM     38  C   UNL A   1      41.748  39.635  26.585  1.00  0.00     0.010 A 
ATOM     39  C   UNL A   1      44.149  39.956  26.442  1.00  0.00     0.010 A 
ATOM     40  C   UNL A   1      43.038  39.331  27.037  1.00  0.00    -0.014 A 
BRANCH  40  41
ATOM     41  C   UNL A   1      43.211  38.522  28.268  1.00  0.00     0.031 A 
ATOM     42  C   UNL A   1      43.296  39.243  29.585  1.00  0.00     0.074 A 
ATOM     43  C   UNL A   1      43.287  37.180  28.224  1.00  0.00     0.049 A 
ATOM     44  N   UNL A   1      43.496  38.763  30.783  1.00  0.00    -0.248 NA
ATOM     45  C   UNL A   1      43.135  40.708  29.544  1.00  0.00     0.031 C 
ATOM     46  C   UNL A   1      43.204  36.367  27.013  1.00  0.00     0.029 A 
ATOM     47  N   UNL A   1      43.481  36.269  29.232  1.00  0.00    -0.354 N 
ATOM     48  C   UNL A   1      43.516  39.864  31.633  1.00  0.00     0.074 A 
ATOM     49  C   UNL A   1      43.322  41.037  30.812  1.00  0.00     0.031 C 
ATOM     50  C   UNL A   1      43.381  35.075  27.346  1.00  0.00     0.029 A 
ATOM     51  C   UNL A   1      43.621  34.977  28.785  1.00  0.00     0.049 A 
ATOM     52  H   UNL A   1      43.518  36.518  30.185  1.00  0.00     0.167 HD
ATOM     53  C   UNL A   1      43.671  39.894  32.977  1.00  0.00     0.034 A 
ATOM     54  C   UNL A   1      43.939  33.851  29.456  1.00  0.00     0.034 A 
ATOM     55  C   UNL A   1      43.857  38.726  33.792  1.00  0.00     0.049 A 
ATOM     56  C   UNL A   1      44.147  33.916  30.949  1.00  0.00     0.074 A 
ATOM     57  C   UNL A   1      43.987  38.649  35.167  1.00  0.00     0.029 A 
ATOM     58  N   UNL A   1      43.959  37.431  33.308  1.00  0.00    -0.354 N 
ATOM     59  N   UNL A   1      44.063  34.949  31.752  1.00  0.00    -0.248 NA
ATOM     60  C   UNL A   1      44.465  32.653  31.632  1.00  0.00     0.031 C 
ATOM     61  C   UNL A   1      44.208  37.311  35.511  1.00  0.00     0.029 A 
ATOM     62  C   UNL A   1      44.164  36.549  34.354  1.00  0.00     0.049 A 
ATOM     63  H   UNL A   1      43.893  37.177  32.359  1.00  0.00     0.167 HD
ATOM     64  C   UNL A   1      44.276  34.455  33.036  1.00  0.00     0.074 A 
ATOM     65  C   UNL A   1      44.475  33.027  32.904  1.00  0.00     0.031 C 
ATOM     66  C   UNL A   1      44.311  35.123  34.215  1.00  0.00     0.034 A 
BRANCH  53  67
ATOM     67  C   UNL A   1      43.636  41.240  33.653  1.00  0.00     0.023 A 
ATOM     68  C   UNL A   1      42.402  41.799  34.043  1.00  0.00     0.012 A 
ATOM     69  C   UNL A   1      44.830  41.929  33.943  1.00  0.00     0.148 A 
ATOM     70  C   UNL A   1      42.355  43.038  34.681  1.00  0.00     0.002 A 
ATOM     71  C   UNL A   1      44.777  43.140  34.623  1.00  0.00     0.091 A 
ATOM     72  F   UNL A   1      45.991  41.392  33.543  1.00  0.00    -0.205 F 
ATOM     73  C   UNL A   1      43.541  43.702  34.980  1.00  0.00     0.022 A 
BRANCH  71  74
ATOM     74  S   UNL A   1      46.252  44.034  35.126  1.00  0.00     0.127 S 
ATOM     75  O   UNL A   1      47.076  43.946  33.921  1.00  0.00    -0.237 OA
ATOM     76  O   UNL A   1      45.719  45.368  35.405  1.00  0.00    -0.237 OA
ATOM     77  O   UNL A   1      46.774  43.330  36.289  1.00  0.00    -0.744 OA
ENDBRANCH  71  74
ENDBRANCH  53  67
BRANCH  54  78
ATOM     78  C   UNL A   1      44.073  32.558  28.727  1.00  0.00     0.023 A 
ATOM     79  C   UNL A   1      42.967  31.692  28.625  1.00  0.00     0.012 A 
ATOM     80  C   UNL A   1      45.296  32.182  28.136  1.00  0.00     0.148 A 
ATOM     81  C   UNL A   1      43.086  30.460  27.980  1.00  0.00     0.002 A 
ATOM     82  C   UNL A   1      45.391  30.981  27.445  1.00  0.00     0.091 A 
ATOM     83  F   UNL A   1      46.341  33.012  28.259  1.00  0.00    -0.205 F 
ATOM     84  C   UNL A   1      44.293  30.109  27.381  1.00  0.00     0.022 A 
BRANCH  82  85
ATOM     85  S   UNL A   1      46.865  30.504  26.537  1.00  0.00     0.127 S 
ATOM     86  O   UNL A   1      47.599  29.737  27.540  1.00  0.00    -0.237 OA
ATOM     87  O   UNL A   1      46.300  29.712  25.445  1.00  0.00    -0.237 OA
ATOM     88  O   UNL A   1      47.490  31.751  26.117  1.00  0.00    -0.744 OA
ENDBRANCH  82  85
ENDBRANCH  54  78
BRANCH  66  89
ATOM     89  C   UNL A   1      44.521  34.320  35.475  1.00  0.00     0.023 A 
ATOM     90  C   UNL A   1      45.805  34.219  36.047  1.00  0.00     0.012 A 
ATOM     91  C   UNL A   1      43.424  33.728  36.133  1.00  0.00     0.148 A 
ATOM     92  C   UNL A   1      45.999  33.511  37.233  1.00  0.00     0.002 A 
ATOM     93  C   UNL A   1      43.616  33.070  37.342  1.00  0.00     0.091 A 
ATOM     94  F   UNL A   1      42.212  33.822  35.566  1.00  0.00    -0.205 F 
ATOM     95  C   UNL A   1      44.904  32.948  37.886  1.00  0.00     0.022 A 
BRANCH  93  96
ATOM     96  S   UNL A   1      42.254  32.402  38.303  1.00  0.00     0.127 S 
ATOM     97  O   UNL A   1      42.950  31.857  39.467  1.00  0.00    -0.237 OA
ATOM     98  O   UNL A   1      41.453  33.596  38.575  1.00  0.00    -0.237 OA
ATOM     99  O   UNL A   1      41.602  31.416  37.451  1.00  0.00    -0.744 OA
ENDBRANCH  93  96
ENDBRANCH  66  89
ENDBRANCH  40  41
ENDBRANCH  33  35
ENDBRANCH  32  33
ENDBRANCH  31  32
ENDBRANCH  30  31
ENDBRANCH  29  30
ENDBRANCH  28  29
ENDBRANCH  27  28
ENDBRANCH  26  27
ENDBRANCH   1  26
TORSDOF 27
ENDMDL
MODEL 3
REMARK VINA RESULT:      -8.1      4.273      7.520
REMARK SMILES C[C@@H](C(=O)OCCOCCOCCOCCOC(=O)c1ccc(-c2c3nc(c(-c4cccc(S(=O)(=O)[O-])c4F)c4ccc([nH]4)c(-c4cccc(S(=O)(=O)[O-])c4F)c4nc(c(-c5cccc(S(=O)(=O)[O-])c5F)c5ccc2[nH]5)C=C4)C=C3)cc1)c1ccc(C[C@H]2CCC[C@@H]2O)cc1F
REMARK SMILES IDX 10 1 9 2 8 3 7 4 6 5 5 6 3 7 4 8 2 9 1 10 83 11 84 12 95 13
REMARK SMILES IDX 85 14 94 15 96 16 86 17 87 18 88 19 89 20 92 21 90 22 91 23
REMARK SMILES IDX 93 24 11 26 12 27 13 28 14 29 15 30 16 31 17 32 18 33 19 34
REMARK SMILES IDX 20 35 21 36 82 37 22 38 81 39 23 40 24 41 25 42 75 43 26 44
REMARK SMILES IDX 80 45 74 46 76 47 27 48 79 49 73 50 72 51 28 53 60 54 40 55
REMARK SMILES IDX 59 56 41 57 44 58 58 59 77 60 42 61 43 62 57 64 78 65 45 66
REMARK SMILES IDX 29 67 30 68 38 69 31 70 33 71 39 72 32 73 34 74 35 75 36 76
REMARK SMILES IDX 37 77 61 78 62 79 70 80 63 81 65 82 71 83 64 84 66 85 67 86
REMARK SMILES IDX 68 87 69 88 46 89 47 90 55 91 48 92 50 93 56 94 49 95 51 96
REMARK SMILES IDX 52 97 53 98 54 99
REMARK H PARENT 93 25 76 52 44 63
REMARK Flexibility Score: inf
ROOT
ATOM      1  C   UNL A   1      39.766  22.236  26.625  1.00  0.00     0.188 C 
ENDROOT
BRANCH   1   2
ATOM      2  C   UNL A   1      38.585  21.654  25.837  1.00  0.00     0.188 C 
BRANCH   2   3
ATOM      3  O   UNL A   1      37.411  22.424  25.688  1.00  0.00    -0.376 OA
BRANCH   3   4
ATOM      4  C   UNL A   1      36.130  21.805  25.662  1.00  0.00     0.202 C 
BRANCH   4   5
ATOM      5  C   UNL A   1      35.255  21.578  24.408  1.00  0.00     0.261 C 
BRANCH   5   6
ATOM      6  O   UNL A   1      34.308  22.601  24.084  1.00  0.00    -0.463 OA
BRANCH   6   7
ATOM      7  C   UNL A   1      33.135  22.621  24.761  1.00  0.00     0.313 C 
ATOM      8  O   UNL A   1      32.100  22.096  24.362  1.00  0.00    -0.252 OA
BRANCH   7   9
ATOM      9  C   UNL A   1      33.269  23.229  26.165  1.00  0.00     0.129 C 
ATOM     10  C   UNL A   1      32.615  22.364  27.257  1.00  0.00     0.025 C 
BRANCH   9  11
ATOM     11  C   UNL A   1      32.943  24.726  26.219  1.00  0.00     0.002 A 
ATOM     12  C   UNL A   1      31.642  25.187  26.486  1.00  0.00     0.008 A 
ATOM     13  C   UNL A   1      33.897  25.701  25.907  1.00  0.00     0.127 A 
ATOM     14  C   UNL A   1      31.315  26.542  26.449  1.00  0.00     0.004 A 
ATOM     15  C   UNL A   1      33.558  27.053  25.788  1.00  0.00     0.043 A 
ATOM     16  F   UNL A   1      35.163  25.350  25.643  1.00  0.00    -0.207 F 
ATOM     17  C   UNL A   1      32.239  27.475  25.992  1.00  0.00    -0.045 A 
BRANCH  17  18
ATOM     18  C   UNL A   1      31.787  28.860  25.593  1.00  0.00     0.041 C 
BRANCH  18  19
ATOM     19  C   UNL A   1      31.492  29.028  24.080  1.00  0.00     0.022 C 
ATOM     20  C   UNL A   1      31.639  27.750  23.230  1.00  0.00     0.007 C 
ATOM     21  C   UNL A   1      30.103  29.581  23.720  1.00  0.00     0.117 C 
ATOM     22  C   UNL A   1      30.453  27.729  22.265  1.00  0.00     0.003 C 
ATOM     23  C   UNL A   1      29.896  29.141  22.279  1.00  0.00     0.032 C 
BRANCH  21  24
ATOM     24  O   UNL A   1      30.062  30.994  23.817  1.00  0.00    -0.393 OA
ATOM     25  H   UNL A   1      29.552  31.250  24.603  1.00  0.00     0.210 HD
ENDBRANCH  21  24
ENDBRANCH  18  19
ENDBRANCH  17  18
ENDBRANCH   9  11
ENDBRANCH   7   9
ENDBRANCH   6   7
ENDBRANCH   5   6
ENDBRANCH   4   5
ENDBRANCH   3   4
ENDBRANCH   2   3
ENDBRANCH   1   2
BRANCH   1  26
ATOM     26  O   UNL A   1      40.400  21.328  27.500  1.00  0.00    -0.377 OA
BRANCH  26  27
ATOM     27  C   UNL A   1      41.333  20.403  26.956  1.00  0.00     0.188 C 
BRANCH  27  28
ATOM     28  C   UNL A   1      42.369  20.848  25.899  1.00  0.00     0.188 C 
BRANCH  28  29
ATOM     29  O   UNL A   1      43.318  21.807  26.341  1.00  0.00    -0.376 OA
BRANCH  29  30
ATOM     30  C   UNL A   1      43.185  23.150  25.900  1.00  0.00     0.202 C 
BRANCH  30  31
ATOM     31  C   UNL A   1      44.401  23.805  25.225  1.00  0.00     0.261 C 
BRANCH  31  32
ATOM     32  O   UNL A   1      45.296  24.527  26.085  1.00  0.00    -0.460 OA
BRANCH  32  33
ATOM     33  C   UNL A   1      45.737  25.734  25.666  1.00  0.00     0.338 C 
ATOM     34  O   UNL A   1      46.128  26.026  24.556  1.00  0.00    -0.246 OA
BRANCH  33  35
ATOM     35  C   UNL A   1      45.463  26.707  26.747  1.00  0.00     0.060 A 
ATOM     36  C   UNL A   1      45.336  26.237  28.062  1.00  0.00     0.016 A 
ATOM     37  C   UNL A   1      45.339  28.069  26.469  1.00  0.00     0.016 A 
ATOM     38  C   UNL A   1      45.043  27.124  29.096  1.00  0.00     0.010 A 
ATOM     39  C   UNL A   1      45.022  28.954  27.502  1.00  0.00     0.010 A 
ATOM     40  C   UNL A   1      44.833  28.479  28.813  1.00  0.00    -0.014 A 
BRANCH  40  41
ATOM     41  C   UNL A   1      44.214  29.354  29.838  1.00  0.00     0.031 A 
ATOM     42  C   UNL A   1      45.093  29.896  30.932  1.00  0.00     0.074 A 
ATOM     43  C   UNL A   1      42.907  29.668  29.800  1.00  0.00     0.049 A 
ATOM     44  N   UNL A   1      44.776  30.634  31.962  1.00  0.00    -0.248 NA
ATOM     45  C   UNL A   1      46.524  29.555  30.855  1.00  0.00     0.031 C 
ATOM     46  C   UNL A   1      41.957  29.219  28.785  1.00  0.00     0.029 A 
ATOM     47  N   UNL A   1      42.150  30.421  30.664  1.00  0.00    -0.354 N 
ATOM     48  C   UNL A   1      45.957  30.821  32.671  1.00  0.00     0.074 A 
ATOM     49  C   UNL A   1      46.995  30.107  31.962  1.00  0.00     0.031 C 
ATOM     50  C   UNL A   1      40.733  29.677  29.103  1.00  0.00     0.029 A 
ATOM     51  C   UNL A   1      40.809  30.423  30.359  1.00  0.00     0.049 A 
ATOM     52  H   UNL A   1      42.530  30.911  31.429  1.00  0.00     0.167 HD
ATOM     53  C   UNL A   1      46.163  31.532  33.804  1.00  0.00     0.034 A 
ATOM     54  C   UNL A   1      39.763  30.940  31.034  1.00  0.00     0.034 A 
ATOM     55  C   UNL A   1      45.131  32.247  34.503  1.00  0.00     0.049 A 
ATOM     56  C   UNL A   1      40.012  31.694  32.316  1.00  0.00     0.074 A 
ATOM     57  C   UNL A   1      45.245  33.027  35.640  1.00  0.00     0.029 A 
ATOM     58  N   UNL A   1      43.792  32.256  34.146  1.00  0.00    -0.354 N 
ATOM     59  N   UNL A   1      41.148  31.948  32.920  1.00  0.00    -0.248 NA
ATOM     60  C   UNL A   1      38.835  32.260  32.994  1.00  0.00     0.031 C 
ATOM     61  C   UNL A   1      43.968  33.474  35.993  1.00  0.00     0.029 A 
ATOM     62  C   UNL A   1      43.066  33.014  35.047  1.00  0.00     0.049 A 
ATOM     63  H   UNL A   1      43.414  31.790  33.365  1.00  0.00     0.167 HD
ATOM     64  C   UNL A   1      40.828  32.735  34.023  1.00  0.00     0.074 A 
ATOM     65  C   UNL A   1      39.394  32.930  33.993  1.00  0.00     0.031 C 
ATOM     66  C   UNL A   1      41.646  33.243  34.978  1.00  0.00     0.034 A 
BRANCH  53  67
ATOM     67  C   UNL A   1      47.565  31.579  34.354  1.00  0.00     0.023 A 
ATOM     68  C   UNL A   1      48.463  32.570  33.906  1.00  0.00     0.012 A 
ATOM     69  C   UNL A   1      47.977  30.670  35.348  1.00  0.00     0.148 A 
ATOM     70  C   UNL A   1      49.759  32.634  34.415  1.00  0.00     0.002 A 
ATOM     71  C   UNL A   1      49.254  30.772  35.885  1.00  0.00     0.091 A 
ATOM     72  F   UNL A   1      47.117  29.722  35.742  1.00  0.00    -0.205 F 
ATOM     73  C   UNL A   1      50.150  31.743  35.411  1.00  0.00     0.022 A 
BRANCH  71  74
ATOM     74  S   UNL A   1      49.828  29.724  37.226  1.00  0.00     0.127 S 
ATOM     75  O   UNL A   1      48.642  29.663  38.081  1.00  0.00    -0.237 OA
ATOM     76  O   UNL A   1      50.140  28.477  36.528  1.00  0.00    -0.237 OA
ATOM     77  O   UNL A   1      50.978  30.404  37.806  1.00  0.00    -0.744 OA
ENDBRANCH  71  74
ENDBRANCH  53  67
BRANCH  54  78
ATOM     78  C   UNL A   1      38.378  30.772  30.508  1.00  0.00     0.023 A 
ATOM     79  C   UNL A   1      37.720  29.535  30.647  1.00  0.00     0.012 A 
ATOM     80  C   UNL A   1      37.711  31.835  29.868  1.00  0.00     0.148 A 
ATOM     81  C   UNL A   1      36.438  29.349  30.127  1.00  0.00     0.002 A 
ATOM     82  C   UNL A   1      36.413  31.661  29.405  1.00  0.00     0.091 A 
ATOM     83  F   UNL A   1      38.361  32.999  29.730  1.00  0.00    -0.205 F 
ATOM     84  C   UNL A   1      35.781  30.413  29.516  1.00  0.00     0.022 A 
BRANCH  82  85
ATOM     85  S   UNL A   1      35.445  33.008  28.718  1.00  0.00     0.127 S 
ATOM     86  O   UNL A   1      36.220  33.360  27.531  1.00  0.00    -0.237 OA
ATOM     87  O   UNL A   1      34.167  32.349  28.447  1.00  0.00    -0.237 OA
ATOM     88  O   UNL A   1      35.390  34.025  29.759  1.00  0.00    -0.744 OA
ENDBRANCH  82  85
ENDBRANCH  54  78
BRANCH  66  89
ATOM     89  C   UNL A   1      41.028  34.107  36.049  1.00  0.00     0.023 A 
ATOM     90  C   UNL A   1      40.746  35.463  35.791  1.00  0.00     0.012 A 
ATOM     91  C   UNL A   1      40.658  33.548  37.289  1.00  0.00     0.148 A 
ATOM     92  C   UNL A   1      40.138  36.258  36.765  1.00  0.00     0.002 A 
ATOM     93  C   UNL A   1      40.005  34.332  38.233  1.00  0.00     0.091 A 
ATOM     94  F   UNL A   1      40.948  32.260  37.522  1.00  0.00    -0.205 F 
ATOM     95  C   UNL A   1      39.758  35.690  37.979  1.00  0.00     0.022 A 
BRANCH  93  96
ATOM     96  S   UNL A   1      39.388  33.663  39.782  1.00  0.00     0.127 S 
ATOM     97  O   UNL A   1      39.724  34.732  40.722  1.00  0.00    -0.237 OA
ATOM     98  O   UNL A   1      37.958  33.519  39.508  1.00  0.00    -0.237 OA
ATOM     99  O   UNL A   1      40.095  32.407  39.990  1.00  0.00    -0.744 OA
ENDBRANCH  93  96
ENDBRANCH  66  89
ENDBRANCH  40  41
ENDBRANCH  33  35
ENDBRANCH  32  33
ENDBRANCH  31  32
ENDBRANCH  30  31
ENDBRANCH  29  30
ENDBRANCH  28  29
ENDBRANCH  27  28
ENDBRANCH  26  27
ENDBRANCH   1  26
TORSDOF 27
ENDMDL
