MODEL 1
REMARK VINA RESULT:      -9.8      0.000      0.000
REMARK SMILES CC1=C2C(=O)N(C[C@H]3CCCO3)C(=O)N=C2S[C@@H]1C(=O)OCCOCCOCCOCCOC(=O)c1ccc(-c2c3nc(c(-c4cccc(S(=O)(=O)[O-])c4F)c4ccc([nH]4)c(-c4cccc(S(=O)(=O)[O-])c4F)c4nc(c(-c5cccc(S(=O)(=O)[O-])c5F)c5ccc2[nH]5)C=C4)C=C3)cc1
REMARK SMILES IDX 28 1 27 2 26 3 25 4 24 5 23 6 22 7 21 8 19 9 20 10 18 11
REMARK SMILES IDX 1 12 2 13 3 14 4 15 16 16 17 17 5 18 6 19 15 20 13 21 14 22
REMARK SMILES IDX 7 23 8 24 9 25 12 26 10 27 11 28 29 29 30 30 31 31 32 32
REMARK SMILES IDX 33 33 34 34 35 35 36 36 37 37 98 38 38 39 97 40 39 41 40 42
REMARK SMILES IDX 41 43 91 44 42 45 96 46 90 47 92 48 43 49 95 50 89 51 88 52
REMARK SMILES IDX 44 54 76 55 56 56 75 57 57 58 60 59 74 60 93 61 58 62 59 63
REMARK SMILES IDX 73 65 94 66 61 67 45 68 46 69 54 70 47 71 49 72 55 73 48 74
REMARK SMILES IDX 50 75 51 76 52 77 53 78 77 79 78 80 86 81 79 82 81 83 87 84
REMARK SMILES IDX 80 85 82 86 83 87 84 88 85 89 62 90 63 91 71 92 64 93 66 94
REMARK SMILES IDX 72 95 65 96 67 97 68 98 69 99 70 100
REMARK H PARENT 92 53 60 64
REMARK Flexibility Score: inf
ROOT
ATOM      1  C   UNL A   1      35.511  19.569  24.995  1.00  0.00     0.188 C 
ENDROOT
BRANCH   1   2
ATOM      2  O   UNL A   1      35.840  18.239  24.614  1.00  0.00    -0.377 OA
BRANCH   2   3
ATOM      3  C   UNL A   1      34.758  17.380  24.334  1.00  0.00     0.188 C 
BRANCH   3   4
ATOM      4  C   UNL A   1      33.392  17.896  24.808  1.00  0.00     0.188 C 
BRANCH   4   5
ATOM      5  O   UNL A   1      32.358  18.325  23.926  1.00  0.00    -0.376 OA
BRANCH   5   6
ATOM      6  C   UNL A   1      32.147  19.686  23.578  1.00  0.00     0.202 C 
BRANCH   6   7
ATOM      7  C   UNL A   1      32.149  20.757  24.672  1.00  0.00     0.261 C 
BRANCH   7   8
ATOM      8  O   UNL A   1      32.949  21.906  24.384  1.00  0.00    -0.462 OA
BRANCH   8   9
ATOM      9  C   UNL A   1      33.391  22.592  25.458  1.00  0.00     0.323 C 
ATOM     10  O   UNL A   1      33.483  22.128  26.594  1.00  0.00    -0.251 OA
BRANCH   9  11
ATOM     11  C   UNL A   1      33.704  24.051  25.181  1.00  0.00     0.189 C 
ATOM     12  C   UNL A   1      31.638  24.715  26.568  1.00  0.00     0.042 C 
ATOM     13  C   UNL A   1      32.461  24.885  25.329  1.00  0.00    -0.033 C 
ATOM     14  C   UNL A   1      32.260  25.772  24.345  1.00  0.00     0.073 C 
ATOM     15  C   UNL A   1      31.250  26.806  24.214  1.00  0.00     0.264 C 
ATOM     16  C   UNL A   1      33.350  25.850  23.397  1.00  0.00     0.116 C 
ATOM     17  S   UNL A   1      34.352  24.453  23.515  1.00  0.00    -0.086 SA
ATOM     18  O   UNL A   1      30.082  26.616  24.510  1.00  0.00    -0.268 OA
ATOM     19  N   UNL A   1      31.835  27.982  23.803  1.00  0.00    -0.256 N 
ATOM     20  N   UNL A   1      33.607  26.854  22.645  1.00  0.00    -0.186 NA
ATOM     21  C   UNL A   1      32.868  27.998  22.854  1.00  0.00     0.351 C 
ATOM     22  O   UNL A   1      33.178  29.042  22.282  1.00  0.00    -0.246 OA
BRANCH  19  23
ATOM     23  C   UNL A   1      31.518  29.242  24.467  1.00  0.00     0.163 C 
BRANCH  23  24
ATOM     24  C   UNL A   1      32.327  29.706  25.689  1.00  0.00     0.138 C 
ATOM     25  C   UNL A   1      31.740  29.388  27.065  1.00  0.00     0.036 C 
ATOM     26  O   UNL A   1      33.596  29.003  25.642  1.00  0.00    -0.376 OA
ATOM     27  C   UNL A   1      32.497  28.188  27.552  1.00  0.00     0.031 C 
ATOM     28  C   UNL A   1      33.842  28.390  26.911  1.00  0.00     0.160 C 
ENDBRANCH  23  24
ENDBRANCH  19  23
ENDBRANCH   9  11
ENDBRANCH   8   9
ENDBRANCH   7   8
ENDBRANCH   6   7
ENDBRANCH   5   6
ENDBRANCH   4   5
ENDBRANCH   3   4
ENDBRANCH   2   3
ENDBRANCH   1   2
BRANCH   1  29
ATOM     29  C   UNL A   1      36.678  20.572  25.011  1.00  0.00     0.188 C 
BRANCH  29  30
ATOM     30  O   UNL A   1      37.955  19.949  24.869  1.00  0.00    -0.376 OA
BRANCH  30  31
ATOM     31  C   UNL A   1      39.047  20.547  25.561  1.00  0.00     0.202 C 
BRANCH  31  32
ATOM     32  C   UNL A   1      40.109  19.585  26.123  1.00  0.00     0.261 C 
BRANCH  32  33
ATOM     33  O   UNL A   1      41.344  19.498  25.391  1.00  0.00    -0.460 OA
BRANCH  33  34
ATOM     34  C   UNL A   1      42.505  19.664  26.057  1.00  0.00     0.338 C 
ATOM     35  O   UNL A   1      43.392  18.844  26.202  1.00  0.00    -0.246 OA
BRANCH  34  36
ATOM     36  C   UNL A   1      42.627  21.095  26.406  1.00  0.00     0.060 A 
ATOM     37  C   UNL A   1      42.661  22.036  25.367  1.00  0.00     0.016 A 
ATOM     38  C   UNL A   1      42.722  21.505  27.737  1.00  0.00     0.016 A 
ATOM     39  C   UNL A   1      42.847  23.387  25.657  1.00  0.00     0.010 A 
ATOM     40  C   UNL A   1      42.927  22.856  28.024  1.00  0.00     0.010 A 
ATOM     41  C   UNL A   1      43.033  23.796  26.984  1.00  0.00    -0.014 A 
BRANCH  41  42
ATOM     42  C   UNL A   1      43.557  25.154  27.264  1.00  0.00     0.031 A 
ATOM     43  C   UNL A   1      42.600  26.187  27.793  1.00  0.00     0.074 A 
ATOM     44  C   UNL A   1      44.847  25.469  27.054  1.00  0.00     0.049 A 
ATOM     45  N   UNL A   1      42.812  27.442  28.088  1.00  0.00    -0.248 NA
ATOM     46  C   UNL A   1      41.213  25.743  28.020  1.00  0.00     0.031 C 
ATOM     47  C   UNL A   1      45.871  24.556  26.551  1.00  0.00     0.029 A 
ATOM     48  N   UNL A   1      45.506  26.661  27.216  1.00  0.00    -0.354 N 
ATOM     49  C   UNL A   1      41.587  27.943  28.509  1.00  0.00     0.074 A 
ATOM     50  C   UNL A   1      40.631  26.862  28.422  1.00  0.00     0.031 C 
ATOM     51  C   UNL A   1      47.026  25.232  26.417  1.00  0.00     0.029 A 
ATOM     52  C   UNL A   1      46.817  26.626  26.803  1.00  0.00     0.049 A 
ATOM     53  H   UNL A   1      45.081  27.466  27.593  1.00  0.00     0.167 HD
ATOM     54  C   UNL A   1      41.285  29.188  28.946  1.00  0.00     0.034 A 
ATOM     55  C   UNL A   1      47.732  27.614  26.727  1.00  0.00     0.034 A 
ATOM     56  C   UNL A   1      42.235  30.261  29.043  1.00  0.00     0.049 A 
ATOM     57  C   UNL A   1      47.362  29.001  27.187  1.00  0.00     0.074 A 
ATOM     58  C   UNL A   1      42.035  31.547  29.510  1.00  0.00     0.029 A 
ATOM     59  N   UNL A   1      43.562  30.177  28.652  1.00  0.00    -0.354 N 
ATOM     60  N   UNL A   1      46.232  29.431  27.698  1.00  0.00    -0.248 NA
ATOM     61  C   UNL A   1      48.403  30.036  27.090  1.00  0.00     0.031 C 
ATOM     62  C   UNL A   1      43.237  32.250  29.377  1.00  0.00     0.029 A 
ATOM     63  C   UNL A   1      44.192  31.392  28.855  1.00  0.00     0.049 A 
ATOM     64  H   UNL A   1      43.992  29.372  28.283  1.00  0.00     0.167 HD
ATOM     65  C   UNL A   1      46.439  30.769  28.018  1.00  0.00     0.074 A 
ATOM     66  C   UNL A   1      47.809  31.076  27.659  1.00  0.00     0.031 C 
ATOM     67  C   UNL A   1      45.572  31.667  28.547  1.00  0.00     0.034 A 
BRANCH  54  68
ATOM     68  C   UNL A   1      39.866  29.447  29.376  1.00  0.00     0.023 A 
ATOM     69  C   UNL A   1      38.861  29.606  28.399  1.00  0.00     0.012 A 
ATOM     70  C   UNL A   1      39.519  29.493  30.740  1.00  0.00     0.148 A 
ATOM     71  C   UNL A   1      37.538  29.835  28.774  1.00  0.00     0.002 A 
ATOM     72  C   UNL A   1      38.191  29.679  31.105  1.00  0.00     0.091 A 
ATOM     73  F   UNL A   1      40.493  29.366  31.652  1.00  0.00    -0.205 F 
ATOM     74  C   UNL A   1      37.202  29.862  30.125  1.00  0.00     0.022 A 
BRANCH  72  75
ATOM     75  S   UNL A   1      37.647  29.653  32.817  1.00  0.00     0.127 S 
ATOM     76  O   UNL A   1      38.796  30.248  33.499  1.00  0.00    -0.237 OA
ATOM     77  O   UNL A   1      36.457  30.503  32.773  1.00  0.00    -0.237 OA
ATOM     78  O   UNL A   1      37.384  28.257  33.134  1.00  0.00    -0.744 OA
ENDBRANCH  72  75
ENDBRANCH  54  68
BRANCH  55  79
ATOM     79  C   UNL A   1      49.106  27.322  26.225  1.00  0.00     0.023 A 
ATOM     80  C   UNL A   1      49.320  27.160  24.842  1.00  0.00     0.012 A 
ATOM     81  C   UNL A   1      50.198  27.213  27.107  1.00  0.00     0.148 A 
ATOM     82  C   UNL A   1      50.592  26.863  24.349  1.00  0.00     0.002 A 
ATOM     83  C   UNL A   1      51.471  26.972  26.605  1.00  0.00     0.091 A 
ATOM     84  F   UNL A   1      49.970  27.352  28.421  1.00  0.00    -0.205 F 
ATOM     85  C   UNL A   1      51.668  26.779  25.228  1.00  0.00     0.022 A 
BRANCH  83  86
ATOM     86  S   UNL A   1      52.936  26.971  27.645  1.00  0.00     0.127 S 
ATOM     87  O   UNL A   1      52.932  28.336  28.167  1.00  0.00    -0.237 OA
ATOM     88  O   UNL A   1      52.606  25.934  28.624  1.00  0.00    -0.237 OA
ATOM     89  O   UNL A   1      54.045  26.635  26.763  1.00  0.00    -0.744 OA
ENDBRANCH  83  86
ENDBRANCH  55  79
BRANCH  67  90
ATOM     90  C   UNL A   1      46.077  33.062  28.815  1.00  0.00     0.023 A 
ATOM     91  C   UNL A   1      46.791  33.336  29.998  1.00  0.00     0.012 A 
ATOM     92  C   UNL A   1      45.917  34.079  27.852  1.00  0.00     0.148 A 
ATOM     93  C   UNL A   1      47.314  34.607  30.231  1.00  0.00     0.002 A 
ATOM     94  C   UNL A   1      46.483  35.330  28.070  1.00  0.00     0.091 A 
ATOM     95  F   UNL A   1      45.219  33.805  26.741  1.00  0.00    -0.205 F 
ATOM     96  C   UNL A   1      47.171  35.600  29.264  1.00  0.00     0.022 A 
BRANCH  94  97
ATOM     97  S   UNL A   1      46.433  36.637  26.838  1.00  0.00     0.127 S 
ATOM     98  O   UNL A   1      46.861  35.929  25.634  1.00  0.00    -0.237 OA
ATOM     99  O   UNL A   1      45.022  37.022  26.849  1.00  0.00    -0.237 OA
ATOM    100  O   UNL A   1      47.344  37.670  27.313  1.00  0.00    -0.744 OA
ENDBRANCH  94  97
ENDBRANCH  67  90
ENDBRANCH  41  42
ENDBRANCH  34  36
ENDBRANCH  33  34
ENDBRANCH  32  33
ENDBRANCH  31  32
ENDBRANCH  30  31
ENDBRANCH  29  30
ENDBRANCH   1  29
TORSDOF 25
ENDMDL
MODEL 2
REMARK VINA RESULT:      -9.7      2.161      7.703
REMARK SMILES CC1=C2C(=O)N(C[C@H]3CCCO3)C(=O)N=C2S[C@@H]1C(=O)OCCOCCOCCOCCOC(=O)c1ccc(-c2c3nc(c(-c4cccc(S(=O)(=O)[O-])c4F)c4ccc([nH]4)c(-c4cccc(S(=O)(=O)[O-])c4F)c4nc(c(-c5cccc(S(=O)(=O)[O-])c5F)c5ccc2[nH]5)C=C4)C=C3)cc1
REMARK SMILES IDX 28 1 27 2 26 3 25 4 24 5 23 6 22 7 21 8 19 9 20 10 18 11
REMARK SMILES IDX 1 12 2 13 3 14 4 15 16 16 17 17 5 18 6 19 15 20 13 21 14 22
REMARK SMILES IDX 7 23 8 24 9 25 12 26 10 27 11 28 29 29 30 30 31 31 32 32
REMARK SMILES IDX 33 33 34 34 35 35 36 36 37 37 98 38 38 39 97 40 39 41 40 42
REMARK SMILES IDX 41 43 91 44 42 45 96 46 90 47 92 48 43 49 95 50 89 51 88 52
REMARK SMILES IDX 44 54 76 55 56 56 75 57 57 58 60 59 74 60 93 61 58 62 59 63
REMARK SMILES IDX 73 65 94 66 61 67 45 68 46 69 54 70 47 71 49 72 55 73 48 74
REMARK SMILES IDX 50 75 51 76 52 77 53 78 77 79 78 80 86 81 79 82 81 83 87 84
REMARK SMILES IDX 80 85 82 86 83 87 84 88 85 89 62 90 63 91 71 92 64 93 66 94
REMARK SMILES IDX 72 95 65 96 67 97 68 98 69 99 70 100
REMARK H PARENT 92 53 60 64
REMARK Flexibility Score: inf
ROOT
ATOM      1  C   UNL A   1      34.950  20.965  25.784  1.00  0.00     0.188 C 
ENDROOT
BRANCH   1   2
ATOM      2  O   UNL A   1      35.449  19.992  24.874  1.00  0.00    -0.377 OA
BRANCH   2   3
ATOM      3  C   UNL A   1      34.713  18.796  24.767  1.00  0.00     0.188 C 
BRANCH   3   4
ATOM      4  C   UNL A   1      33.278  18.877  25.307  1.00  0.00     0.188 C 
BRANCH   4   5
ATOM      5  O   UNL A   1      32.169  19.344  24.543  1.00  0.00    -0.376 OA
BRANCH   5   6
ATOM      6  C   UNL A   1      32.308  20.170  23.396  1.00  0.00     0.202 C 
BRANCH   6   7
ATOM      7  C   UNL A   1      31.851  21.630  23.452  1.00  0.00     0.261 C 
BRANCH   7   8
ATOM      8  O   UNL A   1      32.194  22.319  24.657  1.00  0.00    -0.462 OA
BRANCH   8   9
ATOM      9  C   UNL A   1      31.154  22.776  25.383  1.00  0.00     0.323 C 
ATOM     10  O   UNL A   1      30.291  22.062  25.893  1.00  0.00    -0.251 OA
BRANCH   9  11
ATOM     11  C   UNL A   1      31.069  24.290  25.468  1.00  0.00     0.189 C 
ATOM     12  C   UNL A   1      30.264  24.340  23.022  1.00  0.00     0.042 C 
ATOM     13  C   UNL A   1      31.153  24.891  24.093  1.00  0.00    -0.033 C 
ATOM     14  C   UNL A   1      31.984  25.938  23.988  1.00  0.00     0.073 C 
ATOM     15  C   UNL A   1      32.227  26.826  22.867  1.00  0.00     0.264 C 
ATOM     16  C   UNL A   1      32.537  26.373  25.252  1.00  0.00     0.116 C 
ATOM     17  S   UNL A   1      32.371  25.135  26.439  1.00  0.00    -0.086 SA
ATOM     18  O   UNL A   1      32.329  26.418  21.722  1.00  0.00    -0.268 OA
ATOM     19  N   UNL A   1      32.235  28.133  23.299  1.00  0.00    -0.256 N 
ATOM     20  N   UNL A   1      32.994  27.544  25.497  1.00  0.00    -0.186 NA
ATOM     21  C   UNL A   1      32.818  28.501  24.521  1.00  0.00     0.351 C 
ATOM     22  O   UNL A   1      33.081  29.678  24.762  1.00  0.00    -0.246 OA
BRANCH  19  23
ATOM     23  C   UNL A   1      31.488  29.160  22.580  1.00  0.00     0.163 C 
BRANCH  23  24
ATOM     24  C   UNL A   1      29.986  28.985  22.308  1.00  0.00     0.138 C 
ATOM     25  C   UNL A   1      29.037  29.253  23.478  1.00  0.00     0.036 C 
ATOM     26  O   UNL A   1      29.628  29.959  21.293  1.00  0.00    -0.376 OA
ATOM     27  C   UNL A   1      28.488  30.628  23.236  1.00  0.00     0.031 C 
ATOM     28  C   UNL A   1      28.486  30.700  21.734  1.00  0.00     0.160 C 
ENDBRANCH  23  24
ENDBRANCH  19  23
ENDBRANCH   9  11
ENDBRANCH   8   9
ENDBRANCH   7   8
ENDBRANCH   6   7
ENDBRANCH   5   6
ENDBRANCH   4   5
ENDBRANCH   3   4
ENDBRANCH   2   3
ENDBRANCH   1   2
BRANCH   1  29
ATOM     29  C   UNL A   1      35.878  22.158  26.069  1.00  0.00     0.188 C 
BRANCH  29  30
ATOM     30  O   UNL A   1      36.897  22.324  25.082  1.00  0.00    -0.376 OA
BRANCH  30  31
ATOM     31  C   UNL A   1      38.247  22.187  25.516  1.00  0.00     0.202 C 
BRANCH  31  32
ATOM     32  C   UNL A   1      38.701  20.767  25.898  1.00  0.00     0.261 C 
BRANCH  32  33
ATOM     33  O   UNL A   1      40.119  20.525  25.885  1.00  0.00    -0.460 OA
BRANCH  33  34
ATOM     34  C   UNL A   1      40.781  20.489  27.060  1.00  0.00     0.338 C 
ATOM     35  O   UNL A   1      40.983  19.513  27.759  1.00  0.00    -0.246 OA
BRANCH  34  36
ATOM     36  C   UNL A   1      41.418  21.806  27.262  1.00  0.00     0.060 A 
ATOM     37  C   UNL A   1      41.735  22.203  28.569  1.00  0.00     0.016 A 
ATOM     38  C   UNL A   1      41.687  22.649  26.182  1.00  0.00     0.016 A 
ATOM     39  C   UNL A   1      42.272  23.468  28.803  1.00  0.00     0.010 A 
ATOM     40  C   UNL A   1      42.206  23.923  26.419  1.00  0.00     0.010 A 
ATOM     41  C   UNL A   1      42.460  24.353  27.733  1.00  0.00    -0.014 A 
BRANCH  41  42
ATOM     42  C   UNL A   1      42.707  25.789  28.007  1.00  0.00     0.031 A 
ATOM     43  C   UNL A   1      44.107  26.313  27.836  1.00  0.00     0.074 A 
ATOM     44  C   UNL A   1      41.719  26.612  28.400  1.00  0.00     0.049 A 
ATOM     45  N   UNL A   1      44.575  27.515  28.038  1.00  0.00    -0.248 NA
ATOM     46  C   UNL A   1      45.118  25.345  27.374  1.00  0.00     0.031 C 
ATOM     47  C   UNL A   1      40.323  26.226  28.595  1.00  0.00     0.029 A 
ATOM     48  N   UNL A   1      41.752  27.943  28.731  1.00  0.00    -0.354 N 
ATOM     49  C   UNL A   1      45.933  27.445  27.754  1.00  0.00     0.074 A 
ATOM     50  C   UNL A   1      46.220  26.079  27.376  1.00  0.00     0.031 C 
ATOM     51  C   UNL A   1      39.637  27.293  29.042  1.00  0.00     0.029 A 
ATOM     52  C   UNL A   1      40.549  28.428  29.184  1.00  0.00     0.049 A 
ATOM     53  H   UNL A   1      42.562  28.498  28.651  1.00  0.00     0.167 HD
ATOM     54  C   UNL A   1      46.858  28.432  27.788  1.00  0.00     0.034 A 
ATOM     55  C   UNL A   1      40.229  29.642  29.677  1.00  0.00     0.034 A 
ATOM     56  C   UNL A   1      46.574  29.792  28.154  1.00  0.00     0.049 A 
ATOM     57  C   UNL A   1      41.287  30.716  29.738  1.00  0.00     0.074 A 
ATOM     58  C   UNL A   1      47.435  30.873  28.181  1.00  0.00     0.029 A 
ATOM     59  N   UNL A   1      45.335  30.254  28.570  1.00  0.00    -0.354 N 
ATOM     60  N   UNL A   1      42.539  30.668  29.350  1.00  0.00    -0.248 NA
ATOM     61  C   UNL A   1      40.879  32.023  30.275  1.00  0.00     0.031 C 
ATOM     62  C   UNL A   1      46.723  31.985  28.641  1.00  0.00     0.029 A 
ATOM     63  C   UNL A   1      45.410  31.602  28.870  1.00  0.00     0.049 A 
ATOM     64  H   UNL A   1      44.522  29.704  28.643  1.00  0.00     0.167 HD
ATOM     65  C   UNL A   1      43.056  31.943  29.560  1.00  0.00     0.074 A 
ATOM     66  C   UNL A   1      41.974  32.747  30.092  1.00  0.00     0.031 C 
ATOM     67  C   UNL A   1      44.312  32.404  29.344  1.00  0.00     0.034 A 
BRANCH  54  68
ATOM     68  C   UNL A   1      48.267  28.077  27.395  1.00  0.00     0.023 A 
ATOM     69  C   UNL A   1      49.220  27.797  28.397  1.00  0.00     0.012 A 
ATOM     70  C   UNL A   1      48.637  27.978  26.040  1.00  0.00     0.148 A 
ATOM     71  C   UNL A   1      50.527  27.453  28.055  1.00  0.00     0.002 A 
ATOM     72  C   UNL A   1      49.931  27.594  25.708  1.00  0.00     0.091 A 
ATOM     73  F   UNL A   1      47.725  28.274  25.104  1.00  0.00    -0.205 F 
ATOM     74  C   UNL A   1      50.879  27.342  26.713  1.00  0.00     0.022 A 
BRANCH  72  75
ATOM     75  S   UNL A   1      50.461  27.350  24.009  1.00  0.00     0.127 S 
ATOM     76  O   UNL A   1      50.548  28.728  23.528  1.00  0.00    -0.237 OA
ATOM     77  O   UNL A   1      51.751  26.683  24.183  1.00  0.00    -0.237 OA
ATOM     78  O   UNL A   1      49.434  26.531  23.382  1.00  0.00    -0.744 OA
ENDBRANCH  72  75
ENDBRANCH  54  68
BRANCH  55  79
ATOM     79  C   UNL A   1      38.835  29.924  30.123  1.00  0.00     0.023 A 
ATOM     80  C   UNL A   1      38.460  29.645  31.452  1.00  0.00     0.012 A 
ATOM     81  C   UNL A   1      37.883  30.473  29.242  1.00  0.00     0.148 A 
ATOM     82  C   UNL A   1      37.155  29.878  31.887  1.00  0.00     0.002 A 
ATOM     83  C   UNL A   1      36.600  30.753  29.696  1.00  0.00     0.091 A 
ATOM     84  F   UNL A   1      38.254  30.713  27.976  1.00  0.00    -0.205 F 
ATOM     85  C   UNL A   1      36.228  30.441  31.013  1.00  0.00     0.022 A 
BRANCH  83  86
ATOM     86  S   UNL A   1      35.378  31.592  28.681  1.00  0.00     0.127 S 
ATOM     87  O   UNL A   1      34.809  30.482  27.921  1.00  0.00    -0.237 OA
ATOM     88  O   UNL A   1      34.492  32.166  29.694  1.00  0.00    -0.237 OA
ATOM     89  O   UNL A   1      36.121  32.576  27.905  1.00  0.00    -0.744 OA
ENDBRANCH  83  86
ENDBRANCH  55  79
BRANCH  67  90
ATOM     90  C   UNL A   1      44.592  33.856  29.642  1.00  0.00     0.023 A 
ATOM     91  C   UNL A   1      45.021  34.239  30.927  1.00  0.00     0.012 A 
ATOM     92  C   UNL A   1      44.512  34.825  28.621  1.00  0.00     0.148 A 
ATOM     93  C   UNL A   1      45.339  35.569  31.200  1.00  0.00     0.002 A 
ATOM     94  C   UNL A   1      44.877  36.139  28.888  1.00  0.00     0.091 A 
ATOM     95  F   UNL A   1      44.085  34.444  27.409  1.00  0.00    -0.205 F 
ATOM     96  C   UNL A   1      45.279  36.516  30.180  1.00  0.00     0.022 A 
BRANCH  94  97
ATOM     97  S   UNL A   1      44.925  37.404  27.612  1.00  0.00     0.127 S 
ATOM     98  O   UNL A   1      45.170  38.611  28.397  1.00  0.00    -0.237 OA
ATOM     99  O   UNL A   1      46.054  36.972  26.788  1.00  0.00    -0.237 OA
ATOM    100  O   UNL A   1      43.632  37.345  26.943  1.00  0.00    -0.744 OA
ENDBRANCH  94  97
ENDBRANCH  67  90
ENDBRANCH  41  42
ENDBRANCH  34  36
ENDBRANCH  33  34
ENDBRANCH  32  33
ENDBRANCH  31  32
ENDBRANCH  30  31
ENDBRANCH  29  30
ENDBRANCH   1  29
TORSDOF 25
ENDMDL
MODEL 3
REMARK VINA RESULT:      -9.7      1.635      2.329
REMARK SMILES CC1=C2C(=O)N(C[C@H]3CCCO3)C(=O)N=C2S[C@@H]1C(=O)OCCOCCOCCOCCOC(=O)c1ccc(-c2c3nc(c(-c4cccc(S(=O)(=O)[O-])c4F)c4ccc([nH]4)c(-c4cccc(S(=O)(=O)[O-])c4F)c4nc(c(-c5cccc(S(=O)(=O)[O-])c5F)c5ccc2[nH]5)C=C4)C=C3)cc1
REMARK SMILES IDX 28 1 27 2 26 3 25 4 24 5 23 6 22 7 21 8 19 9 20 10 18 11
REMARK SMILES IDX 1 12 2 13 3 14 4 15 16 16 17 17 5 18 6 19 15 20 13 21 14 22
REMARK SMILES IDX 7 23 8 24 9 25 12 26 10 27 11 28 29 29 30 30 31 31 32 32
REMARK SMILES IDX 33 33 34 34 35 35 36 36 37 37 98 38 38 39 97 40 39 41 40 42
REMARK SMILES IDX 41 43 91 44 42 45 96 46 90 47 92 48 43 49 95 50 89 51 88 52
REMARK SMILES IDX 44 54 76 55 56 56 75 57 57 58 60 59 74 60 93 61 58 62 59 63
REMARK SMILES IDX 73 65 94 66 61 67 45 68 46 69 54 70 47 71 49 72 55 73 48 74
REMARK SMILES IDX 50 75 51 76 52 77 53 78 77 79 78 80 86 81 79 82 81 83 87 84
REMARK SMILES IDX 80 85 82 86 83 87 84 88 85 89 62 90 63 91 71 92 64 93 66 94
REMARK SMILES IDX 72 95 65 96 67 97 68 98 69 99 70 100
REMARK H PARENT 92 53 60 64
REMARK Flexibility Score: inf
ROOT
ATOM      1  C   UNL A   1      35.516  19.463  24.992  1.00  0.00     0.188 C 
ENDROOT
BRANCH   1   2
ATOM      2  O   UNL A   1      36.172  18.252  24.635  1.00  0.00    -0.377 OA
BRANCH   2   3
ATOM      3  C   UNL A   1      35.409  17.072  24.732  1.00  0.00     0.188 C 
BRANCH   3   4
ATOM      4  C   UNL A   1      33.936  17.291  25.105  1.00  0.00     0.188 C 
BRANCH   4   5
ATOM      5  O   UNL A   1      32.867  17.266  24.163  1.00  0.00    -0.376 OA
BRANCH   5   6
ATOM      6  C   UNL A   1      32.874  18.017  22.958  1.00  0.00     0.202 C 
BRANCH   6   7
ATOM      7  C   UNL A   1      31.899  19.185  22.786  1.00  0.00     0.261 C 
BRANCH   7   8
ATOM      8  O   UNL A   1      32.435  20.467  23.123  1.00  0.00    -0.462 OA
BRANCH   8   9
ATOM      9  C   UNL A   1      32.147  20.911  24.364  1.00  0.00     0.323 C 
ATOM     10  O   UNL A   1      32.145  20.208  25.374  1.00  0.00    -0.251 OA
BRANCH   9  11
ATOM     11  C   UNL A   1      31.732  22.370  24.424  1.00  0.00     0.189 C 
ATOM     12  C   UNL A   1      34.018  23.018  23.431  1.00  0.00     0.042 C 
ATOM     13  C   UNL A   1      32.948  23.253  24.451  1.00  0.00    -0.033 C 
ATOM     14  C   UNL A   1      32.908  24.236  25.362  1.00  0.00     0.073 C 
ATOM     15  C   UNL A   1      33.831  25.331  25.594  1.00  0.00     0.264 C 
ATOM     16  C   UNL A   1      31.641  24.339  26.054  1.00  0.00     0.116 C 
ATOM     17  S   UNL A   1      30.736  22.884  25.872  1.00  0.00    -0.086 SA
ATOM     18  O   UNL A   1      35.041  25.180  25.564  1.00  0.00    -0.268 OA
ATOM     19  N   UNL A   1      33.132  26.506  25.756  1.00  0.00    -0.256 N 
ATOM     20  N   UNL A   1      31.197  25.391  26.634  1.00  0.00    -0.186 NA
ATOM     21  C   UNL A   1      31.923  26.551  26.468  1.00  0.00     0.351 C 
ATOM     22  O   UNL A   1      31.463  27.623  26.856  1.00  0.00    -0.246 OA
BRANCH  19  23
ATOM     23  C   UNL A   1      33.536  27.716  25.050  1.00  0.00     0.163 C 
BRANCH  23  24
ATOM     24  C   UNL A   1      33.005  28.010  23.638  1.00  0.00     0.138 C 
ATOM     25  C   UNL A   1      33.555  27.148  22.501  1.00  0.00     0.036 C 
ATOM     26  O   UNL A   1      31.578  27.745  23.664  1.00  0.00    -0.376 OA
ATOM     27  C   UNL A   1      32.492  26.126  22.227  1.00  0.00     0.031 C 
ATOM     28  C   UNL A   1      31.240  26.882  22.574  1.00  0.00     0.160 C 
ENDBRANCH  23  24
ENDBRANCH  19  23
ENDBRANCH   9  11
ENDBRANCH   8   9
ENDBRANCH   7   8
ENDBRANCH   6   7
ENDBRANCH   5   6
ENDBRANCH   4   5
ENDBRANCH   3   4
ENDBRANCH   2   3
ENDBRANCH   1   2
BRANCH   1  29
ATOM     29  C   UNL A   1      36.418  20.702  25.127  1.00  0.00     0.188 C 
BRANCH  29  30
ATOM     30  O   UNL A   1      37.750  20.479  24.664  1.00  0.00    -0.376 OA
BRANCH  30  31
ATOM     31  C   UNL A   1      38.805  20.714  25.593  1.00  0.00     0.202 C 
BRANCH  31  32
ATOM     32  C   UNL A   1      39.641  19.489  26.003  1.00  0.00     0.261 C 
BRANCH  32  33
ATOM     33  O   UNL A   1      40.932  19.360  25.383  1.00  0.00    -0.460 OA
BRANCH  33  34
ATOM     34  C   UNL A   1      42.034  19.446  26.156  1.00  0.00     0.338 C 
ATOM     35  O   UNL A   1      42.827  18.558  26.405  1.00  0.00    -0.246 OA
BRANCH  34  36
ATOM     36  C   UNL A   1      42.247  20.871  26.485  1.00  0.00     0.060 A 
ATOM     37  C   UNL A   1      42.367  21.789  25.433  1.00  0.00     0.016 A 
ATOM     38  C   UNL A   1      42.343  21.297  27.812  1.00  0.00     0.016 A 
ATOM     39  C   UNL A   1      42.639  23.129  25.705  1.00  0.00     0.010 A 
ATOM     40  C   UNL A   1      42.634  22.635  28.082  1.00  0.00     0.010 A 
ATOM     41  C   UNL A   1      42.826  23.547  27.030  1.00  0.00    -0.014 A 
BRANCH  41  42
ATOM     42  C   UNL A   1      43.436  24.871  27.300  1.00  0.00     0.031 A 
ATOM     43  C   UNL A   1      42.551  25.962  27.837  1.00  0.00     0.074 A 
ATOM     44  C   UNL A   1      44.741  25.105  27.074  1.00  0.00     0.049 A 
ATOM     45  N   UNL A   1      42.844  27.202  28.126  1.00  0.00    -0.248 NA
ATOM     46  C   UNL A   1      41.142  25.605  28.081  1.00  0.00     0.031 C 
ATOM     47  C   UNL A   1      45.700  24.129  26.562  1.00  0.00     0.029 A 
ATOM     48  N   UNL A   1      45.474  26.254  27.225  1.00  0.00    -0.354 N 
ATOM     49  C   UNL A   1      41.657  27.779  28.560  1.00  0.00     0.074 A 
ATOM     50  C   UNL A   1      40.635  26.759  28.486  1.00  0.00     0.031 C 
ATOM     51  C   UNL A   1      46.893  24.731  26.413  1.00  0.00     0.029 A 
ATOM     52  C   UNL A   1      46.775  26.137  26.798  1.00  0.00     0.049 A 
ATOM     53  H   UNL A   1      45.103  27.084  27.604  1.00  0.00     0.167 HD
ATOM     54  C   UNL A   1      41.437  29.041  28.997  1.00  0.00     0.034 A 
ATOM     55  C   UNL A   1      47.749  27.066  26.708  1.00  0.00     0.034 A 
ATOM     56  C   UNL A   1      42.453  30.054  29.079  1.00  0.00     0.049 A 
ATOM     57  C   UNL A   1      47.470  28.475  27.168  1.00  0.00     0.074 A 
ATOM     58  C   UNL A   1      42.339  31.351  29.545  1.00  0.00     0.029 A 
ATOM     59  N   UNL A   1      43.768  29.887  28.673  1.00  0.00    -0.354 N 
ATOM     60  N   UNL A   1      46.376  28.974  27.691  1.00  0.00    -0.248 NA
ATOM     61  C   UNL A   1      48.573  29.443  27.056  1.00  0.00     0.031 C 
ATOM     62  C   UNL A   1      43.580  31.977  29.396  1.00  0.00     0.029 A 
ATOM     63  C   UNL A   1      44.474  31.061  28.865  1.00  0.00     0.049 A 
ATOM     64  H   UNL A   1      44.143  29.056  28.302  1.00  0.00     0.167 HD
ATOM     65  C   UNL A   1      46.668  30.298  28.004  1.00  0.00     0.074 A 
ATOM     66  C   UNL A   1      48.050  30.519  27.629  1.00  0.00     0.031 C 
ATOM     67  C   UNL A   1      45.864  31.249  28.541  1.00  0.00     0.034 A 
BRANCH  54  68
ATOM     68  C   UNL A   1      40.042  29.389  29.442  1.00  0.00     0.023 A 
ATOM     69  C   UNL A   1      39.057  29.683  28.477  1.00  0.00     0.012 A 
ATOM     70  C   UNL A   1      39.696  29.385  30.807  1.00  0.00     0.148 A 
ATOM     71  C   UNL A   1      37.755  29.996  28.865  1.00  0.00     0.002 A 
ATOM     72  C   UNL A   1      38.386  29.656  31.183  1.00  0.00     0.091 A 
ATOM     73  F   UNL A   1      40.653  29.129  31.709  1.00  0.00    -0.205 F 
ATOM     74  C   UNL A   1      37.418  29.973  30.216  1.00  0.00     0.022 A 
BRANCH  72  75
ATOM     75  S   UNL A   1      37.835  29.577  32.891  1.00  0.00     0.127 S 
ATOM     76  O   UNL A   1      36.705  30.506  32.878  1.00  0.00    -0.237 OA
ATOM     77  O   UNL A   1      37.464  28.169  33.029  1.00  0.00    -0.237 OA
ATOM     78  O   UNL A   1      38.973  29.988  33.699  1.00  0.00    -0.744 OA
ENDBRANCH  72  75
ENDBRANCH  54  68
BRANCH  55  79
ATOM     79  C   UNL A   1      49.096  26.689  26.191  1.00  0.00     0.023 A 
ATOM     80  C   UNL A   1      49.925  25.850  26.961  1.00  0.00     0.012 A 
ATOM     81  C   UNL A   1      49.554  27.148  24.941  1.00  0.00     0.148 A 
ATOM     82  C   UNL A   1      51.199  25.501  26.510  1.00  0.00     0.002 A 
ATOM     83  C   UNL A   1      50.801  26.753  24.473  1.00  0.00     0.091 A 
ATOM     84  F   UNL A   1      48.756  27.961  24.232  1.00  0.00    -0.205 F 
ATOM     85  C   UNL A   1      51.633  25.944  25.263  1.00  0.00     0.022 A 
BRANCH  83  86
ATOM     86  S   UNL A   1      51.392  27.170  22.829  1.00  0.00     0.127 S 
ATOM     87  O   UNL A   1      50.315  26.658  21.986  1.00  0.00    -0.237 OA
ATOM     88  O   UNL A   1      51.479  28.629  22.904  1.00  0.00    -0.237 OA
ATOM     89  O   UNL A   1      52.677  26.498  22.691  1.00  0.00    -0.744 OA
ENDBRANCH  83  86
ENDBRANCH  55  79
BRANCH  67  90
ATOM     90  C   UNL A   1      46.458  32.611  28.799  1.00  0.00     0.023 A 
ATOM     91  C   UNL A   1      47.069  32.888  30.038  1.00  0.00     0.012 A 
ATOM     92  C   UNL A   1      46.486  33.586  27.781  1.00  0.00     0.148 A 
ATOM     93  C   UNL A   1      47.674  34.123  30.269  1.00  0.00     0.002 A 
ATOM     94  C   UNL A   1      47.132  34.796  28.002  1.00  0.00     0.091 A 
ATOM     95  F   UNL A   1      45.883  33.311  26.615  1.00  0.00    -0.205 F 
ATOM     96  C   UNL A   1      47.716  35.072  29.249  1.00  0.00     0.022 A 
BRANCH  94  97
ATOM     97  S   UNL A   1      47.320  36.036  26.715  1.00  0.00     0.127 S 
ATOM     98  O   UNL A   1      47.903  35.252  25.628  1.00  0.00    -0.237 OA
ATOM     99  O   UNL A   1      45.939  36.461  26.488  1.00  0.00    -0.237 OA
ATOM    100  O   UNL A   1      48.184  37.066  27.276  1.00  0.00    -0.744 OA
ENDBRANCH  94  97
ENDBRANCH  67  90
ENDBRANCH  41  42
ENDBRANCH  34  36
ENDBRANCH  33  34
ENDBRANCH  32  33
ENDBRANCH  31  32
ENDBRANCH  30  31
ENDBRANCH  29  30
ENDBRANCH   1  29
TORSDOF 25
ENDMDL
