MODEL 1
REMARK VINA RESULT:      -9.6      0.000      0.000
REMARK SMILES O=C(Cc1csc(Sc2ncnc3c2CCCC3)n1)OCCOCCOCCOCCOC(=O)c1ccc(-c2c3nc(c(-c4cccc(S(=O)(=O)[O-])c4F)c4ccc([nH]4)c(-c4cccc(S(=O)(=O)[O-])c4F)c4nc(c(-c5cccc(S(=O)(=O)[O-])c5F)c5ccc2[nH]5)C=C4)C=C3)cc1
REMARK SMILES IDX 26 1 25 2 24 3 23 4 22 5 21 6 20 7 2 8 1 9 3 10 4 11 5 12
REMARK SMILES IDX 19 13 6 14 7 15 8 16 9 17 10 18 14 19 11 20 13 21 15 22
REMARK SMILES IDX 12 23 18 24 16 25 17 26 27 27 28 28 29 29 30 30 31 31 32 32
REMARK SMILES IDX 33 33 34 34 35 35 36 36 97 37 37 38 96 39 38 40 39 41 40 42
REMARK SMILES IDX 90 43 41 44 95 45 89 46 91 47 42 48 94 49 88 50 87 51 43 53
REMARK SMILES IDX 75 54 55 55 74 56 56 57 59 58 73 59 92 60 57 61 58 62 72 64
REMARK SMILES IDX 93 65 60 66 44 67 45 68 53 69 46 70 48 71 54 72 47 73 49 74
REMARK SMILES IDX 50 75 51 76 52 77 76 78 77 79 85 80 78 81 80 82 86 83 79 84
REMARK SMILES IDX 81 85 82 86 83 87 84 88 61 89 62 90 70 91 63 92 65 93 71 94
REMARK SMILES IDX 64 95 66 96 67 97 68 98 69 99
REMARK H PARENT 91 52 59 63
REMARK Flexibility Score: inf
ROOT
ATOM      1  O   UNL A   1      34.943  17.446  24.110  1.00  0.00    -0.377 OA
ENDROOT
BRANCH   1   2
ATOM      2  C   UNL A   1      33.712  17.015  24.672  1.00  0.00     0.188 C 
BRANCH   2   3
ATOM      3  C   UNL A   1      32.428  17.482  23.975  1.00  0.00     0.188 C 
BRANCH   3   4
ATOM      4  O   UNL A   1      32.579  18.152  22.742  1.00  0.00    -0.376 OA
BRANCH   4   5
ATOM      5  C   UNL A   1      32.008  19.398  22.393  1.00  0.00     0.202 C 
BRANCH   5   6
ATOM      6  C   UNL A   1      32.433  20.713  23.040  1.00  0.00     0.261 C 
BRANCH   6   7
ATOM      7  O   UNL A   1      32.539  21.887  22.213  1.00  0.00    -0.463 OA
BRANCH   7   8
ATOM      8  C   UNL A   1      33.354  22.948  22.373  1.00  0.00     0.311 C 
ATOM      9  O   UNL A   1      33.480  23.758  21.453  1.00  0.00    -0.252 OA
BRANCH   8  10
ATOM     10  C   UNL A   1      34.185  23.083  23.617  1.00  0.00     0.179 C 
BRANCH  10  11
ATOM     11  C   UNL A   1      33.358  23.226  24.840  1.00  0.00     0.064 A 
ATOM     12  C   UNL A   1      33.568  22.565  26.033  1.00  0.00     0.092 A 
ATOM     13  N   UNL A   1      32.251  24.065  24.832  1.00  0.00    -0.234 NA
ATOM     14  S   UNL A   1      32.356  22.995  27.158  1.00  0.00    -0.116 S 
ATOM     15  C   UNL A   1      31.636  24.041  25.991  1.00  0.00     0.156 A 
BRANCH  15  16
ATOM     16  S   UNL A   1      30.202  24.953  26.391  1.00  0.00    -0.039 SA
BRANCH  16  17
ATOM     17  C   UNL A   1      30.725  26.666  26.290  1.00  0.00     0.110 A 
ATOM     18  N   UNL A   1      31.427  27.120  27.350  1.00  0.00    -0.229 NA
ATOM     19  C   UNL A   1      30.655  27.363  25.080  1.00  0.00     0.006 A 
ATOM     20  C   UNL A   1      32.074  28.279  27.182  1.00  0.00     0.223 A 
ATOM     21  C   UNL A   1      31.438  28.513  24.999  1.00  0.00     0.048 A 
ATOM     22  C   UNL A   1      29.876  26.867  23.891  1.00  0.00     0.040 C 
ATOM     23  N   UNL A   1      32.129  28.994  26.052  1.00  0.00    -0.241 NA
ATOM     24  C   UNL A   1      31.586  29.290  23.711  1.00  0.00     0.056 C 
ATOM     25  C   UNL A   1      29.762  27.889  22.757  1.00  0.00     0.005 C 
ATOM     26  C   UNL A   1      31.120  28.517  22.481  1.00  0.00     0.007 C 
ENDBRANCH  16  17
ENDBRANCH  15  16
ENDBRANCH  10  11
ENDBRANCH   8  10
ENDBRANCH   7   8
ENDBRANCH   6   7
ENDBRANCH   5   6
ENDBRANCH   4   5
ENDBRANCH   3   4
ENDBRANCH   2   3
ENDBRANCH   1   2
BRANCH   1  27
ATOM     27  C   UNL A   1      35.760  18.222  24.971  1.00  0.00     0.188 C 
BRANCH  27  28
ATOM     28  C   UNL A   1      35.574  19.752  24.815  1.00  0.00     0.188 C 
BRANCH  28  29
ATOM     29  O   UNL A   1      36.461  20.684  25.415  1.00  0.00    -0.376 OA
BRANCH  29  30
ATOM     30  C   UNL A   1      37.773  20.862  24.910  1.00  0.00     0.202 C 
BRANCH  30  31
ATOM     31  C   UNL A   1      38.942  19.917  25.256  1.00  0.00     0.261 C 
BRANCH  31  32
ATOM     32  O   UNL A   1      39.566  20.086  26.534  1.00  0.00    -0.460 OA
BRANCH  32  33
ATOM     33  C   UNL A   1      40.882  20.393  26.515  1.00  0.00     0.338 C 
ATOM     34  O   UNL A   1      41.780  19.764  25.976  1.00  0.00    -0.246 OA
BRANCH  33  35
ATOM     35  C   UNL A   1      41.046  21.760  27.060  1.00  0.00     0.060 A 
ATOM     36  C   UNL A   1      40.309  22.801  26.473  1.00  0.00     0.016 A 
ATOM     37  C   UNL A   1      41.877  22.010  28.154  1.00  0.00     0.016 A 
ATOM     38  C   UNL A   1      40.412  24.098  26.964  1.00  0.00     0.010 A 
ATOM     39  C   UNL A   1      42.025  23.322  28.610  1.00  0.00     0.010 A 
ATOM     40  C   UNL A   1      41.322  24.372  27.991  1.00  0.00    -0.014 A 
BRANCH  40  41
ATOM     41  C   UNL A   1      41.758  25.772  28.194  1.00  0.00     0.031 A 
ATOM     42  C   UNL A   1      43.159  26.120  27.763  1.00  0.00     0.074 A 
ATOM     43  C   UNL A   1      40.939  26.710  28.699  1.00  0.00     0.049 A 
ATOM     44  N   UNL A   1      43.804  27.248  27.876  1.00  0.00    -0.248 NA
ATOM     45  C   UNL A   1      43.933  25.046  27.110  1.00  0.00     0.031 C 
ATOM     46  C   UNL A   1      39.546  26.503  29.089  1.00  0.00     0.029 A 
ATOM     47  N   UNL A   1      41.175  28.033  28.979  1.00  0.00    -0.354 N 
ATOM     48  C   UNL A   1      45.059  27.019  27.322  1.00  0.00     0.074 A 
ATOM     49  C   UNL A   1      45.094  25.642  26.890  1.00  0.00     0.031 C 
ATOM     50  C   UNL A   1      39.057  27.656  29.580  1.00  0.00     0.029 A 
ATOM     51  C   UNL A   1      40.109  28.671  29.567  1.00  0.00     0.049 A 
ATOM     52  H   UNL A   1      42.028  28.481  28.778  1.00  0.00     0.167 HD
ATOM     53  C   UNL A   1      46.083  27.886  27.167  1.00  0.00     0.034 A 
ATOM     54  C   UNL A   1      40.012  29.925  30.055  1.00  0.00     0.034 A 
ATOM     55  C   UNL A   1      46.041  29.256  27.593  1.00  0.00     0.049 A 
ATOM     56  C   UNL A   1      41.208  30.843  29.952  1.00  0.00     0.074 A 
ATOM     57  C   UNL A   1      47.034  30.213  27.496  1.00  0.00     0.029 A 
ATOM     58  N   UNL A   1      44.951  29.863  28.195  1.00  0.00    -0.354 N 
ATOM     59  N   UNL A   1      42.368  30.634  29.374  1.00  0.00    -0.248 NA
ATOM     60  C   UNL A   1      41.072  32.181  30.547  1.00  0.00     0.031 C 
ATOM     61  C   UNL A   1      46.550  31.396  28.062  1.00  0.00     0.029 A 
ATOM     62  C   UNL A   1      45.245  31.184  28.478  1.00  0.00     0.049 A 
ATOM     63  H   UNL A   1      44.094  29.420  28.391  1.00  0.00     0.167 HD
ATOM     64  C   UNL A   1      43.080  31.824  29.500  1.00  0.00     0.074 A 
ATOM     65  C   UNL A   1      42.210  32.758  30.185  1.00  0.00     0.031 C 
ATOM     66  C   UNL A   1      44.344  32.116  29.103  1.00  0.00     0.034 A 
BRANCH  53  67
ATOM     67  C   UNL A   1      47.325  27.394  26.473  1.00  0.00     0.023 A 
ATOM     68  C   UNL A   1      47.470  27.606  25.087  1.00  0.00     0.012 A 
ATOM     69  C   UNL A   1      48.380  26.815  27.202  1.00  0.00     0.148 A 
ATOM     70  C   UNL A   1      48.646  27.239  24.435  1.00  0.00     0.002 A 
ATOM     71  C   UNL A   1      49.567  26.496  26.553  1.00  0.00     0.091 A 
ATOM     72  F   UNL A   1      48.208  26.601  28.514  1.00  0.00    -0.205 F 
ATOM     73  C   UNL A   1      49.698  26.699  25.169  1.00  0.00     0.022 A 
BRANCH  71  74
ATOM     74  S   UNL A   1      51.014  25.877  27.420  1.00  0.00     0.127 S 
ATOM     75  O   UNL A   1      50.415  25.315  28.630  1.00  0.00    -0.237 OA
ATOM     76  O   UNL A   1      51.529  24.885  26.478  1.00  0.00    -0.237 OA
ATOM     77  O   UNL A   1      51.879  27.028  27.637  1.00  0.00    -0.744 OA
ENDBRANCH  71  74
ENDBRANCH  53  67
BRANCH  54  78
ATOM     78  C   UNL A   1      38.734  30.414  30.650  1.00  0.00     0.023 A 
ATOM     79  C   UNL A   1      38.512  30.251  32.033  1.00  0.00     0.012 A 
ATOM     80  C   UNL A   1      37.734  31.022  29.867  1.00  0.00     0.148 A 
ATOM     81  C   UNL A   1      37.307  30.646  32.616  1.00  0.00     0.002 A 
ATOM     82  C   UNL A   1      36.560  31.469  30.464  1.00  0.00     0.091 A 
ATOM     83  F   UNL A   1      37.950  31.153  28.551  1.00  0.00    -0.205 F 
ATOM     84  C   UNL A   1      36.336  31.263  31.834  1.00  0.00     0.022 A 
BRANCH  82  85
ATOM     85  S   UNL A   1      35.308  32.395  29.568  1.00  0.00     0.127 S 
ATOM     86  O   UNL A   1      34.909  31.439  28.538  1.00  0.00    -0.237 OA
ATOM     87  O   UNL A   1      34.311  32.634  30.610  1.00  0.00    -0.237 OA
ATOM     88  O   UNL A   1      35.976  33.597  29.088  1.00  0.00    -0.744 OA
ENDBRANCH  82  85
ENDBRANCH  54  78
BRANCH  66  89
ATOM     89  C   UNL A   1      44.864  33.508  29.363  1.00  0.00     0.023 A 
ATOM     90  C   UNL A   1      45.457  33.814  30.603  1.00  0.00     0.012 A 
ATOM     91  C   UNL A   1      44.857  34.481  28.342  1.00  0.00     0.148 A 
ATOM     92  C   UNL A   1      46.001  35.076  30.837  1.00  0.00     0.002 A 
ATOM     93  C   UNL A   1      45.453  35.717  28.563  1.00  0.00     0.091 A 
ATOM     94  F   UNL A   1      44.280  34.175  27.170  1.00  0.00    -0.205 F 
ATOM     95  C   UNL A   1      46.012  36.021  29.814  1.00  0.00     0.022 A 
BRANCH  93  96
ATOM     96  S   UNL A   1      45.614  36.958  27.273  1.00  0.00     0.127 S 
ATOM     97  O   UNL A   1      46.168  36.172  26.171  1.00  0.00    -0.237 OA
ATOM     98  O   UNL A   1      44.228  37.385  27.081  1.00  0.00    -0.237 OA
ATOM     99  O   UNL A   1      46.496  37.985  27.811  1.00  0.00    -0.744 OA
ENDBRANCH  93  96
ENDBRANCH  66  89
ENDBRANCH  40  41
ENDBRANCH  33  35
ENDBRANCH  32  33
ENDBRANCH  31  32
ENDBRANCH  30  31
ENDBRANCH  29  30
ENDBRANCH  28  29
ENDBRANCH  27  28
ENDBRANCH   1  27
TORSDOF 26
ENDMDL
MODEL 2
REMARK VINA RESULT:      -9.3      0.937      7.545
REMARK SMILES O=C(Cc1csc(Sc2ncnc3c2CCCC3)n1)OCCOCCOCCOCCOC(=O)c1ccc(-c2c3nc(c(-c4cccc(S(=O)(=O)[O-])c4F)c4ccc([nH]4)c(-c4cccc(S(=O)(=O)[O-])c4F)c4nc(c(-c5cccc(S(=O)(=O)[O-])c5F)c5ccc2[nH]5)C=C4)C=C3)cc1
REMARK SMILES IDX 26 1 25 2 24 3 23 4 22 5 21 6 20 7 2 8 1 9 3 10 4 11 5 12
REMARK SMILES IDX 19 13 6 14 7 15 8 16 9 17 10 18 14 19 11 20 13 21 15 22
REMARK SMILES IDX 12 23 18 24 16 25 17 26 27 27 28 28 29 29 30 30 31 31 32 32
REMARK SMILES IDX 33 33 34 34 35 35 36 36 97 37 37 38 96 39 38 40 39 41 40 42
REMARK SMILES IDX 90 43 41 44 95 45 89 46 91 47 42 48 94 49 88 50 87 51 43 53
REMARK SMILES IDX 75 54 55 55 74 56 56 57 59 58 73 59 92 60 57 61 58 62 72 64
REMARK SMILES IDX 93 65 60 66 44 67 45 68 53 69 46 70 48 71 54 72 47 73 49 74
REMARK SMILES IDX 50 75 51 76 52 77 76 78 77 79 85 80 78 81 80 82 86 83 79 84
REMARK SMILES IDX 81 85 82 86 83 87 84 88 61 89 62 90 70 91 63 92 65 93 71 94
REMARK SMILES IDX 64 95 66 96 67 97 68 98 69 99
REMARK H PARENT 91 52 59 63
REMARK Flexibility Score: inf
ROOT
ATOM      1  O   UNL A   1      34.864  18.182  24.254  1.00  0.00    -0.377 OA
ENDROOT
BRANCH   1   2
ATOM      2  C   UNL A   1      33.785  17.873  25.123  1.00  0.00     0.188 C 
BRANCH   2   3
ATOM      3  C   UNL A   1      32.391  17.770  24.492  1.00  0.00     0.188 C 
BRANCH   3   4
ATOM      4  O   UNL A   1      32.318  17.868  23.086  1.00  0.00    -0.376 OA
BRANCH   4   5
ATOM      5  C   UNL A   1      32.280  19.064  22.331  1.00  0.00     0.202 C 
BRANCH   5   6
ATOM      6  C   UNL A   1      32.232  20.447  22.976  1.00  0.00     0.261 C 
BRANCH   6   7
ATOM      7  O   UNL A   1      32.345  21.607  22.130  1.00  0.00    -0.463 OA
BRANCH   7   8
ATOM      8  C   UNL A   1      33.187  22.650  22.256  1.00  0.00     0.311 C 
ATOM      9  O   UNL A   1      33.371  23.398  21.294  1.00  0.00    -0.252 OA
BRANCH   8  10
ATOM     10  C   UNL A   1      33.979  22.836  23.519  1.00  0.00     0.179 C 
BRANCH  10  11
ATOM     11  C   UNL A   1      33.129  23.228  24.669  1.00  0.00     0.064 A 
ATOM     12  C   UNL A   1      33.273  22.777  25.965  1.00  0.00     0.092 A 
ATOM     13  N   UNL A   1      32.066  24.103  24.478  1.00  0.00    -0.234 NA
ATOM     14  S   UNL A   1      32.056  23.451  26.956  1.00  0.00    -0.116 S 
ATOM     15  C   UNL A   1      31.421  24.309  25.602  1.00  0.00     0.156 A 
BRANCH  15  16
ATOM     16  S   UNL A   1      30.025  25.342  25.789  1.00  0.00    -0.039 SA
BRANCH  16  17
ATOM     17  C   UNL A   1      30.487  26.863  24.959  1.00  0.00     0.110 A 
ATOM     18  N   UNL A   1      29.791  27.145  23.837  1.00  0.00    -0.229 NA
ATOM     19  C   UNL A   1      31.297  27.808  25.598  1.00  0.00     0.006 A 
ATOM     20  C   UNL A   1      29.903  28.392  23.366  1.00  0.00     0.223 A 
ATOM     21  C   UNL A   1      31.266  29.093  25.062  1.00  0.00     0.048 A 
ATOM     22  C   UNL A   1      32.078  27.506  26.850  1.00  0.00     0.040 C 
ATOM     23  N   UNL A   1      30.594  29.389  23.930  1.00  0.00    -0.241 NA
ATOM     24  C   UNL A   1      31.967  30.255  25.727  1.00  0.00     0.056 C 
ATOM     25  C   UNL A   1      33.057  28.613  27.248  1.00  0.00     0.005 C 
ATOM     26  C   UNL A   1      32.373  29.970  27.170  1.00  0.00     0.007 C 
ENDBRANCH  16  17
ENDBRANCH  15  16
ENDBRANCH  10  11
ENDBRANCH   8  10
ENDBRANCH   7   8
ENDBRANCH   6   7
ENDBRANCH   5   6
ENDBRANCH   4   5
ENDBRANCH   3   4
ENDBRANCH   2   3
ENDBRANCH   1   2
BRANCH   1  27
ATOM     27  C   UNL A   1      35.991  18.773  24.878  1.00  0.00     0.188 C 
BRANCH  27  28
ATOM     28  C   UNL A   1      35.983  20.322  24.869  1.00  0.00     0.188 C 
BRANCH  28  29
ATOM     29  O   UNL A   1      36.823  21.085  25.722  1.00  0.00    -0.376 OA
BRANCH  29  30
ATOM     30  C   UNL A   1      38.202  21.238  25.431  1.00  0.00     0.202 C 
BRANCH  30  31
ATOM     31  C   UNL A   1      39.236  20.116  25.648  1.00  0.00     0.261 C 
BRANCH  31  32
ATOM     32  O   UNL A   1      40.074  20.210  26.806  1.00  0.00    -0.460 OA
BRANCH  32  33
ATOM     33  C   UNL A   1      41.351  20.591  26.585  1.00  0.00     0.338 C 
ATOM     34  O   UNL A   1      42.198  19.993  25.937  1.00  0.00    -0.246 OA
BRANCH  33  35
ATOM     35  C   UNL A   1      41.509  21.984  27.059  1.00  0.00     0.060 A 
ATOM     36  C   UNL A   1      41.223  23.026  26.163  1.00  0.00     0.016 A 
ATOM     37  C   UNL A   1      41.890  22.264  28.373  1.00  0.00     0.016 A 
ATOM     38  C   UNL A   1      41.334  24.352  26.569  1.00  0.00     0.010 A 
ATOM     39  C   UNL A   1      42.059  23.595  28.763  1.00  0.00     0.010 A 
ATOM     40  C   UNL A   1      41.817  24.639  27.851  1.00  0.00    -0.014 A 
BRANCH  40  41
ATOM     41  C   UNL A   1      42.357  25.990  28.116  1.00  0.00     0.031 A 
ATOM     42  C   UNL A   1      41.409  27.001  28.708  1.00  0.00     0.074 A 
ATOM     43  C   UNL A   1      43.643  26.304  27.884  1.00  0.00     0.049 A 
ATOM     44  N   UNL A   1      41.609  28.260  28.986  1.00  0.00    -0.248 NA
ATOM     45  C   UNL A   1      40.054  26.519  29.036  1.00  0.00     0.031 C 
ATOM     46  C   UNL A   1      44.663  25.391  27.374  1.00  0.00     0.029 A 
ATOM     47  N   UNL A   1      44.305  27.496  28.041  1.00  0.00    -0.354 N 
ATOM     48  C   UNL A   1      40.406  28.723  29.507  1.00  0.00     0.074 A 
ATOM     49  C   UNL A   1      39.475  27.619  29.492  1.00  0.00     0.031 C 
ATOM     50  C   UNL A   1      45.821  26.064  27.240  1.00  0.00     0.029 A 
ATOM     51  C   UNL A   1      45.614  27.460  27.624  1.00  0.00     0.049 A 
ATOM     52  H   UNL A   1      43.881  28.302  28.417  1.00  0.00     0.167 HD
ATOM     53  C   UNL A   1      40.110  29.954  29.979  1.00  0.00     0.034 A 
ATOM     54  C   UNL A   1      46.526  28.451  27.545  1.00  0.00     0.034 A 
ATOM     55  C   UNL A   1      41.040  31.047  29.998  1.00  0.00     0.049 A 
ATOM     56  C   UNL A   1      46.134  29.840  27.992  1.00  0.00     0.074 A 
ATOM     57  C   UNL A   1      40.832  32.341  30.439  1.00  0.00     0.029 A 
ATOM     58  N   UNL A   1      42.351  30.976  29.556  1.00  0.00    -0.354 N 
ATOM     59  N   UNL A   1      45.015  30.252  28.537  1.00  0.00    -0.248 NA
ATOM     60  C   UNL A   1      47.145  30.897  27.835  1.00  0.00     0.031 C 
ATOM     61  C   UNL A   1      42.014  33.059  30.244  1.00  0.00     0.029 A 
ATOM     62  C   UNL A   1      42.967  32.204  29.713  1.00  0.00     0.049 A 
ATOM     63  H   UNL A   1      42.780  30.171  29.187  1.00  0.00     0.167 HD
ATOM     64  C   UNL A   1      45.201  31.602  28.826  1.00  0.00     0.074 A 
ATOM     65  C   UNL A   1      46.552  31.930  28.418  1.00  0.00     0.031 C 
ATOM     66  C   UNL A   1      44.332  32.495  29.360  1.00  0.00     0.034 A 
BRANCH  53  67
ATOM     67  C   UNL A   1      38.736  30.178  30.551  1.00  0.00     0.023 A 
ATOM     68  C   UNL A   1      38.429  29.667  31.828  1.00  0.00     0.012 A 
ATOM     69  C   UNL A   1      37.790  30.971  29.874  1.00  0.00     0.148 A 
ATOM     70  C   UNL A   1      37.195  29.933  32.419  1.00  0.00     0.002 A 
ATOM     71  C   UNL A   1      36.581  31.271  30.490  1.00  0.00     0.091 A 
ATOM     72  F   UNL A   1      38.096  31.425  28.650  1.00  0.00    -0.205 F 
ATOM     73  C   UNL A   1      36.279  30.747  31.757  1.00  0.00     0.022 A 
BRANCH  71  74
ATOM     74  S   UNL A   1      35.368  32.379  29.764  1.00  0.00     0.127 S 
ATOM     75  O   UNL A   1      34.916  31.605  28.608  1.00  0.00    -0.237 OA
ATOM     76  O   UNL A   1      34.385  32.499  30.840  1.00  0.00    -0.237 OA
ATOM     77  O   UNL A   1      36.082  33.607  29.443  1.00  0.00    -0.744 OA
ENDBRANCH  71  74
ENDBRANCH  53  67
BRANCH  54  78
ATOM     78  C   UNL A   1      47.911  28.175  27.063  1.00  0.00     0.023 A 
ATOM     79  C   UNL A   1      48.145  28.040  25.680  1.00  0.00     0.012 A 
ATOM     80  C   UNL A   1      48.992  28.029  27.954  1.00  0.00     0.148 A 
ATOM     81  C   UNL A   1      49.416  27.728  25.195  1.00  0.00     0.002 A 
ATOM     82  C   UNL A   1      50.269  27.778  27.461  1.00  0.00     0.091 A 
ATOM     83  F   UNL A   1      48.753  28.138  29.268  1.00  0.00    -0.205 F 
ATOM     84  C   UNL A   1      50.479  27.607  26.084  1.00  0.00     0.022 A 
BRANCH  82  85
ATOM     85  S   UNL A   1      51.724  27.737  28.514  1.00  0.00     0.127 S 
ATOM     86  O   UNL A   1      51.127  27.714  29.848  1.00  0.00    -0.237 OA
ATOM     87  O   UNL A   1      52.358  26.486  28.099  1.00  0.00    -0.237 OA
ATOM     88  O   UNL A   1      52.483  28.935  28.184  1.00  0.00    -0.744 OA
ENDBRANCH  82  85
ENDBRANCH  54  78
BRANCH  66  89
ATOM     89  C   UNL A   1      44.811  33.910  29.574  1.00  0.00     0.023 A 
ATOM     90  C   UNL A   1      45.467  34.254  30.772  1.00  0.00     0.012 A 
ATOM     91  C   UNL A   1      44.700  34.870  28.547  1.00  0.00     0.148 A 
ATOM     92  C   UNL A   1      45.973  35.539  30.959  1.00  0.00     0.002 A 
ATOM     93  C   UNL A   1      45.258  36.131  28.718  1.00  0.00     0.091 A 
ATOM     94  F   UNL A   1      44.063  34.527  27.417  1.00  0.00    -0.205 F 
ATOM     95  C   UNL A   1      45.881  36.472  29.929  1.00  0.00     0.022 A 
BRANCH  93  96
ATOM     96  S   UNL A   1      45.287  37.362  27.409  1.00  0.00     0.127 S 
ATOM     97  O   UNL A   1      43.878  37.423  27.026  1.00  0.00    -0.237 OA
ATOM     98  O   UNL A   1      45.779  38.548  28.112  1.00  0.00    -0.237 OA
ATOM     99  O   UNL A   1      46.189  36.844  26.390  1.00  0.00    -0.744 OA
ENDBRANCH  93  96
ENDBRANCH  66  89
ENDBRANCH  40  41
ENDBRANCH  33  35
ENDBRANCH  32  33
ENDBRANCH  31  32
ENDBRANCH  30  31
ENDBRANCH  29  30
ENDBRANCH  28  29
ENDBRANCH  27  28
ENDBRANCH   1  27
TORSDOF 26
ENDMDL
MODEL 3
REMARK VINA RESULT:      -9.2      1.960      2.706
REMARK SMILES O=C(Cc1csc(Sc2ncnc3c2CCCC3)n1)OCCOCCOCCOCCOC(=O)c1ccc(-c2c3nc(c(-c4cccc(S(=O)(=O)[O-])c4F)c4ccc([nH]4)c(-c4cccc(S(=O)(=O)[O-])c4F)c4nc(c(-c5cccc(S(=O)(=O)[O-])c5F)c5ccc2[nH]5)C=C4)C=C3)cc1
REMARK SMILES IDX 26 1 25 2 24 3 23 4 22 5 21 6 20 7 2 8 1 9 3 10 4 11 5 12
REMARK SMILES IDX 19 13 6 14 7 15 8 16 9 17 10 18 14 19 11 20 13 21 15 22
REMARK SMILES IDX 12 23 18 24 16 25 17 26 27 27 28 28 29 29 30 30 31 31 32 32
REMARK SMILES IDX 33 33 34 34 35 35 36 36 97 37 37 38 96 39 38 40 39 41 40 42
REMARK SMILES IDX 90 43 41 44 95 45 89 46 91 47 42 48 94 49 88 50 87 51 43 53
REMARK SMILES IDX 75 54 55 55 74 56 56 57 59 58 73 59 92 60 57 61 58 62 72 64
REMARK SMILES IDX 93 65 60 66 44 67 45 68 53 69 46 70 48 71 54 72 47 73 49 74
REMARK SMILES IDX 50 75 51 76 52 77 76 78 77 79 85 80 78 81 80 82 86 83 79 84
REMARK SMILES IDX 81 85 82 86 83 87 84 88 61 89 62 90 70 91 63 92 65 93 71 94
REMARK SMILES IDX 64 95 66 96 67 97 68 98 69 99
REMARK H PARENT 91 52 59 63
REMARK Flexibility Score: inf
ROOT
ATOM      1  O   UNL A   1      35.317  17.886  24.203  1.00  0.00    -0.377 OA
ENDROOT
BRANCH   1   2
ATOM      2  C   UNL A   1      34.387  17.160  24.991  1.00  0.00     0.188 C 
BRANCH   2   3
ATOM      3  C   UNL A   1      33.028  16.848  24.352  1.00  0.00     0.188 C 
BRANCH   3   4
ATOM      4  O   UNL A   1      32.905  17.084  22.966  1.00  0.00    -0.376 OA
BRANCH   4   5
ATOM      5  C   UNL A   1      32.506  18.295  22.356  1.00  0.00     0.202 C 
BRANCH   5   6
ATOM      6  C   UNL A   1      32.334  19.596  23.136  1.00  0.00     0.261 C 
BRANCH   6   7
ATOM      7  O   UNL A   1      32.010  20.798  22.411  1.00  0.00    -0.463 OA
BRANCH   7   8
ATOM      8  C   UNL A   1      32.647  21.984  22.438  1.00  0.00     0.311 C 
ATOM      9  O   UNL A   1      32.624  22.705  21.439  1.00  0.00    -0.252 OA
BRANCH   8  10
ATOM     10  C   UNL A   1      33.471  22.374  23.632  1.00  0.00     0.179 C 
BRANCH  10  11
ATOM     11  C   UNL A   1      32.644  22.896  24.747  1.00  0.00     0.064 A 
ATOM     12  C   UNL A   1      32.683  22.452  26.052  1.00  0.00     0.092 A 
ATOM     13  N   UNL A   1      31.716  23.902  24.507  1.00  0.00    -0.234 NA
ATOM     14  S   UNL A   1      31.535  23.301  26.991  1.00  0.00    -0.116 S 
ATOM     15  C   UNL A   1      31.067  24.213  25.604  1.00  0.00     0.156 A 
BRANCH  15  16
ATOM     16  S   UNL A   1      29.819  25.427  25.728  1.00  0.00    -0.039 SA
BRANCH  16  17
ATOM     17  C   UNL A   1      30.507  26.857  24.892  1.00  0.00     0.110 A 
ATOM     18  N   UNL A   1      29.982  27.125  23.678  1.00  0.00    -0.229 NA
ATOM     19  C   UNL A   1      31.308  27.771  25.583  1.00  0.00     0.006 A 
ATOM     20  C   UNL A   1      30.257  28.330  23.165  1.00  0.00     0.223 A 
ATOM     21  C   UNL A   1      31.453  29.021  24.986  1.00  0.00     0.048 A 
ATOM     22  C   UNL A   1      31.899  27.483  26.938  1.00  0.00     0.040 C 
ATOM     23  N   UNL A   1      30.955  29.301  23.765  1.00  0.00    -0.241 NA
ATOM     24  C   UNL A   1      32.162  30.162  25.679  1.00  0.00     0.056 C 
ATOM     25  C   UNL A   1      32.912  28.532  27.405  1.00  0.00     0.005 C 
ATOM     26  C   UNL A   1      32.361  29.931  27.174  1.00  0.00     0.007 C 
ENDBRANCH  16  17
ENDBRANCH  15  16
ENDBRANCH  10  11
ENDBRANCH   8  10
ENDBRANCH   7   8
ENDBRANCH   6   7
ENDBRANCH   5   6
ENDBRANCH   4   5
ENDBRANCH   3   4
ENDBRANCH   2   3
ENDBRANCH   1   2
BRANCH   1  27
ATOM     27  C   UNL A   1      36.183  18.743  24.928  1.00  0.00     0.188 C 
BRANCH  27  28
ATOM     28  C   UNL A   1      35.695  20.210  25.021  1.00  0.00     0.188 C 
BRANCH  28  29
ATOM     29  O   UNL A   1      36.310  21.156  25.883  1.00  0.00    -0.376 OA
BRANCH  29  30
ATOM     30  C   UNL A   1      37.438  21.899  25.452  1.00  0.00     0.202 C 
BRANCH  30  31
ATOM     31  C   UNL A   1      38.885  21.527  25.833  1.00  0.00     0.261 C 
BRANCH  31  32
ATOM     32  O   UNL A   1      39.648  22.507  26.546  1.00  0.00    -0.460 OA
BRANCH  32  33
ATOM     33  C   UNL A   1      40.970  22.546  26.269  1.00  0.00     0.338 C 
ATOM     34  O   UNL A   1      41.603  21.763  25.577  1.00  0.00    -0.246 OA
BRANCH  33  35
ATOM     35  C   UNL A   1      41.505  23.840  26.749  1.00  0.00     0.060 A 
ATOM     36  C   UNL A   1      41.647  24.026  28.134  1.00  0.00     0.016 A 
ATOM     37  C   UNL A   1      41.901  24.838  25.857  1.00  0.00     0.016 A 
ATOM     38  C   UNL A   1      42.167  25.216  28.633  1.00  0.00     0.010 A 
ATOM     39  C   UNL A   1      42.368  26.055  26.360  1.00  0.00     0.010 A 
ATOM     40  C   UNL A   1      42.466  26.258  27.748  1.00  0.00    -0.014 A 
BRANCH  40  41
ATOM     41  C   UNL A   1      42.574  27.632  28.286  1.00  0.00     0.031 A 
ATOM     42  C   UNL A   1      43.954  28.232  28.356  1.00  0.00     0.074 A 
ATOM     43  C   UNL A   1      41.495  28.340  28.661  1.00  0.00     0.049 A 
ATOM     44  N   UNL A   1      44.333  29.387  28.830  1.00  0.00    -0.248 NA
ATOM     45  C   UNL A   1      45.055  27.417  27.807  1.00  0.00     0.031 C 
ATOM     46  C   UNL A   1      40.109  27.886  28.579  1.00  0.00     0.029 A 
ATOM     47  N   UNL A   1      41.407  29.600  29.200  1.00  0.00    -0.354 N 
ATOM     48  C   UNL A   1      45.711  29.433  28.649  1.00  0.00     0.074 A 
ATOM     49  C   UNL A   1      46.107  28.185  28.041  1.00  0.00     0.031 C 
ATOM     50  C   UNL A   1      39.307  28.848  29.073  1.00  0.00     0.029 A 
ATOM     51  C   UNL A   1      40.125  29.969  29.533  1.00  0.00     0.049 A 
ATOM     52  H   UNL A   1      42.188  30.183  29.336  1.00  0.00     0.167 HD
ATOM     53  C   UNL A   1      46.567  30.435  28.945  1.00  0.00     0.034 A 
ATOM     54  C   UNL A   1      39.677  31.078  30.157  1.00  0.00     0.034 A 
ATOM     55  C   UNL A   1      46.167  31.676  29.545  1.00  0.00     0.049 A 
ATOM     56  C   UNL A   1      40.673  32.140  30.561  1.00  0.00     0.074 A 
ATOM     57  C   UNL A   1      46.962  32.750  29.900  1.00  0.00     0.029 A 
ATOM     58  N   UNL A   1      44.865  32.009  29.879  1.00  0.00    -0.354 N 
ATOM     59  N   UNL A   1      41.964  32.198  30.333  1.00  0.00    -0.248 NA
ATOM     60  C   UNL A   1      40.144  33.305  31.287  1.00  0.00     0.031 C 
ATOM     61  C   UNL A   1      46.140  33.726  30.470  1.00  0.00     0.029 A 
ATOM     62  C   UNL A   1      44.831  33.273  30.438  1.00  0.00     0.049 A 
ATOM     63  H   UNL A   1      44.080  31.431  29.737  1.00  0.00     0.167 HD
ATOM     64  C   UNL A   1      42.391  33.419  30.849  1.00  0.00     0.074 A 
ATOM     65  C   UNL A   1      41.215  34.080  31.377  1.00  0.00     0.031 C 
ATOM     66  C   UNL A   1      43.642  33.940  30.900  1.00  0.00     0.034 A 
BRANCH  53  67
ATOM     67  C   UNL A   1      48.017  30.251  28.589  1.00  0.00     0.023 A 
ATOM     68  C   UNL A   1      48.498  30.763  27.366  1.00  0.00     0.012 A 
ATOM     69  C   UNL A   1      48.918  29.664  29.497  1.00  0.00     0.148 A 
ATOM     70  C   UNL A   1      49.852  30.683  27.049  1.00  0.00     0.002 A 
ATOM     71  C   UNL A   1      50.274  29.633  29.195  1.00  0.00     0.091 A 
ATOM     72  F   UNL A   1      48.433  29.163  30.642  1.00  0.00    -0.205 F 
ATOM     73  C   UNL A   1      50.741  30.133  27.968  1.00  0.00     0.022 A 
BRANCH  71  74
ATOM     74  S   UNL A   1      51.513  29.025  30.344  1.00  0.00     0.127 S 
ATOM     75  O   UNL A   1      51.283  27.582  30.292  1.00  0.00    -0.237 OA
ATOM     76  O   UNL A   1      52.756  29.467  29.712  1.00  0.00    -0.237 OA
ATOM     77  O   UNL A   1      51.218  29.651  31.626  1.00  0.00    -0.744 OA
ENDBRANCH  71  74
ENDBRANCH  53  67
BRANCH  54  78
ATOM     78  C   UNL A   1      38.220  31.274  30.410  1.00  0.00     0.023 A 
ATOM     79  C   UNL A   1      37.634  30.690  31.551  1.00  0.00     0.012 A 
ATOM     80  C   UNL A   1      37.406  32.015  29.531  1.00  0.00     0.148 A 
ATOM     81  C   UNL A   1      36.264  30.805  31.792  1.00  0.00     0.002 A 
ATOM     82  C   UNL A   1      36.053  32.178  29.808  1.00  0.00     0.091 A 
ATOM     83  F   UNL A   1      37.971  32.547  28.439  1.00  0.00    -0.205 F 
ATOM     84  C   UNL A   1      35.476  31.557  30.926  1.00  0.00     0.022 A 
BRANCH  82  85
ATOM     85  S   UNL A   1      34.983  33.237  28.827  1.00  0.00     0.127 S 
ATOM     86  O   UNL A   1      34.908  32.501  27.567  1.00  0.00    -0.237 OA
ATOM     87  O   UNL A   1      33.753  33.234  29.619  1.00  0.00    -0.237 OA
ATOM     88  O   UNL A   1      35.656  34.527  28.765  1.00  0.00    -0.744 OA
ENDBRANCH  82  85
ENDBRANCH  54  78
BRANCH  66  89
ATOM     89  C   UNL A   1      43.816  35.307  31.516  1.00  0.00     0.023 A 
ATOM     90  C   UNL A   1      44.089  35.425  32.892  1.00  0.00     0.012 A 
ATOM     91  C   UNL A   1      43.809  36.465  30.712  1.00  0.00     0.148 A 
ATOM     92  C   UNL A   1      44.317  36.675  33.466  1.00  0.00     0.002 A 
ATOM     93  C   UNL A   1      44.094  37.701  31.279  1.00  0.00     0.091 A 
ATOM     94  F   UNL A   1      43.536  36.335  29.404  1.00  0.00    -0.205 F 
ATOM     95  C   UNL A   1      44.333  37.810  32.658  1.00  0.00     0.022 A 
BRANCH  93  96
ATOM     96  S   UNL A   1      44.246  39.202  30.303  1.00  0.00     0.127 S 
ATOM     97  O   UNL A   1      43.018  39.168  29.511  1.00  0.00    -0.237 OA
ATOM     98  O   UNL A   1      44.277  40.240  31.336  1.00  0.00    -0.237 OA
ATOM     99  O   UNL A   1      45.481  39.065  29.544  1.00  0.00    -0.744 OA
ENDBRANCH  93  96
ENDBRANCH  66  89
ENDBRANCH  40  41
ENDBRANCH  33  35
ENDBRANCH  32  33
ENDBRANCH  31  32
ENDBRANCH  30  31
ENDBRANCH  29  30
ENDBRANCH  28  29
ENDBRANCH  27  28
ENDBRANCH   1  27
TORSDOF 26
ENDMDL
