MODEL 1
REMARK VINA RESULT:      -9.4      0.000      0.000
REMARK SMILES C[C@@H]1[C@@H](C)CC[C@H]1[NH2+][C@@H](C)[C@@H](C)C(=O)OCCOCCOCCOCCOC(=O)c1ccc(-c2c3nc(c(-c4cccc(S(=O)(=O)[O-])c4F)c4ccc([nH]4)c(-c4cccc(S(=O)(=O)[O-])c4F)c4nc(c(-c5cccc(S(=O)(=O)[O-])c5F)c5ccc2[nH]5)C=C4)C=C3)cc1
REMARK SMILES IDX 21 1 20 2 19 3 18 4 17 5 16 6 15 7 13 8 14 9 11 10 12 11
REMARK SMILES IDX 9 12 10 13 8 14 7 17 1 18 2 19 3 20 5 21 4 22 6 23 22 24
REMARK SMILES IDX 23 25 24 26 25 27 26 28 27 29 28 30 29 31 30 32 31 33 92 34
REMARK SMILES IDX 32 35 91 36 33 37 34 38 35 39 85 40 36 41 90 42 84 43 86 44
REMARK SMILES IDX 37 45 89 46 83 47 82 48 38 50 70 51 50 52 69 53 51 54 54 55
REMARK SMILES IDX 68 56 87 57 52 58 53 59 67 61 88 62 55 63 39 64 40 65 48 66
REMARK SMILES IDX 41 67 43 68 49 69 42 70 44 71 45 72 46 73 47 74 71 75 72 76
REMARK SMILES IDX 80 77 73 78 75 79 81 80 74 81 76 82 77 83 78 84 79 85 56 86
REMARK SMILES IDX 57 87 65 88 58 89 60 90 66 91 59 92 61 93 62 94 63 95 64 96
REMARK H PARENT 8 15 8 16 86 49 54 60
REMARK Flexibility Score: inf
ROOT
ATOM      1  O   UNL A   1      33.591  26.989  25.188  1.00  0.00    -0.377 OA
ENDROOT
BRANCH   1   2
ATOM      2  C   UNL A   1      33.416  27.136  23.789  1.00  0.00     0.188 C 
BRANCH   2   3
ATOM      3  C   UNL A   1      32.436  28.256  23.443  1.00  0.00     0.188 C 
BRANCH   3   4
ATOM      4  O   UNL A   1      31.179  28.196  24.104  1.00  0.00    -0.376 OA
BRANCH   4   5
ATOM      5  C   UNL A   1      30.271  27.168  23.699  1.00  0.00     0.202 C 
BRANCH   5   6
ATOM      6  C   UNL A   1      29.936  26.054  24.708  1.00  0.00     0.261 C 
BRANCH   6   7
ATOM      7  O   UNL A   1      30.974  25.054  24.920  1.00  0.00    -0.463 OA
BRANCH   7   8
ATOM      8  C   UNL A   1      30.827  23.891  24.236  1.00  0.00     0.314 C 
ATOM      9  O   UNL A   1      30.343  23.822  23.106  1.00  0.00    -0.252 OA
BRANCH   8  10
ATOM     10  C   UNL A   1      31.174  22.607  24.993  1.00  0.00     0.154 C 
ATOM     11  C   UNL A   1      30.719  22.824  26.440  1.00  0.00     0.026 C 
BRANCH  10  12
ATOM     12  C   UNL A   1      32.605  22.003  24.895  1.00  0.00     0.193 C 
ATOM     13  C   UNL A   1      33.187  22.242  23.501  1.00  0.00     0.076 C 
BRANCH  12  14
ATOM     14  N   UNL A   1      32.511  20.544  25.145  1.00  0.00    -0.341 N 
ATOM     15  H   UNL A   1      32.950  20.364  26.047  1.00  0.00     0.346 HD
ATOM     16  H   UNL A   1      31.512  20.344  25.083  1.00  0.00     0.346 HD
BRANCH  14  17
ATOM     17  C   UNL A   1      33.119  19.627  24.176  1.00  0.00     0.185 C 
ATOM     18  C   UNL A   1      35.572  19.789  24.941  1.00  0.00     0.014 C 
ATOM     19  C   UNL A   1      34.330  18.913  24.829  1.00  0.00     0.047 C 
ATOM     20  C   UNL A   1      34.577  17.650  23.972  1.00  0.00    -0.005 C 
ATOM     21  C   UNL A   1      33.280  17.426  23.184  1.00  0.00     0.010 C 
ATOM     22  C   UNL A   1      34.944  16.442  24.834  1.00  0.00     0.008 C 
ATOM     23  C   UNL A   1      32.276  18.424  23.745  1.00  0.00     0.065 C 
ENDBRANCH  14  17
ENDBRANCH  12  14
ENDBRANCH  10  12
ENDBRANCH   8  10
ENDBRANCH   7   8
ENDBRANCH   6   7
ENDBRANCH   5   6
ENDBRANCH   4   5
ENDBRANCH   3   4
ENDBRANCH   2   3
ENDBRANCH   1   2
BRANCH   1  24
ATOM     24  C   UNL A   1      33.985  28.113  25.973  1.00  0.00     0.188 C 
BRANCH  24  25
ATOM     25  C   UNL A   1      33.213  28.397  27.262  1.00  0.00     0.188 C 
BRANCH  25  26
ATOM     26  O   UNL A   1      32.090  29.274  27.153  1.00  0.00    -0.376 OA
BRANCH  26  27
ATOM     27  C   UNL A   1      32.313  30.568  26.596  1.00  0.00     0.202 C 
BRANCH  27  28
ATOM     28  C   UNL A   1      33.454  31.386  27.210  1.00  0.00     0.261 C 
BRANCH  28  29
ATOM     29  O   UNL A   1      32.998  32.588  27.854  1.00  0.00    -0.460 OA
BRANCH  29  30
ATOM     30  C   UNL A   1      33.918  33.580  27.938  1.00  0.00     0.338 C 
ATOM     31  O   UNL A   1      33.827  34.708  27.486  1.00  0.00    -0.246 OA
BRANCH  30  32
ATOM     32  C   UNL A   1      35.024  33.157  28.814  1.00  0.00     0.060 A 
ATOM     33  C   UNL A   1      36.335  33.481  28.436  1.00  0.00     0.016 A 
ATOM     34  C   UNL A   1      34.783  32.360  29.935  1.00  0.00     0.016 A 
ATOM     35  C   UNL A   1      37.413  32.963  29.148  1.00  0.00     0.010 A 
ATOM     36  C   UNL A   1      35.866  31.828  30.638  1.00  0.00     0.010 A 
ATOM     37  C   UNL A   1      37.182  32.093  30.221  1.00  0.00    -0.014 A 
BRANCH  37  38
ATOM     38  C   UNL A   1      38.307  31.312  30.783  1.00  0.00     0.031 A 
ATOM     39  C   UNL A   1      38.750  31.607  32.191  1.00  0.00     0.074 A 
ATOM     40  C   UNL A   1      38.916  30.360  30.056  1.00  0.00     0.049 A 
ATOM     41  N   UNL A   1      39.738  31.091  32.873  1.00  0.00    -0.248 NA
ATOM     42  C   UNL A   1      37.974  32.621  32.927  1.00  0.00     0.031 C 
ATOM     43  C   UNL A   1      38.555  29.977  28.692  1.00  0.00     0.029 A 
ATOM     44  N   UNL A   1      39.984  29.557  30.361  1.00  0.00    -0.354 N 
ATOM     45  C   UNL A   1      39.713  31.725  34.110  1.00  0.00     0.074 A 
ATOM     46  C   UNL A   1      38.627  32.678  34.079  1.00  0.00     0.031 C 
ATOM     47  C   UNL A   1      39.409  29.031  28.264  1.00  0.00     0.029 A 
ATOM     48  C   UNL A   1      40.388  28.761  29.315  1.00  0.00     0.049 A 
ATOM     49  H   UNL A   1      40.420  29.551  31.244  1.00  0.00     0.167 HD
ATOM     50  C   UNL A   1      40.513  31.519  35.183  1.00  0.00     0.034 A 
ATOM     51  C   UNL A   1      41.443  27.926  29.218  1.00  0.00     0.034 A 
ATOM     52  C   UNL A   1      41.586  30.564  35.209  1.00  0.00     0.049 A 
ATOM     53  C   UNL A   1      42.347  27.753  30.412  1.00  0.00     0.074 A 
ATOM     54  C   UNL A   1      42.453  30.271  36.246  1.00  0.00     0.029 A 
ATOM     55  N   UNL A   1      41.942  29.749  34.146  1.00  0.00    -0.354 N 
ATOM     56  N   UNL A   1      42.256  28.291  31.605  1.00  0.00    -0.248 NA
ATOM     57  C   UNL A   1      43.482  26.832  30.256  1.00  0.00     0.031 C 
ATOM     58  C   UNL A   1      43.344  29.288  35.804  1.00  0.00     0.029 A 
ATOM     59  C   UNL A   1      43.016  28.953  34.499  1.00  0.00     0.049 A 
ATOM     60  H   UNL A   1      41.497  29.739  33.268  1.00  0.00     0.167 HD
ATOM     61  C   UNL A   1      43.292  27.740  32.352  1.00  0.00     0.074 A 
ATOM     62  C   UNL A   1      43.987  26.814  31.483  1.00  0.00     0.031 C 
ATOM     63  C   UNL A   1      43.649  27.988  33.638  1.00  0.00     0.034 A 
BRANCH  50  64
ATOM     64  C   UNL A   1      40.229  32.314  36.429  1.00  0.00     0.023 A 
ATOM     65  C   UNL A   1      41.058  33.406  36.756  1.00  0.00     0.012 A 
ATOM     66  C   UNL A   1      39.120  32.020  37.245  1.00  0.00     0.148 A 
ATOM     67  C   UNL A   1      40.805  34.177  37.890  1.00  0.00     0.002 A 
ATOM     68  C   UNL A   1      38.850  32.817  38.352  1.00  0.00     0.091 A 
ATOM     69  F   UNL A   1      38.357  30.963  36.931  1.00  0.00    -0.205 F 
ATOM     70  C   UNL A   1      39.697  33.889  38.681  1.00  0.00     0.022 A 
BRANCH  68  71
ATOM     71  S   UNL A   1      37.409  32.574  39.397  1.00  0.00     0.127 S 
ATOM     72  O   UNL A   1      36.320  32.693  38.429  1.00  0.00    -0.237 OA
ATOM     73  O   UNL A   1      37.625  31.222  39.909  1.00  0.00    -0.237 OA
ATOM     74  O   UNL A   1      37.462  33.623  40.406  1.00  0.00    -0.744 OA
ENDBRANCH  68  71
ENDBRANCH  50  64
BRANCH  51  75
ATOM     75  C   UNL A   1      41.688  27.162  27.962  1.00  0.00     0.023 A 
ATOM     76  C   UNL A   1      42.143  27.843  26.815  1.00  0.00     0.012 A 
ATOM     77  C   UNL A   1      41.465  25.774  27.892  1.00  0.00     0.148 A 
ATOM     78  C   UNL A   1      42.331  27.161  25.612  1.00  0.00     0.002 A 
ATOM     79  C   UNL A   1      41.708  25.092  26.704  1.00  0.00     0.091 A 
ATOM     80  F   UNL A   1      41.012  25.145  28.986  1.00  0.00    -0.205 F 
ATOM     81  C   UNL A   1      42.123  25.786  25.558  1.00  0.00     0.022 A 
BRANCH  79  82
ATOM     82  S   UNL A   1      41.584  23.304  26.587  1.00  0.00     0.127 S 
ATOM     83  O   UNL A   1      40.139  23.100  26.633  1.00  0.00    -0.237 OA
ATOM     84  O   UNL A   1      42.203  23.040  25.287  1.00  0.00    -0.237 OA
ATOM     85  O   UNL A   1      42.338  22.788  27.722  1.00  0.00    -0.744 OA
ENDBRANCH  79  82
ENDBRANCH  51  75
BRANCH  63  86
ATOM     86  C   UNL A   1      44.811  27.213  34.201  1.00  0.00     0.023 A 
ATOM     87  C   UNL A   1      46.089  27.804  34.255  1.00  0.00     0.012 A 
ATOM     88  C   UNL A   1      44.618  25.928  34.746  1.00  0.00     0.148 A 
ATOM     89  C   UNL A   1      47.164  27.114  34.813  1.00  0.00     0.002 A 
ATOM     90  C   UNL A   1      45.683  25.266  35.344  1.00  0.00     0.091 A 
ATOM     91  F   UNL A   1      43.398  25.376  34.667  1.00  0.00    -0.205 F 
ATOM     92  C   UNL A   1      46.959  25.853  35.368  1.00  0.00     0.022 A 
BRANCH  90  93
ATOM     93  S   UNL A   1      45.490  23.683  36.168  1.00  0.00     0.127 S 
ATOM     94  O   UNL A   1      46.599  22.916  35.603  1.00  0.00    -0.237 OA
ATOM     95  O   UNL A   1      45.654  24.043  37.578  1.00  0.00    -0.237 OA
ATOM     96  O   UNL A   1      44.158  23.208  35.819  1.00  0.00    -0.744 OA
ENDBRANCH  90  93
ENDBRANCH  63  86
ENDBRANCH  37  38
ENDBRANCH  30  32
ENDBRANCH  29  30
ENDBRANCH  28  29
ENDBRANCH  27  28
ENDBRANCH  26  27
ENDBRANCH  25  26
ENDBRANCH  24  25
ENDBRANCH   1  24
TORSDOF 26
ENDMDL
MODEL 2
REMARK VINA RESULT:      -9.1      1.887      2.176
REMARK SMILES C[C@@H]1[C@@H](C)CC[C@H]1[NH2+][C@@H](C)[C@@H](C)C(=O)OCCOCCOCCOCCOC(=O)c1ccc(-c2c3nc(c(-c4cccc(S(=O)(=O)[O-])c4F)c4ccc([nH]4)c(-c4cccc(S(=O)(=O)[O-])c4F)c4nc(c(-c5cccc(S(=O)(=O)[O-])c5F)c5ccc2[nH]5)C=C4)C=C3)cc1
REMARK SMILES IDX 21 1 20 2 19 3 18 4 17 5 16 6 15 7 13 8 14 9 11 10 12 11
REMARK SMILES IDX 9 12 10 13 8 14 7 17 1 18 2 19 3 20 5 21 4 22 6 23 22 24
REMARK SMILES IDX 23 25 24 26 25 27 26 28 27 29 28 30 29 31 30 32 31 33 92 34
REMARK SMILES IDX 32 35 91 36 33 37 34 38 35 39 85 40 36 41 90 42 84 43 86 44
REMARK SMILES IDX 37 45 89 46 83 47 82 48 38 50 70 51 50 52 69 53 51 54 54 55
REMARK SMILES IDX 68 56 87 57 52 58 53 59 67 61 88 62 55 63 39 64 40 65 48 66
REMARK SMILES IDX 41 67 43 68 49 69 42 70 44 71 45 72 46 73 47 74 71 75 72 76
REMARK SMILES IDX 80 77 73 78 75 79 81 80 74 81 76 82 77 83 78 84 79 85 56 86
REMARK SMILES IDX 57 87 65 88 58 89 60 90 66 91 59 92 61 93 62 94 63 95 64 96
REMARK H PARENT 8 15 8 16 86 49 54 60
REMARK Flexibility Score: inf
ROOT
ATOM      1  O   UNL A   1      33.755  27.707  25.132  1.00  0.00    -0.377 OA
ENDROOT
BRANCH   1   2
ATOM      2  C   UNL A   1      33.654  27.811  23.722  1.00  0.00     0.188 C 
BRANCH   2   3
ATOM      3  C   UNL A   1      32.437  28.625  23.287  1.00  0.00     0.188 C 
BRANCH   3   4
ATOM      4  O   UNL A   1      31.283  28.487  24.105  1.00  0.00    -0.376 OA
BRANCH   4   5
ATOM      5  C   UNL A   1      30.410  27.388  23.832  1.00  0.00     0.202 C 
BRANCH   5   6
ATOM      6  C   UNL A   1      30.223  26.317  24.922  1.00  0.00     0.261 C 
BRANCH   6   7
ATOM      7  O   UNL A   1      31.222  25.258  24.954  1.00  0.00    -0.463 OA
BRANCH   7   8
ATOM      8  C   UNL A   1      30.925  24.140  24.246  1.00  0.00     0.314 C 
ATOM      9  O   UNL A   1      30.283  24.149  23.195  1.00  0.00    -0.252 OA
BRANCH   8  10
ATOM     10  C   UNL A   1      31.316  22.805  24.884  1.00  0.00     0.154 C 
ATOM     11  C   UNL A   1      31.042  22.950  26.385  1.00  0.00     0.026 C 
BRANCH  10  12
ATOM     12  C   UNL A   1      32.704  22.169  24.583  1.00  0.00     0.193 C 
ATOM     13  C   UNL A   1      33.026  22.282  23.092  1.00  0.00     0.076 C 
BRANCH  12  14
ATOM     14  N   UNL A   1      32.652  20.737  24.968  1.00  0.00    -0.341 N 
ATOM     15  H   UNL A   1      33.157  20.644  25.849  1.00  0.00     0.346 HD
ATOM     16  H   UNL A   1      31.656  20.523  24.995  1.00  0.00     0.346 HD
BRANCH  14  17
ATOM     17  C   UNL A   1      33.208  19.744  24.044  1.00  0.00     0.185 C 
ATOM     18  C   UNL A   1      35.639  19.709  24.889  1.00  0.00     0.014 C 
ATOM     19  C   UNL A   1      34.328  18.944  24.757  1.00  0.00     0.047 C 
ATOM     20  C   UNL A   1      34.488  17.640  23.940  1.00  0.00    -0.005 C 
ATOM     21  C   UNL A   1      33.203  17.510  23.114  1.00  0.00     0.010 C 
ATOM     22  C   UNL A   1      34.718  16.429  24.844  1.00  0.00     0.008 C 
ATOM     23  C   UNL A   1      32.274  18.608  23.615  1.00  0.00     0.065 C 
ENDBRANCH  14  17
ENDBRANCH  12  14
ENDBRANCH  10  12
ENDBRANCH   8  10
ENDBRANCH   7   8
ENDBRANCH   6   7
ENDBRANCH   5   6
ENDBRANCH   4   5
ENDBRANCH   3   4
ENDBRANCH   2   3
ENDBRANCH   1   2
BRANCH   1  24
ATOM     24  C   UNL A   1      33.835  28.891  25.924  1.00  0.00     0.188 C 
BRANCH  24  25
ATOM     25  C   UNL A   1      32.943  28.993  27.161  1.00  0.00     0.188 C 
BRANCH  25  26
ATOM     26  O   UNL A   1      31.884  29.950  27.107  1.00  0.00    -0.376 OA
BRANCH  26  27
ATOM     27  C   UNL A   1      32.229  31.303  26.818  1.00  0.00     0.202 C 
BRANCH  27  28
ATOM     28  C   UNL A   1      33.453  31.864  27.546  1.00  0.00     0.261 C 
BRANCH  28  29
ATOM     29  O   UNL A   1      33.171  33.078  28.265  1.00  0.00    -0.460 OA
BRANCH  29  30
ATOM     30  C   UNL A   1      34.182  33.979  28.292  1.00  0.00     0.338 C 
ATOM     31  O   UNL A   1      34.212  35.068  27.745  1.00  0.00    -0.246 OA
BRANCH  30  32
ATOM     32  C   UNL A   1      35.224  33.528  29.231  1.00  0.00     0.060 A 
ATOM     33  C   UNL A   1      36.549  33.920  28.994  1.00  0.00     0.016 A 
ATOM     34  C   UNL A   1      34.917  32.643  30.267  1.00  0.00     0.016 A 
ATOM     35  C   UNL A   1      37.581  33.385  29.761  1.00  0.00     0.010 A 
ATOM     36  C   UNL A   1      35.955  32.095  31.024  1.00  0.00     0.010 A 
ATOM     37  C   UNL A   1      37.290  32.432  30.745  1.00  0.00    -0.014 A 
BRANCH  37  38
ATOM     38  C   UNL A   1      38.391  31.647  31.349  1.00  0.00     0.031 A 
ATOM     39  C   UNL A   1      38.897  32.050  32.708  1.00  0.00     0.074 A 
ATOM     40  C   UNL A   1      38.925  30.598  30.700  1.00  0.00     0.049 A 
ATOM     41  N   UNL A   1      39.878  31.548  33.409  1.00  0.00    -0.248 NA
ATOM     42  C   UNL A   1      38.200  33.172  33.363  1.00  0.00     0.031 C 
ATOM     43  C   UNL A   1      38.499  30.107  29.391  1.00  0.00     0.029 A 
ATOM     44  N   UNL A   1      39.960  29.769  31.051  1.00  0.00    -0.354 N 
ATOM     45  C   UNL A   1      39.929  32.298  34.578  1.00  0.00     0.074 A 
ATOM     46  C   UNL A   1      38.893  33.303  34.485  1.00  0.00     0.031 C 
ATOM     47  C   UNL A   1      39.288  29.078  29.033  1.00  0.00     0.029 A 
ATOM     48  C   UNL A   1      40.286  28.856  30.077  1.00  0.00     0.049 A 
ATOM     49  H   UNL A   1      40.424  29.824  31.918  1.00  0.00     0.167 HD
ATOM     50  C   UNL A   1      40.752  32.151  35.643  1.00  0.00     0.034 A 
ATOM     51  C   UNL A   1      41.292  27.959  30.032  1.00  0.00     0.034 A 
ATOM     52  C   UNL A   1      41.774  31.146  35.732  1.00  0.00     0.049 A 
ATOM     53  C   UNL A   1      42.225  27.852  31.211  1.00  0.00     0.074 A 
ATOM     54  C   UNL A   1      42.659  30.906  36.767  1.00  0.00     0.029 A 
ATOM     55  N   UNL A   1      42.051  30.215  34.743  1.00  0.00    -0.354 N 
ATOM     56  N   UNL A   1      42.203  28.505  32.348  1.00  0.00    -0.248 NA
ATOM     57  C   UNL A   1      43.306  26.858  31.113  1.00  0.00     0.031 C 
ATOM     58  C   UNL A   1      43.482  29.837  36.397  1.00  0.00     0.029 A 
ATOM     59  C   UNL A   1      43.094  29.398  35.141  1.00  0.00     0.049 A 
ATOM     60  H   UNL A   1      41.577  30.145  33.883  1.00  0.00     0.167 HD
ATOM     61  C   UNL A   1      43.233  27.972  33.116  1.00  0.00     0.074 A 
ATOM     62  C   UNL A   1      43.849  26.930  32.321  1.00  0.00     0.031 C 
ATOM     63  C   UNL A   1      43.646  28.322  34.360  1.00  0.00     0.034 A 
BRANCH  50  64
ATOM     64  C   UNL A   1      40.552  33.077  36.813  1.00  0.00     0.023 A 
ATOM     65  C   UNL A   1      39.504  32.825  37.723  1.00  0.00     0.012 A 
ATOM     66  C   UNL A   1      41.423  34.158  37.045  1.00  0.00     0.148 A 
ATOM     67  C   UNL A   1      39.310  33.650  38.829  1.00  0.00     0.002 A 
ATOM     68  C   UNL A   1      41.248  34.953  38.172  1.00  0.00     0.091 A 
ATOM     69  F   UNL A   1      42.399  34.395  36.156  1.00  0.00    -0.205 F 
ATOM     70  C   UNL A   1      40.186  34.706  39.060  1.00  0.00     0.022 A 
BRANCH  68  71
ATOM     71  S   UNL A   1      42.363  36.296  38.598  1.00  0.00     0.127 S 
ATOM     72  O   UNL A   1      42.500  36.982  37.314  1.00  0.00    -0.237 OA
ATOM     73  O   UNL A   1      41.593  37.028  39.603  1.00  0.00    -0.237 OA
ATOM     74  O   UNL A   1      43.577  35.667  39.100  1.00  0.00    -0.744 OA
ENDBRANCH  68  71
ENDBRANCH  50  64
BRANCH  51  75
ATOM     75  C   UNL A   1      41.455  27.066  28.849  1.00  0.00     0.023 A 
ATOM     76  C   UNL A   1      40.672  25.899  28.749  1.00  0.00     0.012 A 
ATOM     77  C   UNL A   1      42.384  27.357  27.833  1.00  0.00     0.148 A 
ATOM     78  C   UNL A   1      40.841  25.019  27.680  1.00  0.00     0.002 A 
ATOM     79  C   UNL A   1      42.507  26.504  26.741  1.00  0.00     0.091 A 
ATOM     80  F   UNL A   1      43.136  28.461  27.953  1.00  0.00    -0.205 F 
ATOM     81  C   UNL A   1      41.750  25.325  26.672  1.00  0.00     0.022 A 
BRANCH  79  82
ATOM     82  S   UNL A   1      43.565  26.890  25.342  1.00  0.00     0.127 S 
ATOM     83  O   UNL A   1      43.729  25.579  24.719  1.00  0.00    -0.237 OA
ATOM     84  O   UNL A   1      42.740  27.834  24.586  1.00  0.00    -0.237 OA
ATOM     85  O   UNL A   1      44.767  27.478  25.916  1.00  0.00    -0.744 OA
ENDBRANCH  79  82
ENDBRANCH  51  75
BRANCH  63  86
ATOM     86  C   UNL A   1      44.784  27.541  34.963  1.00  0.00     0.023 A 
ATOM     87  C   UNL A   1      46.103  28.023  34.852  1.00  0.00     0.012 A 
ATOM     88  C   UNL A   1      44.535  26.369  35.705  1.00  0.00     0.148 A 
ATOM     89  C   UNL A   1      47.161  27.333  35.442  1.00  0.00     0.002 A 
ATOM     90  C   UNL A   1      45.588  25.714  36.331  1.00  0.00     0.091 A 
ATOM     91  F   UNL A   1      43.275  25.917  35.783  1.00  0.00    -0.205 F 
ATOM     92  C   UNL A   1      46.903  26.188  36.190  1.00  0.00     0.022 A 
BRANCH  90  93
ATOM     93  S   UNL A   1      45.337  24.287  37.393  1.00  0.00     0.127 S 
ATOM     94  O   UNL A   1      44.765  23.318  36.461  1.00  0.00    -0.237 OA
ATOM     95  O   UNL A   1      46.700  23.982  37.831  1.00  0.00    -0.237 OA
ATOM     96  O   UNL A   1      44.448  24.733  38.458  1.00  0.00    -0.744 OA
ENDBRANCH  90  93
ENDBRANCH  63  86
ENDBRANCH  37  38
ENDBRANCH  30  32
ENDBRANCH  29  30
ENDBRANCH  28  29
ENDBRANCH  27  28
ENDBRANCH  26  27
ENDBRANCH  25  26
ENDBRANCH  24  25
ENDBRANCH   1  24
TORSDOF 26
ENDMDL
MODEL 3
REMARK VINA RESULT:      -8.9      2.345      7.916
REMARK SMILES C[C@@H]1[C@@H](C)CC[C@H]1[NH2+][C@@H](C)[C@@H](C)C(=O)OCCOCCOCCOCCOC(=O)c1ccc(-c2c3nc(c(-c4cccc(S(=O)(=O)[O-])c4F)c4ccc([nH]4)c(-c4cccc(S(=O)(=O)[O-])c4F)c4nc(c(-c5cccc(S(=O)(=O)[O-])c5F)c5ccc2[nH]5)C=C4)C=C3)cc1
REMARK SMILES IDX 21 1 20 2 19 3 18 4 17 5 16 6 15 7 13 8 14 9 11 10 12 11
REMARK SMILES IDX 9 12 10 13 8 14 7 17 1 18 2 19 3 20 5 21 4 22 6 23 22 24
REMARK SMILES IDX 23 25 24 26 25 27 26 28 27 29 28 30 29 31 30 32 31 33 92 34
REMARK SMILES IDX 32 35 91 36 33 37 34 38 35 39 85 40 36 41 90 42 84 43 86 44
REMARK SMILES IDX 37 45 89 46 83 47 82 48 38 50 70 51 50 52 69 53 51 54 54 55
REMARK SMILES IDX 68 56 87 57 52 58 53 59 67 61 88 62 55 63 39 64 40 65 48 66
REMARK SMILES IDX 41 67 43 68 49 69 42 70 44 71 45 72 46 73 47 74 71 75 72 76
REMARK SMILES IDX 80 77 73 78 75 79 81 80 74 81 76 82 77 83 78 84 79 85 56 86
REMARK SMILES IDX 57 87 65 88 58 89 60 90 66 91 59 92 61 93 62 94 63 95 64 96
REMARK H PARENT 8 15 8 16 86 49 54 60
REMARK Flexibility Score: inf
ROOT
ATOM      1  O   UNL A   1      33.520  26.890  23.393  1.00  0.00    -0.377 OA
ENDROOT
BRANCH   1   2
ATOM      2  C   UNL A   1      33.096  26.752  22.047  1.00  0.00     0.188 C 
BRANCH   2   3
ATOM      3  C   UNL A   1      31.626  26.352  21.942  1.00  0.00     0.188 C 
BRANCH   3   4
ATOM      4  O   UNL A   1      30.706  27.221  22.591  1.00  0.00    -0.376 OA
BRANCH   4   5
ATOM      5  C   UNL A   1      29.860  26.654  23.595  1.00  0.00     0.202 C 
BRANCH   5   6
ATOM      6  C   UNL A   1      30.519  26.063  24.855  1.00  0.00     0.261 C 
BRANCH   6   7
ATOM      7  O   UNL A   1      31.004  24.695  24.739  1.00  0.00    -0.463 OA
BRANCH   7   8
ATOM      8  C   UNL A   1      31.252  24.052  25.908  1.00  0.00     0.314 C 
ATOM      9  O   UNL A   1      30.499  24.094  26.881  1.00  0.00    -0.252 OA
BRANCH   8  10
ATOM     10  C   UNL A   1      32.609  23.354  26.028  1.00  0.00     0.154 C 
ATOM     11  C   UNL A   1      33.300  23.522  24.670  1.00  0.00     0.026 C 
BRANCH  10  12
ATOM     12  C   UNL A   1      32.695  21.899  26.573  1.00  0.00     0.193 C 
ATOM     13  C   UNL A   1      33.889  21.757  27.517  1.00  0.00     0.076 C 
BRANCH  12  14
ATOM     14  N   UNL A   1      32.868  20.981  25.420  1.00  0.00    -0.341 N 
ATOM     15  H   UNL A   1      31.968  20.530  25.257  1.00  0.00     0.346 HD
ATOM     16  H   UNL A   1      33.211  21.583  24.672  1.00  0.00     0.346 HD
BRANCH  14  17
ATOM     17  C   UNL A   1      33.874  19.919  25.516  1.00  0.00     0.185 C 
ATOM     18  C   UNL A   1      32.308  17.888  25.742  1.00  0.00     0.014 C 
ATOM     19  C   UNL A   1      33.321  18.623  24.871  1.00  0.00     0.047 C 
ATOM     20  C   UNL A   1      34.562  17.756  24.554  1.00  0.00    -0.005 C 
ATOM     21  C   UNL A   1      35.755  18.720  24.578  1.00  0.00     0.010 C 
ATOM     22  C   UNL A   1      34.426  17.040  23.212  1.00  0.00     0.008 C 
ATOM     23  C   UNL A   1      35.159  20.116  24.706  1.00  0.00     0.065 C 
ENDBRANCH  14  17
ENDBRANCH  12  14
ENDBRANCH  10  12
ENDBRANCH   8  10
ENDBRANCH   7   8
ENDBRANCH   6   7
ENDBRANCH   5   6
ENDBRANCH   4   5
ENDBRANCH   3   4
ENDBRANCH   2   3
ENDBRANCH   1   2
BRANCH   1  24
ATOM     24  C   UNL A   1      34.024  28.144  23.851  1.00  0.00     0.188 C 
BRANCH  24  25
ATOM     25  C   UNL A   1      33.463  28.712  25.155  1.00  0.00     0.188 C 
BRANCH  25  26
ATOM     26  O   UNL A   1      32.888  30.018  25.086  1.00  0.00    -0.376 OA
BRANCH  26  27
ATOM     27  C   UNL A   1      31.840  30.328  26.002  1.00  0.00     0.202 C 
BRANCH  27  28
ATOM     28  C   UNL A   1      32.241  31.109  27.257  1.00  0.00     0.261 C 
BRANCH  28  29
ATOM     29  O   UNL A   1      33.385  31.955  27.048  1.00  0.00    -0.460 OA
BRANCH  29  30
ATOM     30  C   UNL A   1      33.417  33.077  27.808  1.00  0.00     0.338 C 
ATOM     31  O   UNL A   1      32.579  33.960  27.852  1.00  0.00    -0.246 OA
BRANCH  30  32
ATOM     32  C   UNL A   1      34.566  33.019  28.729  1.00  0.00     0.060 A 
ATOM     33  C   UNL A   1      35.820  33.431  28.256  1.00  0.00     0.016 A 
ATOM     34  C   UNL A   1      34.433  32.466  30.004  1.00  0.00     0.016 A 
ATOM     35  C   UNL A   1      36.956  33.242  29.039  1.00  0.00     0.010 A 
ATOM     36  C   UNL A   1      35.575  32.262  30.781  1.00  0.00     0.010 A 
ATOM     37  C   UNL A   1      36.843  32.610  30.283  1.00  0.00    -0.014 A 
BRANCH  37  38
ATOM     38  C   UNL A   1      38.063  32.140  30.977  1.00  0.00     0.031 A 
ATOM     39  C   UNL A   1      38.780  30.936  30.427  1.00  0.00     0.074 A 
ATOM     40  C   UNL A   1      38.522  32.774  32.070  1.00  0.00     0.049 A 
ATOM     41  N   UNL A   1      39.833  30.316  30.890  1.00  0.00    -0.248 NA
ATOM     42  C   UNL A   1      38.236  30.355  29.187  1.00  0.00     0.031 C 
ATOM     43  C   UNL A   1      37.919  33.960  32.674  1.00  0.00     0.029 A 
ATOM     44  N   UNL A   1      39.593  32.490  32.877  1.00  0.00    -0.354 N 
ATOM     45  C   UNL A   1      40.069  29.265  30.012  1.00  0.00     0.074 A 
ATOM     46  C   UNL A   1      39.039  29.318  28.998  1.00  0.00     0.031 C 
ATOM     47  C   UNL A   1      38.614  34.287  33.779  1.00  0.00     0.029 A 
ATOM     48  C   UNL A   1      39.692  33.320  33.968  1.00  0.00     0.049 A 
ATOM     49  H   UNL A   1      40.230  31.762  32.692  1.00  0.00     0.167 HD
ATOM     50  C   UNL A   1      41.065  28.349  30.036  1.00  0.00     0.034 A 
ATOM     51  C   UNL A   1      40.547  33.282  35.010  1.00  0.00     0.034 A 
ATOM     52  C   UNL A   1      42.090  28.307  31.042  1.00  0.00     0.049 A 
ATOM     53  C   UNL A   1      41.617  32.220  35.037  1.00  0.00     0.074 A 
ATOM     54  C   UNL A   1      43.149  27.426  31.158  1.00  0.00     0.029 A 
ATOM     55  N   UNL A   1      42.180  29.185  32.111  1.00  0.00    -0.354 N 
ATOM     56  N   UNL A   1      41.884  31.290  34.152  1.00  0.00    -0.248 NA
ATOM     57  C   UNL A   1      42.525  32.222  36.195  1.00  0.00     0.031 C 
ATOM     58  C   UNL A   1      43.872  27.762  32.306  1.00  0.00     0.029 A 
ATOM     59  C   UNL A   1      43.276  28.868  32.893  1.00  0.00     0.049 A 
ATOM     60  H   UNL A   1      41.556  29.926  32.289  1.00  0.00     0.167 HD
ATOM     61  C   UNL A   1      43.013  30.628  34.622  1.00  0.00     0.074 A 
ATOM     62  C   UNL A   1      43.391  31.275  35.861  1.00  0.00     0.031 C 
ATOM     63  C   UNL A   1      43.672  29.569  34.086  1.00  0.00     0.034 A 
BRANCH  50  64
ATOM     64  C   UNL A   1      41.116  27.342  28.918  1.00  0.00     0.023 A 
ATOM     65  C   UNL A   1      40.251  26.229  28.952  1.00  0.00     0.012 A 
ATOM     66  C   UNL A   1      41.972  27.519  27.815  1.00  0.00     0.148 A 
ATOM     67  C   UNL A   1      40.258  25.293  27.918  1.00  0.00     0.002 A 
ATOM     68  C   UNL A   1      41.945  26.604  26.769  1.00  0.00     0.091 A 
ATOM     69  F   UNL A   1      42.804  28.571  27.814  1.00  0.00    -0.205 F 
ATOM     70  C   UNL A   1      41.096  25.485  26.824  1.00  0.00     0.022 A 
BRANCH  68  71
ATOM     71  S   UNL A   1      42.935  26.796  25.282  1.00  0.00     0.127 S 
ATOM     72  O   UNL A   1      44.281  26.921  25.839  1.00  0.00    -0.237 OA
ATOM     73  O   UNL A   1      42.680  25.540  24.578  1.00  0.00    -0.237 OA
ATOM     74  O   UNL A   1      42.426  27.984  24.611  1.00  0.00    -0.744 OA
ENDBRANCH  68  71
ENDBRANCH  50  64
BRANCH  51  75
ATOM     75  C   UNL A   1      40.457  34.298  36.099  1.00  0.00     0.023 A 
ATOM     76  C   UNL A   1      40.905  35.611  35.859  1.00  0.00     0.012 A 
ATOM     77  C   UNL A   1      39.943  33.969  37.367  1.00  0.00     0.148 A 
ATOM     78  C   UNL A   1      40.880  36.568  36.875  1.00  0.00     0.002 A 
ATOM     79  C   UNL A   1      39.869  34.943  38.358  1.00  0.00     0.091 A 
ATOM     80  F   UNL A   1      39.540  32.709  37.585  1.00  0.00    -0.205 F 
ATOM     81  C   UNL A   1      40.354  36.237  38.120  1.00  0.00     0.022 A 
BRANCH  79  82
ATOM     82  S   UNL A   1      39.092  34.631  39.948  1.00  0.00     0.127 S 
ATOM     83  O   UNL A   1      40.198  34.066  40.716  1.00  0.00    -0.237 OA
ATOM     84  O   UNL A   1      38.681  35.975  40.355  1.00  0.00    -0.237 OA
ATOM     85  O   UNL A   1      37.983  33.729  39.666  1.00  0.00    -0.744 OA
ENDBRANCH  79  82
ENDBRANCH  51  75
BRANCH  63  86
ATOM     86  C   UNL A   1      44.898  29.073  34.807  1.00  0.00     0.023 A 
ATOM     87  C   UNL A   1      44.781  28.057  35.775  1.00  0.00     0.012 A 
ATOM     88  C   UNL A   1      46.175  29.564  34.468  1.00  0.00     0.148 A 
ATOM     89  C   UNL A   1      45.912  27.559  36.419  1.00  0.00     0.002 A 
ATOM     90  C   UNL A   1      47.302  29.028  35.079  1.00  0.00     0.091 A 
ATOM     91  F   UNL A   1      46.263  30.544  33.558  1.00  0.00    -0.205 F 
ATOM     92  C   UNL A   1      47.172  28.034  36.063  1.00  0.00     0.022 A 
BRANCH  90  93
ATOM     93  S   UNL A   1      48.968  29.511  34.614  1.00  0.00     0.127 S 
ATOM     94  O   UNL A   1      48.913  30.963  34.771  1.00  0.00    -0.237 OA
ATOM     95  O   UNL A   1      49.783  28.819  35.613  1.00  0.00    -0.237 OA
ATOM     96  O   UNL A   1      49.157  29.036  33.249  1.00  0.00    -0.744 OA
ENDBRANCH  90  93
ENDBRANCH  63  86
ENDBRANCH  37  38
ENDBRANCH  30  32
ENDBRANCH  29  30
ENDBRANCH  28  29
ENDBRANCH  27  28
ENDBRANCH  26  27
ENDBRANCH  25  26
ENDBRANCH  24  25
ENDBRANCH   1  24
TORSDOF 26
ENDMDL
