MODEL 1
REMARK VINA RESULT:     -11.2      0.000      0.000
REMARK SMILES CC(C)[C@@H](NC(=O)c1ccc2[nH]nnc2c1)C(=O)OCCOCCOCCOCCOC(=O)c1ccc(-c2c3nc(c(-c4cccc(S(=O)(=O)[O-])c4F)c4ccc([nH]4)c(-c4cccc(S(=O)(=O)[O-])c4F)c4nc(c(-c5cccc(S(=O)(=O)[O-])c5F)c5ccc2[nH]5)C=C4)C=C3)cc1
REMARK SMILES IDX 26 1 25 2 24 3 23 4 22 5 21 6 20 7 19 8 17 9 18 10 4 11 2 12
REMARK SMILES IDX 1 13 3 14 5 15 6 16 7 18 8 19 9 20 16 21 10 22 15 23 11 24
REMARK SMILES IDX 14 25 12 26 13 27 27 29 28 30 29 31 30 32 31 33 32 34 33 35
REMARK SMILES IDX 34 36 35 37 96 38 36 39 95 40 37 41 38 42 39 43 89 44 40 45
REMARK SMILES IDX 94 46 88 47 90 48 41 49 93 50 87 51 86 52 42 54 74 55 54 56
REMARK SMILES IDX 73 57 55 58 58 59 72 60 91 61 56 62 57 63 71 65 92 66 59 67
REMARK SMILES IDX 43 68 44 69 52 70 45 71 47 72 53 73 46 74 48 75 49 76 50 77
REMARK SMILES IDX 51 78 75 79 76 80 84 81 77 82 79 83 85 84 78 85 80 86 81 87
REMARK SMILES IDX 82 88 83 89 60 90 61 91 69 92 62 93 64 94 70 95 63 96 65 97
REMARK SMILES IDX 66 98 67 99 68 100
REMARK H PARENT 5 17 12 28 90 53 58 64
REMARK Flexibility Score: inf
ROOT
ATOM      1  C   UNL A   1      30.489  27.903  23.300  1.00  0.00     0.188 C 
ENDROOT
BRANCH   1   2
ATOM      2  O   UNL A   1      29.533  27.097  23.985  1.00  0.00    -0.377 OA
BRANCH   2   3
ATOM      3  C   UNL A   1      29.917  25.852  24.537  1.00  0.00     0.188 C 
BRANCH   3   4
ATOM      4  C   UNL A   1      30.330  25.836  26.010  1.00  0.00     0.188 C 
BRANCH   4   5
ATOM      5  O   UNL A   1      29.591  24.945  26.816  1.00  0.00    -0.376 OA
BRANCH   5   6
ATOM      6  C   UNL A   1      29.823  23.548  26.699  1.00  0.00     0.202 C 
BRANCH   6   7
ATOM      7  C   UNL A   1      31.204  22.881  26.805  1.00  0.00     0.261 C 
BRANCH   7   8
ATOM      8  O   UNL A   1      32.369  23.417  27.454  1.00  0.00    -0.462 OA
BRANCH   8   9
ATOM      9  C   UNL A   1      33.488  22.648  27.323  1.00  0.00     0.328 C 
ATOM     10  O   UNL A   1      34.166  22.239  28.268  1.00  0.00    -0.250 OA
BRANCH   9  11
ATOM     11  C   UNL A   1      34.044  22.496  25.907  1.00  0.00     0.195 C 
BRANCH  11  12
ATOM     12  C   UNL A   1      34.174  23.790  25.049  1.00  0.00     0.017 C 
ATOM     13  C   UNL A   1      35.522  24.490  25.310  1.00  0.00     0.010 C 
ATOM     14  C   UNL A   1      34.086  23.565  23.537  1.00  0.00     0.010 C 
ENDBRANCH  11  12
BRANCH  11  15
ATOM     15  N   UNL A   1      35.280  21.663  25.826  1.00  0.00    -0.338 N 
ATOM     16  C   UNL A   1      35.622  20.625  24.986  1.00  0.00     0.252 C 
ATOM     17  H   UNL A   1      35.969  21.894  26.489  1.00  0.00     0.164 HD
ATOM     18  O   UNL A   1      36.758  20.560  24.523  1.00  0.00    -0.269 OA
BRANCH  16  19
ATOM     19  C   UNL A   1      34.719  19.477  24.765  1.00  0.00     0.042 A 
ATOM     20  C   UNL A   1      33.368  19.682  24.454  1.00  0.00     0.016 A 
ATOM     21  C   UNL A   1      35.263  18.181  24.820  1.00  0.00     0.046 A 
ATOM     22  C   UNL A   1      32.480  18.599  24.313  1.00  0.00     0.031 A 
ATOM     23  C   UNL A   1      34.383  17.093  24.699  1.00  0.00     0.113 A 
ATOM     24  C   UNL A   1      33.027  17.323  24.483  1.00  0.00     0.086 A 
ATOM     25  N   UNL A   1      34.589  15.750  24.878  1.00  0.00    -0.130 NA
ATOM     26  N   UNL A   1      32.479  16.074  24.605  1.00  0.00    -0.258 N 
ATOM     27  N   UNL A   1      33.410  15.140  24.846  1.00  0.00    -0.069 NA
ATOM     28  H   UNL A   1      31.516  15.886  24.526  1.00  0.00     0.192 HD
ENDBRANCH  16  19
ENDBRANCH  11  15
ENDBRANCH   9  11
ENDBRANCH   8   9
ENDBRANCH   7   8
ENDBRANCH   6   7
ENDBRANCH   5   6
ENDBRANCH   4   5
ENDBRANCH   3   4
ENDBRANCH   2   3
ENDBRANCH   1   2
BRANCH   1  29
ATOM     29  C   UNL A   1      30.164  29.387  23.112  1.00  0.00     0.188 C 
BRANCH  29  30
ATOM     30  O   UNL A   1      30.305  30.243  24.247  1.00  0.00    -0.376 OA
BRANCH  30  31
ATOM     31  C   UNL A   1      31.389  30.003  25.135  1.00  0.00     0.202 C 
BRANCH  31  32
ATOM     32  C   UNL A   1      31.570  31.016  26.266  1.00  0.00     0.261 C 
BRANCH  32  33
ATOM     33  O   UNL A   1      32.691  30.746  27.120  1.00  0.00    -0.460 OA
BRANCH  33  34
ATOM     34  C   UNL A   1      33.406  31.833  27.504  1.00  0.00     0.338 C 
ATOM     35  O   UNL A   1      32.985  32.952  27.720  1.00  0.00    -0.246 OA
BRANCH  34  36
ATOM     36  C   UNL A   1      34.806  31.433  27.747  1.00  0.00     0.060 A 
ATOM     37  C   UNL A   1      35.112  30.074  27.906  1.00  0.00     0.016 A 
ATOM     38  C   UNL A   1      35.784  32.410  27.937  1.00  0.00     0.016 A 
ATOM     39  C   UNL A   1      36.384  29.690  28.330  1.00  0.00     0.010 A 
ATOM     40  C   UNL A   1      37.051  32.027  28.374  1.00  0.00     0.010 A 
ATOM     41  C   UNL A   1      37.334  30.672  28.627  1.00  0.00    -0.014 A 
BRANCH  41  42
ATOM     42  C   UNL A   1      38.528  30.342  29.438  1.00  0.00     0.031 A 
ATOM     43  C   UNL A   1      39.473  29.301  28.898  1.00  0.00     0.074 A 
ATOM     44  C   UNL A   1      38.737  30.905  30.640  1.00  0.00     0.049 A 
ATOM     45  N   UNL A   1      40.482  28.713  29.482  1.00  0.00    -0.248 NA
ATOM     46  C   UNL A   1      39.234  28.853  27.514  1.00  0.00     0.031 C 
ATOM     47  C   UNL A   1      37.906  31.942  31.247  1.00  0.00     0.029 A 
ATOM     48  N   UNL A   1      39.698  30.644  31.584  1.00  0.00    -0.354 N 
ATOM     49  C   UNL A   1      40.973  27.800  28.556  1.00  0.00     0.074 A 
ATOM     50  C   UNL A   1      40.146  27.902  27.375  1.00  0.00     0.031 C 
ATOM     51  C   UNL A   1      38.367  32.199  32.484  1.00  0.00     0.029 A 
ATOM     52  C   UNL A   1      39.497  31.318  32.765  1.00  0.00     0.049 A 
ATOM     53  H   UNL A   1      40.455  30.035  31.431  1.00  0.00     0.167 HD
ATOM     54  C   UNL A   1      42.024  26.957  28.676  1.00  0.00     0.034 A 
ATOM     55  C   UNL A   1      40.134  31.201  33.947  1.00  0.00     0.034 A 
ATOM     56  C   UNL A   1      42.846  26.871  29.851  1.00  0.00     0.049 A 
ATOM     57  C   UNL A   1      41.274  30.220  34.071  1.00  0.00     0.074 A 
ATOM     58  C   UNL A   1      43.952  26.069  30.071  1.00  0.00     0.029 A 
ATOM     59  N   UNL A   1      42.647  27.608  31.007  1.00  0.00    -0.354 N 
ATOM     60  N   UNL A   1      41.778  29.417  33.164  1.00  0.00    -0.248 NA
ATOM     61  C   UNL A   1      41.954  30.149  35.373  1.00  0.00     0.031 C 
ATOM     62  C   UNL A   1      44.402  26.300  31.374  1.00  0.00     0.029 A 
ATOM     63  C   UNL A   1      43.606  27.281  31.946  1.00  0.00     0.049 A 
ATOM     64  H   UNL A   1      41.928  28.268  31.139  1.00  0.00     0.167 HD
ATOM     65  C   UNL A   1      42.865  28.791  33.768  1.00  0.00     0.074 A 
ATOM     66  C   UNL A   1      42.950  29.313  35.116  1.00  0.00     0.031 C 
ATOM     67  C   UNL A   1      43.713  27.865  33.257  1.00  0.00     0.034 A 
BRANCH  54  68
ATOM     68  C   UNL A   1      42.355  26.073  27.502  1.00  0.00     0.023 A 
ATOM     69  C   UNL A   1      43.139  26.577  26.445  1.00  0.00     0.012 A 
ATOM     70  C   UNL A   1      41.940  24.726  27.473  1.00  0.00     0.148 A 
ATOM     71  C   UNL A   1      43.478  25.765  25.363  1.00  0.00     0.002 A 
ATOM     72  C   UNL A   1      42.324  23.910  26.416  1.00  0.00     0.091 A 
ATOM     73  F   UNL A   1      41.178  24.271  28.478  1.00  0.00    -0.205 F 
ATOM     74  C   UNL A   1      43.081  24.432  25.355  1.00  0.00     0.022 A 
BRANCH  72  75
ATOM     75  S   UNL A   1      41.933  22.159  26.349  1.00  0.00     0.127 S 
ATOM     76  O   UNL A   1      42.856  21.690  25.315  1.00  0.00    -0.237 OA
ATOM     77  O   UNL A   1      42.262  21.720  27.705  1.00  0.00    -0.237 OA
ATOM     78  O   UNL A   1      40.521  22.071  26.004  1.00  0.00    -0.744 OA
ENDBRANCH  72  75
ENDBRANCH  54  68
BRANCH  55  79
ATOM     79  C   UNL A   1      39.730  32.041  35.111  1.00  0.00     0.023 A 
ATOM     80  C   UNL A   1      40.176  33.374  35.191  1.00  0.00     0.012 A 
ATOM     81  C   UNL A   1      38.926  31.523  36.145  1.00  0.00     0.148 A 
ATOM     82  C   UNL A   1      39.869  34.163  36.300  1.00  0.00     0.002 A 
ATOM     83  C   UNL A   1      38.577  32.331  37.221  1.00  0.00     0.091 A 
ATOM     84  F   UNL A   1      38.521  30.248  36.059  1.00  0.00    -0.205 F 
ATOM     85  C   UNL A   1      39.064  33.645  37.311  1.00  0.00     0.022 A 
BRANCH  83  86
ATOM     86  S   UNL A   1      37.454  31.786  38.512  1.00  0.00     0.127 S 
ATOM     87  O   UNL A   1      36.352  32.734  38.369  1.00  0.00    -0.237 OA
ATOM     88  O   UNL A   1      37.149  30.418  38.089  1.00  0.00    -0.237 OA
ATOM     89  O   UNL A   1      38.208  31.876  39.755  1.00  0.00    -0.744 OA
ENDBRANCH  83  86
ENDBRANCH  55  79
BRANCH  67  90
ATOM     90  C   UNL A   1      44.865  27.413  34.118  1.00  0.00     0.023 A 
ATOM     91  C   UNL A   1      46.081  28.121  34.111  1.00  0.00     0.012 A 
ATOM     92  C   UNL A   1      44.697  26.331  35.007  1.00  0.00     0.148 A 
ATOM     93  C   UNL A   1      47.126  27.738  34.954  1.00  0.00     0.002 A 
ATOM     94  C   UNL A   1      45.720  25.991  35.882  1.00  0.00     0.091 A 
ATOM     95  F   UNL A   1      43.535  25.662  34.986  1.00  0.00    -0.205 F 
ATOM     96  C   UNL A   1      46.941  26.685  35.846  1.00  0.00     0.022 A 
BRANCH  94  97
ATOM     97  S   UNL A   1      45.534  24.721  37.136  1.00  0.00     0.127 S 
ATOM     98  O   UNL A   1      46.749  24.906  37.930  1.00  0.00    -0.237 OA
ATOM     99  O   UNL A   1      44.299  25.129  37.807  1.00  0.00    -0.237 OA
ATOM    100  O   UNL A   1      45.446  23.455  36.421  1.00  0.00    -0.744 OA
ENDBRANCH  94  97
ENDBRANCH  67  90
ENDBRANCH  41  42
ENDBRANCH  34  36
ENDBRANCH  33  34
ENDBRANCH  32  33
ENDBRANCH  31  32
ENDBRANCH  30  31
ENDBRANCH  29  30
ENDBRANCH   1  29
TORSDOF 26
ENDMDL
MODEL 2
REMARK VINA RESULT:     -10.6      2.298      3.166
REMARK SMILES CC(C)[C@@H](NC(=O)c1ccc2[nH]nnc2c1)C(=O)OCCOCCOCCOCCOC(=O)c1ccc(-c2c3nc(c(-c4cccc(S(=O)(=O)[O-])c4F)c4ccc([nH]4)c(-c4cccc(S(=O)(=O)[O-])c4F)c4nc(c(-c5cccc(S(=O)(=O)[O-])c5F)c5ccc2[nH]5)C=C4)C=C3)cc1
REMARK SMILES IDX 26 1 25 2 24 3 23 4 22 5 21 6 20 7 19 8 17 9 18 10 4 11 2 12
REMARK SMILES IDX 1 13 3 14 5 15 6 16 7 18 8 19 9 20 16 21 10 22 15 23 11 24
REMARK SMILES IDX 14 25 12 26 13 27 27 29 28 30 29 31 30 32 31 33 32 34 33 35
REMARK SMILES IDX 34 36 35 37 96 38 36 39 95 40 37 41 38 42 39 43 89 44 40 45
REMARK SMILES IDX 94 46 88 47 90 48 41 49 93 50 87 51 86 52 42 54 74 55 54 56
REMARK SMILES IDX 73 57 55 58 58 59 72 60 91 61 56 62 57 63 71 65 92 66 59 67
REMARK SMILES IDX 43 68 44 69 52 70 45 71 47 72 53 73 46 74 48 75 49 76 50 77
REMARK SMILES IDX 51 78 75 79 76 80 84 81 77 82 79 83 85 84 78 85 80 86 81 87
REMARK SMILES IDX 82 88 83 89 60 90 61 91 69 92 62 93 64 94 70 95 63 96 65 97
REMARK SMILES IDX 66 98 67 99 68 100
REMARK H PARENT 5 17 12 28 90 53 58 64
REMARK Flexibility Score: inf
ROOT
ATOM      1  C   UNL A   1      31.527  27.297  26.176  1.00  0.00     0.188 C 
ENDROOT
BRANCH   1   2
ATOM      2  O   UNL A   1      30.554  27.756  25.241  1.00  0.00    -0.377 OA
BRANCH   2   3
ATOM      3  C   UNL A   1      30.014  26.867  24.282  1.00  0.00     0.188 C 
BRANCH   3   4
ATOM      4  C   UNL A   1      30.416  25.394  24.386  1.00  0.00     0.188 C 
BRANCH   4   5
ATOM      5  O   UNL A   1      30.800  24.804  23.164  1.00  0.00    -0.376 OA
BRANCH   5   6
ATOM      6  C   UNL A   1      31.645  25.527  22.279  1.00  0.00     0.202 C 
BRANCH   6   7
ATOM      7  C   UNL A   1      32.909  24.955  21.616  1.00  0.00     0.261 C 
BRANCH   7   8
ATOM      8  O   UNL A   1      34.219  24.862  22.200  1.00  0.00    -0.462 OA
BRANCH   8   9
ATOM      9  C   UNL A   1      34.221  24.760  23.560  1.00  0.00     0.328 C 
ATOM     10  O   UNL A   1      33.934  25.680  24.328  1.00  0.00    -0.250 OA
BRANCH   9  11
ATOM     11  C   UNL A   1      34.845  23.490  24.143  1.00  0.00     0.195 C 
BRANCH  11  12
ATOM     12  C   UNL A   1      36.384  23.498  24.381  1.00  0.00     0.017 C 
ATOM     13  C   UNL A   1      36.712  23.806  25.856  1.00  0.00     0.010 C 
ATOM     14  C   UNL A   1      37.089  22.179  24.045  1.00  0.00     0.010 C 
ENDBRANCH  11  12
BRANCH  11  15
ATOM     15  N   UNL A   1      34.114  22.942  25.323  1.00  0.00    -0.338 N 
ATOM     16  C   UNL A   1      34.021  21.659  25.818  1.00  0.00     0.252 C 
ATOM     17  H   UNL A   1      33.610  23.614  25.836  1.00  0.00     0.164 HD
ATOM     18  O   UNL A   1      34.078  21.462  27.029  1.00  0.00    -0.269 OA
BRANCH  16  19
ATOM     19  C   UNL A   1      33.669  20.517  24.949  1.00  0.00     0.042 A 
ATOM     20  C   UNL A   1      32.581  20.601  24.067  1.00  0.00     0.016 A 
ATOM     21  C   UNL A   1      34.484  19.372  24.989  1.00  0.00     0.046 A 
ATOM     22  C   UNL A   1      32.190  19.498  23.287  1.00  0.00     0.031 A 
ATOM     23  C   UNL A   1      34.091  18.258  24.228  1.00  0.00     0.113 A 
ATOM     24  C   UNL A   1      32.952  18.335  23.431  1.00  0.00     0.086 A 
ATOM     25  N   UNL A   1      34.577  16.977  24.198  1.00  0.00    -0.130 NA
ATOM     26  N   UNL A   1      32.788  17.044  23.004  1.00  0.00    -0.258 N 
ATOM     27  N   UNL A   1      33.753  16.237  23.467  1.00  0.00    -0.069 NA
ATOM     28  H   UNL A   1      32.048  16.745  22.427  1.00  0.00     0.192 HD
ENDBRANCH  16  19
ENDBRANCH  11  15
ENDBRANCH   9  11
ENDBRANCH   8   9
ENDBRANCH   7   8
ENDBRANCH   6   7
ENDBRANCH   5   6
ENDBRANCH   4   5
ENDBRANCH   3   4
ENDBRANCH   2   3
ENDBRANCH   1   2
BRANCH   1  29
ATOM     29  C   UNL A   1      32.001  28.279  27.251  1.00  0.00     0.188 C 
BRANCH  29  30
ATOM     30  O   UNL A   1      31.795  29.672  27.008  1.00  0.00    -0.376 OA
BRANCH  30  31
ATOM     31  C   UNL A   1      32.918  30.458  26.628  1.00  0.00     0.202 C 
BRANCH  31  32
ATOM     32  C   UNL A   1      33.526  31.337  27.722  1.00  0.00     0.261 C 
BRANCH  32  33
ATOM     33  O   UNL A   1      33.815  32.677  27.302  1.00  0.00    -0.460 OA
BRANCH  33  34
ATOM     34  C   UNL A   1      33.607  33.638  28.237  1.00  0.00     0.338 C 
ATOM     35  O   UNL A   1      32.627  34.346  28.360  1.00  0.00    -0.246 OA
BRANCH  34  36
ATOM     36  C   UNL A   1      34.728  33.632  29.198  1.00  0.00     0.060 A 
ATOM     37  C   UNL A   1      35.966  34.162  28.808  1.00  0.00     0.016 A 
ATOM     38  C   UNL A   1      34.582  32.994  30.431  1.00  0.00     0.016 A 
ATOM     39  C   UNL A   1      37.086  33.990  29.622  1.00  0.00     0.010 A 
ATOM     40  C   UNL A   1      35.704  32.809  31.237  1.00  0.00     0.010 A 
ATOM     41  C   UNL A   1      36.967  33.255  30.807  1.00  0.00    -0.014 A 
BRANCH  41  42
ATOM     42  C   UNL A   1      38.171  32.718  31.482  1.00  0.00     0.031 A 
ATOM     43  C   UNL A   1      38.846  31.524  30.861  1.00  0.00     0.074 A 
ATOM     44  C   UNL A   1      38.616  33.237  32.638  1.00  0.00     0.049 A 
ATOM     45  N   UNL A   1      39.796  30.766  31.338  1.00  0.00    -0.248 NA
ATOM     46  C   UNL A   1      38.370  31.122  29.525  1.00  0.00     0.031 C 
ATOM     47  C   UNL A   1      38.060  34.408  33.312  1.00  0.00     0.029 A 
ATOM     48  N   UNL A   1      39.620  32.811  33.470  1.00  0.00    -0.354 N 
ATOM     49  C   UNL A   1      40.004  29.777  30.383  1.00  0.00     0.074 A 
ATOM     50  C   UNL A   1      39.075  30.023  29.303  1.00  0.00     0.031 C 
ATOM     51  C   UNL A   1      38.702  34.582  34.481  1.00  0.00     0.029 A 
ATOM     52  C   UNL A   1      39.683  33.513  34.650  1.00  0.00     0.049 A 
ATOM     53  H   UNL A   1      40.234  32.075  33.245  1.00  0.00     0.167 HD
ATOM     54  C   UNL A   1      40.896  28.760  30.400  1.00  0.00     0.034 A 
ATOM     55  C   UNL A   1      40.424  33.287  35.754  1.00  0.00     0.034 A 
ATOM     56  C   UNL A   1      41.823  28.532  31.474  1.00  0.00     0.049 A 
ATOM     57  C   UNL A   1      41.379  32.118  35.767  1.00  0.00     0.074 A 
ATOM     58  C   UNL A   1      42.787  27.546  31.584  1.00  0.00     0.029 A 
ATOM     59  N   UNL A   1      41.895  29.295  32.627  1.00  0.00    -0.354 N 
ATOM     60  N   UNL A   1      41.621  31.235  34.828  1.00  0.00    -0.248 NA
ATOM     61  C   UNL A   1      42.183  31.930  36.984  1.00  0.00     0.031 C 
ATOM     62  C   UNL A   1      43.421  27.695  32.820  1.00  0.00     0.029 A 
ATOM     63  C   UNL A   1      42.885  28.804  33.458  1.00  0.00     0.049 A 
ATOM     64  H   UNL A   1      41.325  30.074  32.827  1.00  0.00     0.167 HD
ATOM     65  C   UNL A   1      42.643  30.427  35.317  1.00  0.00     0.074 A 
ATOM     66  C   UNL A   1      42.978  30.928  36.633  1.00  0.00     0.031 C 
ATOM     67  C   UNL A   1      43.248  29.363  34.733  1.00  0.00     0.034 A 
BRANCH  54  68
ATOM     68  C   UNL A   1      40.925  27.828  29.217  1.00  0.00     0.023 A 
ATOM     69  C   UNL A   1      40.063  26.713  29.183  1.00  0.00     0.012 A 
ATOM     70  C   UNL A   1      41.764  28.087  28.114  1.00  0.00     0.148 A 
ATOM     71  C   UNL A   1      40.057  25.854  28.084  1.00  0.00     0.002 A 
ATOM     72  C   UNL A   1      41.716  27.255  27.003  1.00  0.00     0.091 A 
ATOM     73  F   UNL A   1      42.591  29.140  28.175  1.00  0.00    -0.205 F 
ATOM     74  C   UNL A   1      40.873  26.132  26.992  1.00  0.00     0.022 A 
BRANCH  72  75
ATOM     75  S   UNL A   1      42.667  27.569  25.513  1.00  0.00     0.127 S 
ATOM     76  O   UNL A   1      42.064  28.813  25.034  1.00  0.00    -0.237 OA
ATOM     77  O   UNL A   1      44.024  27.712  26.041  1.00  0.00    -0.237 OA
ATOM     78  O   UNL A   1      42.466  26.411  24.652  1.00  0.00    -0.744 OA
ENDBRANCH  72  75
ENDBRANCH  54  68
BRANCH  55  79
ATOM     79  C   UNL A   1      40.315  34.188  36.936  1.00  0.00     0.023 A 
ATOM     80  C   UNL A   1      40.954  35.443  36.912  1.00  0.00     0.012 A 
ATOM     81  C   UNL A   1      39.602  33.804  38.089  1.00  0.00     0.148 A 
ATOM     82  C   UNL A   1      40.925  36.279  38.028  1.00  0.00     0.002 A 
ATOM     83  C   UNL A   1      39.531  34.664  39.177  1.00  0.00     0.091 A 
ATOM     84  F   UNL A   1      39.012  32.600  38.099  1.00  0.00    -0.205 F 
ATOM     85  C   UNL A   1      40.208  35.894  39.158  1.00  0.00     0.022 A 
BRANCH  83  86
ATOM     86  S   UNL A   1      38.538  34.302  40.630  1.00  0.00     0.127 S 
ATOM     87  O   UNL A   1      37.460  33.497  40.060  1.00  0.00    -0.237 OA
ATOM     88  O   UNL A   1      39.484  33.561  41.465  1.00  0.00    -0.237 OA
ATOM     89  O   UNL A   1      38.144  35.596  41.171  1.00  0.00    -0.744 OA
ENDBRANCH  83  86
ENDBRANCH  55  79
BRANCH  67  90
ATOM     90  C   UNL A   1      44.394  28.714  35.465  1.00  0.00     0.023 A 
ATOM     91  C   UNL A   1      45.712  29.170  35.274  1.00  0.00     0.012 A 
ATOM     92  C   UNL A   1      44.140  27.705  36.418  1.00  0.00     0.148 A 
ATOM     93  C   UNL A   1      46.765  28.611  35.999  1.00  0.00     0.002 A 
ATOM     94  C   UNL A   1      45.185  27.193  37.175  1.00  0.00     0.091 A 
ATOM     95  F   UNL A   1      42.880  27.276  36.573  1.00  0.00    -0.205 F 
ATOM     96  C   UNL A   1      46.501  27.634  36.957  1.00  0.00     0.022 A 
BRANCH  94  97
ATOM     97  S   UNL A   1      44.926  26.011  38.502  1.00  0.00     0.127 S 
ATOM     98  O   UNL A   1      46.297  25.738  38.930  1.00  0.00    -0.237 OA
ATOM     99  O   UNL A   1      44.133  26.788  39.455  1.00  0.00    -0.237 OA
ATOM    100  O   UNL A   1      44.223  24.883  37.907  1.00  0.00    -0.744 OA
ENDBRANCH  94  97
ENDBRANCH  67  90
ENDBRANCH  41  42
ENDBRANCH  34  36
ENDBRANCH  33  34
ENDBRANCH  32  33
ENDBRANCH  31  32
ENDBRANCH  30  31
ENDBRANCH  29  30
ENDBRANCH   1  29
TORSDOF 26
ENDMDL
MODEL 3
REMARK VINA RESULT:     -10.6      1.380      7.541
REMARK SMILES CC(C)[C@@H](NC(=O)c1ccc2[nH]nnc2c1)C(=O)OCCOCCOCCOCCOC(=O)c1ccc(-c2c3nc(c(-c4cccc(S(=O)(=O)[O-])c4F)c4ccc([nH]4)c(-c4cccc(S(=O)(=O)[O-])c4F)c4nc(c(-c5cccc(S(=O)(=O)[O-])c5F)c5ccc2[nH]5)C=C4)C=C3)cc1
REMARK SMILES IDX 26 1 25 2 24 3 23 4 22 5 21 6 20 7 19 8 17 9 18 10 4 11 2 12
REMARK SMILES IDX 1 13 3 14 5 15 6 16 7 18 8 19 9 20 16 21 10 22 15 23 11 24
REMARK SMILES IDX 14 25 12 26 13 27 27 29 28 30 29 31 30 32 31 33 32 34 33 35
REMARK SMILES IDX 34 36 35 37 96 38 36 39 95 40 37 41 38 42 39 43 89 44 40 45
REMARK SMILES IDX 94 46 88 47 90 48 41 49 93 50 87 51 86 52 42 54 74 55 54 56
REMARK SMILES IDX 73 57 55 58 58 59 72 60 91 61 56 62 57 63 71 65 92 66 59 67
REMARK SMILES IDX 43 68 44 69 52 70 45 71 47 72 53 73 46 74 48 75 49 76 50 77
REMARK SMILES IDX 51 78 75 79 76 80 84 81 77 82 79 83 85 84 78 85 80 86 81 87
REMARK SMILES IDX 82 88 83 89 60 90 61 91 69 92 62 93 64 94 70 95 63 96 65 97
REMARK SMILES IDX 66 98 67 99 68 100
REMARK H PARENT 5 17 12 28 90 53 58 64
REMARK Flexibility Score: inf
ROOT
ATOM      1  C   UNL A   1      31.709  28.313  26.774  1.00  0.00     0.188 C 
ENDROOT
BRANCH   1   2
ATOM      2  O   UNL A   1      31.859  27.530  25.593  1.00  0.00    -0.377 OA
BRANCH   2   3
ATOM      3  C   UNL A   1      30.768  27.360  24.708  1.00  0.00     0.188 C 
BRANCH   3   4
ATOM      4  C   UNL A   1      30.904  27.953  23.305  1.00  0.00     0.188 C 
BRANCH   4   5
ATOM      5  O   UNL A   1      32.179  28.479  23.012  1.00  0.00    -0.376 OA
BRANCH   5   6
ATOM      6  C   UNL A   1      33.158  27.637  22.418  1.00  0.00     0.202 C 
BRANCH   6   7
ATOM      7  C   UNL A   1      33.724  26.364  23.067  1.00  0.00     0.261 C 
BRANCH   7   8
ATOM      8  O   UNL A   1      34.152  25.171  22.389  1.00  0.00    -0.462 OA
BRANCH   8   9
ATOM      9  C   UNL A   1      33.798  24.011  23.015  1.00  0.00     0.328 C 
ATOM     10  O   UNL A   1      33.871  22.894  22.500  1.00  0.00    -0.250 OA
BRANCH   9  11
ATOM     11  C   UNL A   1      33.053  24.158  24.342  1.00  0.00     0.195 C 
BRANCH  11  12
ATOM     12  C   UNL A   1      31.665  23.462  24.460  1.00  0.00     0.017 C 
ATOM     13  C   UNL A   1      30.990  23.803  25.804  1.00  0.00     0.010 C 
ATOM     14  C   UNL A   1      30.665  23.842  23.364  1.00  0.00     0.010 C 
ENDBRANCH  11  12
BRANCH  11  15
ATOM     15  N   UNL A   1      33.899  23.894  25.544  1.00  0.00    -0.338 N 
ATOM     16  C   UNL A   1      34.896  22.968  25.767  1.00  0.00     0.252 C 
ATOM     17  H   UNL A   1      33.711  24.482  26.310  1.00  0.00     0.164 HD
ATOM     18  O   UNL A   1      35.916  23.298  26.366  1.00  0.00    -0.269 OA
BRANCH  16  19
ATOM     19  C   UNL A   1      34.702  21.534  25.469  1.00  0.00     0.042 A 
ATOM     20  C   UNL A   1      35.778  20.743  25.041  1.00  0.00     0.016 A 
ATOM     21  C   UNL A   1      33.429  20.976  25.682  1.00  0.00     0.046 A 
ATOM     22  C   UNL A   1      35.593  19.394  24.686  1.00  0.00     0.031 A 
ATOM     23  C   UNL A   1      33.229  19.635  25.311  1.00  0.00     0.113 A 
ATOM     24  C   UNL A   1      34.292  18.895  24.800  1.00  0.00     0.086 A 
ATOM     25  N   UNL A   1      32.084  18.886  25.242  1.00  0.00    -0.130 NA
ATOM     26  N   UNL A   1      33.691  17.735  24.392  1.00  0.00    -0.258 N 
ATOM     27  N   UNL A   1      32.376  17.734  24.651  1.00  0.00    -0.069 NA
ATOM     28  H   UNL A   1      34.168  16.990  23.958  1.00  0.00     0.192 HD
ENDBRANCH  16  19
ENDBRANCH  11  15
ENDBRANCH   9  11
ENDBRANCH   8   9
ENDBRANCH   7   8
ENDBRANCH   6   7
ENDBRANCH   5   6
ENDBRANCH   4   5
ENDBRANCH   3   4
ENDBRANCH   2   3
ENDBRANCH   1   2
BRANCH   1  29
ATOM     29  C   UNL A   1      32.053  29.803  26.689  1.00  0.00     0.188 C 
BRANCH  29  30
ATOM     30  O   UNL A   1      31.367  30.584  25.710  1.00  0.00    -0.376 OA
BRANCH  30  31
ATOM     31  C   UNL A   1      31.059  31.935  26.027  1.00  0.00     0.202 C 
BRANCH  31  32
ATOM     32  C   UNL A   1      31.757  32.515  27.258  1.00  0.00     0.261 C 
BRANCH  32  33
ATOM     33  O   UNL A   1      33.000  33.170  26.971  1.00  0.00    -0.460 OA
BRANCH  33  34
ATOM     34  C   UNL A   1      33.700  33.591  28.055  1.00  0.00     0.338 C 
ATOM     35  O   UNL A   1      33.384  34.458  28.845  1.00  0.00    -0.246 OA
BRANCH  34  36
ATOM     36  C   UNL A   1      34.896  32.741  28.221  1.00  0.00     0.060 A 
ATOM     37  C   UNL A   1      34.736  31.355  28.366  1.00  0.00     0.016 A 
ATOM     38  C   UNL A   1      36.154  33.330  28.353  1.00  0.00     0.016 A 
ATOM     39  C   UNL A   1      35.826  30.561  28.720  1.00  0.00     0.010 A 
ATOM     40  C   UNL A   1      37.240  32.539  28.720  1.00  0.00     0.010 A 
ATOM     41  C   UNL A   1      37.066  31.163  28.961  1.00  0.00    -0.014 A 
BRANCH  41  42
ATOM     42  C   UNL A   1      38.121  30.439  29.705  1.00  0.00     0.031 A 
ATOM     43  C   UNL A   1      38.377  30.849  31.132  1.00  0.00     0.074 A 
ATOM     44  C   UNL A   1      38.867  29.490  29.117  1.00  0.00     0.049 A 
ATOM     45  N   UNL A   1      39.345  30.501  31.935  1.00  0.00    -0.248 NA
ATOM     46  C   UNL A   1      37.414  31.794  31.725  1.00  0.00     0.031 C 
ATOM     47  C   UNL A   1      38.689  28.993  27.754  1.00  0.00     0.029 A 
ATOM     48  N   UNL A   1      39.957  28.802  29.589  1.00  0.00    -0.354 N 
ATOM     49  C   UNL A   1      39.133  31.212  33.110  1.00  0.00     0.074 A 
ATOM     50  C   UNL A   1      37.951  32.019  32.914  1.00  0.00     0.031 C 
ATOM     51  C   UNL A   1      39.668  28.112  27.482  1.00  0.00     0.029 A 
ATOM     52  C   UNL A   1      40.558  28.014  28.637  1.00  0.00     0.049 A 
ATOM     53  H   UNL A   1      40.278  28.869  30.517  1.00  0.00     0.167 HD
ATOM     54  C   UNL A   1      39.854  31.187  34.255  1.00  0.00     0.034 A 
ATOM     55  C   UNL A   1      41.716  27.327  28.686  1.00  0.00     0.034 A 
ATOM     56  C   UNL A   1      41.022  30.372  34.442  1.00  0.00     0.049 A 
ATOM     57  C   UNL A   1      42.528  27.351  29.958  1.00  0.00     0.074 A 
ATOM     58  C   UNL A   1      41.815  30.250  35.569  1.00  0.00     0.029 A 
ATOM     59  N   UNL A   1      41.569  29.544  33.475  1.00  0.00    -0.354 N 
ATOM     60  N   UNL A   1      42.277  27.966  31.090  1.00  0.00    -0.248 NA
ATOM     61  C   UNL A   1      43.770  26.563  29.971  1.00  0.00     0.031 C 
ATOM     62  C   UNL A   1      42.860  29.372  35.271  1.00  0.00     0.029 A 
ATOM     63  C   UNL A   1      42.690  28.910  33.975  1.00  0.00     0.049 A 
ATOM     64  H   UNL A   1      41.211  29.425  32.565  1.00  0.00     0.167 HD
ATOM     65  C   UNL A   1      43.295  27.594  31.962  1.00  0.00     0.074 A 
ATOM     66  C   UNL A   1      44.163  26.695  31.230  1.00  0.00     0.031 C 
ATOM     67  C   UNL A   1      43.498  27.964  33.251  1.00  0.00     0.034 A 
BRANCH  54  68
ATOM     68  C   UNL A   1      39.393  32.053  35.397  1.00  0.00     0.023 A 
ATOM     69  C   UNL A   1      39.656  33.437  35.377  1.00  0.00     0.012 A 
ATOM     70  C   UNL A   1      38.650  31.506  36.463  1.00  0.00     0.148 A 
ATOM     71  C   UNL A   1      39.213  34.259  36.414  1.00  0.00     0.002 A 
ATOM     72  C   UNL A   1      38.170  32.339  37.466  1.00  0.00     0.091 A 
ATOM     73  F   UNL A   1      38.429  30.184  36.474  1.00  0.00    -0.205 F 
ATOM     74  C   UNL A   1      38.462  33.712  37.449  1.00  0.00     0.022 A 
BRANCH  72  75
ATOM     75  S   UNL A   1      37.126  31.749  38.802  1.00  0.00     0.127 S 
ATOM     76  O   UNL A   1      36.908  30.355  38.413  1.00  0.00    -0.237 OA
ATOM     77  O   UNL A   1      37.991  31.928  39.968  1.00  0.00    -0.237 OA
ATOM     78  O   UNL A   1      35.937  32.589  38.789  1.00  0.00    -0.744 OA
ENDBRANCH  72  75
ENDBRANCH  54  68
BRANCH  55  79
ATOM     79  C   UNL A   1      42.180  26.539  27.509  1.00  0.00     0.023 A 
ATOM     80  C   UNL A   1      42.853  27.193  26.458  1.00  0.00     0.012 A 
ATOM     81  C   UNL A   1      41.942  25.153  27.413  1.00  0.00     0.148 A 
ATOM     82  C   UNL A   1      43.240  26.494  25.315  1.00  0.00     0.002 A 
ATOM     83  C   UNL A   1      42.379  24.452  26.296  1.00  0.00     0.091 A 
ATOM     84  F   UNL A   1      41.288  24.550  28.416  1.00  0.00    -0.205 F 
ATOM     85  C   UNL A   1      43.010  25.122  25.237  1.00  0.00     0.022 A 
BRANCH  83  86
ATOM     86  S   UNL A   1      42.227  22.667  26.159  1.00  0.00     0.127 S 
ATOM     87  O   UNL A   1      42.848  22.219  27.402  1.00  0.00    -0.237 OA
ATOM     88  O   UNL A   1      40.776  22.491  26.096  1.00  0.00    -0.237 OA
ATOM     89  O   UNL A   1      42.930  22.306  24.935  1.00  0.00    -0.744 OA
ENDBRANCH  83  86
ENDBRANCH  55  79
BRANCH  67  90
ATOM     90  C   UNL A   1      44.651  27.338  33.991  1.00  0.00     0.023 A 
ATOM     91  C   UNL A   1      45.875  28.023  34.115  1.00  0.00     0.012 A 
ATOM     92  C   UNL A   1      44.480  26.101  34.646  1.00  0.00     0.148 A 
ATOM     93  C   UNL A   1      46.922  27.471  34.853  1.00  0.00     0.002 A 
ATOM     94  C   UNL A   1      45.506  25.584  35.425  1.00  0.00     0.091 A 
ATOM     95  F   UNL A   1      43.312  25.460  34.502  1.00  0.00    -0.205 F 
ATOM     96  C   UNL A   1      46.734  26.261  35.518  1.00  0.00     0.022 A 
BRANCH  94  97
ATOM     97  S   UNL A   1      45.318  24.089  36.400  1.00  0.00     0.127 S 
ATOM     98  O   UNL A   1      46.464  23.296  35.955  1.00  0.00    -0.237 OA
ATOM     99  O   UNL A   1      45.422  24.598  37.768  1.00  0.00    -0.237 OA
ATOM    100  O   UNL A   1      44.013  23.542  36.055  1.00  0.00    -0.744 OA
ENDBRANCH  94  97
ENDBRANCH  67  90
ENDBRANCH  41  42
ENDBRANCH  34  36
ENDBRANCH  33  34
ENDBRANCH  32  33
ENDBRANCH  31  32
ENDBRANCH  30  31
ENDBRANCH  29  30
ENDBRANCH   1  29
TORSDOF 26
ENDMDL
