MODEL 1
REMARK VINA RESULT:      -9.5      0.000      0.000
REMARK SMILES Cc1c(C)c2c(c(C)c1O)CC[C@@](C)(C(=O)OCCOCCOCCOCCOC(=O)c1ccc(-c3c4nc(c(-c5cccc(S(=O)(=O)[O-])c5F)c5ccc([nH]5)c(-c5cccc(S(=O)(=O)[O-])c5F)c5nc(c(-c6cccc(S(=O)(=O)[O-])c6F)c6ccc3[nH]6)C=C5)C=C4)cc1)O2
REMARK SMILES IDX 24 1 23 2 22 3 21 4 20 5 19 6 18 7 17 8 15 9 16 10 13 11
REMARK SMILES IDX 1 12 2 13 3 14 9 15 4 16 5 17 7 18 6 19 95 20 8 21 11 22
REMARK SMILES IDX 12 23 14 24 10 25 25 27 26 28 27 29 28 30 29 31 30 32 31 33
REMARK SMILES IDX 32 34 33 35 94 36 34 37 93 38 35 39 36 40 37 41 87 42 38 43
REMARK SMILES IDX 92 44 86 45 88 46 39 47 91 48 85 49 84 50 40 52 72 53 52 54
REMARK SMILES IDX 71 55 53 56 56 57 70 58 89 59 54 60 55 61 69 63 90 64 57 65
REMARK SMILES IDX 41 66 42 67 50 68 43 69 45 70 51 71 44 72 46 73 47 74 48 75
REMARK SMILES IDX 49 76 73 77 74 78 82 79 75 80 77 81 83 82 76 83 78 84 79 85
REMARK SMILES IDX 80 86 81 87 58 88 59 89 67 90 60 91 62 92 68 93 61 94 63 95
REMARK SMILES IDX 64 96 65 97 66 98
REMARK H PARENT 10 26 88 51 56 62
REMARK Flexibility Score: inf
ROOT
ATOM      1  C   UNL A   1      35.618  31.909  28.564  1.00  0.00     0.188 C 
ENDROOT
BRANCH   1   2
ATOM      2  O   UNL A   1      35.191  31.147  27.439  1.00  0.00    -0.377 OA
BRANCH   2   3
ATOM      3  C   UNL A   1      33.865  30.661  27.434  1.00  0.00     0.188 C 
BRANCH   3   4
ATOM      4  C   UNL A   1      33.605  29.498  26.471  1.00  0.00     0.188 C 
BRANCH   4   5
ATOM      5  O   UNL A   1      33.991  28.172  26.790  1.00  0.00    -0.376 OA
BRANCH   5   6
ATOM      6  C   UNL A   1      33.364  27.038  26.207  1.00  0.00     0.202 C 
BRANCH   6   7
ATOM      7  C   UNL A   1      31.886  26.662  26.414  1.00  0.00     0.261 C 
BRANCH   7   8
ATOM      8  O   UNL A   1      31.468  25.341  26.035  1.00  0.00    -0.460 OA
BRANCH   8   9
ATOM      9  C   UNL A   1      31.608  25.056  24.718  1.00  0.00     0.350 C 
ATOM     10  O   UNL A   1      31.309  25.848  23.823  1.00  0.00    -0.247 OA
BRANCH   9  11
ATOM     11  C   UNL A   1      32.130  23.637  24.424  1.00  0.00     0.203 C 
ATOM     12  C   UNL A   1      37.891  21.792  25.525  1.00  0.00     0.049 C 
ATOM     13  C   UNL A   1      36.402  21.623  25.358  1.00  0.00    -0.002 A 
ATOM     14  C   UNL A   1      35.533  22.731  25.428  1.00  0.00    -0.002 A 
ATOM     15  C   UNL A   1      35.842  20.350  25.134  1.00  0.00     0.122 A 
ATOM     16  C   UNL A   1      36.053  24.109  25.768  1.00  0.00     0.049 C 
ATOM     17  C   UNL A   1      34.162  22.553  25.143  1.00  0.00     0.127 A 
ATOM     18  C   UNL A   1      34.459  20.162  24.938  1.00  0.00    -0.002 A 
ATOM     19  C   UNL A   1      33.604  21.285  24.943  1.00  0.00     0.001 A 
ATOM     20  O   UNL A   1      33.421  23.697  25.066  1.00  0.00    -0.475 OA
ATOM     21  C   UNL A   1      33.893  18.778  24.739  1.00  0.00     0.049 C 
ATOM     22  C   UNL A   1      32.118  21.140  24.696  1.00  0.00     0.044 C 
ATOM     23  C   UNL A   1      31.346  22.436  24.953  1.00  0.00     0.065 C 
ATOM     24  C   UNL A   1      32.269  23.584  22.896  1.00  0.00     0.069 C 
BRANCH  15  25
ATOM     25  O   UNL A   1      36.630  19.226  25.098  1.00  0.00    -0.507 OA
ATOM     26  H   UNL A   1      36.782  18.736  25.881  1.00  0.00     0.293 HD
ENDBRANCH  15  25
ENDBRANCH   9  11
ENDBRANCH   8   9
ENDBRANCH   7   8
ENDBRANCH   6   7
ENDBRANCH   5   6
ENDBRANCH   4   5
ENDBRANCH   3   4
ENDBRANCH   2   3
ENDBRANCH   1   2
BRANCH   1  27
ATOM     27  C   UNL A   1      35.757  33.439  28.420  1.00  0.00     0.188 C 
BRANCH  27  28
ATOM     28  O   UNL A   1      34.624  34.074  27.843  1.00  0.00    -0.376 OA
BRANCH  28  29
ATOM     29  C   UNL A   1      34.341  35.419  28.204  1.00  0.00     0.202 C 
BRANCH  29  30
ATOM     30  C   UNL A   1      33.261  35.681  29.267  1.00  0.00     0.261 C 
BRANCH  30  31
ATOM     31  O   UNL A   1      33.171  34.745  30.353  1.00  0.00    -0.460 OA
BRANCH  31  32
ATOM     32  C   UNL A   1      33.329  35.199  31.618  1.00  0.00     0.338 C 
ATOM     33  O   UNL A   1      32.552  35.876  32.251  1.00  0.00    -0.246 OA
BRANCH  32  34
ATOM     34  C   UNL A   1      34.528  34.523  32.172  1.00  0.00     0.060 A 
ATOM     35  C   UNL A   1      35.765  35.174  32.083  1.00  0.00     0.016 A 
ATOM     36  C   UNL A   1      34.430  33.278  32.799  1.00  0.00     0.016 A 
ATOM     37  C   UNL A   1      36.912  34.570  32.598  1.00  0.00     0.010 A 
ATOM     38  C   UNL A   1      35.587  32.659  33.289  1.00  0.00     0.010 A 
ATOM     39  C   UNL A   1      36.838  33.288  33.159  1.00  0.00    -0.014 A 
BRANCH  39  40
ATOM     40  C   UNL A   1      38.097  32.535  33.380  1.00  0.00     0.031 A 
ATOM     41  C   UNL A   1      38.897  32.845  34.615  1.00  0.00     0.074 A 
ATOM     42  C   UNL A   1      38.493  31.554  32.550  1.00  0.00     0.049 A 
ATOM     43  N   UNL A   1      39.975  32.267  35.073  1.00  0.00    -0.248 NA
ATOM     44  C   UNL A   1      38.406  33.954  35.452  1.00  0.00     0.031 C 
ATOM     45  C   UNL A   1      37.796  31.143  31.334  1.00  0.00     0.029 A 
ATOM     46  N   UNL A   1      39.585  30.722  32.612  1.00  0.00    -0.354 N 
ATOM     47  C   UNL A   1      40.294  32.939  36.246  1.00  0.00     0.074 A 
ATOM     48  C   UNL A   1      39.319  33.995  36.410  1.00  0.00     0.031 C 
ATOM     49  C   UNL A   1      38.480  30.134  30.763  1.00  0.00     0.029 A 
ATOM     50  C   UNL A   1      39.669  29.838  31.562  1.00  0.00     0.049 A 
ATOM     51  H   UNL A   1      40.246  30.756  33.341  1.00  0.00     0.167 HD
ATOM     52  C   UNL A   1      41.286  32.684  37.129  1.00  0.00     0.034 A 
ATOM     53  C   UNL A   1      40.597  28.900  31.282  1.00  0.00     0.034 A 
ATOM     54  C   UNL A   1      42.253  31.635  36.967  1.00  0.00     0.049 A 
ATOM     55  C   UNL A   1      41.742  28.681  32.239  1.00  0.00     0.074 A 
ATOM     56  C   UNL A   1      43.285  31.283  37.817  1.00  0.00     0.029 A 
ATOM     57  N   UNL A   1      42.319  30.779  35.878  1.00  0.00    -0.354 N 
ATOM     58  N   UNL A   1      41.967  29.246  33.402  1.00  0.00    -0.248 NA
ATOM     59  C   UNL A   1      42.750  27.676  31.862  1.00  0.00     0.031 C 
ATOM     60  C   UNL A   1      44.001  30.241  37.223  1.00  0.00     0.029 A 
ATOM     61  C   UNL A   1      43.392  29.917  36.020  1.00  0.00     0.049 A 
ATOM     62  H   UNL A   1      41.697  30.786  35.116  1.00  0.00     0.167 HD
ATOM     63  C   UNL A   1      43.121  28.650  33.906  1.00  0.00     0.074 A 
ATOM     64  C   UNL A   1      43.538  27.664  32.931  1.00  0.00     0.031 C 
ATOM     65  C   UNL A   1      43.778  28.907  35.064  1.00  0.00     0.034 A 
BRANCH  52  66
ATOM     66  C   UNL A   1      41.351  33.539  38.366  1.00  0.00     0.023 A 
ATOM     67  C   UNL A   1      40.585  33.185  39.497  1.00  0.00     0.012 A 
ATOM     68  C   UNL A   1      42.195  34.665  38.430  1.00  0.00     0.148 A 
ATOM     69  C   UNL A   1      40.626  33.958  40.655  1.00  0.00     0.002 A 
ATOM     70  C   UNL A   1      42.270  35.401  39.606  1.00  0.00     0.091 A 
ATOM     71  F   UNL A   1      42.898  34.998  37.339  1.00  0.00    -0.205 F 
ATOM     72  C   UNL A   1      41.476  35.059  40.714  1.00  0.00     0.022 A 
BRANCH  70  73
ATOM     73  S   UNL A   1      43.396  36.784  39.814  1.00  0.00     0.127 S 
ATOM     74  O   UNL A   1      42.476  37.858  40.190  1.00  0.00    -0.237 OA
ATOM     75  O   UNL A   1      44.261  36.315  40.896  1.00  0.00    -0.237 OA
ATOM     76  O   UNL A   1      44.063  36.956  38.531  1.00  0.00    -0.744 OA
ENDBRANCH  70  73
ENDBRANCH  52  66
BRANCH  53  77
ATOM     77  C   UNL A   1      40.440  28.049  30.065  1.00  0.00     0.023 A 
ATOM     78  C   UNL A   1      39.423  27.075  30.029  1.00  0.00     0.012 A 
ATOM     79  C   UNL A   1      41.251  28.237  28.928  1.00  0.00     0.148 A 
ATOM     80  C   UNL A   1      39.223  26.297  28.887  1.00  0.00     0.002 A 
ATOM     81  C   UNL A   1      41.010  27.498  27.775  1.00  0.00     0.091 A 
ATOM     82  F   UNL A   1      42.223  29.158  28.988  1.00  0.00    -0.205 F 
ATOM     83  C   UNL A   1      40.006  26.517  27.757  1.00  0.00     0.022 A 
BRANCH  81  84
ATOM     84  S   UNL A   1      41.876  27.797  26.230  1.00  0.00     0.127 S 
ATOM     85  O   UNL A   1      41.444  26.662  25.418  1.00  0.00    -0.237 OA
ATOM     86  O   UNL A   1      41.323  29.091  25.827  1.00  0.00    -0.237 OA
ATOM     87  O   UNL A   1      43.293  27.820  26.566  1.00  0.00    -0.744 OA
ENDBRANCH  81  84
ENDBRANCH  53  77
BRANCH  65  88
ATOM     88  C   UNL A   1      45.032  28.126  35.372  1.00  0.00     0.023 A 
ATOM     89  C   UNL A   1      46.289  28.682  35.066  1.00  0.00     0.012 A 
ATOM     90  C   UNL A   1      44.969  26.922  36.106  1.00  0.00     0.148 A 
ATOM     91  C   UNL A   1      47.463  28.050  35.476  1.00  0.00     0.002 A 
ATOM     92  C   UNL A   1      46.142  26.326  36.557  1.00  0.00     0.091 A 
ATOM     93  F   UNL A   1      43.763  26.405  36.380  1.00  0.00    -0.205 F 
ATOM     94  C   UNL A   1      47.389  26.884  36.234  1.00  0.00     0.022 A 
BRANCH  92  95
ATOM     95  S   UNL A   1      46.150  24.887  37.634  1.00  0.00     0.127 S 
ATOM     96  O   UNL A   1      45.772  23.821  36.709  1.00  0.00    -0.237 OA
ATOM     97  O   UNL A   1      47.544  24.844  38.077  1.00  0.00    -0.237 OA
ATOM     98  O   UNL A   1      45.183  25.164  38.687  1.00  0.00    -0.744 OA
ENDBRANCH  92  95
ENDBRANCH  65  88
ENDBRANCH  39  40
ENDBRANCH  32  34
ENDBRANCH  31  32
ENDBRANCH  30  31
ENDBRANCH  29  30
ENDBRANCH  28  29
ENDBRANCH  27  28
ENDBRANCH   1  27
TORSDOF 24
ENDMDL
MODEL 2
REMARK VINA RESULT:      -9.0      2.762      9.999
REMARK SMILES Cc1c(C)c2c(c(C)c1O)CC[C@@](C)(C(=O)OCCOCCOCCOCCOC(=O)c1ccc(-c3c4nc(c(-c5cccc(S(=O)(=O)[O-])c5F)c5ccc([nH]5)c(-c5cccc(S(=O)(=O)[O-])c5F)c5nc(c(-c6cccc(S(=O)(=O)[O-])c6F)c6ccc3[nH]6)C=C5)C=C4)cc1)O2
REMARK SMILES IDX 24 1 23 2 22 3 21 4 20 5 19 6 18 7 17 8 15 9 16 10 13 11
REMARK SMILES IDX 1 12 2 13 3 14 9 15 4 16 5 17 7 18 6 19 95 20 8 21 11 22
REMARK SMILES IDX 12 23 14 24 10 25 25 27 26 28 27 29 28 30 29 31 30 32 31 33
REMARK SMILES IDX 32 34 33 35 94 36 34 37 93 38 35 39 36 40 37 41 87 42 38 43
REMARK SMILES IDX 92 44 86 45 88 46 39 47 91 48 85 49 84 50 40 52 72 53 52 54
REMARK SMILES IDX 71 55 53 56 56 57 70 58 89 59 54 60 55 61 69 63 90 64 57 65
REMARK SMILES IDX 41 66 42 67 50 68 43 69 45 70 51 71 44 72 46 73 47 74 48 75
REMARK SMILES IDX 49 76 73 77 74 78 82 79 75 80 77 81 83 82 76 83 78 84 79 85
REMARK SMILES IDX 80 86 81 87 58 88 59 89 67 90 60 91 62 92 68 93 61 94 63 95
REMARK SMILES IDX 64 96 65 97 66 98
REMARK H PARENT 10 26 88 51 56 62
REMARK Flexibility Score: inf
ROOT
ATOM      1  C   UNL A   1      40.925  26.082  26.923  1.00  0.00     0.188 C 
ENDROOT
BRANCH   1   2
ATOM      2  O   UNL A   1      39.532  25.792  26.866  1.00  0.00    -0.377 OA
BRANCH   2   3
ATOM      3  C   UNL A   1      39.083  24.584  27.443  1.00  0.00     0.188 C 
BRANCH   3   4
ATOM      4  C   UNL A   1      38.640  23.513  26.442  1.00  0.00     0.188 C 
BRANCH   4   5
ATOM      5  O   UNL A   1      37.283  23.374  26.059  1.00  0.00    -0.376 OA
BRANCH   5   6
ATOM      6  C   UNL A   1      36.854  23.534  24.713  1.00  0.00     0.202 C 
BRANCH   6   7
ATOM      7  C   UNL A   1      35.452  23.159  24.200  1.00  0.00     0.261 C 
BRANCH   7   8
ATOM      8  O   UNL A   1      34.726  24.143  23.445  1.00  0.00    -0.460 OA
BRANCH   8   9
ATOM      9  C   UNL A   1      33.490  23.757  23.046  1.00  0.00     0.350 C 
ATOM     10  O   UNL A   1      33.205  22.588  22.781  1.00  0.00    -0.247 OA
BRANCH   9  11
ATOM     11  C   UNL A   1      32.477  24.907  22.903  1.00  0.00     0.203 C 
ATOM     12  C   UNL A   1      32.093  29.657  26.788  1.00  0.00     0.049 C 
ATOM     13  C   UNL A   1      31.962  28.953  25.461  1.00  0.00    -0.002 A 
ATOM     14  C   UNL A   1      32.647  27.747  25.209  1.00  0.00    -0.002 A 
ATOM     15  C   UNL A   1      31.155  29.488  24.439  1.00  0.00     0.122 A 
ATOM     16  C   UNL A   1      33.610  27.171  26.222  1.00  0.00     0.049 C 
ATOM     17  C   UNL A   1      32.402  27.053  24.004  1.00  0.00     0.127 A 
ATOM     18  C   UNL A   1      30.982  28.837  23.201  1.00  0.00    -0.002 A 
ATOM     19  C   UNL A   1      31.618  27.597  22.980  1.00  0.00     0.001 A 
ATOM     20  O   UNL A   1      32.973  25.816  23.909  1.00  0.00    -0.475 OA
ATOM     21  C   UNL A   1      30.139  29.461  22.115  1.00  0.00     0.049 C 
ATOM     22  C   UNL A   1      31.431  26.839  21.684  1.00  0.00     0.044 C 
ATOM     23  C   UNL A   1      32.366  25.634  21.562  1.00  0.00     0.065 C 
ATOM     24  C   UNL A   1      31.132  24.294  23.319  1.00  0.00     0.069 C 
BRANCH  15  25
ATOM     25  O   UNL A   1      30.495  30.681  24.607  1.00  0.00    -0.507 OA
ATOM     26  H   UNL A   1      29.782  30.740  25.211  1.00  0.00     0.293 HD
ENDBRANCH  15  25
ENDBRANCH   9  11
ENDBRANCH   8   9
ENDBRANCH   7   8
ENDBRANCH   6   7
ENDBRANCH   5   6
ENDBRANCH   4   5
ENDBRANCH   3   4
ENDBRANCH   2   3
ENDBRANCH   1   2
BRANCH   1  27
ATOM     27  C   UNL A   1      41.820  25.676  25.733  1.00  0.00     0.188 C 
BRANCH  27  28
ATOM     28  O   UNL A   1      42.477  24.427  25.899  1.00  0.00    -0.376 OA
BRANCH  28  29
ATOM     29  C   UNL A   1      43.320  23.957  24.856  1.00  0.00     0.202 C 
BRANCH  29  30
ATOM     30  C   UNL A   1      44.834  24.205  24.968  1.00  0.00     0.261 C 
BRANCH  30  31
ATOM     31  O   UNL A   1      45.256  25.329  25.758  1.00  0.00    -0.460 OA
BRANCH  31  32
ATOM     32  C   UNL A   1      45.730  25.106  27.005  1.00  0.00     0.338 C 
ATOM     33  O   UNL A   1      46.753  24.534  27.305  1.00  0.00    -0.246 OA
BRANCH  32  34
ATOM     34  C   UNL A   1      44.883  25.892  27.936  1.00  0.00     0.060 A 
ATOM     35  C   UNL A   1      44.893  27.289  27.833  1.00  0.00     0.016 A 
ATOM     36  C   UNL A   1      44.067  25.261  28.879  1.00  0.00     0.016 A 
ATOM     37  C   UNL A   1      44.106  28.060  28.688  1.00  0.00     0.010 A 
ATOM     38  C   UNL A   1      43.300  26.036  29.757  1.00  0.00     0.010 A 
ATOM     39  C   UNL A   1      43.344  27.440  29.688  1.00  0.00    -0.014 A 
BRANCH  39  40
ATOM     40  C   UNL A   1      42.798  28.276  30.785  1.00  0.00     0.031 A 
ATOM     41  C   UNL A   1      41.437  28.888  30.596  1.00  0.00     0.074 A 
ATOM     42  C   UNL A   1      43.453  28.437  31.948  1.00  0.00     0.049 A 
ATOM     43  N   UNL A   1      40.713  29.578  31.437  1.00  0.00    -0.248 NA
ATOM     44  C   UNL A   1      40.804  28.686  29.281  1.00  0.00     0.031 C 
ATOM     45  C   UNL A   1      44.765  27.879  32.264  1.00  0.00     0.029 A 
ATOM     46  N   UNL A   1      43.094  29.121  33.085  1.00  0.00    -0.354 N 
ATOM     47  C   UNL A   1      39.544  29.893  30.756  1.00  0.00     0.074 A 
ATOM     48  C   UNL A   1      39.671  29.355  29.420  1.00  0.00     0.031 C 
ATOM     49  C   UNL A   1      45.103  28.244  33.514  1.00  0.00     0.029 A 
ATOM     50  C   UNL A   1      44.040  29.073  34.082  1.00  0.00     0.049 A 
ATOM     51  H   UNL A   1      42.239  29.600  33.177  1.00  0.00     0.167 HD
ATOM     52  C   UNL A   1      38.446  30.542  31.208  1.00  0.00     0.034 A 
ATOM     53  C   UNL A   1      44.044  29.633  35.310  1.00  0.00     0.034 A 
ATOM     54  C   UNL A   1      38.319  31.074  32.536  1.00  0.00     0.049 A 
ATOM     55  C   UNL A   1      42.841  30.420  35.770  1.00  0.00     0.074 A 
ATOM     56  C   UNL A   1      37.239  31.730  33.095  1.00  0.00     0.029 A 
ATOM     57  N   UNL A   1      39.308  31.028  33.506  1.00  0.00    -0.354 N 
ATOM     58  N   UNL A   1      41.697  30.613  35.158  1.00  0.00    -0.248 NA
ATOM     59  C   UNL A   1      42.918  31.047  37.100  1.00  0.00     0.031 C 
ATOM     60  C   UNL A   1      37.589  32.117  34.391  1.00  0.00     0.029 A 
ATOM     61  C   UNL A   1      38.874  31.668  34.653  1.00  0.00     0.049 A 
ATOM     62  H   UNL A   1      40.189  30.605  33.394  1.00  0.00     0.167 HD
ATOM     63  C   UNL A   1      40.910  31.356  36.034  1.00  0.00     0.074 A 
ATOM     64  C   UNL A   1      41.700  31.562  37.229  1.00  0.00     0.031 C 
ATOM     65  C   UNL A   1      39.652  31.834  35.857  1.00  0.00     0.034 A 
BRANCH  52  66
ATOM     66  C   UNL A   1      37.284  30.679  30.262  1.00  0.00     0.023 A 
ATOM     67  C   UNL A   1      36.747  29.528  29.647  1.00  0.00     0.012 A 
ATOM     68  C   UNL A   1      36.694  31.934  30.011  1.00  0.00     0.148 A 
ATOM     69  C   UNL A   1      35.671  29.627  28.768  1.00  0.00     0.002 A 
ATOM     70  C   UNL A   1      35.588  32.017  29.172  1.00  0.00     0.091 A 
ATOM     71  F   UNL A   1      37.231  33.018  30.586  1.00  0.00    -0.205 F 
ATOM     72  C   UNL A   1      35.085  30.868  28.540  1.00  0.00     0.022 A 
BRANCH  70  73
ATOM     73  S   UNL A   1      34.708  33.554  28.879  1.00  0.00     0.127 S 
ATOM     74  O   UNL A   1      34.072  33.781  30.177  1.00  0.00    -0.237 OA
ATOM     75  O   UNL A   1      35.800  34.477  28.566  1.00  0.00    -0.237 OA
ATOM     76  O   UNL A   1      33.796  33.292  27.775  1.00  0.00    -0.744 OA
ENDBRANCH  70  73
ENDBRANCH  52  66
BRANCH  53  77
ATOM     77  C   UNL A   1      45.207  29.408  36.218  1.00  0.00     0.023 A 
ATOM     78  C   UNL A   1      46.356  30.211  36.082  1.00  0.00     0.012 A 
ATOM     79  C   UNL A   1      45.160  28.447  37.247  1.00  0.00     0.148 A 
ATOM     80  C   UNL A   1      47.441  30.054  36.947  1.00  0.00     0.002 A 
ATOM     81  C   UNL A   1      46.220  28.334  38.139  1.00  0.00     0.091 A 
ATOM     82  F   UNL A   1      44.063  27.683  37.351  1.00  0.00    -0.205 F 
ATOM     83  C   UNL A   1      47.368  29.127  37.982  1.00  0.00     0.022 A 
BRANCH  81  84
ATOM     84  S   UNL A   1      46.168  27.264  39.581  1.00  0.00     0.127 S 
ATOM     85  O   UNL A   1      47.556  27.303  40.036  1.00  0.00    -0.237 OA
ATOM     86  O   UNL A   1      45.217  27.970  40.440  1.00  0.00    -0.237 OA
ATOM     87  O   UNL A   1      45.706  25.969  39.099  1.00  0.00    -0.744 OA
ENDBRANCH  81  84
ENDBRANCH  53  77
BRANCH  65  88
ATOM     88  C   UNL A   1      39.021  32.637  36.967  1.00  0.00     0.023 A 
ATOM     89  C   UNL A   1      38.100  32.018  37.834  1.00  0.00     0.012 A 
ATOM     90  C   UNL A   1      39.460  33.949  37.248  1.00  0.00     0.148 A 
ATOM     91  C   UNL A   1      37.618  32.692  38.956  1.00  0.00     0.002 A 
ATOM     92  C   UNL A   1      39.016  34.594  38.397  1.00  0.00     0.091 A 
ATOM     93  F   UNL A   1      40.331  34.523  36.406  1.00  0.00    -0.205 F 
ATOM     94  C   UNL A   1      38.088  33.971  39.246  1.00  0.00     0.022 A 
BRANCH  92  95
ATOM     95  S   UNL A   1      39.646  36.195  38.918  1.00  0.00     0.127 S 
ATOM     96  O   UNL A   1      39.744  36.906  37.645  1.00  0.00    -0.237 OA
ATOM     97  O   UNL A   1      38.582  36.670  39.803  1.00  0.00    -0.237 OA
ATOM     98  O   UNL A   1      40.917  35.934  39.579  1.00  0.00    -0.744 OA
ENDBRANCH  92  95
ENDBRANCH  65  88
ENDBRANCH  39  40
ENDBRANCH  32  34
ENDBRANCH  31  32
ENDBRANCH  30  31
ENDBRANCH  29  30
ENDBRANCH  28  29
ENDBRANCH  27  28
ENDBRANCH   1  27
TORSDOF 24
ENDMDL
MODEL 3
REMARK VINA RESULT:      -8.9      1.535      7.510
REMARK SMILES Cc1c(C)c2c(c(C)c1O)CC[C@@](C)(C(=O)OCCOCCOCCOCCOC(=O)c1ccc(-c3c4nc(c(-c5cccc(S(=O)(=O)[O-])c5F)c5ccc([nH]5)c(-c5cccc(S(=O)(=O)[O-])c5F)c5nc(c(-c6cccc(S(=O)(=O)[O-])c6F)c6ccc3[nH]6)C=C5)C=C4)cc1)O2
REMARK SMILES IDX 24 1 23 2 22 3 21 4 20 5 19 6 18 7 17 8 15 9 16 10 13 11
REMARK SMILES IDX 1 12 2 13 3 14 9 15 4 16 5 17 7 18 6 19 95 20 8 21 11 22
REMARK SMILES IDX 12 23 14 24 10 25 25 27 26 28 27 29 28 30 29 31 30 32 31 33
REMARK SMILES IDX 32 34 33 35 94 36 34 37 93 38 35 39 36 40 37 41 87 42 38 43
REMARK SMILES IDX 92 44 86 45 88 46 39 47 91 48 85 49 84 50 40 52 72 53 52 54
REMARK SMILES IDX 71 55 53 56 56 57 70 58 89 59 54 60 55 61 69 63 90 64 57 65
REMARK SMILES IDX 41 66 42 67 50 68 43 69 45 70 51 71 44 72 46 73 47 74 48 75
REMARK SMILES IDX 49 76 73 77 74 78 82 79 75 80 77 81 83 82 76 83 78 84 79 85
REMARK SMILES IDX 80 86 81 87 58 88 59 89 67 90 60 91 62 92 68 93 61 94 63 95
REMARK SMILES IDX 64 96 65 97 66 98
REMARK H PARENT 10 26 88 51 56 62
REMARK Flexibility Score: inf
ROOT
ATOM      1  C   UNL A   1      35.772  31.755  28.362  1.00  0.00     0.188 C 
ENDROOT
BRANCH   1   2
ATOM      2  O   UNL A   1      35.317  30.965  27.267  1.00  0.00    -0.377 OA
BRANCH   2   3
ATOM      3  C   UNL A   1      33.999  30.460  27.318  1.00  0.00     0.188 C 
BRANCH   3   4
ATOM      4  C   UNL A   1      33.701  29.327  26.331  1.00  0.00     0.188 C 
BRANCH   4   5
ATOM      5  O   UNL A   1      34.058  27.986  26.614  1.00  0.00    -0.376 OA
BRANCH   5   6
ATOM      6  C   UNL A   1      33.394  26.881  26.013  1.00  0.00     0.202 C 
BRANCH   6   7
ATOM      7  C   UNL A   1      31.920  26.515  26.261  1.00  0.00     0.261 C 
BRANCH   7   8
ATOM      8  O   UNL A   1      31.475  25.207  25.865  1.00  0.00    -0.460 OA
BRANCH   8   9
ATOM      9  C   UNL A   1      31.650  24.920  24.552  1.00  0.00     0.350 C 
ATOM     10  O   UNL A   1      31.378  25.713  23.650  1.00  0.00    -0.247 OA
BRANCH   9  11
ATOM     11  C   UNL A   1      32.172  23.499  24.274  1.00  0.00     0.203 C 
ATOM     12  C   UNL A   1      37.940  21.676  25.374  1.00  0.00     0.049 C 
ATOM     13  C   UNL A   1      36.451  21.502  25.215  1.00  0.00    -0.002 A 
ATOM     14  C   UNL A   1      35.580  22.611  25.275  1.00  0.00    -0.002 A 
ATOM     15  C   UNL A   1      35.892  20.226  25.009  1.00  0.00     0.122 A 
ATOM     16  C   UNL A   1      36.100  23.994  25.595  1.00  0.00     0.049 C 
ATOM     17  C   UNL A   1      34.208  22.427  24.997  1.00  0.00     0.127 A 
ATOM     18  C   UNL A   1      34.509  20.034  24.821  1.00  0.00    -0.002 A 
ATOM     19  C   UNL A   1      33.652  21.155  24.816  1.00  0.00     0.001 A 
ATOM     20  O   UNL A   1      33.466  23.569  24.910  1.00  0.00    -0.475 OA
ATOM     21  C   UNL A   1      33.943  18.646  24.641  1.00  0.00     0.049 C 
ATOM     22  C   UNL A   1      32.165  21.006  24.577  1.00  0.00     0.044 C 
ATOM     23  C   UNL A   1      31.392  22.303  24.821  1.00  0.00     0.065 C 
ATOM     24  C   UNL A   1      32.305  23.427  22.746  1.00  0.00     0.069 C 
BRANCH  15  25
ATOM     25  O   UNL A   1      36.681  19.103  24.984  1.00  0.00    -0.507 OA
ATOM     26  H   UNL A   1      37.198  18.877  25.731  1.00  0.00     0.293 HD
ENDBRANCH  15  25
ENDBRANCH   9  11
ENDBRANCH   8   9
ENDBRANCH   7   8
ENDBRANCH   6   7
ENDBRANCH   5   6
ENDBRANCH   4   5
ENDBRANCH   3   4
ENDBRANCH   2   3
ENDBRANCH   1   2
BRANCH   1  27
ATOM     27  C   UNL A   1      35.932  33.277  28.167  1.00  0.00     0.188 C 
BRANCH  27  28
ATOM     28  O   UNL A   1      34.795  33.915  27.601  1.00  0.00    -0.376 OA
BRANCH  28  29
ATOM     29  C   UNL A   1      34.506  35.253  27.981  1.00  0.00     0.202 C 
BRANCH  29  30
ATOM     30  C   UNL A   1      33.500  35.492  29.121  1.00  0.00     0.261 C 
BRANCH  30  31
ATOM     31  O   UNL A   1      33.473  34.523  30.181  1.00  0.00    -0.460 OA
BRANCH  31  32
ATOM     32  C   UNL A   1      33.275  34.952  31.449  1.00  0.00     0.338 C 
ATOM     33  O   UNL A   1      32.284  35.486  31.892  1.00  0.00    -0.246 OA
BRANCH  32  34
ATOM     34  C   UNL A   1      34.409  34.441  32.259  1.00  0.00     0.060 A 
ATOM     35  C   UNL A   1      35.489  35.295  32.515  1.00  0.00     0.016 A 
ATOM     36  C   UNL A   1      34.395  33.146  32.785  1.00  0.00     0.016 A 
ATOM     37  C   UNL A   1      36.569  34.850  33.276  1.00  0.00     0.010 A 
ATOM     38  C   UNL A   1      35.493  32.690  33.524  1.00  0.00     0.010 A 
ATOM     39  C   UNL A   1      36.600  33.529  33.742  1.00  0.00    -0.014 A 
BRANCH  39  40
ATOM     40  C   UNL A   1      37.886  32.982  34.242  1.00  0.00     0.031 A 
ATOM     41  C   UNL A   1      38.763  32.243  33.270  1.00  0.00     0.074 A 
ATOM     42  C   UNL A   1      38.303  33.190  35.503  1.00  0.00     0.049 A 
ATOM     43  N   UNL A   1      39.962  31.754  33.440  1.00  0.00    -0.248 NA
ATOM     44  C   UNL A   1      38.215  32.037  31.918  1.00  0.00     0.031 C 
ATOM     45  C   UNL A   1      37.557  33.907  36.534  1.00  0.00     0.029 A 
ATOM     46  N   UNL A   1      39.467  32.812  36.129  1.00  0.00    -0.354 N 
ATOM     47  C   UNL A   1      40.312  31.182  32.224  1.00  0.00     0.074 A 
ATOM     48  C   UNL A   1      39.183  31.347  31.335  1.00  0.00     0.031 C 
ATOM     49  C   UNL A   1      38.284  33.918  37.666  1.00  0.00     0.029 A 
ATOM     50  C   UNL A   1      39.537  33.196  37.447  1.00  0.00     0.049 A 
ATOM     51  H   UNL A   1      40.184  32.313  35.675  1.00  0.00     0.167 HD
ATOM     52  C   UNL A   1      41.478  30.599  31.862  1.00  0.00     0.034 A 
ATOM     53  C   UNL A   1      40.503  32.989  38.368  1.00  0.00     0.034 A 
ATOM     54  C   UNL A   1      42.600  30.436  32.744  1.00  0.00     0.049 A 
ATOM     55  C   UNL A   1      41.766  32.269  37.967  1.00  0.00     0.074 A 
ATOM     56  C   UNL A   1      43.833  29.877  32.466  1.00  0.00     0.029 A 
ATOM     57  N   UNL A   1      42.621  30.814  34.077  1.00  0.00    -0.354 N 
ATOM     58  N   UNL A   1      42.130  31.834  36.784  1.00  0.00    -0.248 NA
ATOM     59  C   UNL A   1      42.766  32.031  39.022  1.00  0.00     0.031 C 
ATOM     60  C   UNL A   1      44.586  29.880  33.642  1.00  0.00     0.029 A 
ATOM     61  C   UNL A   1      43.837  30.477  34.644  1.00  0.00     0.049 A 
ATOM     62  H   UNL A   1      41.880  31.256  34.551  1.00  0.00     0.167 HD
ATOM     63  C   UNL A   1      43.405  31.298  36.943  1.00  0.00     0.074 A 
ATOM     64  C   UNL A   1      43.761  31.481  38.335  1.00  0.00     0.031 C 
ATOM     65  C   UNL A   1      44.202  30.699  36.023  1.00  0.00     0.034 A 
BRANCH  52  66
ATOM     66  C   UNL A   1      41.605  30.127  30.439  1.00  0.00     0.023 A 
ATOM     67  C   UNL A   1      42.351  30.890  29.516  1.00  0.00     0.012 A 
ATOM     68  C   UNL A   1      41.027  28.912  30.021  1.00  0.00     0.148 A 
ATOM     69  C   UNL A   1      42.485  30.476  28.193  1.00  0.00     0.002 A 
ATOM     70  C   UNL A   1      41.208  28.480  28.712  1.00  0.00     0.091 A 
ATOM     71  F   UNL A   1      40.303  28.211  30.904  1.00  0.00    -0.205 F 
ATOM     72  C   UNL A   1      41.924  29.266  27.794  1.00  0.00     0.022 A 
BRANCH  70  73
ATOM     73  S   UNL A   1      40.599  26.898  28.121  1.00  0.00     0.127 S 
ATOM     74  O   UNL A   1      41.359  25.962  28.950  1.00  0.00    -0.237 OA
ATOM     75  O   UNL A   1      39.174  26.978  28.443  1.00  0.00    -0.237 OA
ATOM     76  O   UNL A   1      40.901  26.857  26.697  1.00  0.00    -0.744 OA
ENDBRANCH  70  73
ENDBRANCH  52  66
BRANCH  53  77
ATOM     77  C   UNL A   1      40.334  33.536  39.747  1.00  0.00     0.023 A 
ATOM     78  C   UNL A   1      39.795  32.714  40.755  1.00  0.00     0.012 A 
ATOM     79  C   UNL A   1      40.755  34.840  40.076  1.00  0.00     0.148 A 
ATOM     80  C   UNL A   1      39.669  33.182  42.064  1.00  0.00     0.002 A 
ATOM     81  C   UNL A   1      40.679  35.281  41.392  1.00  0.00     0.091 A 
ATOM     82  F   UNL A   1      41.251  35.611  39.099  1.00  0.00    -0.205 F 
ATOM     83  C   UNL A   1      40.123  34.459  42.385  1.00  0.00     0.022 A 
BRANCH  81  84
ATOM     84  S   UNL A   1      41.354  36.856  41.931  1.00  0.00     0.127 S 
ATOM     85  O   UNL A   1      42.753  36.738  41.525  1.00  0.00    -0.237 OA
ATOM     86  O   UNL A   1      40.561  37.802  41.145  1.00  0.00    -0.237 OA
ATOM     87  O   UNL A   1      41.125  36.917  43.368  1.00  0.00    -0.744 OA
ENDBRANCH  81  84
ENDBRANCH  53  77
BRANCH  65  88
ATOM     88  C   UNL A   1      45.549  30.180  36.460  1.00  0.00     0.023 A 
ATOM     89  C   UNL A   1      46.668  31.034  36.419  1.00  0.00     0.012 A 
ATOM     90  C   UNL A   1      45.672  28.909  37.059  1.00  0.00     0.148 A 
ATOM     91  C   UNL A   1      47.889  30.630  36.958  1.00  0.00     0.002 A 
ATOM     92  C   UNL A   1      46.878  28.533  37.641  1.00  0.00     0.091 A 
ATOM     93  F   UNL A   1      44.597  28.107  37.082  1.00  0.00    -0.205 F 
ATOM     94  C   UNL A   1      47.990  29.389  37.582  1.00  0.00     0.022 A 
BRANCH  92  95
ATOM     95  S   UNL A   1      47.078  27.006  38.568  1.00  0.00     0.127 S 
ATOM     96  O   UNL A   1      46.011  27.118  39.560  1.00  0.00    -0.237 OA
ATOM     97  O   UNL A   1      46.850  25.991  37.539  1.00  0.00    -0.237 OA
ATOM     98  O   UNL A   1      48.430  27.034  39.108  1.00  0.00    -0.744 OA
ENDBRANCH  92  95
ENDBRANCH  65  88
ENDBRANCH  39  40
ENDBRANCH  32  34
ENDBRANCH  31  32
ENDBRANCH  30  31
ENDBRANCH  29  30
ENDBRANCH  28  29
ENDBRANCH  27  28
ENDBRANCH   1  27
TORSDOF 24
ENDMDL
