MODEL 1
REMARK VINA RESULT:      -9.9      0.000      0.000
REMARK SMILES C/C(C(=O)OCCOCCOCCOCCOC(=O)c1ccc(-c2c3nc(c(-c4cccc(S(=O)(=O)[O-])c4F)c4ccc([nH]4)c(-c4cccc(S(=O)(=O)[O-])c4F)c4nc(c(-c5cccc(S(=O)(=O)[O-])c5F)c5ccc2[nH]5)C=C4)C=C3)cc1)=C(\C)c1ccc(C)c(F)c1
REMARK SMILES IDX 12 1 11 2 10 3 9 4 8 5 7 6 6 7 5 8 3 9 4 10 2 11 1 12 83 13
REMARK SMILES IDX 84 14 85 15 86 16 92 17 87 18 90 19 88 20 91 21 89 22 13 23
REMARK SMILES IDX 14 24 15 25 16 26 17 27 18 28 19 29 20 30 21 31 82 32 22 33
REMARK SMILES IDX 81 34 23 35 24 36 25 37 75 38 26 39 80 40 74 41 76 42 27 43
REMARK SMILES IDX 79 44 73 45 72 46 28 48 60 49 40 50 59 51 41 52 44 53 58 54
REMARK SMILES IDX 77 55 42 56 43 57 57 59 78 60 45 61 29 62 30 63 38 64 31 65
REMARK SMILES IDX 33 66 39 67 32 68 34 69 35 70 36 71 37 72 61 73 62 74 70 75
REMARK SMILES IDX 63 76 65 77 71 78 64 79 66 80 67 81 68 82 69 83 46 84 47 85
REMARK SMILES IDX 55 86 48 87 50 88 56 89 49 90 51 91 52 92 53 93 54 94
REMARK H PARENT 76 47 44 58
REMARK Flexibility Score: inf
ROOT
ATOM      1  C   UNL A   1      35.961  22.396  24.108  1.00  0.00     0.188 C 
ENDROOT
BRANCH   1   2
ATOM      2  O   UNL A   1      34.988  23.320  23.643  1.00  0.00    -0.377 OA
BRANCH   2   3
ATOM      3  C   UNL A   1      33.995  22.872  22.729  1.00  0.00     0.188 C 
BRANCH   3   4
ATOM      4  C   UNL A   1      33.026  23.882  22.067  1.00  0.00     0.188 C 
BRANCH   4   5
ATOM      5  O   UNL A   1      33.677  25.006  21.507  1.00  0.00    -0.376 OA
BRANCH   5   6
ATOM      6  C   UNL A   1      33.352  26.281  22.016  1.00  0.00     0.202 C 
BRANCH   6   7
ATOM      7  C   UNL A   1      31.898  26.573  22.412  1.00  0.00     0.261 C 
BRANCH   7   8
ATOM      8  O   UNL A   1      31.629  27.888  22.918  1.00  0.00    -0.460 OA
BRANCH   8   9
ATOM      9  C   UNL A   1      30.597  28.084  23.773  1.00  0.00     0.334 C 
ATOM     10  O   UNL A   1      29.448  27.712  23.609  1.00  0.00    -0.247 OA
BRANCH   9  11
ATOM     11  C   UNL A   1      31.111  28.821  24.980  1.00  0.00     0.038 C 
ATOM     12  C   UNL A   1      31.051  30.328  24.869  1.00  0.00     0.052 C 
ATOM     13  C   UNL A   1      31.669  28.193  26.049  1.00  0.00    -0.034 C 
ATOM     14  C   UNL A   1      32.111  28.905  27.307  1.00  0.00     0.045 C 
BRANCH  13  15
ATOM     15  C   UNL A   1      32.008  26.752  26.080  1.00  0.00    -0.019 A 
ATOM     16  C   UNL A   1      33.295  26.283  25.806  1.00  0.00     0.009 A 
ATOM     17  C   UNL A   1      31.001  25.819  26.355  1.00  0.00     0.048 A 
ATOM     18  C   UNL A   1      33.585  24.913  25.897  1.00  0.00     0.007 A 
ATOM     19  C   UNL A   1      31.305  24.468  26.487  1.00  0.00     0.126 A 
ATOM     20  C   UNL A   1      32.601  23.999  26.295  1.00  0.00    -0.015 A 
ATOM     21  F   UNL A   1      30.325  23.617  26.828  1.00  0.00    -0.207 F 
ATOM     22  C   UNL A   1      32.916  22.546  26.481  1.00  0.00     0.047 C 
ENDBRANCH  13  15
ENDBRANCH   9  11
ENDBRANCH   8   9
ENDBRANCH   7   8
ENDBRANCH   6   7
ENDBRANCH   5   6
ENDBRANCH   4   5
ENDBRANCH   3   4
ENDBRANCH   2   3
ENDBRANCH   1   2
BRANCH   1  23
ATOM     23  C   UNL A   1      36.485  22.536  25.555  1.00  0.00     0.188 C 
BRANCH  23  24
ATOM     24  O   UNL A   1      37.566  21.674  25.876  1.00  0.00    -0.376 OA
BRANCH  24  25
ATOM     25  C   UNL A   1      37.769  20.523  25.076  1.00  0.00     0.202 C 
BRANCH  25  26
ATOM     26  C   UNL A   1      38.916  19.573  25.452  1.00  0.00     0.261 C 
BRANCH  26  27
ATOM     27  O   UNL A   1      40.220  20.162  25.562  1.00  0.00    -0.460 OA
BRANCH  27  28
ATOM     28  C   UNL A   1      40.789  20.181  26.786  1.00  0.00     0.338 C 
ATOM     29  O   UNL A   1      41.216  19.223  27.412  1.00  0.00    -0.246 OA
BRANCH  28  30
ATOM     30  C   UNL A   1      41.013  21.595  27.150  1.00  0.00     0.060 A 
ATOM     31  C   UNL A   1      40.597  22.593  26.258  1.00  0.00     0.016 A 
ATOM     32  C   UNL A   1      41.594  21.935  28.375  1.00  0.00     0.016 A 
ATOM     33  C   UNL A   1      40.807  23.934  26.567  1.00  0.00     0.010 A 
ATOM     34  C   UNL A   1      41.832  23.280  28.670  1.00  0.00     0.010 A 
ATOM     35  C   UNL A   1      41.484  24.279  27.743  1.00  0.00    -0.014 A 
BRANCH  35  36
ATOM     36  C   UNL A   1      42.054  25.642  27.848  1.00  0.00     0.031 A 
ATOM     37  C   UNL A   1      41.206  26.706  28.492  1.00  0.00     0.074 A 
ATOM     38  C   UNL A   1      43.310  25.915  27.457  1.00  0.00     0.049 A 
ATOM     39  N   UNL A   1      41.499  27.950  28.763  1.00  0.00    -0.248 NA
ATOM     40  C   UNL A   1      39.842  26.311  28.887  1.00  0.00     0.031 C 
ATOM     41  C   UNL A   1      44.232  24.965  26.839  1.00  0.00     0.029 A 
ATOM     42  N   UNL A   1      44.021  27.086  27.520  1.00  0.00    -0.354 N 
ATOM     43  C   UNL A   1      40.354  28.490  29.339  1.00  0.00     0.074 A 
ATOM     44  C   UNL A   1      39.354  27.447  29.357  1.00  0.00     0.031 C 
ATOM     45  C   UNL A   1      45.387  25.598  26.563  1.00  0.00     0.029 A 
ATOM     46  C   UNL A   1      45.277  26.999  26.971  1.00  0.00     0.049 A 
ATOM     47  H   UNL A   1      43.666  27.912  27.922  1.00  0.00     0.167 HD
ATOM     48  C   UNL A   1      40.156  29.736  29.826  1.00  0.00     0.034 A 
ATOM     49  C   UNL A   1      46.223  27.946  26.809  1.00  0.00     0.034 A 
ATOM     50  C   UNL A   1      41.153  30.770  29.812  1.00  0.00     0.049 A 
ATOM     51  C   UNL A   1      45.967  29.336  27.335  1.00  0.00     0.074 A 
ATOM     52  C   UNL A   1      41.062  32.060  30.303  1.00  0.00     0.029 A 
ATOM     53  N   UNL A   1      42.420  30.637  29.266  1.00  0.00    -0.354 N 
ATOM     54  N   UNL A   1      44.917  29.805  27.966  1.00  0.00    -0.248 NA
ATOM     55  C   UNL A   1      47.049  30.318  27.165  1.00  0.00     0.031 C 
ATOM     56  C   UNL A   1      42.262  32.719  30.019  1.00  0.00     0.029 A 
ATOM     57  C   UNL A   1      43.119  31.824  29.399  1.00  0.00     0.049 A 
ATOM     58  H   UNL A   1      42.770  29.820  28.844  1.00  0.00     0.167 HD
ATOM     59  C   UNL A   1      45.231  31.116  28.312  1.00  0.00     0.074 A 
ATOM     60  C   UNL A   1      46.575  31.360  27.834  1.00  0.00     0.031 C 
ATOM     61  C   UNL A   1      44.475  32.035  28.963  1.00  0.00     0.034 A 
BRANCH  48  62
ATOM     62  C   UNL A   1      38.805  30.043  30.418  1.00  0.00     0.023 A 
ATOM     63  C   UNL A   1      38.502  29.633  31.733  1.00  0.00     0.012 A 
ATOM     64  C   UNL A   1      37.847  30.765  29.680  1.00  0.00     0.148 A 
ATOM     65  C   UNL A   1      37.253  29.905  32.291  1.00  0.00     0.002 A 
ATOM     66  C   UNL A   1      36.625  31.077  30.262  1.00  0.00     0.091 A 
ATOM     67  F   UNL A   1      38.145  31.122  28.423  1.00  0.00    -0.205 F 
ATOM     68  C   UNL A   1      36.320  30.636  31.560  1.00  0.00     0.022 A 
BRANCH  66  69
ATOM     69  S   UNL A   1      35.391  32.084  29.434  1.00  0.00     0.127 S 
ATOM     70  O   UNL A   1      36.199  33.201  28.945  1.00  0.00    -0.237 OA
ATOM     71  O   UNL A   1      34.907  31.179  28.392  1.00  0.00    -0.237 OA
ATOM     72  O   UNL A   1      34.404  32.428  30.449  1.00  0.00    -0.744 OA
ENDBRANCH  66  69
ENDBRANCH  48  62
BRANCH  49  73
ATOM     73  C   UNL A   1      47.518  27.609  26.151  1.00  0.00     0.023 A 
ATOM     74  C   UNL A   1      48.617  27.202  26.932  1.00  0.00     0.012 A 
ATOM     75  C   UNL A   1      47.665  27.701  24.754  1.00  0.00     0.148 A 
ATOM     76  C   UNL A   1      49.851  26.931  26.338  1.00  0.00     0.002 A 
ATOM     77  C   UNL A   1      48.880  27.374  24.163  1.00  0.00     0.091 A 
ATOM     78  F   UNL A   1      46.612  28.103  24.030  1.00  0.00    -0.205 F 
ATOM     79  C   UNL A   1      49.980  27.009  24.954  1.00  0.00     0.022 A 
BRANCH  77  80
ATOM     80  S   UNL A   1      49.105  27.328  22.382  1.00  0.00     0.127 S 
ATOM     81  O   UNL A   1      50.560  27.287  22.265  1.00  0.00    -0.237 OA
ATOM     82  O   UNL A   1      48.421  26.083  22.027  1.00  0.00    -0.237 OA
ATOM     83  O   UNL A   1      48.465  28.532  21.870  1.00  0.00    -0.744 OA
ENDBRANCH  77  80
ENDBRANCH  49  73
BRANCH  61  84
ATOM     84  C   UNL A   1      45.106  33.373  29.263  1.00  0.00     0.023 A 
ATOM     85  C   UNL A   1      45.832  33.571  30.454  1.00  0.00     0.012 A 
ATOM     86  C   UNL A   1      45.016  34.426  28.329  1.00  0.00     0.148 A 
ATOM     87  C   UNL A   1      46.410  34.809  30.735  1.00  0.00     0.002 A 
ATOM     88  C   UNL A   1      45.644  35.637  28.589  1.00  0.00     0.091 A 
ATOM     89  F   UNL A   1      44.309  34.227  27.206  1.00  0.00    -0.205 F 
ATOM     90  C   UNL A   1      46.325  35.837  29.800  1.00  0.00     0.022 A 
BRANCH  88  91
ATOM     91  S   UNL A   1      45.673  36.978  27.394  1.00  0.00     0.127 S 
ATOM     92  O   UNL A   1      46.351  38.032  28.147  1.00  0.00    -0.237 OA
ATOM     93  O   UNL A   1      46.461  36.404  26.303  1.00  0.00    -0.237 OA
ATOM     94  O   UNL A   1      44.281  37.244  27.057  1.00  0.00    -0.744 OA
ENDBRANCH  88  91
ENDBRANCH  61  84
ENDBRANCH  35  36
ENDBRANCH  28  30
ENDBRANCH  27  28
ENDBRANCH  26  27
ENDBRANCH  25  26
ENDBRANCH  24  25
ENDBRANCH  23  24
ENDBRANCH   1  23
TORSDOF 24
ENDMDL
MODEL 2
REMARK VINA RESULT:      -9.8      1.373      2.508
REMARK SMILES C/C(C(=O)OCCOCCOCCOCCOC(=O)c1ccc(-c2c3nc(c(-c4cccc(S(=O)(=O)[O-])c4F)c4ccc([nH]4)c(-c4cccc(S(=O)(=O)[O-])c4F)c4nc(c(-c5cccc(S(=O)(=O)[O-])c5F)c5ccc2[nH]5)C=C4)C=C3)cc1)=C(\C)c1ccc(C)c(F)c1
REMARK SMILES IDX 12 1 11 2 10 3 9 4 8 5 7 6 6 7 5 8 3 9 4 10 2 11 1 12 83 13
REMARK SMILES IDX 84 14 85 15 86 16 92 17 87 18 90 19 88 20 91 21 89 22 13 23
REMARK SMILES IDX 14 24 15 25 16 26 17 27 18 28 19 29 20 30 21 31 82 32 22 33
REMARK SMILES IDX 81 34 23 35 24 36 25 37 75 38 26 39 80 40 74 41 76 42 27 43
REMARK SMILES IDX 79 44 73 45 72 46 28 48 60 49 40 50 59 51 41 52 44 53 58 54
REMARK SMILES IDX 77 55 42 56 43 57 57 59 78 60 45 61 29 62 30 63 38 64 31 65
REMARK SMILES IDX 33 66 39 67 32 68 34 69 35 70 36 71 37 72 61 73 62 74 70 75
REMARK SMILES IDX 63 76 65 77 71 78 64 79 66 80 67 81 68 82 69 83 46 84 47 85
REMARK SMILES IDX 55 86 48 87 50 88 56 89 49 90 51 91 52 92 53 93 54 94
REMARK H PARENT 76 47 44 58
REMARK Flexibility Score: inf
ROOT
ATOM      1  C   UNL A   1      35.593  22.224  24.110  1.00  0.00     0.188 C 
ENDROOT
BRANCH   1   2
ATOM      2  O   UNL A   1      34.307  22.733  23.785  1.00  0.00    -0.377 OA
BRANCH   2   3
ATOM      3  C   UNL A   1      33.179  21.876  23.900  1.00  0.00     0.188 C 
BRANCH   3   4
ATOM      4  C   UNL A   1      31.797  22.449  24.303  1.00  0.00     0.188 C 
BRANCH   4   5
ATOM      5  O   UNL A   1      31.205  23.254  23.301  1.00  0.00    -0.376 OA
BRANCH   5   6
ATOM      6  C   UNL A   1      30.622  24.477  23.694  1.00  0.00     0.202 C 
BRANCH   6   7
ATOM      7  C   UNL A   1      30.627  24.858  25.181  1.00  0.00     0.261 C 
BRANCH   7   8
ATOM      8  O   UNL A   1      30.373  26.237  25.485  1.00  0.00    -0.460 OA
BRANCH   8   9
ATOM      9  C   UNL A   1      31.261  26.937  26.230  1.00  0.00     0.334 C 
ATOM     10  O   UNL A   1      31.139  27.226  27.408  1.00  0.00    -0.247 OA
BRANCH   9  11
ATOM     11  C   UNL A   1      32.442  27.283  25.364  1.00  0.00     0.038 C 
ATOM     12  C   UNL A   1      33.729  26.592  25.753  1.00  0.00     0.052 C 
ATOM     13  C   UNL A   1      32.384  28.207  24.368  1.00  0.00    -0.034 C 
ATOM     14  C   UNL A   1      33.531  28.506  23.431  1.00  0.00     0.045 C 
BRANCH  13  15
ATOM     15  C   UNL A   1      31.232  29.108  24.140  1.00  0.00    -0.019 A 
ATOM     16  C   UNL A   1      31.042  30.277  24.879  1.00  0.00     0.009 A 
ATOM     17  C   UNL A   1      30.276  28.763  23.177  1.00  0.00     0.048 A 
ATOM     18  C   UNL A   1      29.964  31.130  24.594  1.00  0.00     0.007 A 
ATOM     19  C   UNL A   1      29.235  29.634  22.869  1.00  0.00     0.126 A 
ATOM     20  C   UNL A   1      29.082  30.841  23.545  1.00  0.00    -0.015 A 
ATOM     21  F   UNL A   1      28.386  29.301  21.886  1.00  0.00    -0.207 F 
ATOM     22  C   UNL A   1      27.979  31.783  23.172  1.00  0.00     0.047 C 
ENDBRANCH  13  15
ENDBRANCH   9  11
ENDBRANCH   8   9
ENDBRANCH   7   8
ENDBRANCH   6   7
ENDBRANCH   5   6
ENDBRANCH   4   5
ENDBRANCH   3   4
ENDBRANCH   2   3
ENDBRANCH   1   2
BRANCH   1  23
ATOM     23  C   UNL A   1      36.113  22.388  25.555  1.00  0.00     0.188 C 
BRANCH  23  24
ATOM     24  O   UNL A   1      37.281  21.637  25.849  1.00  0.00    -0.376 OA
BRANCH  24  25
ATOM     25  C   UNL A   1      37.605  20.542  25.012  1.00  0.00     0.202 C 
BRANCH  25  26
ATOM     26  C   UNL A   1      38.785  19.645  25.418  1.00  0.00     0.261 C 
BRANCH  26  27
ATOM     27  O   UNL A   1      40.057  20.292  25.560  1.00  0.00    -0.460 OA
BRANCH  27  28
ATOM     28  C   UNL A   1      40.620  20.289  26.786  1.00  0.00     0.338 C 
ATOM     29  O   UNL A   1      41.006  19.314  27.415  1.00  0.00    -0.246 OA
BRANCH  28  30
ATOM     30  C   UNL A   1      40.897  21.693  27.153  1.00  0.00     0.060 A 
ATOM     31  C   UNL A   1      40.413  22.713  26.323  1.00  0.00     0.016 A 
ATOM     32  C   UNL A   1      41.597  22.002  28.323  1.00  0.00     0.016 A 
ATOM     33  C   UNL A   1      40.670  24.044  26.634  1.00  0.00     0.010 A 
ATOM     34  C   UNL A   1      41.881  23.338  28.618  1.00  0.00     0.010 A 
ATOM     35  C   UNL A   1      41.460  24.358  27.746  1.00  0.00    -0.014 A 
BRANCH  35  36
ATOM     36  C   UNL A   1      42.056  25.712  27.821  1.00  0.00     0.031 A 
ATOM     37  C   UNL A   1      41.280  26.779  28.547  1.00  0.00     0.074 A 
ATOM     38  C   UNL A   1      43.280  25.974  27.329  1.00  0.00     0.049 A 
ATOM     39  N   UNL A   1      41.613  28.015  28.808  1.00  0.00    -0.248 NA
ATOM     40  C   UNL A   1      39.949  26.396  29.049  1.00  0.00     0.031 C 
ATOM     41  C   UNL A   1      44.133  25.021  26.624  1.00  0.00     0.029 A 
ATOM     42  N   UNL A   1      44.010  27.135  27.348  1.00  0.00    -0.354 N 
ATOM     43  C   UNL A   1      40.528  28.561  29.484  1.00  0.00     0.074 A 
ATOM     44  C   UNL A   1      39.518  27.532  29.573  1.00  0.00     0.031 C 
ATOM     45  C   UNL A   1      45.270  25.642  26.261  1.00  0.00     0.029 A 
ATOM     46  C   UNL A   1      45.215  27.038  26.694  1.00  0.00     0.049 A 
ATOM     47  H   UNL A   1      43.701  27.960  27.788  1.00  0.00     0.167 HD
ATOM     48  C   UNL A   1      40.389  29.803  30.003  1.00  0.00     0.034 A 
ATOM     49  C   UNL A   1      46.157  27.975  26.466  1.00  0.00     0.034 A 
ATOM     50  C   UNL A   1      41.397  30.824  29.919  1.00  0.00     0.049 A 
ATOM     51  C   UNL A   1      45.966  29.361  27.029  1.00  0.00     0.074 A 
ATOM     52  C   UNL A   1      41.365  32.108  30.432  1.00  0.00     0.029 A 
ATOM     53  N   UNL A   1      42.611  30.682  29.266  1.00  0.00    -0.354 N 
ATOM     54  N   UNL A   1      44.979  29.835  27.752  1.00  0.00    -0.248 NA
ATOM     55  C   UNL A   1      47.044  30.331  26.782  1.00  0.00     0.031 C 
ATOM     56  C   UNL A   1      42.547  32.755  30.057  1.00  0.00     0.029 A 
ATOM     57  C   UNL A   1      43.337  31.857  29.356  1.00  0.00     0.049 A 
ATOM     58  H   UNL A   1      42.913  29.866  28.807  1.00  0.00     0.167 HD
ATOM     59  C   UNL A   1      45.340  31.136  28.087  1.00  0.00     0.074 A 
ATOM     60  C   UNL A   1      46.643  31.369  27.501  1.00  0.00     0.031 C 
ATOM     61  C   UNL A   1      44.655  32.057  28.810  1.00  0.00     0.034 A 
BRANCH  48  62
ATOM     62  C   UNL A   1      39.098  30.119  30.710  1.00  0.00     0.023 A 
ATOM     63  C   UNL A   1      38.902  29.704  32.043  1.00  0.00     0.012 A 
ATOM     64  C   UNL A   1      38.088  30.857  30.060  1.00  0.00     0.148 A 
ATOM     65  C   UNL A   1      37.709  29.985  32.707  1.00  0.00     0.002 A 
ATOM     66  C   UNL A   1      36.923  31.178  30.746  1.00  0.00     0.091 A 
ATOM     67  F   UNL A   1      38.282  31.220  28.784  1.00  0.00    -0.205 F 
ATOM     68  C   UNL A   1      36.725  30.730  32.063  1.00  0.00     0.022 A 
BRANCH  66  69
ATOM     69  S   UNL A   1      35.634  32.203  30.033  1.00  0.00     0.127 S 
ATOM     70  O   UNL A   1      35.189  31.380  28.908  1.00  0.00    -0.237 OA
ATOM     71  O   UNL A   1      34.676  32.299  31.134  1.00  0.00    -0.237 OA
ATOM     72  O   UNL A   1      36.273  33.460  29.669  1.00  0.00    -0.744 OA
ENDBRANCH  66  69
ENDBRANCH  48  62
BRANCH  49  73
ATOM     73  C   UNL A   1      47.388  27.630  25.697  1.00  0.00     0.023 A 
ATOM     74  C   UNL A   1      48.503  27.088  26.365  1.00  0.00     0.012 A 
ATOM     75  C   UNL A   1      47.458  27.847  24.308  1.00  0.00     0.148 A 
ATOM     76  C   UNL A   1      49.680  26.806  25.671  1.00  0.00     0.002 A 
ATOM     77  C   UNL A   1      48.613  27.511  23.613  1.00  0.00     0.091 A 
ATOM     78  F   UNL A   1      46.392  28.377  23.694  1.00  0.00    -0.205 F 
ATOM     79  C   UNL A   1      49.733  27.010  24.294  1.00  0.00     0.022 A 
BRANCH  77  80
ATOM     80  S   UNL A   1      48.730  27.624  21.824  1.00  0.00     0.127 S 
ATOM     81  O   UNL A   1      49.653  28.743  21.654  1.00  0.00    -0.237 OA
ATOM     82  O   UNL A   1      49.279  26.312  21.478  1.00  0.00    -0.237 OA
ATOM     83  O   UNL A   1      47.370  27.850  21.352  1.00  0.00    -0.744 OA
ENDBRANCH  77  80
ENDBRANCH  49  73
BRANCH  61  84
ATOM     84  C   UNL A   1      45.327  33.382  29.074  1.00  0.00     0.023 A 
ATOM     85  C   UNL A   1      46.041  33.596  30.269  1.00  0.00     0.012 A 
ATOM     86  C   UNL A   1      45.288  34.403  28.102  1.00  0.00     0.148 A 
ATOM     87  C   UNL A   1      46.658  34.823  30.517  1.00  0.00     0.002 A 
ATOM     88  C   UNL A   1      45.954  35.600  28.331  1.00  0.00     0.091 A 
ATOM     89  F   UNL A   1      44.592  34.189  26.975  1.00  0.00    -0.205 F 
ATOM     90  C   UNL A   1      46.624  35.819  29.545  1.00  0.00     0.022 A 
BRANCH  88  91
ATOM     91  S   UNL A   1      46.049  36.896  27.090  1.00  0.00     0.127 S 
ATOM     92  O   UNL A   1      44.697  37.451  27.136  1.00  0.00    -0.237 OA
ATOM     93  O   UNL A   1      47.087  37.772  27.634  1.00  0.00    -0.237 OA
ATOM     94  O   UNL A   1      46.413  36.233  25.845  1.00  0.00    -0.744 OA
ENDBRANCH  88  91
ENDBRANCH  61  84
ENDBRANCH  35  36
ENDBRANCH  28  30
ENDBRANCH  27  28
ENDBRANCH  26  27
ENDBRANCH  25  26
ENDBRANCH  24  25
ENDBRANCH  23  24
ENDBRANCH   1  23
TORSDOF 24
ENDMDL
MODEL 3
REMARK VINA RESULT:      -9.1      1.575      2.381
REMARK SMILES C/C(C(=O)OCCOCCOCCOCCOC(=O)c1ccc(-c2c3nc(c(-c4cccc(S(=O)(=O)[O-])c4F)c4ccc([nH]4)c(-c4cccc(S(=O)(=O)[O-])c4F)c4nc(c(-c5cccc(S(=O)(=O)[O-])c5F)c5ccc2[nH]5)C=C4)C=C3)cc1)=C(\C)c1ccc(C)c(F)c1
REMARK SMILES IDX 12 1 11 2 10 3 9 4 8 5 7 6 6 7 5 8 3 9 4 10 2 11 1 12 83 13
REMARK SMILES IDX 84 14 85 15 86 16 92 17 87 18 90 19 88 20 91 21 89 22 13 23
REMARK SMILES IDX 14 24 15 25 16 26 17 27 18 28 19 29 20 30 21 31 82 32 22 33
REMARK SMILES IDX 81 34 23 35 24 36 25 37 75 38 26 39 80 40 74 41 76 42 27 43
REMARK SMILES IDX 79 44 73 45 72 46 28 48 60 49 40 50 59 51 41 52 44 53 58 54
REMARK SMILES IDX 77 55 42 56 43 57 57 59 78 60 45 61 29 62 30 63 38 64 31 65
REMARK SMILES IDX 33 66 39 67 32 68 34 69 35 70 36 71 37 72 61 73 62 74 70 75
REMARK SMILES IDX 63 76 65 77 71 78 64 79 66 80 67 81 68 82 69 83 46 84 47 85
REMARK SMILES IDX 55 86 48 87 50 88 56 89 49 90 51 91 52 92 53 93 54 94
REMARK H PARENT 76 47 44 58
REMARK Flexibility Score: inf
ROOT
ATOM      1  C   UNL A   1      36.498  21.644  25.071  1.00  0.00     0.188 C 
ENDROOT
BRANCH   1   2
ATOM      2  O   UNL A   1      35.218  22.067  25.518  1.00  0.00    -0.377 OA
BRANCH   2   3
ATOM      3  C   UNL A   1      34.810  21.742  26.840  1.00  0.00     0.188 C 
BRANCH   3   4
ATOM      4  C   UNL A   1      33.330  21.910  27.267  1.00  0.00     0.188 C 
BRANCH   4   5
ATOM      5  O   UNL A   1      32.418  21.823  26.189  1.00  0.00    -0.376 OA
BRANCH   5   6
ATOM      6  C   UNL A   1      31.426  22.820  26.079  1.00  0.00     0.202 C 
BRANCH   6   7
ATOM      7  C   UNL A   1      31.600  24.129  26.861  1.00  0.00     0.261 C 
BRANCH   7   8
ATOM      8  O   UNL A   1      30.488  25.035  26.840  1.00  0.00    -0.460 OA
BRANCH   8   9
ATOM      9  C   UNL A   1      30.434  26.014  25.905  1.00  0.00     0.334 C 
ATOM     10  O   UNL A   1      29.594  26.123  25.028  1.00  0.00    -0.247 OA
BRANCH   9  11
ATOM     11  C   UNL A   1      31.576  26.964  26.143  1.00  0.00     0.038 C 
ATOM     12  C   UNL A   1      31.310  28.015  27.196  1.00  0.00     0.052 C 
ATOM     13  C   UNL A   1      32.722  26.941  25.412  1.00  0.00    -0.034 C 
ATOM     14  C   UNL A   1      33.915  27.827  25.689  1.00  0.00     0.045 C 
BRANCH  13  15
ATOM     15  C   UNL A   1      32.911  26.125  24.191  1.00  0.00    -0.019 A 
ATOM     16  C   UNL A   1      33.786  25.038  24.148  1.00  0.00     0.009 A 
ATOM     17  C   UNL A   1      32.219  26.473  23.023  1.00  0.00     0.048 A 
ATOM     18  C   UNL A   1      33.895  24.259  22.985  1.00  0.00     0.007 A 
ATOM     19  C   UNL A   1      32.298  25.672  21.889  1.00  0.00     0.126 A 
ATOM     20  C   UNL A   1      33.106  24.539  21.862  1.00  0.00    -0.015 A 
ATOM     21  F   UNL A   1      31.559  25.997  20.818  1.00  0.00    -0.207 F 
ATOM     22  C   UNL A   1      33.147  23.667  20.645  1.00  0.00     0.047 C 
ENDBRANCH  13  15
ENDBRANCH   9  11
ENDBRANCH   8   9
ENDBRANCH   7   8
ENDBRANCH   6   7
ENDBRANCH   5   6
ENDBRANCH   4   5
ENDBRANCH   3   4
ENDBRANCH   2   3
ENDBRANCH   1   2
BRANCH   1  23
ATOM     23  C   UNL A   1      37.754  22.298  25.690  1.00  0.00     0.188 C 
BRANCH  23  24
ATOM     24  O   UNL A   1      38.932  21.511  25.599  1.00  0.00    -0.376 OA
BRANCH  24  25
ATOM     25  C   UNL A   1      38.796  20.121  25.368  1.00  0.00     0.202 C 
BRANCH  25  26
ATOM     26  C   UNL A   1      39.842  19.179  25.985  1.00  0.00     0.261 C 
BRANCH  26  27
ATOM     27  O   UNL A   1      41.150  19.208  25.398  1.00  0.00    -0.460 OA
BRANCH  27  28
ATOM     28  C   UNL A   1      42.199  19.374  26.231  1.00  0.00     0.338 C 
ATOM     29  O   UNL A   1      43.032  18.534  26.539  1.00  0.00    -0.246 OA
BRANCH  28  30
ATOM     30  C   UNL A   1      42.301  20.815  26.538  1.00  0.00     0.060 A 
ATOM     31  C   UNL A   1      42.295  21.731  25.478  1.00  0.00     0.016 A 
ATOM     32  C   UNL A   1      42.365  21.262  27.861  1.00  0.00     0.016 A 
ATOM     33  C   UNL A   1      42.403  23.094  25.734  1.00  0.00     0.010 A 
ATOM     34  C   UNL A   1      42.505  22.629  28.117  1.00  0.00     0.010 A 
ATOM     35  C   UNL A   1      42.574  23.542  27.050  1.00  0.00    -0.014 A 
BRANCH  35  36
ATOM     36  C   UNL A   1      43.095  24.913  27.260  1.00  0.00     0.031 A 
ATOM     37  C   UNL A   1      42.192  25.906  27.944  1.00  0.00     0.074 A 
ATOM     38  C   UNL A   1      44.352  25.252  26.926  1.00  0.00     0.049 A 
ATOM     39  N   UNL A   1      42.435  27.138  28.303  1.00  0.00    -0.248 NA
ATOM     40  C   UNL A   1      40.832  25.443  28.270  1.00  0.00     0.031 C 
ATOM     41  C   UNL A   1      45.323  24.374  26.278  1.00  0.00     0.029 A 
ATOM     42  N   UNL A   1      45.020  26.438  27.087  1.00  0.00    -0.354 N 
ATOM     43  C   UNL A   1      41.257  27.602  28.875  1.00  0.00     0.074 A 
ATOM     44  C   UNL A   1      40.292  26.529  28.795  1.00  0.00     0.031 C 
ATOM     45  C   UNL A   1      46.463  25.060  26.079  1.00  0.00     0.029 A 
ATOM     46  C   UNL A   1      46.294  26.427  26.572  1.00  0.00     0.049 A 
ATOM     47  H   UNL A   1      44.626  27.224  27.529  1.00  0.00     0.167 HD
ATOM     48  C   UNL A   1      41.002  28.807  29.435  1.00  0.00     0.034 A 
ATOM     49  C   UNL A   1      47.212  27.412  26.501  1.00  0.00     0.034 A 
ATOM     50  C   UNL A   1      41.963  29.871  29.519  1.00  0.00     0.049 A 
ATOM     51  C   UNL A   1      46.894  28.757  27.107  1.00  0.00     0.074 A 
ATOM     52  C   UNL A   1      41.814  31.123  30.088  1.00  0.00     0.029 A 
ATOM     53  N   UNL A   1      43.249  29.815  29.005  1.00  0.00    -0.354 N 
ATOM     54  N   UNL A   1      45.810  29.149  27.733  1.00  0.00    -0.248 NA
ATOM     55  C   UNL A   1      47.946  29.782  27.034  1.00  0.00     0.031 C 
ATOM     56  C   UNL A   1      42.999  31.837  29.885  1.00  0.00     0.029 A 
ATOM     57  C   UNL A   1      43.904  31.012  29.236  1.00  0.00     0.049 A 
ATOM     58  H   UNL A   1      43.639  29.038  28.543  1.00  0.00     0.167 HD
ATOM     59  C   UNL A   1      46.070  30.444  28.172  1.00  0.00     0.074 A 
ATOM     60  C   UNL A   1      47.418  30.762  27.753  1.00  0.00     0.031 C 
ATOM     61  C   UNL A   1      45.264  31.295  28.857  1.00  0.00     0.034 A 
BRANCH  48  62
ATOM     62  C   UNL A   1      39.625  29.031  30.003  1.00  0.00     0.023 A 
ATOM     63  C   UNL A   1      39.332  28.629  31.322  1.00  0.00     0.012 A 
ATOM     64  C   UNL A   1      38.630  29.669  29.237  1.00  0.00     0.148 A 
ATOM     65  C   UNL A   1      38.059  28.826  31.859  1.00  0.00     0.002 A 
ATOM     66  C   UNL A   1      37.380  29.908  29.796  1.00  0.00     0.091 A 
ATOM     67  F   UNL A   1      38.920  30.020  27.976  1.00  0.00    -0.205 F 
ATOM     68  C   UNL A   1      37.088  29.474  31.100  1.00  0.00     0.022 A 
BRANCH  66  69
ATOM     69  S   UNL A   1      36.091  30.809  28.931  1.00  0.00     0.127 S 
ATOM     70  O   UNL A   1      36.869  31.804  28.194  1.00  0.00    -0.237 OA
ATOM     71  O   UNL A   1      35.494  29.764  28.099  1.00  0.00    -0.237 OA
ATOM     72  O   UNL A   1      35.212  31.344  29.961  1.00  0.00    -0.744 OA
ENDBRANCH  66  69
ENDBRANCH  48  62
BRANCH  49  73
ATOM     73  C   UNL A   1      48.536  27.161  25.863  1.00  0.00     0.023 A 
ATOM     74  C   UNL A   1      49.601  26.656  26.635  1.00  0.00     0.012 A 
ATOM     75  C   UNL A   1      48.744  27.429  24.498  1.00  0.00     0.148 A 
ATOM     76  C   UNL A   1      50.861  26.462  26.067  1.00  0.00     0.002 A 
ATOM     77  C   UNL A   1      49.986  27.180  23.924  1.00  0.00     0.091 A 
ATOM     78  F   UNL A   1      47.723  27.922  23.784  1.00  0.00    -0.205 F 
ATOM     79  C   UNL A   1      51.051  26.715  24.711  1.00  0.00     0.022 A 
BRANCH  77  80
ATOM     80  S   UNL A   1      50.289  27.360  22.164  1.00  0.00     0.127 S 
ATOM     81  O   UNL A   1      50.151  28.803  21.983  1.00  0.00    -0.237 OA
ATOM     82  O   UNL A   1      51.656  26.850  22.043  1.00  0.00    -0.237 OA
ATOM     83  O   UNL A   1      49.282  26.543  21.502  1.00  0.00    -0.744 OA
ENDBRANCH  77  80
ENDBRANCH  49  73
BRANCH  61  84
ATOM     84  C   UNL A   1      45.840  32.630  29.261  1.00  0.00     0.023 A 
ATOM     85  C   UNL A   1      46.538  32.769  30.477  1.00  0.00     0.012 A 
ATOM     86  C   UNL A   1      45.726  33.742  28.402  1.00  0.00     0.148 A 
ATOM     87  C   UNL A   1      47.066  34.003  30.855  1.00  0.00     0.002 A 
ATOM     88  C   UNL A   1      46.305  34.953  28.758  1.00  0.00     0.091 A 
ATOM     89  F   UNL A   1      45.046  33.598  27.254  1.00  0.00    -0.205 F 
ATOM     90  C   UNL A   1      46.958  35.092  29.993  1.00  0.00     0.022 A 
BRANCH  88  91
ATOM     91  S   UNL A   1      46.304  36.375  27.660  1.00  0.00     0.127 S 
ATOM     92  O   UNL A   1      46.075  35.747  26.360  1.00  0.00    -0.237 OA
ATOM     93  O   UNL A   1      45.175  37.158  28.166  1.00  0.00    -0.237 OA
ATOM     94  O   UNL A   1      47.603  37.012  27.829  1.00  0.00    -0.744 OA
ENDBRANCH  88  91
ENDBRANCH  61  84
ENDBRANCH  35  36
ENDBRANCH  28  30
ENDBRANCH  27  28
ENDBRANCH  26  27
ENDBRANCH  25  26
ENDBRANCH  24  25
ENDBRANCH  23  24
ENDBRANCH   1  23
TORSDOF 24
ENDMDL
