MODEL 1
REMARK VINA RESULT:      -8.4      0.000      0.000
REMARK SMILES C[C@@H]1[C@@H](C(=O)OCCOCCOCCOCCOC(=O)c2ccc(-c3c4nc(c(-c5cccc(S(=O)(=O)[O-])c5F)c5ccc([nH]5)c(-c5cccc(S(=O)(=O)[O-])c5F)c5nc(c(-c6cccc(S(=O)(=O)[O-])c6F)c6ccc3[nH]6)C=C5)C=C4)cc2)CCN1C(=O)N1CCC[C@H]2CCC[C@@H]21
REMARK SMILES IDX 13 1 12 2 11 3 10 4 9 5 8 6 7 7 6 8 4 9 5 10 3 11 1 12 2 13
REMARK SMILES IDX 86 14 84 15 85 16 87 17 88 18 89 19 90 20 97 21 91 22 93 23
REMARK SMILES IDX 96 24 92 25 94 26 95 27 14 28 15 29 16 30 17 31 18 32 19 33
REMARK SMILES IDX 20 34 21 35 22 36 83 37 23 38 82 39 24 40 25 41 26 42 76 43
REMARK SMILES IDX 27 44 81 45 75 46 77 47 28 48 80 49 74 50 73 51 29 53 61 54
REMARK SMILES IDX 41 55 60 56 42 57 45 58 59 59 78 60 43 61 44 62 58 64 79 65
REMARK SMILES IDX 46 66 30 67 31 68 39 69 32 70 34 71 40 72 33 73 35 74 36 75
REMARK SMILES IDX 37 76 38 77 62 78 63 79 71 80 64 81 66 82 72 83 65 84 67 85
REMARK SMILES IDX 68 86 69 87 70 88 47 89 48 90 56 91 49 92 51 93 57 94 50 95
REMARK SMILES IDX 52 96 53 97 54 98 55 99
REMARK H PARENT 77 52 45 63
REMARK Flexibility Score: inf
ROOT
ATOM      1  C   UNL A   1      36.133  30.880  29.373  1.00  0.00     0.188 C 
ENDROOT
BRANCH   1   2
ATOM      2  O   UNL A   1      36.340  29.727  28.566  1.00  0.00    -0.377 OA
BRANCH   2   3
ATOM      3  C   UNL A   1      35.397  29.504  27.543  1.00  0.00     0.188 C 
BRANCH   3   4
ATOM      4  C   UNL A   1      34.350  30.624  27.432  1.00  0.00     0.188 C 
BRANCH   4   5
ATOM      5  O   UNL A   1      32.966  30.375  27.624  1.00  0.00    -0.376 OA
BRANCH   5   6
ATOM      6  C   UNL A   1      32.055  30.034  26.587  1.00  0.00     0.202 C 
BRANCH   6   7
ATOM      7  C   UNL A   1      32.416  29.460  25.204  1.00  0.00     0.261 C 
BRANCH   7   8
ATOM      8  O   UNL A   1      31.848  28.207  24.853  1.00  0.00    -0.463 OA
BRANCH   8   9
ATOM      9  C   UNL A   1      32.517  27.138  25.339  1.00  0.00     0.311 C 
ATOM     10  O   UNL A   1      33.734  27.052  25.397  1.00  0.00    -0.252 OA
BRANCH   9  11
ATOM     11  C   UNL A   1      31.529  26.138  25.904  1.00  0.00     0.123 C 
ATOM     12  C   UNL A   1      31.501  23.793  26.802  1.00  0.00     0.032 C 
ATOM     13  C   UNL A   1      32.070  24.719  25.721  1.00  0.00     0.098 C 
ATOM     14  N   UNL A   1      31.634  24.384  24.359  1.00  0.00    -0.321 N 
ATOM     15  C   UNL A   1      30.217  26.131  25.144  1.00  0.00     0.039 C 
ATOM     16  C   UNL A   1      30.538  25.258  23.940  1.00  0.00     0.122 C 
BRANCH  14  17
ATOM     17  C   UNL A   1      32.484  23.900  23.364  1.00  0.00     0.320 C 
ATOM     18  O   UNL A   1      32.737  24.534  22.342  1.00  0.00    -0.248 OA
BRANCH  17  19
ATOM     19  N   UNL A   1      33.099  22.700  23.649  1.00  0.00    -0.321 N 
ATOM     20  C   UNL A   1      32.480  21.441  23.261  1.00  0.00     0.121 C 
ATOM     21  C   UNL A   1      34.533  22.600  23.865  1.00  0.00     0.090 C 
ATOM     22  C   UNL A   1      32.726  20.348  24.305  1.00  0.00     0.022 C 
ATOM     23  C   UNL A   1      34.746  21.636  25.038  1.00  0.00     0.012 C 
ATOM     24  C   UNL A   1      35.336  23.816  24.315  1.00  0.00     0.025 C 
ATOM     25  C   UNL A   1      34.210  20.248  24.699  1.00  0.00     0.007 C 
ATOM     26  C   UNL A   1      36.234  21.750  25.315  1.00  0.00     0.006 C 
ATOM     27  C   UNL A   1      36.554  23.225  25.043  1.00  0.00     0.002 C 
ENDBRANCH  17  19
ENDBRANCH  14  17
ENDBRANCH   9  11
ENDBRANCH   8   9
ENDBRANCH   7   8
ENDBRANCH   6   7
ENDBRANCH   5   6
ENDBRANCH   4   5
ENDBRANCH   3   4
ENDBRANCH   2   3
ENDBRANCH   1   2
BRANCH   1  28
ATOM     28  C   UNL A   1      36.192  30.729  30.911  1.00  0.00     0.188 C 
BRANCH  28  29
ATOM     29  O   UNL A   1      35.321  31.599  31.626  1.00  0.00    -0.376 OA
BRANCH  29  30
ATOM     30  C   UNL A   1      35.854  32.356  32.701  1.00  0.00     0.202 C 
BRANCH  30  31
ATOM     31  C   UNL A   1      37.373  32.591  32.704  1.00  0.00     0.261 C 
BRANCH  31  32
ATOM     32  O   UNL A   1      37.821  33.800  32.075  1.00  0.00    -0.460 OA
BRANCH  32  33
ATOM     33  C   UNL A   1      38.739  34.536  32.736  1.00  0.00     0.338 C 
ATOM     34  O   UNL A   1      38.601  35.067  33.827  1.00  0.00    -0.246 OA
BRANCH  33  35
ATOM     35  C   UNL A   1      40.022  34.417  32.016  1.00  0.00     0.060 A 
ATOM     36  C   UNL A   1      41.208  34.320  32.758  1.00  0.00     0.016 A 
ATOM     37  C   UNL A   1      40.058  34.388  30.620  1.00  0.00     0.016 A 
ATOM     38  C   UNL A   1      42.436  34.239  32.104  1.00  0.00     0.010 A 
ATOM     39  C   UNL A   1      41.291  34.330  29.966  1.00  0.00     0.010 A 
ATOM     40  C   UNL A   1      42.486  34.296  30.706  1.00  0.00    -0.014 A 
BRANCH  40  41
ATOM     41  C   UNL A   1      43.784  34.533  30.030  1.00  0.00     0.031 A 
ATOM     42  C   UNL A   1      44.231  35.956  29.829  1.00  0.00     0.074 A 
ATOM     43  C   UNL A   1      44.553  33.515  29.607  1.00  0.00     0.049 A 
ATOM     44  N   UNL A   1      45.299  36.415  29.233  1.00  0.00    -0.248 NA
ATOM     45  C   UNL A   1      43.350  37.003  30.375  1.00  0.00     0.031 C 
ATOM     46  C   UNL A   1      44.238  32.096  29.757  1.00  0.00     0.029 A 
ATOM     47  N   UNL A   1      45.753  33.527  28.939  1.00  0.00    -0.354 N 
ATOM     48  C   UNL A   1      45.204  37.799  29.299  1.00  0.00     0.074 A 
ATOM     49  C   UNL A   1      43.969  38.108  29.986  1.00  0.00     0.031 C 
ATOM     50  C   UNL A   1      45.207  31.371  29.168  1.00  0.00     0.029 A 
ATOM     51  C   UNL A   1      46.191  32.275  28.575  1.00  0.00     0.049 A 
ATOM     52  H   UNL A   1      46.251  34.351  28.738  1.00  0.00     0.167 HD
ATOM     53  C   UNL A   1      46.070  38.731  28.842  1.00  0.00     0.034 A 
ATOM     54  C   UNL A   1      47.249  31.907  27.825  1.00  0.00     0.034 A 
ATOM     55  C   UNL A   1      47.302  38.423  28.168  1.00  0.00     0.049 A 
ATOM     56  C   UNL A   1      48.181  32.967  27.291  1.00  0.00     0.074 A 
ATOM     57  C   UNL A   1      48.269  39.296  27.704  1.00  0.00     0.029 A 
ATOM     58  N   UNL A   1      47.728  37.144  27.845  1.00  0.00    -0.354 N 
ATOM     59  N   UNL A   1      48.135  34.267  27.455  1.00  0.00    -0.248 NA
ATOM     60  C   UNL A   1      49.328  32.506  26.495  1.00  0.00     0.031 C 
ATOM     61  C   UNL A   1      49.259  38.546  27.061  1.00  0.00     0.029 A 
ATOM     62  C   UNL A   1      48.934  37.204  27.171  1.00  0.00     0.049 A 
ATOM     63  H   UNL A   1      47.242  36.316  28.063  1.00  0.00     0.167 HD
ATOM     64  C   UNL A   1      49.265  34.773  26.820  1.00  0.00     0.074 A 
ATOM     65  C   UNL A   1      49.985  33.638  26.285  1.00  0.00     0.031 C 
ATOM     66  C   UNL A   1      49.667  36.063  26.686  1.00  0.00     0.034 A 
BRANCH  53  67
ATOM     67  C   UNL A   1      45.718  40.179  29.058  1.00  0.00     0.023 A 
ATOM     68  C   UNL A   1      45.135  40.927  28.014  1.00  0.00     0.012 A 
ATOM     69  C   UNL A   1      45.922  40.787  30.312  1.00  0.00     0.148 A 
ATOM     70  C   UNL A   1      44.791  42.264  28.205  1.00  0.00     0.002 A 
ATOM     71  C   UNL A   1      45.531  42.106  30.509  1.00  0.00     0.091 A 
ATOM     72  F   UNL A   1      46.499  40.068  31.285  1.00  0.00    -0.205 F 
ATOM     73  C   UNL A   1      44.978  42.849  29.454  1.00  0.00     0.022 A 
BRANCH  71  74
ATOM     74  S   UNL A   1      45.655  42.925  32.103  1.00  0.00     0.127 S 
ATOM     75  O   UNL A   1      47.063  43.321  32.121  1.00  0.00    -0.237 OA
ATOM     76  O   UNL A   1      44.712  44.032  31.951  1.00  0.00    -0.237 OA
ATOM     77  O   UNL A   1      45.276  41.932  33.097  1.00  0.00    -0.744 OA
ENDBRANCH  71  74
ENDBRANCH  53  67
BRANCH  54  78
ATOM     78  C   UNL A   1      47.502  30.465  27.542  1.00  0.00     0.023 A 
ATOM     79  C   UNL A   1      48.321  29.714  28.407  1.00  0.00     0.012 A 
ATOM     80  C   UNL A   1      46.936  29.836  26.415  1.00  0.00     0.148 A 
ATOM     81  C   UNL A   1      48.604  28.375  28.136  1.00  0.00     0.002 A 
ATOM     82  C   UNL A   1      47.173  28.487  26.182  1.00  0.00     0.091 A 
ATOM     83  F   UNL A   1      46.172  30.572  25.595  1.00  0.00    -0.205 F 
ATOM     84  C   UNL A   1      48.022  27.759  27.030  1.00  0.00     0.022 A 
BRANCH  82  85
ATOM     85  S   UNL A   1      46.371  27.581  24.855  1.00  0.00     0.127 S 
ATOM     86  O   UNL A   1      46.993  28.171  23.673  1.00  0.00    -0.237 OA
ATOM     87  O   UNL A   1      46.776  26.206  25.147  1.00  0.00    -0.237 OA
ATOM     88  O   UNL A   1      44.945  27.834  25.010  1.00  0.00    -0.744 OA
ENDBRANCH  82  85
ENDBRANCH  54  78
BRANCH  66  89
ATOM     89  C   UNL A   1      50.974  36.323  25.979  1.00  0.00     0.023 A 
ATOM     90  C   UNL A   1      51.001  36.502  24.582  1.00  0.00     0.012 A 
ATOM     91  C   UNL A   1      52.166  36.466  26.717  1.00  0.00     0.148 A 
ATOM     92  C   UNL A   1      52.202  36.781  23.927  1.00  0.00     0.002 A 
ATOM     93  C   UNL A   1      53.347  36.798  26.065  1.00  0.00     0.091 A 
ATOM     94  F   UNL A   1      52.122  36.278  28.044  1.00  0.00    -0.205 F 
ATOM     95  C   UNL A   1      53.370  36.941  24.669  1.00  0.00     0.022 A 
BRANCH  93  96
ATOM     96  S   UNL A   1      54.877  37.123  26.947  1.00  0.00     0.127 S 
ATOM     97  O   UNL A   1      55.402  35.772  27.141  1.00  0.00    -0.237 OA
ATOM     98  O   UNL A   1      55.623  37.935  25.984  1.00  0.00    -0.237 OA
ATOM     99  O   UNL A   1      54.500  37.825  28.166  1.00  0.00    -0.744 OA
ENDBRANCH  93  96
ENDBRANCH  66  89
ENDBRANCH  40  41
ENDBRANCH  33  35
ENDBRANCH  32  33
ENDBRANCH  31  32
ENDBRANCH  30  31
ENDBRANCH  29  30
ENDBRANCH  28  29
ENDBRANCH   1  28
TORSDOF 25
ENDMDL
MODEL 2
REMARK VINA RESULT:      -8.2      4.216      7.641
REMARK SMILES C[C@@H]1[C@@H](C(=O)OCCOCCOCCOCCOC(=O)c2ccc(-c3c4nc(c(-c5cccc(S(=O)(=O)[O-])c5F)c5ccc([nH]5)c(-c5cccc(S(=O)(=O)[O-])c5F)c5nc(c(-c6cccc(S(=O)(=O)[O-])c6F)c6ccc3[nH]6)C=C5)C=C4)cc2)CCN1C(=O)N1CCC[C@H]2CCC[C@@H]21
REMARK SMILES IDX 13 1 12 2 11 3 10 4 9 5 8 6 7 7 6 8 4 9 5 10 3 11 1 12 2 13
REMARK SMILES IDX 86 14 84 15 85 16 87 17 88 18 89 19 90 20 97 21 91 22 93 23
REMARK SMILES IDX 96 24 92 25 94 26 95 27 14 28 15 29 16 30 17 31 18 32 19 33
REMARK SMILES IDX 20 34 21 35 22 36 83 37 23 38 82 39 24 40 25 41 26 42 76 43
REMARK SMILES IDX 27 44 81 45 75 46 77 47 28 48 80 49 74 50 73 51 29 53 61 54
REMARK SMILES IDX 41 55 60 56 42 57 45 58 59 59 78 60 43 61 44 62 58 64 79 65
REMARK SMILES IDX 46 66 30 67 31 68 39 69 32 70 34 71 40 72 33 73 35 74 36 75
REMARK SMILES IDX 37 76 38 77 62 78 63 79 71 80 64 81 66 82 72 83 65 84 67 85
REMARK SMILES IDX 68 86 69 87 70 88 47 89 48 90 56 91 49 92 51 93 57 94 50 95
REMARK SMILES IDX 52 96 53 97 54 98 55 99
REMARK H PARENT 77 52 45 63
REMARK Flexibility Score: inf
ROOT
ATOM      1  C   UNL A   1      39.497  22.247  26.630  1.00  0.00     0.188 C 
ENDROOT
BRANCH   1   2
ATOM      2  O   UNL A   1      38.430  22.982  26.047  1.00  0.00    -0.377 OA
BRANCH   2   3
ATOM      3  C   UNL A   1      37.159  22.374  26.082  1.00  0.00     0.188 C 
BRANCH   3   4
ATOM      4  C   UNL A   1      36.790  21.671  24.766  1.00  0.00     0.188 C 
BRANCH   4   5
ATOM      5  O   UNL A   1      35.917  20.551  24.737  1.00  0.00    -0.376 OA
BRANCH   5   6
ATOM      6  C   UNL A   1      34.709  20.450  25.480  1.00  0.00     0.202 C 
BRANCH   6   7
ATOM      7  C   UNL A   1      33.384  19.835  24.992  1.00  0.00     0.261 C 
BRANCH   7   8
ATOM      8  O   UNL A   1      32.213  20.628  25.121  1.00  0.00    -0.463 OA
BRANCH   8   9
ATOM      9  C   UNL A   1      32.450  21.917  25.451  1.00  0.00     0.311 C 
ATOM     10  O   UNL A   1      32.409  22.359  26.588  1.00  0.00    -0.252 OA
BRANCH   9  11
ATOM     11  C   UNL A   1      32.890  22.680  24.218  1.00  0.00     0.123 C 
ATOM     12  C   UNL A   1      33.948  24.878  23.619  1.00  0.00     0.032 C 
ATOM     13  C   UNL A   1      32.928  24.178  24.525  1.00  0.00     0.098 C 
ATOM     14  N   UNL A   1      31.538  24.589  24.287  1.00  0.00    -0.321 N 
ATOM     15  C   UNL A   1      31.893  22.565  23.081  1.00  0.00     0.039 C 
ATOM     16  C   UNL A   1      30.847  23.605  23.453  1.00  0.00     0.122 C 
BRANCH  14  17
ATOM     17  C   UNL A   1      30.769  25.308  25.202  1.00  0.00     0.320 C 
ATOM     18  O   UNL A   1      30.343  24.813  26.243  1.00  0.00    -0.248 OA
BRANCH  17  19
ATOM     19  N   UNL A   1      30.598  26.643  24.906  1.00  0.00    -0.321 N 
ATOM     20  C   UNL A   1      29.532  27.072  24.012  1.00  0.00     0.121 C 
ATOM     21  C   UNL A   1      31.078  27.696  25.786  1.00  0.00     0.090 C 
ATOM     22  C   UNL A   1      29.970  28.254  23.142  1.00  0.00     0.022 C 
ATOM     23  C   UNL A   1      31.678  28.790  24.894  1.00  0.00     0.012 C 
ATOM     24  C   UNL A   1      32.220  27.432  26.760  1.00  0.00     0.025 C 
ATOM     25  C   UNL A   1      30.613  29.378  23.972  1.00  0.00     0.007 C 
ATOM     26  C   UNL A   1      32.322  29.736  25.891  1.00  0.00     0.006 C 
ATOM     27  C   UNL A   1      32.856  28.812  26.994  1.00  0.00     0.002 C 
ENDBRANCH  17  19
ENDBRANCH  14  17
ENDBRANCH   9  11
ENDBRANCH   8   9
ENDBRANCH   7   8
ENDBRANCH   6   7
ENDBRANCH   5   6
ENDBRANCH   4   5
ENDBRANCH   3   4
ENDBRANCH   2   3
ENDBRANCH   1   2
BRANCH   1  28
ATOM     28  C   UNL A   1      40.468  21.482  25.699  1.00  0.00     0.188 C 
BRANCH  28  29
ATOM     29  O   UNL A   1      41.386  20.628  26.374  1.00  0.00    -0.376 OA
BRANCH  29  30
ATOM     30  C   UNL A   1      42.639  20.365  25.761  1.00  0.00     0.202 C 
BRANCH  30  31
ATOM     31  C   UNL A   1      43.852  21.146  26.291  1.00  0.00     0.261 C 
BRANCH  31  32
ATOM     32  O   UNL A   1      43.815  22.567  26.102  1.00  0.00    -0.460 OA
BRANCH  32  33
ATOM     33  C   UNL A   1      43.435  23.321  27.154  1.00  0.00     0.338 C 
ATOM     34  O   UNL A   1      42.760  22.960  28.105  1.00  0.00    -0.246 OA
BRANCH  33  35
ATOM     35  C   UNL A   1      44.153  24.609  27.074  1.00  0.00     0.060 A 
ATOM     36  C   UNL A   1      44.319  25.213  25.820  1.00  0.00     0.016 A 
ATOM     37  C   UNL A   1      44.648  25.224  28.227  1.00  0.00     0.016 A 
ATOM     38  C   UNL A   1      45.020  26.413  25.710  1.00  0.00     0.010 A 
ATOM     39  C   UNL A   1      45.370  26.414  28.112  1.00  0.00     0.010 A 
ATOM     40  C   UNL A   1      45.593  26.992  26.850  1.00  0.00    -0.014 A 
BRANCH  40  41
ATOM     41  C   UNL A   1      46.595  28.073  26.695  1.00  0.00     0.031 A 
ATOM     42  C   UNL A   1      46.107  29.498  26.686  1.00  0.00     0.074 A 
ATOM     43  C   UNL A   1      47.906  27.805  26.569  1.00  0.00     0.049 A 
ATOM     44  N   UNL A   1      46.780  30.605  26.524  1.00  0.00    -0.248 NA
ATOM     45  C   UNL A   1      44.661  29.696  26.887  1.00  0.00     0.031 C 
ATOM     46  C   UNL A   1      48.502  26.471  26.578  1.00  0.00     0.029 A 
ATOM     47  N   UNL A   1      48.971  28.652  26.383  1.00  0.00    -0.354 N 
ATOM     48  C   UNL A   1      45.842  31.628  26.568  1.00  0.00     0.074 A 
ATOM     49  C   UNL A   1      44.549  31.010  26.761  1.00  0.00     0.031 C 
ATOM     50  C   UNL A   1      49.827  26.587  26.374  1.00  0.00     0.029 A 
ATOM     51  C   UNL A   1      50.165  27.998  26.190  1.00  0.00     0.049 A 
ATOM     52  H   UNL A   1      48.888  29.632  26.387  1.00  0.00     0.167 HD
ATOM     53  C   UNL A   1      46.037  32.963  26.468  1.00  0.00     0.034 A 
ATOM     54  C   UNL A   1      51.382  28.482  25.872  1.00  0.00     0.034 A 
ATOM     55  C   UNL A   1      47.324  33.575  26.284  1.00  0.00     0.049 A 
ATOM     56  C   UNL A   1      51.568  29.972  25.725  1.00  0.00     0.074 A 
ATOM     57  C   UNL A   1      47.632  34.922  26.213  1.00  0.00     0.029 A 
ATOM     58  N   UNL A   1      48.514  32.883  26.123  1.00  0.00    -0.354 N 
ATOM     59  N   UNL A   1      50.690  30.935  25.876  1.00  0.00    -0.248 NA
ATOM     60  C   UNL A   1      52.921  30.445  25.396  1.00  0.00     0.031 C 
ATOM     61  C   UNL A   1      49.003  35.043  25.966  1.00  0.00     0.029 A 
ATOM     62  C   UNL A   1      49.557  33.773  25.935  1.00  0.00     0.049 A 
ATOM     63  H   UNL A   1      48.604  31.903  26.140  1.00  0.00     0.167 HD
ATOM     64  C   UNL A   1      51.391  32.124  25.701  1.00  0.00     0.074 A 
ATOM     65  C   UNL A   1      52.770  31.761  25.451  1.00  0.00     0.031 C 
ATOM     66  C   UNL A   1      50.934  33.401  25.736  1.00  0.00     0.034 A 
BRANCH  53  67
ATOM     67  C   UNL A   1      44.828  33.855  26.557  1.00  0.00     0.023 A 
ATOM     68  C   UNL A   1      44.157  34.255  25.383  1.00  0.00     0.012 A 
ATOM     69  C   UNL A   1      44.326  34.260  27.809  1.00  0.00     0.148 A 
ATOM     70  C   UNL A   1      43.028  35.070  25.452  1.00  0.00     0.002 A 
ATOM     71  C   UNL A   1      43.172  35.030  27.873  1.00  0.00     0.091 A 
ATOM     72  F   UNL A   1      44.990  33.890  28.913  1.00  0.00    -0.205 F 
ATOM     73  C   UNL A   1      42.530  35.447  26.695  1.00  0.00     0.022 A 
BRANCH  71  74
ATOM     74  S   UNL A   1      42.405  35.500  29.427  1.00  0.00     0.127 S 
ATOM     75  O   UNL A   1      42.450  34.241  30.170  1.00  0.00    -0.237 OA
ATOM     76  O   UNL A   1      43.318  36.532  29.919  1.00  0.00    -0.237 OA
ATOM     77  O   UNL A   1      41.071  35.977  29.091  1.00  0.00    -0.744 OA
ENDBRANCH  71  74
ENDBRANCH  53  67
BRANCH  54  78
ATOM     78  C   UNL A   1      52.533  27.554  25.683  1.00  0.00     0.023 A 
ATOM     79  C   UNL A   1      52.749  26.954  24.427  1.00  0.00     0.012 A 
ATOM     80  C   UNL A   1      53.411  27.259  26.744  1.00  0.00     0.148 A 
ATOM     81  C   UNL A   1      53.796  26.050  24.240  1.00  0.00     0.002 A 
ATOM     82  C   UNL A   1      54.486  26.404  26.537  1.00  0.00     0.091 A 
ATOM     83  F   UNL A   1      53.178  27.827  27.936  1.00  0.00    -0.205 F 
ATOM     84  C   UNL A   1      54.669  25.783  25.292  1.00  0.00     0.022 A 
BRANCH  82  85
ATOM     85  S   UNL A   1      55.730  26.095  27.794  1.00  0.00     0.127 S 
ATOM     86  O   UNL A   1      56.436  27.373  27.837  1.00  0.00    -0.237 OA
ATOM     87  O   UNL A   1      54.904  25.806  28.966  1.00  0.00    -0.237 OA
ATOM     88  O   UNL A   1      56.508  24.962  27.311  1.00  0.00    -0.744 OA
ENDBRANCH  82  85
ENDBRANCH  54  78
BRANCH  66  89
ATOM     89  C   UNL A   1      51.937  34.513  25.556  1.00  0.00     0.023 A 
ATOM     90  C   UNL A   1      52.172  35.056  24.278  1.00  0.00     0.012 A 
ATOM     91  C   UNL A   1      52.589  35.071  26.674  1.00  0.00     0.148 A 
ATOM     92  C   UNL A   1      53.070  36.111  24.111  1.00  0.00     0.002 A 
ATOM     93  C   UNL A   1      53.440  36.157  26.507  1.00  0.00     0.091 A 
ATOM     94  F   UNL A   1      52.362  34.532  27.881  1.00  0.00    -0.205 F 
ATOM     95  C   UNL A   1      53.693  36.668  25.225  1.00  0.00     0.022 A 
BRANCH  93  96
ATOM     96  S   UNL A   1      54.207  37.003  27.893  1.00  0.00     0.127 S 
ATOM     97  O   UNL A   1      53.042  37.416  28.673  1.00  0.00    -0.237 OA
ATOM     98  O   UNL A   1      55.003  35.938  28.504  1.00  0.00    -0.237 OA
ATOM     99  O   UNL A   1      54.990  38.090  27.320  1.00  0.00    -0.744 OA
ENDBRANCH  93  96
ENDBRANCH  66  89
ENDBRANCH  40  41
ENDBRANCH  33  35
ENDBRANCH  32  33
ENDBRANCH  31  32
ENDBRANCH  30  31
ENDBRANCH  29  30
ENDBRANCH  28  29
ENDBRANCH   1  28
TORSDOF 25
ENDMDL
MODEL 3
REMARK VINA RESULT:      -8.2      5.949     11.367
REMARK SMILES C[C@@H]1[C@@H](C(=O)OCCOCCOCCOCCOC(=O)c2ccc(-c3c4nc(c(-c5cccc(S(=O)(=O)[O-])c5F)c5ccc([nH]5)c(-c5cccc(S(=O)(=O)[O-])c5F)c5nc(c(-c6cccc(S(=O)(=O)[O-])c6F)c6ccc3[nH]6)C=C5)C=C4)cc2)CCN1C(=O)N1CCC[C@H]2CCC[C@@H]21
REMARK SMILES IDX 13 1 12 2 11 3 10 4 9 5 8 6 7 7 6 8 4 9 5 10 3 11 1 12 2 13
REMARK SMILES IDX 86 14 84 15 85 16 87 17 88 18 89 19 90 20 97 21 91 22 93 23
REMARK SMILES IDX 96 24 92 25 94 26 95 27 14 28 15 29 16 30 17 31 18 32 19 33
REMARK SMILES IDX 20 34 21 35 22 36 83 37 23 38 82 39 24 40 25 41 26 42 76 43
REMARK SMILES IDX 27 44 81 45 75 46 77 47 28 48 80 49 74 50 73 51 29 53 61 54
REMARK SMILES IDX 41 55 60 56 42 57 45 58 59 59 78 60 43 61 44 62 58 64 79 65
REMARK SMILES IDX 46 66 30 67 31 68 39 69 32 70 34 71 40 72 33 73 35 74 36 75
REMARK SMILES IDX 37 76 38 77 62 78 63 79 71 80 64 81 66 82 72 83 65 84 67 85
REMARK SMILES IDX 68 86 69 87 70 88 47 89 48 90 56 91 49 92 51 93 57 94 50 95
REMARK SMILES IDX 52 96 53 97 54 98 55 99
REMARK H PARENT 77 52 45 63
REMARK Flexibility Score: inf
ROOT
ATOM      1  C   UNL A   1      44.173  24.059  26.024  1.00  0.00     0.188 C 
ENDROOT
BRANCH   1   2
ATOM      2  O   UNL A   1      43.264  23.397  26.894  1.00  0.00    -0.377 OA
BRANCH   2   3
ATOM      3  C   UNL A   1      41.908  23.417  26.513  1.00  0.00     0.188 C 
BRANCH   3   4
ATOM      4  C   UNL A   1      41.030  24.264  27.450  1.00  0.00     0.188 C 
BRANCH   4   5
ATOM      5  O   UNL A   1      41.595  25.138  28.415  1.00  0.00    -0.376 OA
BRANCH   5   6
ATOM      6  C   UNL A   1      42.172  26.403  28.119  1.00  0.00     0.202 C 
BRANCH   6   7
ATOM      7  C   UNL A   1      41.719  27.768  28.672  1.00  0.00     0.261 C 
BRANCH   7   8
ATOM      8  O   UNL A   1      40.538  28.332  28.120  1.00  0.00    -0.463 OA
BRANCH   8   9
ATOM      9  C   UNL A   1      39.925  29.231  28.923  1.00  0.00     0.311 C 
ATOM     10  O   UNL A   1      40.459  30.232  29.373  1.00  0.00    -0.252 OA
BRANCH   9  11
ATOM     11  C   UNL A   1      38.462  28.865  29.064  1.00  0.00     0.123 C 
ATOM     12  C   UNL A   1      36.214  29.694  28.310  1.00  0.00     0.032 C 
ATOM     13  C   UNL A   1      37.596  30.104  28.831  1.00  0.00     0.098 C 
ATOM     14  N   UNL A   1      37.571  30.731  30.159  1.00  0.00    -0.321 N 
ATOM     15  C   UNL A   1      38.109  28.432  30.474  1.00  0.00     0.039 C 
ATOM     16  C   UNL A   1      37.932  29.762  31.192  1.00  0.00     0.122 C 
BRANCH  14  17
ATOM     17  C   UNL A   1      37.887  32.070  30.396  1.00  0.00     0.320 C 
ATOM     18  O   UNL A   1      38.989  32.547  30.134  1.00  0.00    -0.248 OA
BRANCH  17  19
ATOM     19  N   UNL A   1      36.846  32.847  30.857  1.00  0.00    -0.321 N 
ATOM     20  C   UNL A   1      36.761  33.209  32.265  1.00  0.00     0.121 C 
ATOM     21  C   UNL A   1      36.101  33.736  29.982  1.00  0.00     0.090 C 
ATOM     22  C   UNL A   1      35.309  33.242  32.749  1.00  0.00     0.022 C 
ATOM     23  C   UNL A   1      34.623  33.615  30.369  1.00  0.00     0.012 C 
ATOM     24  C   UNL A   1      36.049  33.482  28.480  1.00  0.00     0.025 C 
ATOM     25  C   UNL A   1      34.405  34.061  31.812  1.00  0.00     0.007 C 
ATOM     26  C   UNL A   1      33.914  34.411  29.288  1.00  0.00     0.006 C 
ATOM     27  C   UNL A   1      34.737  34.140  28.022  1.00  0.00     0.002 C 
ENDBRANCH  17  19
ENDBRANCH  14  17
ENDBRANCH   9  11
ENDBRANCH   8   9
ENDBRANCH   7   8
ENDBRANCH   6   7
ENDBRANCH   5   6
ENDBRANCH   4   5
ENDBRANCH   3   4
ENDBRANCH   2   3
ENDBRANCH   1   2
BRANCH   1  28
ATOM     28  C   UNL A   1      45.524  24.550  26.597  1.00  0.00     0.188 C 
BRANCH  28  29
ATOM     29  O   UNL A   1      46.670  23.917  26.036  1.00  0.00    -0.376 OA
BRANCH  29  30
ATOM     30  C   UNL A   1      47.048  24.254  24.711  1.00  0.00     0.202 C 
BRANCH  30  31
ATOM     31  C   UNL A   1      47.942  25.491  24.533  1.00  0.00     0.261 C 
BRANCH  31  32
ATOM     32  O   UNL A   1      48.454  26.073  25.739  1.00  0.00    -0.460 OA
BRANCH  32  33
ATOM     33  C   UNL A   1      48.728  27.395  25.720  1.00  0.00     0.338 C 
ATOM     34  O   UNL A   1      49.510  27.968  24.977  1.00  0.00    -0.246 OA
BRANCH  33  35
ATOM     35  C   UNL A   1      47.763  28.072  26.609  1.00  0.00     0.060 A 
ATOM     36  C   UNL A   1      48.245  28.750  27.738  1.00  0.00     0.016 A 
ATOM     37  C   UNL A   1      46.395  28.052  26.326  1.00  0.00     0.016 A 
ATOM     38  C   UNL A   1      47.354  29.371  28.611  1.00  0.00     0.010 A 
ATOM     39  C   UNL A   1      45.503  28.655  27.215  1.00  0.00     0.010 A 
ATOM     40  C   UNL A   1      45.976  29.282  28.381  1.00  0.00    -0.014 A 
BRANCH  40  41
ATOM     41  C   UNL A   1      45.028  29.656  29.459  1.00  0.00     0.031 A 
ATOM     42  C   UNL A   1      44.417  31.031  29.423  1.00  0.00     0.074 A 
ATOM     43  C   UNL A   1      44.712  28.799  30.445  1.00  0.00     0.049 A 
ATOM     44  N   UNL A   1      43.600  31.599  30.269  1.00  0.00    -0.248 NA
ATOM     45  C   UNL A   1      44.779  31.879  28.274  1.00  0.00     0.031 C 
ATOM     46  C   UNL A   1      45.224  27.437  30.581  1.00  0.00     0.029 A 
ATOM     47  N   UNL A   1      43.896  28.965  31.537  1.00  0.00    -0.354 N 
ATOM     48  C   UNL A   1      43.377  32.879  29.778  1.00  0.00     0.074 A 
ATOM     49  C   UNL A   1      44.152  33.010  28.564  1.00  0.00     0.031 C 
ATOM     50  C   UNL A   1      44.735  26.900  31.713  1.00  0.00     0.029 A 
ATOM     51  C   UNL A   1      43.900  27.889  32.394  1.00  0.00     0.049 A 
ATOM     52  H   UNL A   1      43.360  29.775  31.692  1.00  0.00     0.167 HD
ATOM     53  C   UNL A   1      42.590  33.856  30.283  1.00  0.00     0.034 A 
ATOM     54  C   UNL A   1      43.321  27.735  33.601  1.00  0.00     0.034 A 
ATOM     55  C   UNL A   1      41.813  33.721  31.485  1.00  0.00     0.049 A 
ATOM     56  C   UNL A   1      42.479  28.854  34.164  1.00  0.00     0.074 A 
ATOM     57  C   UNL A   1      40.950  34.638  32.057  1.00  0.00     0.029 A 
ATOM     58  N   UNL A   1      41.818  32.607  32.310  1.00  0.00    -0.354 N 
ATOM     59  N   UNL A   1      42.192  30.020  33.636  1.00  0.00    -0.248 NA
ATOM     60  C   UNL A   1      41.857  28.624  35.477  1.00  0.00     0.031 C 
ATOM     61  C   UNL A   1      40.467  34.095  33.252  1.00  0.00     0.029 A 
ATOM     62  C   UNL A   1      40.989  32.819  33.396  1.00  0.00     0.049 A 
ATOM     63  H   UNL A   1      42.337  31.786  32.146  1.00  0.00     0.167 HD
ATOM     64  C   UNL A   1      41.324  30.641  34.529  1.00  0.00     0.074 A 
ATOM     65  C   UNL A   1      41.120  29.716  35.623  1.00  0.00     0.031 C 
ATOM     66  C   UNL A   1      40.754  31.871  34.455  1.00  0.00     0.034 A 
BRANCH  53  67
ATOM     67  C   UNL A   1      42.526  35.160  29.534  1.00  0.00     0.023 A 
ATOM     68  C   UNL A   1      41.604  35.324  28.481  1.00  0.00     0.012 A 
ATOM     69  C   UNL A   1      43.348  36.241  29.906  1.00  0.00     0.148 A 
ATOM     70  C   UNL A   1      41.524  36.531  27.787  1.00  0.00     0.002 A 
ATOM     71  C   UNL A   1      43.229  37.457  29.243  1.00  0.00     0.091 A 
ATOM     72  F   UNL A   1      44.235  36.059  30.894  1.00  0.00    -0.205 F 
ATOM     73  C   UNL A   1      42.327  37.599  28.176  1.00  0.00     0.022 A 
BRANCH  71  74
ATOM     74  S   UNL A   1      44.160  38.916  29.721  1.00  0.00     0.127 S 
ATOM     75  O   UNL A   1      45.517  38.543  29.321  1.00  0.00    -0.237 OA
ATOM     76  O   UNL A   1      43.545  39.955  28.896  1.00  0.00    -0.237 OA
ATOM     77  O   UNL A   1      43.956  39.074  31.154  1.00  0.00    -0.744 OA
ENDBRANCH  71  74
ENDBRANCH  53  67
BRANCH  54  78
ATOM     78  C   UNL A   1      43.499  26.466  34.362  1.00  0.00     0.023 A 
ATOM     79  C   UNL A   1      42.466  25.509  34.379  1.00  0.00     0.012 A 
ATOM     80  C   UNL A   1      44.687  26.206  35.073  1.00  0.00     0.148 A 
ATOM     81  C   UNL A   1      42.597  24.333  35.120  1.00  0.00     0.002 A 
ATOM     82  C   UNL A   1      44.835  25.008  35.761  1.00  0.00     0.091 A 
ATOM     83  F   UNL A   1      45.652  27.137  35.058  1.00  0.00    -0.205 F 
ATOM     84  C   UNL A   1      43.784  24.078  35.802  1.00  0.00     0.022 A 
BRANCH  82  85
ATOM     85  S   UNL A   1      46.371  24.540  36.565  1.00  0.00     0.127 S 
ATOM     86  O   UNL A   1      46.027  23.239  37.132  1.00  0.00    -0.237 OA
ATOM     87  O   UNL A   1      47.298  24.497  35.435  1.00  0.00    -0.237 OA
ATOM     88  O   UNL A   1      46.648  25.595  37.531  1.00  0.00    -0.744 OA
ENDBRANCH  82  85
ENDBRANCH  54  78
BRANCH  66  89
ATOM     89  C   UNL A   1      39.807  32.276  35.556  1.00  0.00     0.023 A 
ATOM     90  C   UNL A   1      38.418  32.107  35.395  1.00  0.00     0.012 A 
ATOM     91  C   UNL A   1      40.306  32.753  36.784  1.00  0.00     0.148 A 
ATOM     92  C   UNL A   1      37.539  32.445  36.425  1.00  0.00     0.002 A 
ATOM     93  C   UNL A   1      39.430  33.034  37.825  1.00  0.00     0.091 A 
ATOM     94  F   UNL A   1      41.631  32.919  36.914  1.00  0.00    -0.205 F 
ATOM     95  C   UNL A   1      38.045  32.895  37.642  1.00  0.00     0.022 A 
BRANCH  93  96
ATOM     96  S   UNL A   1      39.995  33.522  39.458  1.00  0.00     0.127 S 
ATOM     97  O   UNL A   1      40.739  34.745  39.163  1.00  0.00    -0.237 OA
ATOM     98  O   UNL A   1      38.735  33.733  40.172  1.00  0.00    -0.237 OA
ATOM     99  O   UNL A   1      40.794  32.412  39.958  1.00  0.00    -0.744 OA
ENDBRANCH  93  96
ENDBRANCH  66  89
ENDBRANCH  40  41
ENDBRANCH  33  35
ENDBRANCH  32  33
ENDBRANCH  31  32
ENDBRANCH  30  31
ENDBRANCH  29  30
ENDBRANCH  28  29
ENDBRANCH   1  28
TORSDOF 25
ENDMDL
