MODEL 1
REMARK VINA RESULT:      -8.4      0.000      0.000
REMARK SMILES [NH3+][C@@]1(C(=O)OCCOCCOCCOCCOC(=O)c2ccc(-c3c4nc(c(-c5cccc(S(=O)(=O)[O-])c5F)c5ccc([nH]5)c(-c5cccc(S(=O)(=O)[O-])c5F)c5nc(c(-c6cccc(S(=O)(=O)[O-])c6F)c6ccc3[nH]6)C=C5)C=C4)cc2)CC[C@@H]([N@H+]2CC[C@H]([NH+]3CCOCC3)C2)C1
REMARK SMILES IDX 12 1 11 2 10 3 9 4 8 5 7 6 6 7 5 8 3 9 4 10 2 11 83 12 97 13
REMARK SMILES IDX 84 14 85 15 1 16 86 20 87 21 96 22 88 24 89 25 90 26 91 27
REMARK SMILES IDX 95 28 92 30 94 31 93 32 13 33 14 34 15 35 16 36 17 37 18 38
REMARK SMILES IDX 19 39 20 40 21 41 82 42 22 43 81 44 23 45 24 46 25 47 75 48
REMARK SMILES IDX 26 49 80 50 74 51 76 52 27 53 79 54 73 55 72 56 28 58 60 59
REMARK SMILES IDX 40 60 59 61 41 62 44 63 58 64 77 65 42 66 43 67 57 69 78 70
REMARK SMILES IDX 45 71 29 72 30 73 38 74 31 75 33 76 39 77 32 78 34 79 35 80
REMARK SMILES IDX 36 81 37 82 61 83 62 84 70 85 63 86 65 87 71 88 64 89 66 90
REMARK SMILES IDX 67 91 68 92 69 93 46 94 47 95 55 96 48 97 50 98 56 99 49 100
REMARK SMILES IDX 51 101 52 102 53 103 54 104
REMARK H PARENT 1 17 1 18 1 19 86 23 90 29 76 57 44 68
REMARK Flexibility Score: inf
ROOT
ATOM      1  C   UNL A   1      37.035  30.405  31.649  1.00  0.00     0.188 C 
ENDROOT
BRANCH   1   2
ATOM      2  O   UNL A   1      36.323  29.534  30.783  1.00  0.00    -0.377 OA
BRANCH   2   3
ATOM      3  C   UNL A   1      36.491  29.700  29.394  1.00  0.00     0.188 C 
BRANCH   3   4
ATOM      4  C   UNL A   1      37.048  31.066  28.979  1.00  0.00     0.188 C 
BRANCH   4   5
ATOM      5  O   UNL A   1      36.196  32.061  28.433  1.00  0.00    -0.376 OA
BRANCH   5   6
ATOM      6  C   UNL A   1      34.793  31.837  28.315  1.00  0.00     0.202 C 
BRANCH   6   7
ATOM      7  C   UNL A   1      34.210  30.871  27.267  1.00  0.00     0.261 C 
BRANCH   7   8
ATOM      8  O   UNL A   1      32.996  30.212  27.652  1.00  0.00    -0.459 OA
BRANCH   8   9
ATOM      9  C   UNL A   1      32.145  29.842  26.665  1.00  0.00     0.368 C 
ATOM     10  O   UNL A   1      31.714  30.604  25.802  1.00  0.00    -0.245 OA
BRANCH   9  11
ATOM     11  C   UNL A   1      31.878  28.305  26.622  1.00  0.00     0.198 C 
ATOM     12  C   UNL A   1      33.210  27.547  26.613  1.00  0.00     0.087 C 
ATOM     13  C   UNL A   1      31.120  27.804  25.372  1.00  0.00     0.145 C 
ATOM     14  C   UNL A   1      33.439  27.192  25.152  1.00  0.00     0.072 C 
ATOM     15  C   UNL A   1      32.053  26.887  24.575  1.00  0.00     0.191 C 
BRANCH  11  16
ATOM     16  N   UNL A   1      31.165  27.933  27.885  1.00  0.00    -0.343 N 
ATOM     17  H   UNL A   1      31.473  27.009  28.191  1.00  0.00     0.345 HD
ATOM     18  H   UNL A   1      30.159  27.916  27.716  1.00  0.00     0.345 HD
ATOM     19  H   UNL A   1      31.376  28.618  28.610  1.00  0.00     0.345 HD
ENDBRANCH  11  16
BRANCH  15  20
ATOM     20  N   UNL A   1      31.654  25.472  24.590  1.00  0.00    -0.327 N 
ATOM     21  C   UNL A   1      30.754  25.043  23.527  1.00  0.00     0.269 C 
ATOM     22  C   UNL A   1      32.814  24.563  24.544  1.00  0.00     0.328 C 
ATOM     23  H   UNL A   1      31.149  25.413  25.474  1.00  0.00     0.348 HD
ATOM     24  C   UNL A   1      30.866  23.531  23.520  1.00  0.00     0.132 C 
ATOM     25  C   UNL A   1      32.236  23.195  24.120  1.00  0.00     0.245 C 
BRANCH  25  26
ATOM     26  N   UNL A   1      32.337  22.112  25.113  1.00  0.00    -0.324 N 
ATOM     27  C   UNL A   1      32.610  22.552  26.490  1.00  0.00     0.291 C 
ATOM     28  C   UNL A   1      33.242  20.997  24.777  1.00  0.00     0.291 C 
ATOM     29  H   UNL A   1      31.386  21.749  25.070  1.00  0.00     0.348 HD
ATOM     30  C   UNL A   1      34.098  22.729  26.854  1.00  0.00     0.221 C 
ATOM     31  C   UNL A   1      34.719  21.269  25.077  1.00  0.00     0.221 C 
ATOM     32  O   UNL A   1      34.914  21.623  26.454  1.00  0.00    -0.370 OA
ENDBRANCH  25  26
ENDBRANCH  15  20
ENDBRANCH   9  11
ENDBRANCH   8   9
ENDBRANCH   7   8
ENDBRANCH   6   7
ENDBRANCH   5   6
ENDBRANCH   4   5
ENDBRANCH   3   4
ENDBRANCH   2   3
ENDBRANCH   1   2
BRANCH   1  33
ATOM     33  C   UNL A   1      36.223  31.376  32.526  1.00  0.00     0.188 C 
BRANCH  33  34
ATOM     34  O   UNL A   1      35.681  32.482  31.817  1.00  0.00    -0.376 OA
BRANCH  34  35
ATOM     35  C   UNL A   1      35.914  33.797  32.298  1.00  0.00     0.202 C 
BRANCH  35  36
ATOM     36  C   UNL A   1      35.741  34.089  33.800  1.00  0.00     0.261 C 
BRANCH  36  37
ATOM     37  O   UNL A   1      36.926  34.356  34.567  1.00  0.00    -0.460 OA
BRANCH  37  38
ATOM     38  C   UNL A   1      37.226  33.546  35.606  1.00  0.00     0.338 C 
ATOM     39  O   UNL A   1      36.639  33.460  36.662  1.00  0.00    -0.246 OA
BRANCH  38  40
ATOM     40  C   UNL A   1      38.292  32.622  35.150  1.00  0.00     0.060 A 
ATOM     41  C   UNL A   1      38.224  31.273  35.523  1.00  0.00     0.016 A 
ATOM     42  C   UNL A   1      39.346  33.087  34.363  1.00  0.00     0.016 A 
ATOM     43  C   UNL A   1      39.237  30.392  35.141  1.00  0.00     0.010 A 
ATOM     44  C   UNL A   1      40.369  32.206  33.998  1.00  0.00     0.010 A 
ATOM     45  C   UNL A   1      40.337  30.864  34.415  1.00  0.00    -0.014 A 
BRANCH  45  46
ATOM     46  C   UNL A   1      41.534  30.005  34.243  1.00  0.00     0.031 A 
ATOM     47  C   UNL A   1      42.574  29.996  35.330  1.00  0.00     0.074 A 
ATOM     48  C   UNL A   1      41.702  29.255  33.138  1.00  0.00     0.049 A 
ATOM     49  N   UNL A   1      43.722  29.373  35.374  1.00  0.00    -0.248 NA
ATOM     50  C   UNL A   1      42.280  30.801  36.528  1.00  0.00     0.031 C 
ATOM     51  C   UNL A   1      40.762  29.170  32.023  1.00  0.00     0.029 A 
ATOM     52  N   UNL A   1      42.744  28.443  32.765  1.00  0.00    -0.354 N 
ATOM     53  C   UNL A   1      44.303  29.737  36.584  1.00  0.00     0.074 A 
ATOM     54  C   UNL A   1      43.385  30.639  37.242  1.00  0.00     0.031 C 
ATOM     55  C   UNL A   1      41.287  28.378  31.071  1.00  0.00     0.029 A 
ATOM     56  C   UNL A   1      42.611  27.927  31.498  1.00  0.00     0.049 A 
ATOM     57  H   UNL A   1      43.514  28.249  33.348  1.00  0.00     0.167 HD
ATOM     58  C   UNL A   1      45.491  29.347  37.105  1.00  0.00     0.034 A 
ATOM     59  C   UNL A   1      43.472  27.202  30.755  1.00  0.00     0.034 A 
ATOM     60  C   UNL A   1      46.398  28.442  36.452  1.00  0.00     0.049 A 
ATOM     61  C   UNL A   1      44.805  26.813  31.344  1.00  0.00     0.074 A 
ATOM     62  C   UNL A   1      47.603  27.949  36.920  1.00  0.00     0.029 A 
ATOM     63  N   UNL A   1      46.213  27.913  35.184  1.00  0.00    -0.354 N 
ATOM     64  N   UNL A   1      45.292  27.070  32.533  1.00  0.00    -0.248 NA
ATOM     65  C   UNL A   1      45.697  26.007  30.495  1.00  0.00     0.031 C 
ATOM     66  C   UNL A   1      48.169  27.156  35.916  1.00  0.00     0.029 A 
ATOM     67  C   UNL A   1      47.291  27.114  34.844  1.00  0.00     0.049 A 
ATOM     68  H   UNL A   1      45.431  28.080  34.611  1.00  0.00     0.167 HD
ATOM     69  C   UNL A   1      46.525  26.428  32.591  1.00  0.00     0.074 A 
ATOM     70  C   UNL A   1      46.702  25.752  31.323  1.00  0.00     0.031 C 
ATOM     71  C   UNL A   1      47.433  26.408  33.598  1.00  0.00     0.034 A 
BRANCH  58  72
ATOM     72  C   UNL A   1      45.879  29.895  38.453  1.00  0.00     0.023 A 
ATOM     73  C   UNL A   1      46.516  31.149  38.547  1.00  0.00     0.012 A 
ATOM     74  C   UNL A   1      45.557  29.194  39.631  1.00  0.00     0.148 A 
ATOM     75  C   UNL A   1      46.853  31.683  39.791  1.00  0.00     0.002 A 
ATOM     76  C   UNL A   1      45.853  29.753  40.868  1.00  0.00     0.091 A 
ATOM     77  F   UNL A   1      44.972  27.993  39.520  1.00  0.00    -0.205 F 
ATOM     78  C   UNL A   1      46.512  30.990  40.950  1.00  0.00     0.022 A 
BRANCH  76  79
ATOM     79  S   UNL A   1      45.383  28.980  42.420  1.00  0.00     0.127 S 
ATOM     80  O   UNL A   1      44.121  28.336  42.057  1.00  0.00    -0.237 OA
ATOM     81  O   UNL A   1      46.493  28.057  42.650  1.00  0.00    -0.237 OA
ATOM     82  O   UNL A   1      45.273  30.059  43.391  1.00  0.00    -0.744 OA
ENDBRANCH  76  79
ENDBRANCH  58  72
BRANCH  59  83
ATOM     83  C   UNL A   1      43.103  26.784  29.372  1.00  0.00     0.023 A 
ATOM     84  C   UNL A   1      42.488  25.535  29.159  1.00  0.00     0.012 A 
ATOM     85  C   UNL A   1      43.365  27.617  28.267  1.00  0.00     0.148 A 
ATOM     86  C   UNL A   1      42.174  25.108  27.868  1.00  0.00     0.002 A 
ATOM     87  C   UNL A   1      42.995  27.211  26.991  1.00  0.00     0.091 A 
ATOM     88  F   UNL A   1      43.966  28.795  28.489  1.00  0.00    -0.205 F 
ATOM     89  C   UNL A   1      42.418  25.949  26.786  1.00  0.00     0.022 A 
BRANCH  87  90
ATOM     90  S   UNL A   1      43.153  28.280  25.556  1.00  0.00     0.127 S 
ATOM     91  O   UNL A   1      42.460  29.485  26.003  1.00  0.00    -0.237 OA
ATOM     92  O   UNL A   1      44.605  28.410  25.439  1.00  0.00    -0.237 OA
ATOM     93  O   UNL A   1      42.523  27.560  24.458  1.00  0.00    -0.744 OA
ENDBRANCH  87  90
ENDBRANCH  59  83
BRANCH  71  94
ATOM     94  C   UNL A   1      48.684  25.589  33.399  1.00  0.00     0.023 A 
ATOM     95  C   UNL A   1      49.842  26.182  32.855  1.00  0.00     0.012 A 
ATOM     96  C   UNL A   1      48.731  24.245  33.819  1.00  0.00     0.148 A 
ATOM     97  C   UNL A   1      51.013  25.440  32.699  1.00  0.00     0.002 A 
ATOM     98  C   UNL A   1      49.916  23.528  33.711  1.00  0.00     0.091 A 
ATOM     99  F   UNL A   1      47.617  23.693  34.321  1.00  0.00    -0.205 F 
ATOM    100  C   UNL A   1      51.053  24.118  33.137  1.00  0.00     0.022 A 
BRANCH  98 101
ATOM    101  S   UNL A   1      50.093  21.854  34.339  1.00  0.00     0.127 S 
ATOM    102  O   UNL A   1      49.732  22.023  35.746  1.00  0.00    -0.237 OA
ATOM    103  O   UNL A   1      49.111  21.119  33.541  1.00  0.00    -0.237 OA
ATOM    104  O   UNL A   1      51.479  21.475  34.094  1.00  0.00    -0.744 OA
ENDBRANCH  98 101
ENDBRANCH  71  94
ENDBRANCH  45  46
ENDBRANCH  38  40
ENDBRANCH  37  38
ENDBRANCH  36  37
ENDBRANCH  35  36
ENDBRANCH  34  35
ENDBRANCH  33  34
ENDBRANCH   1  33
TORSDOF 26
ENDMDL
MODEL 2
REMARK VINA RESULT:      -7.9      7.129     11.648
REMARK SMILES [NH3+][C@@]1(C(=O)OCCOCCOCCOCCOC(=O)c2ccc(-c3c4nc(c(-c5cccc(S(=O)(=O)[O-])c5F)c5ccc([nH]5)c(-c5cccc(S(=O)(=O)[O-])c5F)c5nc(c(-c6cccc(S(=O)(=O)[O-])c6F)c6ccc3[nH]6)C=C5)C=C4)cc2)CC[C@@H]([N@H+]2CC[C@H]([NH+]3CCOCC3)C2)C1
REMARK SMILES IDX 12 1 11 2 10 3 9 4 8 5 7 6 6 7 5 8 3 9 4 10 2 11 83 12 97 13
REMARK SMILES IDX 84 14 85 15 1 16 86 20 87 21 96 22 88 24 89 25 90 26 91 27
REMARK SMILES IDX 95 28 92 30 94 31 93 32 13 33 14 34 15 35 16 36 17 37 18 38
REMARK SMILES IDX 19 39 20 40 21 41 82 42 22 43 81 44 23 45 24 46 25 47 75 48
REMARK SMILES IDX 26 49 80 50 74 51 76 52 27 53 79 54 73 55 72 56 28 58 60 59
REMARK SMILES IDX 40 60 59 61 41 62 44 63 58 64 77 65 42 66 43 67 57 69 78 70
REMARK SMILES IDX 45 71 29 72 30 73 38 74 31 75 33 76 39 77 32 78 34 79 35 80
REMARK SMILES IDX 36 81 37 82 61 83 62 84 70 85 63 86 65 87 71 88 64 89 66 90
REMARK SMILES IDX 67 91 68 92 69 93 46 94 47 95 55 96 48 97 50 98 56 99 49 100
REMARK SMILES IDX 51 101 52 102 53 103 54 104
REMARK H PARENT 1 17 1 18 1 19 86 23 90 29 76 57 44 68
REMARK Flexibility Score: inf
ROOT
ATOM      1  C   UNL A   1      43.910  40.772  27.709  1.00  0.00     0.188 C 
ENDROOT
BRANCH   1   2
ATOM      2  O   UNL A   1      42.703  40.573  26.985  1.00  0.00    -0.377 OA
BRANCH   2   3
ATOM      3  C   UNL A   1      41.838  39.546  27.413  1.00  0.00     0.188 C 
BRANCH   3   4
ATOM      4  C   UNL A   1      42.509  38.461  28.262  1.00  0.00     0.188 C 
BRANCH   4   5
ATOM      5  O   UNL A   1      41.894  37.192  28.433  1.00  0.00    -0.376 OA
BRANCH   5   6
ATOM      6  C   UNL A   1      42.540  36.001  27.990  1.00  0.00     0.202 C 
BRANCH   6   7
ATOM      7  C   UNL A   1      42.478  34.694  28.801  1.00  0.00     0.261 C 
BRANCH   7   8
ATOM      8  O   UNL A   1      41.535  34.689  29.882  1.00  0.00    -0.459 OA
BRANCH   8   9
ATOM      9  C   UNL A   1      40.767  33.585  30.038  1.00  0.00     0.368 C 
ATOM     10  O   UNL A   1      41.190  32.433  29.969  1.00  0.00    -0.245 OA
BRANCH   9  11
ATOM     11  C   UNL A   1      39.304  33.905  30.478  1.00  0.00     0.198 C 
ATOM     12  C   UNL A   1      39.208  33.892  32.007  1.00  0.00     0.087 C 
ATOM     13  C   UNL A   1      38.237  32.897  29.997  1.00  0.00     0.145 C 
ATOM     14  C   UNL A   1      38.635  32.524  32.343  1.00  0.00     0.072 C 
ATOM     15  C   UNL A   1      37.638  32.205  31.225  1.00  0.00     0.191 C 
BRANCH  11  16
ATOM     16  N   UNL A   1      38.990  35.298  30.026  1.00  0.00    -0.343 N 
ATOM     17  H   UNL A   1      39.857  35.783  29.791  1.00  0.00     0.345 HD
ATOM     18  H   UNL A   1      38.513  35.800  30.775  1.00  0.00     0.345 HD
ATOM     19  H   UNL A   1      38.388  35.261  29.204  1.00  0.00     0.345 HD
ENDBRANCH  11  16
BRANCH  15  20
ATOM     20  N   UNL A   1      36.240  32.571  31.494  1.00  0.00    -0.327 N 
ATOM     21  C   UNL A   1      35.812  32.517  32.885  1.00  0.00     0.269 C 
ATOM     22  C   UNL A   1      35.914  33.926  31.012  1.00  0.00     0.328 C 
ATOM     23  H   UNL A   1      35.738  31.846  30.981  1.00  0.00     0.348 HD
ATOM     24  C   UNL A   1      34.536  33.335  32.924  1.00  0.00     0.132 C 
ATOM     25  C   UNL A   1      34.611  34.312  31.746  1.00  0.00     0.245 C 
BRANCH  25  26
ATOM     26  N   UNL A   1      33.423  34.505  30.899  1.00  0.00    -0.324 N 
ATOM     27  C   UNL A   1      33.679  34.485  29.450  1.00  0.00     0.291 C 
ATOM     28  C   UNL A   1      32.570  35.666  31.220  1.00  0.00     0.291 C 
ATOM     29  H   UNL A   1      32.895  33.669  31.147  1.00  0.00     0.348 HD
ATOM     30  C   UNL A   1      34.076  35.836  28.821  1.00  0.00     0.221 C 
ATOM     31  C   UNL A   1      33.069  36.994  30.643  1.00  0.00     0.221 C 
ATOM     32  O   UNL A   1      33.226  36.917  29.219  1.00  0.00    -0.370 OA
ENDBRANCH  25  26
ENDBRANCH  15  20
ENDBRANCH   9  11
ENDBRANCH   8   9
ENDBRANCH   7   8
ENDBRANCH   6   7
ENDBRANCH   5   6
ENDBRANCH   4   5
ENDBRANCH   3   4
ENDBRANCH   2   3
ENDBRANCH   1   2
BRANCH   1  33
ATOM     33  C   UNL A   1      44.934  41.774  27.145  1.00  0.00     0.188 C 
BRANCH  33  34
ATOM     34  O   UNL A   1      45.491  42.643  28.122  1.00  0.00    -0.376 OA
BRANCH  34  35
ATOM     35  C   UNL A   1      44.984  43.964  28.245  1.00  0.00     0.202 C 
BRANCH  35  36
ATOM     36  C   UNL A   1      44.948  44.627  29.635  1.00  0.00     0.261 C 
BRANCH  36  37
ATOM     37  O   UNL A   1      44.016  44.107  30.596  1.00  0.00    -0.460 OA
BRANCH  37  38
ATOM     38  C   UNL A   1      44.458  43.813  31.838  1.00  0.00     0.338 C 
ATOM     39  O   UNL A   1      44.758  44.596  32.713  1.00  0.00    -0.246 OA
BRANCH  38  40
ATOM     40  C   UNL A   1      44.318  42.349  32.020  1.00  0.00     0.060 A 
ATOM     41  C   UNL A   1      45.319  41.654  32.713  1.00  0.00     0.016 A 
ATOM     42  C   UNL A   1      43.210  41.671  31.509  1.00  0.00     0.016 A 
ATOM     43  C   UNL A   1      45.231  40.269  32.862  1.00  0.00     0.010 A 
ATOM     44  C   UNL A   1      43.135  40.282  31.642  1.00  0.00     0.010 A 
ATOM     45  C   UNL A   1      44.162  39.570  32.287  1.00  0.00    -0.014 A 
BRANCH  45  46
ATOM     46  C   UNL A   1      44.203  38.091  32.206  1.00  0.00     0.031 A 
ATOM     47  C   UNL A   1      44.986  37.453  31.091  1.00  0.00     0.074 A 
ATOM     48  C   UNL A   1      43.550  37.323  33.099  1.00  0.00     0.049 A 
ATOM     49  N   UNL A   1      45.118  36.190  30.786  1.00  0.00    -0.248 NA
ATOM     50  C   UNL A   1      45.718  38.367  30.196  1.00  0.00     0.031 C 
ATOM     51  C   UNL A   1      42.768  37.821  34.228  1.00  0.00     0.029 A 
ATOM     52  N   UNL A   1      43.419  35.959  33.171  1.00  0.00    -0.354 N 
ATOM     53  C   UNL A   1      45.915  36.156  29.647  1.00  0.00     0.074 A 
ATOM     54  C   UNL A   1      46.233  37.526  29.312  1.00  0.00     0.031 C 
ATOM     55  C   UNL A   1      42.208  36.776  34.863  1.00  0.00     0.029 A 
ATOM     56  C   UNL A   1      42.566  35.542  34.166  1.00  0.00     0.049 A 
ATOM     57  H   UNL A   1      43.890  35.338  32.569  1.00  0.00     0.167 HD
ATOM     58  C   UNL A   1      46.351  35.081  28.949  1.00  0.00     0.034 A 
ATOM     59  C   UNL A   1      42.103  34.309  34.458  1.00  0.00     0.034 A 
ATOM     60  C   UNL A   1      46.041  33.719  29.291  1.00  0.00     0.049 A 
ATOM     61  C   UNL A   1      42.574  33.132  33.641  1.00  0.00     0.074 A 
ATOM     62  C   UNL A   1      46.475  32.559  28.674  1.00  0.00     0.029 A 
ATOM     63  N   UNL A   1      45.203  33.334  30.325  1.00  0.00    -0.354 N 
ATOM     64  N   UNL A   1      43.418  33.105  32.638  1.00  0.00    -0.248 NA
ATOM     65  C   UNL A   1      42.050  31.810  34.016  1.00  0.00     0.031 C 
ATOM     66  C   UNL A   1      45.863  31.473  29.309  1.00  0.00     0.029 A 
ATOM     67  C   UNL A   1      45.089  31.955  30.353  1.00  0.00     0.049 A 
ATOM     68  H   UNL A   1      44.755  33.950  30.949  1.00  0.00     0.167 HD
ATOM     69  C   UNL A   1      43.556  31.765  32.289  1.00  0.00     0.074 A 
ATOM     70  C   UNL A   1      42.724  31.010  33.201  1.00  0.00     0.031 C 
ATOM     71  C   UNL A   1      44.295  31.211  31.296  1.00  0.00     0.034 A 
BRANCH  58  72
ATOM     72  C   UNL A   1      47.218  35.332  27.743  1.00  0.00     0.023 A 
ATOM     73  C   UNL A   1      46.625  35.619  26.497  1.00  0.00     0.012 A 
ATOM     74  C   UNL A   1      48.622  35.345  27.859  1.00  0.00     0.148 A 
ATOM     75  C   UNL A   1      47.416  35.884  25.379  1.00  0.00     0.002 A 
ATOM     76  C   UNL A   1      49.402  35.656  26.753  1.00  0.00     0.091 A 
ATOM     77  F   UNL A   1      49.167  35.049  29.048  1.00  0.00    -0.205 F 
ATOM     78  C   UNL A   1      48.802  35.913  25.510  1.00  0.00     0.022 A 
BRANCH  76  79
ATOM     79  S   UNL A   1      51.190  35.801  26.836  1.00  0.00     0.127 S 
ATOM     80  O   UNL A   1      51.558  34.532  27.463  1.00  0.00    -0.237 OA
ATOM     81  O   UNL A   1      51.553  35.911  25.424  1.00  0.00    -0.237 OA
ATOM     82  O   UNL A   1      51.462  36.989  27.632  1.00  0.00    -0.744 OA
ENDBRANCH  76  79
ENDBRANCH  58  72
BRANCH  59  83
ATOM     83  C   UNL A   1      41.144  34.116  35.584  1.00  0.00     0.023 A 
ATOM     84  C   UNL A   1      39.763  34.279  35.363  1.00  0.00     0.012 A 
ATOM     85  C   UNL A   1      41.598  33.776  36.874  1.00  0.00     0.148 A 
ATOM     86  C   UNL A   1      38.854  34.144  36.413  1.00  0.00     0.002 A 
ATOM     87  C   UNL A   1      40.682  33.584  37.901  1.00  0.00     0.091 A 
ATOM     88  F   UNL A   1      42.917  33.641  37.067  1.00  0.00    -0.205 F 
ATOM     89  C   UNL A   1      39.311  33.787  37.678  1.00  0.00     0.022 A 
BRANCH  87  90
ATOM     90  S   UNL A   1      41.167  32.999  39.528  1.00  0.00     0.127 S 
ATOM     91  O   UNL A   1      41.782  34.192  40.104  1.00  0.00    -0.237 OA
ATOM     92  O   UNL A   1      39.877  32.628  40.109  1.00  0.00    -0.237 OA
ATOM     93  O   UNL A   1      42.066  31.877  39.292  1.00  0.00    -0.744 OA
ENDBRANCH  87  90
ENDBRANCH  59  83
BRANCH  71  94
ATOM     94  C   UNL A   1      44.286  29.708  31.168  1.00  0.00     0.023 A 
ATOM     95  C   UNL A   1      44.979  28.912  32.103  1.00  0.00     0.012 A 
ATOM     96  C   UNL A   1      43.527  29.083  30.159  1.00  0.00     0.148 A 
ATOM     97  C   UNL A   1      44.948  27.521  32.011  1.00  0.00     0.002 A 
ATOM     98  C   UNL A   1      43.457  27.697  30.106  1.00  0.00     0.091 A 
ATOM     99  F   UNL A   1      42.885  29.856  29.271  1.00  0.00    -0.205 F 
ATOM    100  C   UNL A   1      44.179  26.914  31.021  1.00  0.00     0.022 A 
BRANCH  98 101
ATOM    101  S   UNL A   1      42.413  26.826  28.931  1.00  0.00     0.127 S 
ATOM    102  O   UNL A   1      42.918  27.329  27.655  1.00  0.00    -0.237 OA
ATOM    103  O   UNL A   1      42.737  25.427  29.207  1.00  0.00    -0.237 OA
ATOM    104  O   UNL A   1      41.043  27.206  29.251  1.00  0.00    -0.744 OA
ENDBRANCH  98 101
ENDBRANCH  71  94
ENDBRANCH  45  46
ENDBRANCH  38  40
ENDBRANCH  37  38
ENDBRANCH  36  37
ENDBRANCH  35  36
ENDBRANCH  34  35
ENDBRANCH  33  34
ENDBRANCH   1  33
TORSDOF 26
ENDMDL
MODEL 3
REMARK VINA RESULT:      -7.8      6.068     11.001
REMARK SMILES [NH3+][C@@]1(C(=O)OCCOCCOCCOCCOC(=O)c2ccc(-c3c4nc(c(-c5cccc(S(=O)(=O)[O-])c5F)c5ccc([nH]5)c(-c5cccc(S(=O)(=O)[O-])c5F)c5nc(c(-c6cccc(S(=O)(=O)[O-])c6F)c6ccc3[nH]6)C=C5)C=C4)cc2)CC[C@@H]([N@H+]2CC[C@H]([NH+]3CCOCC3)C2)C1
REMARK SMILES IDX 12 1 11 2 10 3 9 4 8 5 7 6 6 7 5 8 3 9 4 10 2 11 83 12 97 13
REMARK SMILES IDX 84 14 85 15 1 16 86 20 87 21 96 22 88 24 89 25 90 26 91 27
REMARK SMILES IDX 95 28 92 30 94 31 93 32 13 33 14 34 15 35 16 36 17 37 18 38
REMARK SMILES IDX 19 39 20 40 21 41 82 42 22 43 81 44 23 45 24 46 25 47 75 48
REMARK SMILES IDX 26 49 80 50 74 51 76 52 27 53 79 54 73 55 72 56 28 58 60 59
REMARK SMILES IDX 40 60 59 61 41 62 44 63 58 64 77 65 42 66 43 67 57 69 78 70
REMARK SMILES IDX 45 71 29 72 30 73 38 74 31 75 33 76 39 77 32 78 34 79 35 80
REMARK SMILES IDX 36 81 37 82 61 83 62 84 70 85 63 86 65 87 71 88 64 89 66 90
REMARK SMILES IDX 67 91 68 92 69 93 46 94 47 95 55 96 48 97 50 98 56 99 49 100
REMARK SMILES IDX 51 101 52 102 53 103 54 104
REMARK H PARENT 1 17 1 18 1 19 86 23 90 29 76 57 44 68
REMARK Flexibility Score: inf
ROOT
ATOM      1  C   UNL A   1      37.649  32.122  36.127  1.00  0.00     0.188 C 
ENDROOT
BRANCH   1   2
ATOM      2  O   UNL A   1      38.333  32.443  37.330  1.00  0.00    -0.377 OA
BRANCH   2   3
ATOM      3  C   UNL A   1      39.708  32.742  37.249  1.00  0.00     0.188 C 
BRANCH   3   4
ATOM      4  C   UNL A   1      40.490  31.876  36.255  1.00  0.00     0.188 C 
BRANCH   4   5
ATOM      5  O   UNL A   1      41.118  30.675  36.678  1.00  0.00    -0.376 OA
BRANCH   5   6
ATOM      6  C   UNL A   1      41.662  29.761  35.730  1.00  0.00     0.202 C 
BRANCH   6   7
ATOM      7  C   UNL A   1      42.572  28.594  36.156  1.00  0.00     0.261 C 
BRANCH   7   8
ATOM      8  O   UNL A   1      41.900  27.493  36.784  1.00  0.00    -0.459 OA
BRANCH   8   9
ATOM      9  C   UNL A   1      41.567  26.437  36.004  1.00  0.00     0.368 C 
ATOM     10  O   UNL A   1      40.945  26.526  34.948  1.00  0.00    -0.245 OA
BRANCH   9  11
ATOM     11  C   UNL A   1      42.189  25.089  36.489  1.00  0.00     0.198 C 
ATOM     12  C   UNL A   1      43.410  25.369  37.373  1.00  0.00     0.087 C 
ATOM     13  C   UNL A   1      42.708  24.163  35.366  1.00  0.00     0.145 C 
ATOM     14  C   UNL A   1      44.603  25.182  36.449  1.00  0.00     0.072 C 
ATOM     15  C   UNL A   1      44.227  24.029  35.512  1.00  0.00     0.191 C 
BRANCH  11  16
ATOM     16  N   UNL A   1      41.171  24.402  37.345  1.00  0.00    -0.343 N 
ATOM     17  H   UNL A   1      41.612  23.628  37.843  1.00  0.00     0.345 HD
ATOM     18  H   UNL A   1      40.419  24.043  36.756  1.00  0.00     0.345 HD
ATOM     19  H   UNL A   1      40.789  25.065  38.018  1.00  0.00     0.345 HD
ENDBRANCH  11  16
BRANCH  15  20
ATOM     20  N   UNL A   1      44.670  22.693  35.935  1.00  0.00    -0.327 N 
ATOM     21  C   UNL A   1      44.811  21.695  34.882  1.00  0.00     0.269 C 
ATOM     22  C   UNL A   1      45.961  22.731  36.646  1.00  0.00     0.328 C 
ATOM     23  H   UNL A   1      43.901  22.407  36.541  1.00  0.00     0.348 HD
ATOM     24  C   UNL A   1      45.668  20.608  35.500  1.00  0.00     0.132 C 
ATOM     25  C   UNL A   1      46.481  21.277  36.615  1.00  0.00     0.245 C 
BRANCH  25  26
ATOM     26  N   UNL A   1      46.600  20.602  37.918  1.00  0.00    -0.324 N 
ATOM     27  C   UNL A   1      46.188  21.408  39.078  1.00  0.00     0.291 C 
ATOM     28  C   UNL A   1      47.899  19.968  38.210  1.00  0.00     0.291 C 
ATOM     29  H   UNL A   1      45.923  19.851  37.787  1.00  0.00     0.348 HD
ATOM     30  C   UNL A   1      47.281  22.308  39.690  1.00  0.00     0.221 C 
ATOM     31  C   UNL A   1      48.970  20.932  38.729  1.00  0.00     0.221 C 
ATOM     32  O   UNL A   1      48.522  21.628  39.901  1.00  0.00    -0.370 OA
ENDBRANCH  25  26
ENDBRANCH  15  20
ENDBRANCH   9  11
ENDBRANCH   8   9
ENDBRANCH   7   8
ENDBRANCH   6   7
ENDBRANCH   5   6
ENDBRANCH   4   5
ENDBRANCH   3   4
ENDBRANCH   2   3
ENDBRANCH   1   2
BRANCH   1  33
ATOM     33  C   UNL A   1      37.261  33.278  35.186  1.00  0.00     0.188 C 
BRANCH  33  34
ATOM     34  O   UNL A   1      35.995  33.857  35.472  1.00  0.00    -0.376 OA
BRANCH  34  35
ATOM     35  C   UNL A   1      35.165  34.276  34.398  1.00  0.00     0.202 C 
BRANCH  35  36
ATOM     36  C   UNL A   1      34.852  33.287  33.260  1.00  0.00     0.261 C 
BRANCH  36  37
ATOM     37  O   UNL A   1      35.138  33.707  31.917  1.00  0.00    -0.460 OA
BRANCH  37  38
ATOM     38  C   UNL A   1      35.123  32.785  30.929  1.00  0.00     0.338 C 
ATOM     39  O   UNL A   1      34.182  32.472  30.233  1.00  0.00    -0.246 OA
BRANCH  38  40
ATOM     40  C   UNL A   1      36.525  32.360  30.703  1.00  0.00     0.060 A 
ATOM     41  C   UNL A   1      37.313  32.010  31.808  1.00  0.00     0.016 A 
ATOM     42  C   UNL A   1      37.054  32.310  29.413  1.00  0.00     0.016 A 
ATOM     43  C   UNL A   1      38.648  31.646  31.626  1.00  0.00     0.010 A 
ATOM     44  C   UNL A   1      38.396  31.964  29.235  1.00  0.00     0.010 A 
ATOM     45  C   UNL A   1      39.209  31.665  30.343  1.00  0.00    -0.014 A 
BRANCH  45  46
ATOM     46  C   UNL A   1      40.677  31.546  30.176  1.00  0.00     0.031 A 
ATOM     47  C   UNL A   1      41.496  32.806  30.095  1.00  0.00     0.074 A 
ATOM     48  C   UNL A   1      41.275  30.344  30.085  1.00  0.00     0.049 A 
ATOM     49  N   UNL A   1      42.778  32.951  29.893  1.00  0.00    -0.248 NA
ATOM     50  C   UNL A   1      40.766  34.076  30.262  1.00  0.00     0.031 C 
ATOM     51  C   UNL A   1      40.594  29.054  30.160  1.00  0.00     0.029 A 
ATOM     52  N   UNL A   1      42.593  30.020  29.880  1.00  0.00    -0.354 N 
ATOM     53  C   UNL A   1      43.006  34.323  29.874  1.00  0.00     0.074 A 
ATOM     54  C   UNL A   1      41.728  34.968  30.078  1.00  0.00     0.031 C 
ATOM     55  C   UNL A   1      41.495  28.075  29.967  1.00  0.00     0.029 A 
ATOM     56  C   UNL A   1      42.808  28.670  29.725  1.00  0.00     0.049 A 
ATOM     57  H   UNL A   1      43.315  30.688  29.847  1.00  0.00     0.167 HD
ATOM     58  C   UNL A   1      44.175  34.986  29.710  1.00  0.00     0.034 A 
ATOM     59  C   UNL A   1      43.929  27.998  29.392  1.00  0.00     0.034 A 
ATOM     60  C   UNL A   1      45.446  34.341  29.516  1.00  0.00     0.049 A 
ATOM     61  C   UNL A   1      45.210  28.763  29.176  1.00  0.00     0.074 A 
ATOM     62  C   UNL A   1      46.694  34.925  29.388  1.00  0.00     0.029 A 
ATOM     63  N   UNL A   1      45.630  32.972  29.398  1.00  0.00    -0.354 N 
ATOM     64  N   UNL A   1      45.432  30.051  29.273  1.00  0.00    -0.248 NA
ATOM     65  C   UNL A   1      46.405  27.976  28.833  1.00  0.00     0.031 C 
ATOM     66  C   UNL A   1      47.626  33.911  29.149  1.00  0.00     0.029 A 
ATOM     67  C   UNL A   1      46.967  32.692  29.179  1.00  0.00     0.049 A 
ATOM     68  H   UNL A   1      44.914  32.299  29.462  1.00  0.00     0.167 HD
ATOM     69  C   UNL A   1      46.793  30.225  29.043  1.00  0.00     0.074 A 
ATOM     70  C   UNL A   1      47.349  28.908  28.821  1.00  0.00     0.031 C 
ATOM     71  C   UNL A   1      47.516  31.372  29.008  1.00  0.00     0.034 A 
BRANCH  58  72
ATOM     72  C   UNL A   1      44.137  36.491  29.737  1.00  0.00     0.023 A 
ATOM     73  C   UNL A   1      44.326  37.179  30.952  1.00  0.00     0.012 A 
ATOM     74  C   UNL A   1      43.975  37.226  28.545  1.00  0.00     0.148 A 
ATOM     75  C   UNL A   1      44.324  38.574  30.987  1.00  0.00     0.002 A 
ATOM     76  C   UNL A   1      44.022  38.613  28.580  1.00  0.00     0.091 A 
ATOM     77  F   UNL A   1      43.774  36.553  27.403  1.00  0.00    -0.205 F 
ATOM     78  C   UNL A   1      44.183  39.289  29.800  1.00  0.00     0.022 A 
BRANCH  76  79
ATOM     79  S   UNL A   1      43.932  39.625  27.098  1.00  0.00     0.127 S 
ATOM     80  O   UNL A   1      43.981  40.974  27.660  1.00  0.00    -0.237 OA
ATOM     81  O   UNL A   1      45.139  39.220  26.379  1.00  0.00    -0.237 OA
ATOM     82  O   UNL A   1      42.682  39.270  26.443  1.00  0.00    -0.744 OA
ENDBRANCH  76  79
ENDBRANCH  58  72
BRANCH  59  83
ATOM     83  C   UNL A   1      43.899  26.514  29.250  1.00  0.00     0.023 A 
ATOM     84  C   UNL A   1      44.193  25.698  30.359  1.00  0.00     0.012 A 
ATOM     85  C   UNL A   1      43.585  25.909  28.016  1.00  0.00     0.148 A 
ATOM     86  C   UNL A   1      44.212  24.308  30.234  1.00  0.00     0.002 A 
ATOM     87  C   UNL A   1      43.546  24.524  27.915  1.00  0.00     0.091 A 
ATOM     88  F   UNL A   1      43.323  26.703  26.968  1.00  0.00    -0.205 F 
ATOM     89  C   UNL A   1      43.879  23.721  29.017  1.00  0.00     0.022 A 
BRANCH  87  90
ATOM     90  S   UNL A   1      43.005  23.681  26.425  1.00  0.00     0.127 S 
ATOM     91  O   UNL A   1      43.252  22.283  26.765  1.00  0.00    -0.237 OA
ATOM     92  O   UNL A   1      41.593  24.061  26.363  1.00  0.00    -0.237 OA
ATOM     93  O   UNL A   1      43.821  24.222  25.347  1.00  0.00    -0.744 OA
ENDBRANCH  87  90
ENDBRANCH  59  83
BRANCH  71  94
ATOM     94  C   UNL A   1      49.001  31.260  28.770  1.00  0.00     0.023 A 
ATOM     95  C   UNL A   1      49.858  30.852  29.812  1.00  0.00     0.012 A 
ATOM     96  C   UNL A   1      49.537  31.491  27.488  1.00  0.00     0.148 A 
ATOM     97  C   UNL A   1      51.228  30.714  29.592  1.00  0.00     0.002 A 
ATOM     98  C   UNL A   1      50.895  31.299  27.261  1.00  0.00     0.091 A 
ATOM     99  F   UNL A   1      48.710  31.892  26.511  1.00  0.00    -0.205 F 
ATOM    100  C   UNL A   1      51.744  30.926  28.315  1.00  0.00     0.022 A 
BRANCH  98 101
ATOM    101  S   UNL A   1      51.633  31.450  25.630  1.00  0.00     0.127 S 
ATOM    102  O   UNL A   1      53.044  31.648  25.959  1.00  0.00    -0.237 OA
ATOM    103  O   UNL A   1      51.323  30.153  25.029  1.00  0.00    -0.237 OA
ATOM    104  O   UNL A   1      50.978  32.585  24.994  1.00  0.00    -0.744 OA
ENDBRANCH  98 101
ENDBRANCH  71  94
ENDBRANCH  45  46
ENDBRANCH  38  40
ENDBRANCH  37  38
ENDBRANCH  36  37
ENDBRANCH  35  36
ENDBRANCH  34  35
ENDBRANCH  33  34
ENDBRANCH   1  33
TORSDOF 26
ENDMDL
