MODEL 1
REMARK VINA RESULT:     -10.1      0.000      0.000
REMARK SMILES COc1cc2ccccc2cc1C(=O)Nc1cc(C(=O)OCCOCCOCCOCCOC(=O)c2ccc(-c3c4nc(c(-c5cccc(S(=O)(=O)[O-])c5F)c5ccc([nH]5)c(-c5cccc(S(=O)(=O)[O-])c5F)c5nc(c(-c6cccc(S(=O)(=O)[O-])c6F)c6ccc3[nH]6)C=C5)C=C4)cc2)ccc1C
REMARK SMILES IDX 27 1 26 2 25 3 24 4 23 5 22 6 21 7 19 8 20 9 18 10 16 11
REMARK SMILES IDX 17 12 101 13 100 14 102 15 99 16 15 17 13 18 14 19 12 21
REMARK SMILES IDX 3 22 4 23 5 24 11 25 6 26 10 27 7 28 9 29 8 30 2 31 1 32
REMARK SMILES IDX 28 33 29 34 30 35 31 36 32 37 33 38 34 39 35 40 36 41 37 42
REMARK SMILES IDX 98 43 38 44 97 45 39 46 40 47 41 48 91 49 42 50 96 51 90 52
REMARK SMILES IDX 92 53 43 54 95 55 89 56 88 57 44 59 76 60 56 61 75 62 57 63
REMARK SMILES IDX 60 64 74 65 93 66 58 67 59 68 73 70 94 71 61 72 45 73 46 74
REMARK SMILES IDX 54 75 47 76 49 77 55 78 48 79 50 80 51 81 52 82 53 83 77 84
REMARK SMILES IDX 78 85 86 86 79 87 81 88 87 89 80 90 82 91 83 92 84 93 85 94
REMARK SMILES IDX 62 95 63 96 71 97 64 98 66 99 72 100 65 101 67 102 68 103
REMARK SMILES IDX 69 104 70 105
REMARK H PARENT 15 20 92 58 60 69
REMARK Flexibility Score: inf
ROOT
ATOM      1  O   UNL A   1      36.700  32.395  31.834  1.00  0.00    -0.377 OA
ENDROOT
BRANCH   1   2
ATOM      2  C   UNL A   1      35.348  32.302  31.419  1.00  0.00     0.188 C 
BRANCH   2   3
ATOM      3  C   UNL A   1      35.162  32.031  29.917  1.00  0.00     0.188 C 
BRANCH   3   4
ATOM      4  O   UNL A   1      34.194  32.800  29.201  1.00  0.00    -0.376 OA
BRANCH   4   5
ATOM      5  C   UNL A   1      33.724  32.292  27.955  1.00  0.00     0.202 C 
BRANCH   5   6
ATOM      6  C   UNL A   1      34.320  30.980  27.500  1.00  0.00     0.261 C 
BRANCH   6   7
ATOM      7  O   UNL A   1      33.315  29.982  27.662  1.00  0.00    -0.460 OA
BRANCH   7   8
ATOM      8  C   UNL A   1      32.307  30.082  26.800  1.00  0.00     0.338 C 
ATOM      9  O   UNL A   1      31.725  31.097  26.425  1.00  0.00    -0.246 OA
BRANCH   8  10
ATOM     10  C   UNL A   1      32.182  28.790  26.115  1.00  0.00     0.062 A 
ATOM     11  C   UNL A   1      31.722  26.432  26.111  1.00  0.00     0.045 A 
ATOM     12  C   UNL A   1      32.181  27.559  26.783  1.00  0.00     0.042 A 
ATOM     13  C   UNL A   1      31.515  26.508  24.710  1.00  0.00    -0.027 A 
ATOM     14  C   UNL A   1      31.740  27.714  24.027  1.00  0.00     0.006 A 
ATOM     15  C   UNL A   1      30.804  25.449  23.910  1.00  0.00     0.046 C 
ATOM     16  C   UNL A   1      32.022  28.861  24.735  1.00  0.00     0.016 A 
BRANCH  11  17
ATOM     17  N   UNL A   1      31.387  25.240  26.773  1.00  0.00    -0.322 N 
ATOM     18  C   UNL A   1      31.807  23.929  26.750  1.00  0.00     0.259 C 
ATOM     19  O   UNL A   1      31.146  23.171  27.477  1.00  0.00    -0.269 OA
ATOM     20  H   UNL A   1      30.660  25.379  27.424  1.00  0.00     0.170 HD
BRANCH  18  21
ATOM     21  C   UNL A   1      32.992  23.336  26.053  1.00  0.00     0.082 A 
ATOM     22  C   UNL A   1      33.004  22.418  25.003  1.00  0.00     0.132 A 
ATOM     23  C   UNL A   1      34.213  21.897  24.528  1.00  0.00     0.056 A 
ATOM     24  C   UNL A   1      35.450  22.349  24.992  1.00  0.00    -0.015 A 
ATOM     25  C   UNL A   1      34.251  23.846  26.467  1.00  0.00     0.026 A 
ATOM     26  C   UNL A   1      36.649  21.796  24.517  1.00  0.00     0.009 A 
ATOM     27  C   UNL A   1      35.479  23.382  25.940  1.00  0.00    -0.017 A 
ATOM     28  C   UNL A   1      37.879  22.291  24.943  1.00  0.00     0.001 A 
ATOM     29  C   UNL A   1      36.729  23.900  26.331  1.00  0.00     0.009 A 
ATOM     30  C   UNL A   1      37.920  23.360  25.831  1.00  0.00     0.001 A 
BRANCH  22  31
ATOM     31  O   UNL A   1      31.918  21.864  24.398  1.00  0.00    -0.496 OA
ATOM     32  C   UNL A   1      32.063  20.486  24.102  1.00  0.00     0.278 C 
ENDBRANCH  22  31
ENDBRANCH  18  21
ENDBRANCH  11  17
ENDBRANCH   8  10
ENDBRANCH   7   8
ENDBRANCH   6   7
ENDBRANCH   5   6
ENDBRANCH   4   5
ENDBRANCH   3   4
ENDBRANCH   2   3
ENDBRANCH   1   2
BRANCH   1  33
ATOM     33  C   UNL A   1      37.271  31.176  32.276  1.00  0.00     0.188 C 
BRANCH  33  34
ATOM     34  C   UNL A   1      37.733  31.248  33.739  1.00  0.00     0.188 C 
BRANCH  34  35
ATOM     35  O   UNL A   1      38.147  32.517  34.197  1.00  0.00    -0.376 OA
BRANCH  35  36
ATOM     36  C   UNL A   1      39.508  32.573  34.619  1.00  0.00     0.202 C 
BRANCH  36  37
ATOM     37  C   UNL A   1      40.109  31.479  35.597  1.00  0.00     0.261 C 
BRANCH  37  38
ATOM     38  O   UNL A   1      41.354  30.827  35.081  1.00  0.00    -0.460 OA
BRANCH  38  39
ATOM     39  C   UNL A   1      42.064  29.740  35.570  1.00  0.00     0.338 C 
ATOM     40  O   UNL A   1      42.100  29.490  36.770  1.00  0.00    -0.246 OA
BRANCH  39  41
ATOM     41  C   UNL A   1      42.486  28.648  34.595  1.00  0.00     0.060 A 
ATOM     42  C   UNL A   1      43.822  28.290  34.417  1.00  0.00     0.016 A 
ATOM     43  C   UNL A   1      41.595  27.885  33.862  1.00  0.00     0.016 A 
ATOM     44  C   UNL A   1      44.256  27.652  33.234  1.00  0.00     0.010 A 
ATOM     45  C   UNL A   1      41.995  27.352  32.634  1.00  0.00     0.010 A 
ATOM     46  C   UNL A   1      43.336  27.383  32.238  1.00  0.00    -0.014 A 
BRANCH  46  47
ATOM     47  C   UNL A   1      43.647  27.329  30.787  1.00  0.00     0.031 A 
ATOM     48  C   UNL A   1      43.903  25.994  30.118  1.00  0.00     0.074 A 
ATOM     49  C   UNL A   1      43.256  28.397  30.026  1.00  0.00     0.049 A 
ATOM     50  N   UNL A   1      44.054  25.801  28.848  1.00  0.00    -0.248 NA
ATOM     51  C   UNL A   1      43.960  24.732  30.850  1.00  0.00     0.031 C 
ATOM     52  C   UNL A   1      42.884  28.307  28.620  1.00  0.00     0.029 A 
ATOM     53  N   UNL A   1      43.006  29.753  30.299  1.00  0.00    -0.354 N 
ATOM     54  C   UNL A   1      43.913  24.450  28.561  1.00  0.00     0.074 A 
ATOM     55  C   UNL A   1      43.927  23.829  29.861  1.00  0.00     0.031 C 
ATOM     56  C   UNL A   1      42.391  29.464  28.170  1.00  0.00     0.029 A 
ATOM     57  C   UNL A   1      42.864  30.463  29.082  1.00  0.00     0.049 A 
ATOM     58  H   UNL A   1      42.938  30.149  31.198  1.00  0.00     0.167 HD
ATOM     59  C   UNL A   1      43.697  24.045  27.266  1.00  0.00     0.034 A 
ATOM     60  C   UNL A   1      43.726  31.412  28.597  1.00  0.00     0.034 A 
ATOM     61  C   UNL A   1      43.829  25.185  26.314  1.00  0.00     0.049 A 
ATOM     62  C   UNL A   1      44.696  30.864  27.534  1.00  0.00     0.074 A 
ATOM     63  C   UNL A   1      43.042  25.719  25.306  1.00  0.00     0.029 A 
ATOM     64  N   UNL A   1      44.910  26.064  26.436  1.00  0.00    -0.354 N 
ATOM     65  N   UNL A   1      44.533  29.736  26.880  1.00  0.00    -0.248 NA
ATOM     66  C   UNL A   1      45.937  31.519  27.141  1.00  0.00     0.031 C 
ATOM     67  C   UNL A   1      43.612  26.961  24.911  1.00  0.00     0.029 A 
ATOM     68  C   UNL A   1      44.752  27.198  25.656  1.00  0.00     0.049 A 
ATOM     69  H   UNL A   1      45.692  25.897  27.011  1.00  0.00     0.167 HD
ATOM     70  C   UNL A   1      45.654  29.410  26.167  1.00  0.00     0.074 A 
ATOM     71  C   UNL A   1      46.462  30.617  26.289  1.00  0.00     0.031 C 
ATOM     72  C   UNL A   1      45.840  28.178  25.577  1.00  0.00     0.034 A 
BRANCH  59  73
ATOM     73  C   UNL A   1      43.209  22.649  26.778  1.00  0.00     0.023 A 
ATOM     74  C   UNL A   1      41.869  22.280  27.072  1.00  0.00     0.012 A 
ATOM     75  C   UNL A   1      43.950  21.645  26.100  1.00  0.00     0.148 A 
ATOM     76  C   UNL A   1      41.322  21.018  26.782  1.00  0.00     0.002 A 
ATOM     77  C   UNL A   1      43.388  20.398  25.756  1.00  0.00     0.091 A 
ATOM     78  F   UNL A   1      45.223  21.855  25.780  1.00  0.00    -0.205 F 
ATOM     79  C   UNL A   1      42.081  20.075  26.119  1.00  0.00     0.022 A 
BRANCH  77  80
ATOM     80  S   UNL A   1      44.281  19.135  24.818  1.00  0.00     0.127 S 
ATOM     81  O   UNL A   1      45.551  19.047  25.540  1.00  0.00    -0.237 OA
ATOM     82  O   UNL A   1      43.415  17.967  24.972  1.00  0.00    -0.237 OA
ATOM     83  O   UNL A   1      44.394  19.640  23.455  1.00  0.00    -0.744 OA
ENDBRANCH  77  80
ENDBRANCH  59  73
BRANCH  60  84
ATOM     84  C   UNL A   1      43.867  32.579  29.507  1.00  0.00     0.023 A 
ATOM     85  C   UNL A   1      42.643  33.231  29.811  1.00  0.00     0.012 A 
ATOM     86  C   UNL A   1      44.873  32.534  30.471  1.00  0.00     0.148 A 
ATOM     87  C   UNL A   1      42.323  33.553  31.129  1.00  0.00     0.002 A 
ATOM     88  C   UNL A   1      44.521  32.779  31.791  1.00  0.00     0.091 A 
ATOM     89  F   UNL A   1      46.076  32.064  30.117  1.00  0.00    -0.205 F 
ATOM     90  C   UNL A   1      43.238  33.251  32.128  1.00  0.00     0.022 A 
BRANCH  88  91
ATOM     91  S   UNL A   1      45.469  32.042  33.121  1.00  0.00     0.127 S 
ATOM     92  O   UNL A   1      44.626  32.260  34.288  1.00  0.00    -0.237 OA
ATOM     93  O   UNL A   1      45.537  30.659  32.657  1.00  0.00    -0.237 OA
ATOM     94  O   UNL A   1      46.742  32.747  33.107  1.00  0.00    -0.744 OA
ENDBRANCH  88  91
ENDBRANCH  60  84
BRANCH  72  95
ATOM     95  C   UNL A   1      47.093  27.718  24.834  1.00  0.00     0.023 A 
ATOM     96  C   UNL A   1      47.265  27.901  23.453  1.00  0.00     0.012 A 
ATOM     97  C   UNL A   1      48.207  27.174  25.538  1.00  0.00     0.148 A 
ATOM     98  C   UNL A   1      48.423  27.480  22.788  1.00  0.00     0.002 A 
ATOM     99  C   UNL A   1      49.405  26.885  24.895  1.00  0.00     0.091 A 
ATOM    100  F   UNL A   1      48.113  26.890  26.844  1.00  0.00    -0.205 F 
ATOM    101  C   UNL A   1      49.500  26.989  23.510  1.00  0.00     0.022 A 
BRANCH  99 102
ATOM    102  S   UNL A   1      50.908  26.521  25.814  1.00  0.00     0.127 S 
ATOM    103  O   UNL A   1      51.871  26.297  24.738  1.00  0.00    -0.237 OA
ATOM    104  O   UNL A   1      51.110  27.760  26.567  1.00  0.00    -0.237 OA
ATOM    105  O   UNL A   1      50.596  25.362  26.640  1.00  0.00    -0.744 OA
ENDBRANCH  99 102
ENDBRANCH  72  95
ENDBRANCH  46  47
ENDBRANCH  39  41
ENDBRANCH  38  39
ENDBRANCH  37  38
ENDBRANCH  36  37
ENDBRANCH  35  36
ENDBRANCH  34  35
ENDBRANCH  33  34
ENDBRANCH   1  33
TORSDOF 26
ENDMDL
MODEL 2
REMARK VINA RESULT:      -9.5      1.886      2.189
REMARK SMILES COc1cc2ccccc2cc1C(=O)Nc1cc(C(=O)OCCOCCOCCOCCOC(=O)c2ccc(-c3c4nc(c(-c5cccc(S(=O)(=O)[O-])c5F)c5ccc([nH]5)c(-c5cccc(S(=O)(=O)[O-])c5F)c5nc(c(-c6cccc(S(=O)(=O)[O-])c6F)c6ccc3[nH]6)C=C5)C=C4)cc2)ccc1C
REMARK SMILES IDX 27 1 26 2 25 3 24 4 23 5 22 6 21 7 19 8 20 9 18 10 16 11
REMARK SMILES IDX 17 12 101 13 100 14 102 15 99 16 15 17 13 18 14 19 12 21
REMARK SMILES IDX 3 22 4 23 5 24 11 25 6 26 10 27 7 28 9 29 8 30 2 31 1 32
REMARK SMILES IDX 28 33 29 34 30 35 31 36 32 37 33 38 34 39 35 40 36 41 37 42
REMARK SMILES IDX 98 43 38 44 97 45 39 46 40 47 41 48 91 49 42 50 96 51 90 52
REMARK SMILES IDX 92 53 43 54 95 55 89 56 88 57 44 59 76 60 56 61 75 62 57 63
REMARK SMILES IDX 60 64 74 65 93 66 58 67 59 68 73 70 94 71 61 72 45 73 46 74
REMARK SMILES IDX 54 75 47 76 49 77 55 78 48 79 50 80 51 81 52 82 53 83 77 84
REMARK SMILES IDX 78 85 86 86 79 87 81 88 87 89 80 90 82 91 83 92 84 93 85 94
REMARK SMILES IDX 62 95 63 96 71 97 64 98 66 99 72 100 65 101 67 102 68 103
REMARK SMILES IDX 69 104 70 105
REMARK H PARENT 15 20 92 58 60 69
REMARK Flexibility Score: inf
ROOT
ATOM      1  O   UNL A   1      36.677  32.366  31.863  1.00  0.00    -0.377 OA
ENDROOT
BRANCH   1   2
ATOM      2  C   UNL A   1      35.313  32.357  31.476  1.00  0.00     0.188 C 
BRANCH   2   3
ATOM      3  C   UNL A   1      35.080  32.107  29.977  1.00  0.00     0.188 C 
BRANCH   3   4
ATOM      4  O   UNL A   1      34.279  33.039  29.249  1.00  0.00    -0.376 OA
BRANCH   4   5
ATOM      5  C   UNL A   1      33.803  32.650  27.962  1.00  0.00     0.202 C 
BRANCH   5   6
ATOM      6  C   UNL A   1      34.157  31.252  27.513  1.00  0.00     0.261 C 
BRANCH   6   7
ATOM      7  O   UNL A   1      33.027  30.425  27.783  1.00  0.00    -0.460 OA
BRANCH   7   8
ATOM      8  C   UNL A   1      32.052  30.526  26.884  1.00  0.00     0.338 C 
ATOM      9  O   UNL A   1      31.468  31.540  26.508  1.00  0.00    -0.246 OA
BRANCH   8  10
ATOM     10  C   UNL A   1      31.975  29.247  26.169  1.00  0.00     0.062 A 
ATOM     11  C   UNL A   1      31.516  26.890  26.089  1.00  0.00     0.045 A 
ATOM     12  C   UNL A   1      31.926  28.005  26.813  1.00  0.00     0.042 A 
ATOM     13  C   UNL A   1      31.410  26.992  24.679  1.00  0.00    -0.027 A 
ATOM     14  C   UNL A   1      31.684  28.209  24.035  1.00  0.00     0.006 A 
ATOM     15  C   UNL A   1      30.758  25.950  23.810  1.00  0.00     0.046 C 
ATOM     16  C   UNL A   1      31.916  29.344  24.782  1.00  0.00     0.016 A 
BRANCH  11  17
ATOM     17  N   UNL A   1      31.132  25.688  26.704  1.00  0.00    -0.322 N 
ATOM     18  C   UNL A   1      31.486  24.360  26.614  1.00  0.00     0.259 C 
ATOM     19  O   UNL A   1      30.801  23.603  27.319  1.00  0.00    -0.269 OA
ATOM     20  H   UNL A   1      30.425  25.832  27.374  1.00  0.00     0.170 HD
BRANCH  18  21
ATOM     21  C   UNL A   1      32.628  23.742  25.868  1.00  0.00     0.082 A 
ATOM     22  C   UNL A   1      32.577  22.832  24.812  1.00  0.00     0.132 A 
ATOM     23  C   UNL A   1      33.753  22.284  24.288  1.00  0.00     0.056 A 
ATOM     24  C   UNL A   1      35.017  22.700  24.708  1.00  0.00    -0.015 A 
ATOM     25  C   UNL A   1      33.915  24.216  26.238  1.00  0.00     0.026 A 
ATOM     26  C   UNL A   1      36.183  22.119  24.185  1.00  0.00     0.009 A 
ATOM     27  C   UNL A   1      35.110  23.724  25.662  1.00  0.00    -0.017 A 
ATOM     28  C   UNL A   1      37.441  22.579  24.567  1.00  0.00     0.001 A 
ATOM     29  C   UNL A   1      36.387  24.206  26.009  1.00  0.00     0.009 A 
ATOM     30  C   UNL A   1      37.543  23.638  25.461  1.00  0.00     0.001 A 
BRANCH  22  31
ATOM     31  O   UNL A   1      31.455  22.312  24.244  1.00  0.00    -0.496 OA
ATOM     32  C   UNL A   1      31.392  22.472  22.838  1.00  0.00     0.278 C 
ENDBRANCH  22  31
ENDBRANCH  18  21
ENDBRANCH  11  17
ENDBRANCH   8  10
ENDBRANCH   7   8
ENDBRANCH   6   7
ENDBRANCH   5   6
ENDBRANCH   4   5
ENDBRANCH   3   4
ENDBRANCH   2   3
ENDBRANCH   1   2
BRANCH   1  33
ATOM     33  C   UNL A   1      37.201  31.099  32.221  1.00  0.00     0.188 C 
BRANCH  33  34
ATOM     34  C   UNL A   1      37.706  31.069  33.671  1.00  0.00     0.188 C 
BRANCH  34  35
ATOM     35  O   UNL A   1      38.161  32.297  34.196  1.00  0.00    -0.376 OA
BRANCH  35  36
ATOM     36  C   UNL A   1      39.523  32.288  34.616  1.00  0.00     0.202 C 
BRANCH  36  37
ATOM     37  C   UNL A   1      40.083  31.140  35.557  1.00  0.00     0.261 C 
BRANCH  37  38
ATOM     38  O   UNL A   1      41.413  30.604  35.129  1.00  0.00    -0.460 OA
BRANCH  38  39
ATOM     39  C   UNL A   1      42.181  29.580  35.665  1.00  0.00     0.338 C 
ATOM     40  O   UNL A   1      42.097  29.275  36.850  1.00  0.00    -0.246 OA
BRANCH  39  41
ATOM     41  C   UNL A   1      42.848  28.595  34.714  1.00  0.00     0.060 A 
ATOM     42  C   UNL A   1      44.229  28.578  34.514  1.00  0.00     0.016 A 
ATOM     43  C   UNL A   1      42.166  27.607  34.028  1.00  0.00     0.016 A 
ATOM     44  C   UNL A   1      44.789  28.027  33.340  1.00  0.00     0.010 A 
ATOM     45  C   UNL A   1      42.667  27.147  32.807  1.00  0.00     0.010 A 
ATOM     46  C   UNL A   1      43.950  27.499  32.377  1.00  0.00    -0.014 A 
BRANCH  46  47
ATOM     47  C   UNL A   1      44.241  27.472  30.921  1.00  0.00     0.031 A 
ATOM     48  C   UNL A   1      44.507  26.153  30.227  1.00  0.00     0.074 A 
ATOM     49  C   UNL A   1      43.823  28.546  30.183  1.00  0.00     0.049 A 
ATOM     50  N   UNL A   1      44.643  25.982  28.953  1.00  0.00    -0.248 NA
ATOM     51  C   UNL A   1      44.594  24.880  30.938  1.00  0.00     0.031 C 
ATOM     52  C   UNL A   1      43.432  28.473  28.781  1.00  0.00     0.029 A 
ATOM     53  N   UNL A   1      43.556  29.894  30.480  1.00  0.00    -0.354 N 
ATOM     54  C   UNL A   1      44.518  24.633  28.647  1.00  0.00     0.074 A 
ATOM     55  C   UNL A   1      44.561  23.993  29.936  1.00  0.00     0.031 C 
ATOM     56  C   UNL A   1      42.914  29.629  28.356  1.00  0.00     0.029 A 
ATOM     57  C   UNL A   1      43.386  30.621  29.277  1.00  0.00     0.049 A 
ATOM     58  H   UNL A   1      43.496  30.275  31.386  1.00  0.00     0.167 HD
ATOM     59  C   UNL A   1      44.289  24.245  27.348  1.00  0.00     0.034 A 
ATOM     60  C   UNL A   1      44.226  31.591  28.795  1.00  0.00     0.034 A 
ATOM     61  C   UNL A   1      44.390  25.401  26.412  1.00  0.00     0.049 A 
ATOM     62  C   UNL A   1      45.189  31.074  27.709  1.00  0.00     0.074 A 
ATOM     63  C   UNL A   1      43.581  25.939  25.425  1.00  0.00     0.029 A 
ATOM     64  N   UNL A   1      45.460  26.295  26.533  1.00  0.00    -0.354 N 
ATOM     65  N   UNL A   1      45.033  29.954  27.040  1.00  0.00    -0.248 NA
ATOM     66  C   UNL A   1      46.414  31.754  27.309  1.00  0.00     0.031 C 
ATOM     67  C   UNL A   1      44.125  27.196  25.041  1.00  0.00     0.029 A 
ATOM     68  C   UNL A   1      45.273  27.439  25.773  1.00  0.00     0.049 A 
ATOM     69  H   UNL A   1      46.252  26.131  27.094  1.00  0.00     0.167 HD
ATOM     70  C   UNL A   1      46.148  29.656  26.307  1.00  0.00     0.074 A 
ATOM     71  C   UNL A   1      46.940  30.873  26.436  1.00  0.00     0.031 C 
ATOM     72  C   UNL A   1      46.345  28.436  25.694  1.00  0.00     0.034 A 
BRANCH  59  73
ATOM     73  C   UNL A   1      43.815  22.850  26.846  1.00  0.00     0.023 A 
ATOM     74  C   UNL A   1      44.713  22.099  26.041  1.00  0.00     0.012 A 
ATOM     75  C   UNL A   1      42.557  22.222  27.048  1.00  0.00     0.148 A 
ATOM     76  C   UNL A   1      44.386  20.872  25.437  1.00  0.00     0.002 A 
ATOM     77  C   UNL A   1      42.245  20.965  26.492  1.00  0.00     0.091 A 
ATOM     78  F   UNL A   1      41.618  22.826  27.770  1.00  0.00    -0.205 F 
ATOM     79  C   UNL A   1      43.151  20.300  25.667  1.00  0.00     0.022 A 
BRANCH  77  80
ATOM     80  S   UNL A   1      40.685  20.104  26.803  1.00  0.00     0.127 S 
ATOM     81  O   UNL A   1      40.672  19.089  25.750  1.00  0.00    -0.237 OA
ATOM     82  O   UNL A   1      40.887  19.575  28.151  1.00  0.00    -0.237 OA
ATOM     83  O   UNL A   1      39.632  21.108  26.689  1.00  0.00    -0.744 OA
ENDBRANCH  77  80
ENDBRANCH  59  73
BRANCH  60  84
ATOM     84  C   UNL A   1      44.363  32.745  29.721  1.00  0.00     0.023 A 
ATOM     85  C   UNL A   1      45.533  32.710  30.525  1.00  0.00     0.012 A 
ATOM     86  C   UNL A   1      43.860  33.977  29.303  1.00  0.00     0.148 A 
ATOM     87  C   UNL A   1      46.340  33.840  30.648  1.00  0.00     0.002 A 
ATOM     88  C   UNL A   1      44.704  35.077  29.358  1.00  0.00     0.091 A 
ATOM     89  F   UNL A   1      42.671  34.004  28.688  1.00  0.00    -0.205 F 
ATOM     90  C   UNL A   1      45.958  35.003  29.994  1.00  0.00     0.022 A 
BRANCH  88  91
ATOM     91  S   UNL A   1      44.473  36.438  28.216  1.00  0.00     0.127 S 
ATOM     92  O   UNL A   1      45.751  37.132  28.267  1.00  0.00    -0.237 OA
ATOM     93  O   UNL A   1      44.217  35.702  26.982  1.00  0.00    -0.237 OA
ATOM     94  O   UNL A   1      43.324  37.168  28.734  1.00  0.00    -0.744 OA
ENDBRANCH  88  91
ENDBRANCH  60  84
BRANCH  72  95
ATOM     95  C   UNL A   1      47.593  28.008  24.926  1.00  0.00     0.023 A 
ATOM     96  C   UNL A   1      47.612  27.863  23.530  1.00  0.00     0.012 A 
ATOM     97  C   UNL A   1      48.844  27.839  25.591  1.00  0.00     0.148 A 
ATOM     98  C   UNL A   1      48.767  27.477  22.840  1.00  0.00     0.002 A 
ATOM     99  C   UNL A   1      50.016  27.590  24.886  1.00  0.00     0.091 A 
ATOM    100  F   UNL A   1      48.913  27.880  26.928  1.00  0.00    -0.205 F 
ATOM    101  C   UNL A   1      49.973  27.357  23.514  1.00  0.00     0.022 A 
BRANCH  99 102
ATOM    102  S   UNL A   1      51.632  27.708  25.668  1.00  0.00     0.127 S 
ATOM    103  O   UNL A   1      51.469  28.887  26.517  1.00  0.00    -0.237 OA
ATOM    104  O   UNL A   1      51.711  26.438  26.393  1.00  0.00    -0.237 OA
ATOM    105  O   UNL A   1      52.590  27.835  24.578  1.00  0.00    -0.744 OA
ENDBRANCH  99 102
ENDBRANCH  72  95
ENDBRANCH  46  47
ENDBRANCH  39  41
ENDBRANCH  38  39
ENDBRANCH  37  38
ENDBRANCH  36  37
ENDBRANCH  35  36
ENDBRANCH  34  35
ENDBRANCH  33  34
ENDBRANCH   1  33
TORSDOF 26
ENDMDL
MODEL 3
REMARK VINA RESULT:      -9.1      3.277      7.985
REMARK SMILES COc1cc2ccccc2cc1C(=O)Nc1cc(C(=O)OCCOCCOCCOCCOC(=O)c2ccc(-c3c4nc(c(-c5cccc(S(=O)(=O)[O-])c5F)c5ccc([nH]5)c(-c5cccc(S(=O)(=O)[O-])c5F)c5nc(c(-c6cccc(S(=O)(=O)[O-])c6F)c6ccc3[nH]6)C=C5)C=C4)cc2)ccc1C
REMARK SMILES IDX 27 1 26 2 25 3 24 4 23 5 22 6 21 7 19 8 20 9 18 10 16 11
REMARK SMILES IDX 17 12 101 13 100 14 102 15 99 16 15 17 13 18 14 19 12 21
REMARK SMILES IDX 3 22 4 23 5 24 11 25 6 26 10 27 7 28 9 29 8 30 2 31 1 32
REMARK SMILES IDX 28 33 29 34 30 35 31 36 32 37 33 38 34 39 35 40 36 41 37 42
REMARK SMILES IDX 98 43 38 44 97 45 39 46 40 47 41 48 91 49 42 50 96 51 90 52
REMARK SMILES IDX 92 53 43 54 95 55 89 56 88 57 44 59 76 60 56 61 75 62 57 63
REMARK SMILES IDX 60 64 74 65 93 66 58 67 59 68 73 70 94 71 61 72 45 73 46 74
REMARK SMILES IDX 54 75 47 76 49 77 55 78 48 79 50 80 51 81 52 82 53 83 77 84
REMARK SMILES IDX 78 85 86 86 79 87 81 88 87 89 80 90 82 91 83 92 84 93 85 94
REMARK SMILES IDX 62 95 63 96 71 97 64 98 66 99 72 100 65 101 67 102 68 103
REMARK SMILES IDX 69 104 70 105
REMARK H PARENT 15 20 92 58 60 69
REMARK Flexibility Score: inf
ROOT
ATOM      1  O   UNL A   1      32.879  28.671  22.418  1.00  0.00    -0.377 OA
ENDROOT
BRANCH   1   2
ATOM      2  C   UNL A   1      32.916  27.282  22.138  1.00  0.00     0.188 C 
BRANCH   2   3
ATOM      3  C   UNL A   1      31.607  26.537  22.449  1.00  0.00     0.188 C 
BRANCH   3   4
ATOM      4  O   UNL A   1      31.538  25.138  22.169  1.00  0.00    -0.376 OA
BRANCH   4   5
ATOM      5  C   UNL A   1      32.569  24.301  22.688  1.00  0.00     0.202 C 
BRANCH   5   6
ATOM      6  C   UNL A   1      32.784  22.986  21.976  1.00  0.00     0.261 C 
BRANCH   6   7
ATOM      7  O   UNL A   1      31.718  22.120  22.360  1.00  0.00    -0.460 OA
BRANCH   7   8
ATOM      8  C   UNL A   1      31.796  20.898  21.840  1.00  0.00     0.338 C 
ATOM      9  O   UNL A   1      31.667  20.563  20.665  1.00  0.00    -0.246 OA
BRANCH   8  10
ATOM     10  C   UNL A   1      32.371  20.019  22.864  1.00  0.00     0.062 A 
ATOM     11  C   UNL A   1      33.073  19.569  25.117  1.00  0.00     0.045 A 
ATOM     12  C   UNL A   1      32.869  20.482  24.088  1.00  0.00     0.042 A 
ATOM     13  C   UNL A   1      33.018  18.183  24.824  1.00  0.00    -0.027 A 
ATOM     14  C   UNL A   1      32.729  17.748  23.520  1.00  0.00     0.006 A 
ATOM     15  C   UNL A   1      32.983  17.105  25.874  1.00  0.00     0.046 C 
ATOM     16  C   UNL A   1      32.357  18.661  22.558  1.00  0.00     0.016 A 
BRANCH  11  17
ATOM     17  N   UNL A   1      33.260  19.963  26.452  1.00  0.00    -0.322 N 
ATOM     18  C   UNL A   1      33.697  21.090  27.112  1.00  0.00     0.259 C 
ATOM     19  O   UNL A   1      33.777  20.958  28.343  1.00  0.00    -0.269 OA
ATOM     20  H   UNL A   1      33.014  19.245  27.080  1.00  0.00     0.170 HD
BRANCH  18  21
ATOM     21  C   UNL A   1      33.986  22.450  26.556  1.00  0.00     0.082 A 
ATOM     22  C   UNL A   1      35.066  22.848  25.767  1.00  0.00     0.132 A 
ATOM     23  C   UNL A   1      35.227  24.190  25.408  1.00  0.00     0.056 A 
ATOM     24  C   UNL A   1      34.272  25.161  25.715  1.00  0.00    -0.015 A 
ATOM     25  C   UNL A   1      32.982  23.425  26.799  1.00  0.00     0.026 A 
ATOM     26  C   UNL A   1      34.466  26.506  25.364  1.00  0.00     0.009 A 
ATOM     27  C   UNL A   1      33.098  24.769  26.375  1.00  0.00    -0.017 A 
ATOM     28  C   UNL A   1      33.482  27.459  25.623  1.00  0.00     0.001 A 
ATOM     29  C   UNL A   1      32.096  25.734  26.594  1.00  0.00     0.009 A 
ATOM     30  C   UNL A   1      32.288  27.069  26.216  1.00  0.00     0.001 A 
BRANCH  22  31
ATOM     31  O   UNL A   1      36.095  22.062  25.346  1.00  0.00    -0.496 OA
ATOM     32  C   UNL A   1      36.966  22.698  24.427  1.00  0.00     0.278 C 
ENDBRANCH  22  31
ENDBRANCH  18  21
ENDBRANCH  11  17
ENDBRANCH   8  10
ENDBRANCH   7   8
ENDBRANCH   6   7
ENDBRANCH   5   6
ENDBRANCH   4   5
ENDBRANCH   3   4
ENDBRANCH   2   3
ENDBRANCH   1   2
BRANCH   1  33
ATOM     33  C   UNL A   1      31.579  29.210  22.585  1.00  0.00     0.188 C 
BRANCH  33  34
ATOM     34  C   UNL A   1      31.154  29.251  24.061  1.00  0.00     0.188 C 
BRANCH  34  35
ATOM     35  O   UNL A   1      31.013  30.534  24.631  1.00  0.00    -0.376 OA
BRANCH  35  36
ATOM     36  C   UNL A   1      31.358  30.604  26.013  1.00  0.00     0.202 C 
BRANCH  36  37
ATOM     37  C   UNL A   1      32.060  31.891  26.618  1.00  0.00     0.261 C 
BRANCH  37  38
ATOM     38  O   UNL A   1      33.029  31.589  27.719  1.00  0.00    -0.460 OA
BRANCH  38  39
ATOM     39  C   UNL A   1      34.393  31.829  27.802  1.00  0.00     0.338 C 
ATOM     40  O   UNL A   1      34.836  32.971  27.864  1.00  0.00    -0.246 OA
BRANCH  39  41
ATOM     41  C   UNL A   1      35.313  30.678  28.192  1.00  0.00     0.060 A 
ATOM     42  C   UNL A   1      35.333  30.152  29.484  1.00  0.00     0.016 A 
ATOM     43  C   UNL A   1      36.146  30.024  27.303  1.00  0.00     0.016 A 
ATOM     44  C   UNL A   1      36.457  29.448  29.967  1.00  0.00     0.010 A 
ATOM     45  C   UNL A   1      37.319  29.427  27.772  1.00  0.00     0.010 A 
ATOM     46  C   UNL A   1      37.555  29.283  29.143  1.00  0.00    -0.014 A 
BRANCH  46  47
ATOM     47  C   UNL A   1      38.958  29.168  29.611  1.00  0.00     0.031 A 
ATOM     48  C   UNL A   1      39.838  28.045  29.101  1.00  0.00     0.074 A 
ATOM     49  C   UNL A   1      39.541  30.300  30.115  1.00  0.00     0.049 A 
ATOM     50  N   UNL A   1      41.104  27.912  29.329  1.00  0.00    -0.248 NA
ATOM     51  C   UNL A   1      39.348  26.982  28.228  1.00  0.00     0.031 C 
ATOM     52  C   UNL A   1      40.966  30.593  30.032  1.00  0.00     0.029 A 
ATOM     53  N   UNL A   1      39.046  31.471  30.715  1.00  0.00    -0.354 N 
ATOM     54  C   UNL A   1      41.645  26.997  28.435  1.00  0.00     0.074 A 
ATOM     55  C   UNL A   1      40.485  26.401  27.824  1.00  0.00     0.031 C 
ATOM     56  C   UNL A   1      41.237  31.831  30.455  1.00  0.00     0.029 A 
ATOM     57  C   UNL A   1      40.119  32.209  31.269  1.00  0.00     0.049 A 
ATOM     58  H   UNL A   1      38.099  31.737  30.745  1.00  0.00     0.167 HD
ATOM     59  C   UNL A   1      43.006  26.939  28.256  1.00  0.00     0.034 A 
ATOM     60  C   UNL A   1      40.346  32.424  32.604  1.00  0.00     0.034 A 
ATOM     61  C   UNL A   1      43.718  27.808  29.237  1.00  0.00     0.049 A 
ATOM     62  C   UNL A   1      41.406  31.476  33.198  1.00  0.00     0.074 A 
ATOM     63  C   UNL A   1      44.673  28.807  29.153  1.00  0.00     0.029 A 
ATOM     64  N   UNL A   1      43.344  27.775  30.585  1.00  0.00    -0.354 N 
ATOM     65  N   UNL A   1      42.268  30.778  32.494  1.00  0.00    -0.248 NA
ATOM     66  C   UNL A   1      41.565  31.215  34.623  1.00  0.00     0.031 C 
ATOM     67  C   UNL A   1      44.784  29.424  30.429  1.00  0.00     0.029 A 
ATOM     68  C   UNL A   1      43.914  28.809  31.311  1.00  0.00     0.049 A 
ATOM     69  H   UNL A   1      42.746  27.096  30.973  1.00  0.00     0.167 HD
ATOM     70  C   UNL A   1      42.930  29.873  33.277  1.00  0.00     0.074 A 
ATOM     71  C   UNL A   1      42.520  30.265  34.619  1.00  0.00     0.031 C 
ATOM     72  C   UNL A   1      43.718  28.866  32.763  1.00  0.00     0.034 A 
BRANCH  59  73
ATOM     73  C   UNL A   1      43.781  26.231  27.107  1.00  0.00     0.023 A 
ATOM     74  C   UNL A   1      43.020  25.538  26.128  1.00  0.00     0.012 A 
ATOM     75  C   UNL A   1      45.186  26.138  26.919  1.00  0.00     0.148 A 
ATOM     76  C   UNL A   1      43.585  24.773  25.093  1.00  0.00     0.002 A 
ATOM     77  C   UNL A   1      45.757  25.420  25.849  1.00  0.00     0.091 A 
ATOM     78  F   UNL A   1      46.015  26.729  27.775  1.00  0.00    -0.205 F 
ATOM     79  C   UNL A   1      44.957  24.717  24.949  1.00  0.00     0.022 A 
BRANCH  77  80
ATOM     80  S   UNL A   1      47.537  25.357  25.536  1.00  0.00     0.127 S 
ATOM     81  O   UNL A   1      47.600  24.764  24.199  1.00  0.00    -0.237 OA
ATOM     82  O   UNL A   1      47.911  26.769  25.590  1.00  0.00    -0.237 OA
ATOM     83  O   UNL A   1      48.111  24.529  26.591  1.00  0.00    -0.744 OA
ENDBRANCH  77  80
ENDBRANCH  59  73
BRANCH  60  84
ATOM     84  C   UNL A   1      39.229  33.143  33.270  1.00  0.00     0.023 A 
ATOM     85  C   UNL A   1      38.207  32.294  33.770  1.00  0.00     0.012 A 
ATOM     86  C   UNL A   1      39.529  34.323  33.950  1.00  0.00     0.148 A 
ATOM     87  C   UNL A   1      37.719  32.465  35.065  1.00  0.00     0.002 A 
ATOM     88  C   UNL A   1      39.104  34.442  35.266  1.00  0.00     0.091 A 
ATOM     89  F   UNL A   1      40.376  35.190  33.380  1.00  0.00    -0.205 F 
ATOM     90  C   UNL A   1      38.231  33.497  35.837  1.00  0.00     0.022 A 
BRANCH  88  91
ATOM     91  S   UNL A   1      40.018  35.473  36.411  1.00  0.00     0.127 S 
ATOM     92  O   UNL A   1      39.387  35.184  37.691  1.00  0.00    -0.237 OA
ATOM     93  O   UNL A   1      41.359  34.922  36.244  1.00  0.00    -0.237 OA
ATOM     94  O   UNL A   1      39.854  36.828  35.905  1.00  0.00    -0.744 OA
ENDBRANCH  88  91
ENDBRANCH  60  84
BRANCH  72  95
ATOM     95  C   UNL A   1      44.424  27.777  33.569  1.00  0.00     0.023 A 
ATOM     96  C   UNL A   1      45.803  27.801  33.831  1.00  0.00     0.012 A 
ATOM     97  C   UNL A   1      43.684  26.730  34.194  1.00  0.00     0.148 A 
ATOM     98  C   UNL A   1      46.433  26.799  34.579  1.00  0.00     0.002 A 
ATOM     99  C   UNL A   1      44.294  25.817  35.047  1.00  0.00     0.091 A 
ATOM    100  F   UNL A   1      42.378  26.577  33.944  1.00  0.00    -0.205 F 
ATOM    101  C   UNL A   1      45.678  25.818  35.202  1.00  0.00     0.022 A 
BRANCH  99 102
ATOM    102  S   UNL A   1      43.333  24.713  36.094  1.00  0.00     0.127 S 
ATOM    103  O   UNL A   1      42.931  23.676  35.145  1.00  0.00    -0.237 OA
ATOM    104  O   UNL A   1      44.329  24.288  37.079  1.00  0.00    -0.237 OA
ATOM    105  O   UNL A   1      42.257  25.526  36.643  1.00  0.00    -0.744 OA
ENDBRANCH  99 102
ENDBRANCH  72  95
ENDBRANCH  46  47
ENDBRANCH  39  41
ENDBRANCH  38  39
ENDBRANCH  37  38
ENDBRANCH  36  37
ENDBRANCH  35  36
ENDBRANCH  34  35
ENDBRANCH  33  34
ENDBRANCH   1  33
TORSDOF 26
ENDMDL
