MODEL 1
REMARK VINA RESULT:      -9.3      0.000      0.000
REMARK SMILES COCCCC(=O)N[C@H]1CC[C@@H](C(=O)OCCOCCOCCOCCOC(=O)c2ccc(-c3c4nc(c(-c5cccc(S(=O)(=O)[O-])c5F)c5ccc([nH]5)c(-c5cccc(S(=O)(=O)[O-])c5F)c5nc(c(-c6cccc(S(=O)(=O)[O-])c6F)c6ccc3[nH]6)C=C5)C=C4)cc2)CC1
REMARK SMILES IDX 20 1 19 2 18 3 17 4 16 5 15 6 13 7 14 8 12 9 9 10 10 11
REMARK SMILES IDX 94 12 11 13 93 14 8 15 6 16 7 17 5 19 4 20 3 21 2 22 1 23
REMARK SMILES IDX 21 24 22 25 23 26 24 27 25 28 26 29 27 30 28 31 29 32 30 33
REMARK SMILES IDX 31 34 92 35 32 36 91 37 33 38 34 39 35 40 85 41 36 42 90 43
REMARK SMILES IDX 84 44 86 45 37 46 89 47 83 48 82 49 38 51 70 52 50 53 69 54
REMARK SMILES IDX 51 55 54 56 68 57 87 58 52 59 53 60 67 62 88 63 55 64 39 65
REMARK SMILES IDX 40 66 48 67 41 68 43 69 49 70 42 71 44 72 45 73 46 74 47 75
REMARK SMILES IDX 71 76 72 77 80 78 73 79 75 80 81 81 74 82 76 83 77 84 78 85
REMARK SMILES IDX 79 86 56 87 57 88 65 89 58 90 60 91 66 92 59 93 61 94 62 95
REMARK SMILES IDX 63 96 64 97
REMARK H PARENT 8 18 86 50 54 61
REMARK Flexibility Score: inf
ROOT
ATOM      1  C   UNL A   1      33.082  26.726  21.622  1.00  0.00     0.188 C 
ENDROOT
BRANCH   1   2
ATOM      2  C   UNL A   1      32.070  25.787  22.297  1.00  0.00     0.188 C 
BRANCH   2   3
ATOM      3  O   UNL A   1      30.863  26.397  22.686  1.00  0.00    -0.376 OA
BRANCH   3   4
ATOM      4  C   UNL A   1      30.038  25.811  23.671  1.00  0.00     0.202 C 
BRANCH   4   5
ATOM      5  C   UNL A   1      30.408  25.722  25.160  1.00  0.00     0.261 C 
BRANCH   5   6
ATOM      6  O   UNL A   1      31.467  24.845  25.541  1.00  0.00    -0.463 OA
BRANCH   6   7
ATOM      7  C   UNL A   1      32.541  25.411  26.133  1.00  0.00     0.309 C 
ATOM      8  O   UNL A   1      32.571  26.567  26.545  1.00  0.00    -0.252 OA
BRANCH   7   9
ATOM      9  C   UNL A   1      33.777  24.519  26.127  1.00  0.00     0.099 C 
ATOM     10  C   UNL A   1      33.188  21.869  24.980  1.00  0.00     0.082 C 
ATOM     11  C   UNL A   1      33.178  23.119  24.100  1.00  0.00     0.026 C 
ATOM     12  C   UNL A   1      32.826  22.152  26.428  1.00  0.00     0.026 C 
ATOM     13  C   UNL A   1      34.097  24.205  24.663  1.00  0.00     0.017 C 
ATOM     14  C   UNL A   1      33.780  23.223  26.954  1.00  0.00     0.017 C 
BRANCH  10  15
ATOM     15  N   UNL A   1      32.414  20.816  24.405  1.00  0.00    -0.353 N 
ATOM     16  C   UNL A   1      32.727  19.510  24.241  1.00  0.00     0.220 C 
ATOM     17  O   UNL A   1      31.797  18.793  23.873  1.00  0.00    -0.275 OA
ATOM     18  H   UNL A   1      31.522  21.079  24.080  1.00  0.00     0.163 HD
BRANCH  16  19
ATOM     19  C   UNL A   1      34.070  18.900  24.644  1.00  0.00     0.102 C 
BRANCH  19  20
ATOM     20  C   UNL A   1      34.638  17.600  24.052  1.00  0.00     0.038 C 
BRANCH  20  21
ATOM     21  C   UNL A   1      33.978  16.211  24.149  1.00  0.00     0.160 C 
BRANCH  21  22
ATOM     22  O   UNL A   1      32.775  15.945  24.862  1.00  0.00    -0.385 OA
ATOM     23  C   UNL A   1      32.616  14.725  25.553  1.00  0.00     0.194 C 
ENDBRANCH  21  22
ENDBRANCH  20  21
ENDBRANCH  19  20
ENDBRANCH  16  19
ENDBRANCH  10  15
ENDBRANCH   7   9
ENDBRANCH   6   7
ENDBRANCH   5   6
ENDBRANCH   4   5
ENDBRANCH   3   4
ENDBRANCH   2   3
ENDBRANCH   1   2
BRANCH   1  24
ATOM     24  O   UNL A   1      33.478  27.944  22.239  1.00  0.00    -0.377 OA
BRANCH  24  25
ATOM     25  C   UNL A   1      33.271  28.139  23.636  1.00  0.00     0.188 C 
BRANCH  25  26
ATOM     26  C   UNL A   1      32.322  29.255  24.124  1.00  0.00     0.188 C 
BRANCH  26  27
ATOM     27  O   UNL A   1      32.731  29.891  25.322  1.00  0.00    -0.376 OA
BRANCH  27  28
ATOM     28  C   UNL A   1      31.726  30.447  26.155  1.00  0.00     0.202 C 
BRANCH  28  29
ATOM     29  C   UNL A   1      31.934  31.848  26.751  1.00  0.00     0.261 C 
BRANCH  29  30
ATOM     30  O   UNL A   1      33.083  32.038  27.589  1.00  0.00    -0.460 OA
BRANCH  30  31
ATOM     31  C   UNL A   1      33.318  33.267  28.088  1.00  0.00     0.338 C 
ATOM     32  O   UNL A   1      32.627  34.266  27.958  1.00  0.00    -0.246 OA
BRANCH  31  33
ATOM     33  C   UNL A   1      34.483  33.149  28.984  1.00  0.00     0.060 A 
ATOM     34  C   UNL A   1      35.652  33.877  28.712  1.00  0.00     0.016 A 
ATOM     35  C   UNL A   1      34.403  32.319  30.102  1.00  0.00     0.016 A 
ATOM     36  C   UNL A   1      36.763  33.747  29.546  1.00  0.00     0.010 A 
ATOM     37  C   UNL A   1      35.521  32.172  30.921  1.00  0.00     0.010 A 
ATOM     38  C   UNL A   1      36.715  32.854  30.622  1.00  0.00    -0.014 A 
BRANCH  38  39
ATOM     39  C   UNL A   1      37.959  32.422  31.300  1.00  0.00     0.031 A 
ATOM     40  C   UNL A   1      38.713  31.276  30.690  1.00  0.00     0.074 A 
ATOM     41  C   UNL A   1      38.356  32.968  32.460  1.00  0.00     0.049 A 
ATOM     42  N   UNL A   1      39.706  30.581  31.175  1.00  0.00    -0.248 NA
ATOM     43  C   UNL A   1      38.266  30.842  29.355  1.00  0.00     0.031 C 
ATOM     44  C   UNL A   1      37.707  34.091  33.133  1.00  0.00     0.029 A 
ATOM     45  N   UNL A   1      39.373  32.603  33.306  1.00  0.00    -0.354 N 
ATOM     46  C   UNL A   1      39.966  29.593  30.232  1.00  0.00     0.074 A 
ATOM     47  C   UNL A   1      39.027  29.780  29.149  1.00  0.00     0.031 C 
ATOM     48  C   UNL A   1      38.305  34.287  34.321  1.00  0.00     0.029 A 
ATOM     49  C   UNL A   1      39.348  33.279  34.504  1.00  0.00     0.049 A 
ATOM     50  H   UNL A   1      40.051  31.927  33.080  1.00  0.00     0.167 HD
ATOM     51  C   UNL A   1      40.899  28.615  30.270  1.00  0.00     0.034 A 
ATOM     52  C   UNL A   1      40.050  33.068  35.636  1.00  0.00     0.034 A 
ATOM     53  C   UNL A   1      41.822  28.440  31.357  1.00  0.00     0.049 A 
ATOM     54  C   UNL A   1      41.073  31.960  35.671  1.00  0.00     0.074 A 
ATOM     55  C   UNL A   1      42.841  27.514  31.479  1.00  0.00     0.029 A 
ATOM     56  N   UNL A   1      41.818  29.192  32.522  1.00  0.00    -0.354 N 
ATOM     57  N   UNL A   1      41.382  31.091  34.738  1.00  0.00    -0.248 NA
ATOM     58  C   UNL A   1      41.865  31.820  36.902  1.00  0.00     0.031 C 
ATOM     59  C   UNL A   1      43.423  27.676  32.739  1.00  0.00     0.029 A 
ATOM     60  C   UNL A   1      42.806  28.743  33.377  1.00  0.00     0.049 A 
ATOM     61  H   UNL A   1      41.202  29.936  32.711  1.00  0.00     0.167 HD
ATOM     62  C   UNL A   1      42.427  30.328  35.250  1.00  0.00     0.074 A 
ATOM     63  C   UNL A   1      42.701  30.840  36.578  1.00  0.00     0.031 C 
ATOM     64  C   UNL A   1      43.100  29.301  34.674  1.00  0.00     0.034 A 
BRANCH  51  65
ATOM     65  C   UNL A   1      40.945  27.656  29.109  1.00  0.00     0.023 A 
ATOM     66  C   UNL A   1      40.157  26.488  29.122  1.00  0.00     0.012 A 
ATOM     67  C   UNL A   1      41.777  27.913  28.000  1.00  0.00     0.148 A 
ATOM     68  C   UNL A   1      40.236  25.563  28.080  1.00  0.00     0.002 A 
ATOM     69  C   UNL A   1      41.809  27.016  26.941  1.00  0.00     0.091 A 
ATOM     70  F   UNL A   1      42.539  29.016  28.014  1.00  0.00    -0.205 F 
ATOM     71  C   UNL A   1      41.055  25.831  26.988  1.00  0.00     0.022 A 
BRANCH  69  72
ATOM     72  S   UNL A   1      42.768  27.316  25.452  1.00  0.00     0.127 S 
ATOM     73  O   UNL A   1      44.133  27.309  25.974  1.00  0.00    -0.237 OA
ATOM     74  O   UNL A   1      42.425  26.157  24.628  1.00  0.00    -0.237 OA
ATOM     75  O   UNL A   1      42.302  28.592  24.926  1.00  0.00    -0.744 OA
ENDBRANCH  69  72
ENDBRANCH  51  65
BRANCH  52  76
ATOM     76  C   UNL A   1      39.819  33.946  36.818  1.00  0.00     0.023 A 
ATOM     77  C   UNL A   1      40.231  35.292  36.769  1.00  0.00     0.012 A 
ATOM     78  C   UNL A   1      39.154  33.469  37.968  1.00  0.00     0.148 A 
ATOM     79  C   UNL A   1      40.000  36.145  37.848  1.00  0.00     0.002 A 
ATOM     80  C   UNL A   1      38.893  34.335  39.024  1.00  0.00     0.091 A 
ATOM     81  F   UNL A   1      38.767  32.186  37.988  1.00  0.00    -0.205 F 
ATOM     82  C   UNL A   1      39.325  35.669  38.970  1.00  0.00     0.022 A 
BRANCH  80  83
ATOM     83  S   UNL A   1      37.989  33.844  40.499  1.00  0.00     0.127 S 
ATOM     84  O   UNL A   1      37.902  35.110  41.229  1.00  0.00    -0.237 OA
ATOM     85  O   UNL A   1      36.720  33.388  39.932  1.00  0.00    -0.237 OA
ATOM     86  O   UNL A   1      38.804  32.830  41.151  1.00  0.00    -0.744 OA
ENDBRANCH  80  83
ENDBRANCH  52  76
BRANCH  64  87
ATOM     87  C   UNL A   1      44.254  28.690  35.427  1.00  0.00     0.023 A 
ATOM     88  C   UNL A   1      45.545  29.243  35.328  1.00  0.00     0.012 A 
ATOM     89  C   UNL A   1      44.016  27.643  36.342  1.00  0.00     0.148 A 
ATOM     90  C   UNL A   1      46.585  28.754  36.119  1.00  0.00     0.002 A 
ATOM     91  C   UNL A   1      45.043  27.197  37.163  1.00  0.00     0.091 A 
ATOM     92  F   UNL A   1      42.782  27.122  36.408  1.00  0.00    -0.205 F 
ATOM     93  C   UNL A   1      46.331  27.743  37.046  1.00  0.00     0.022 A 
BRANCH  91  94
ATOM     94  S   UNL A   1      44.784  25.980  38.459  1.00  0.00     0.127 S 
ATOM     95  O   UNL A   1      43.785  26.643  39.294  1.00  0.00    -0.237 OA
ATOM     96  O   UNL A   1      44.283  24.830  37.706  1.00  0.00    -0.237 OA
ATOM     97  O   UNL A   1      46.081  25.775  39.089  1.00  0.00    -0.744 OA
ENDBRANCH  91  94
ENDBRANCH  64  87
ENDBRANCH  38  39
ENDBRANCH  31  33
ENDBRANCH  30  31
ENDBRANCH  29  30
ENDBRANCH  28  29
ENDBRANCH  27  28
ENDBRANCH  26  27
ENDBRANCH  25  26
ENDBRANCH  24  25
ENDBRANCH   1  24
TORSDOF 28
ENDMDL
MODEL 2
REMARK VINA RESULT:      -8.8      6.503     11.068
REMARK SMILES COCCCC(=O)N[C@H]1CC[C@@H](C(=O)OCCOCCOCCOCCOC(=O)c2ccc(-c3c4nc(c(-c5cccc(S(=O)(=O)[O-])c5F)c5ccc([nH]5)c(-c5cccc(S(=O)(=O)[O-])c5F)c5nc(c(-c6cccc(S(=O)(=O)[O-])c6F)c6ccc3[nH]6)C=C5)C=C4)cc2)CC1
REMARK SMILES IDX 20 1 19 2 18 3 17 4 16 5 15 6 13 7 14 8 12 9 9 10 10 11
REMARK SMILES IDX 94 12 11 13 93 14 8 15 6 16 7 17 5 19 4 20 3 21 2 22 1 23
REMARK SMILES IDX 21 24 22 25 23 26 24 27 25 28 26 29 27 30 28 31 29 32 30 33
REMARK SMILES IDX 31 34 92 35 32 36 91 37 33 38 34 39 35 40 85 41 36 42 90 43
REMARK SMILES IDX 84 44 86 45 37 46 89 47 83 48 82 49 38 51 70 52 50 53 69 54
REMARK SMILES IDX 51 55 54 56 68 57 87 58 52 59 53 60 67 62 88 63 55 64 39 65
REMARK SMILES IDX 40 66 48 67 41 68 43 69 49 70 42 71 44 72 45 73 46 74 47 75
REMARK SMILES IDX 71 76 72 77 80 78 73 79 75 80 81 81 74 82 76 83 77 84 78 85
REMARK SMILES IDX 79 86 56 87 57 88 65 89 58 90 60 91 66 92 59 93 61 94 62 95
REMARK SMILES IDX 63 96 64 97
REMARK H PARENT 8 18 86 50 54 61
REMARK Flexibility Score: inf
ROOT
ATOM      1  C   UNL A   1      37.550  21.636  25.215  1.00  0.00     0.188 C 
ENDROOT
BRANCH   1   2
ATOM      2  C   UNL A   1      36.070  21.464  25.592  1.00  0.00     0.188 C 
BRANCH   2   3
ATOM      3  O   UNL A   1      35.159  21.742  24.557  1.00  0.00    -0.376 OA
BRANCH   3   4
ATOM      4  C   UNL A   1      35.416  22.767  23.620  1.00  0.00     0.202 C 
BRANCH   4   5
ATOM      5  C   UNL A   1      34.346  23.386  22.708  1.00  0.00     0.261 C 
BRANCH   5   6
ATOM      6  O   UNL A   1      34.097  24.788  22.812  1.00  0.00    -0.463 OA
BRANCH   6   7
ATOM      7  C   UNL A   1      32.874  25.218  22.435  1.00  0.00     0.309 C 
ATOM      8  O   UNL A   1      31.915  24.477  22.236  1.00  0.00    -0.252 OA
BRANCH   7   9
ATOM      9  C   UNL A   1      32.819  26.713  22.147  1.00  0.00     0.099 C 
ATOM     10  C   UNL A   1      32.134  28.254  24.564  1.00  0.00     0.082 C 
ATOM     11  C   UNL A   1      33.477  27.531  24.455  1.00  0.00     0.026 C 
ATOM     12  C   UNL A   1      31.027  27.586  23.766  1.00  0.00     0.026 C 
ATOM     13  C   UNL A   1      33.909  27.375  22.995  1.00  0.00     0.017 C 
ATOM     14  C   UNL A   1      31.492  27.470  22.316  1.00  0.00     0.017 C 
BRANCH  10  15
ATOM     15  N   UNL A   1      31.777  28.494  25.926  1.00  0.00    -0.353 N 
ATOM     16  C   UNL A   1      31.251  27.645  26.839  1.00  0.00     0.220 C 
ATOM     17  O   UNL A   1      31.207  28.079  27.989  1.00  0.00    -0.275 OA
ATOM     18  H   UNL A   1      31.936  29.411  26.246  1.00  0.00     0.163 HD
BRANCH  16  19
ATOM     19  C   UNL A   1      30.897  26.187  26.541  1.00  0.00     0.102 C 
BRANCH  19  20
ATOM     20  C   UNL A   1      31.903  25.027  26.598  1.00  0.00     0.038 C 
BRANCH  20  21
ATOM     21  C   UNL A   1      31.547  23.547  26.842  1.00  0.00     0.160 C 
BRANCH  21  22
ATOM     22  O   UNL A   1      32.107  22.750  27.880  1.00  0.00    -0.385 OA
ATOM     23  C   UNL A   1      33.479  22.419  27.857  1.00  0.00     0.194 C 
ENDBRANCH  21  22
ENDBRANCH  20  21
ENDBRANCH  19  20
ENDBRANCH  16  19
ENDBRANCH  10  15
ENDBRANCH   7   9
ENDBRANCH   6   7
ENDBRANCH   5   6
ENDBRANCH   4   5
ENDBRANCH   3   4
ENDBRANCH   2   3
ENDBRANCH   1   2
BRANCH   1  24
ATOM     24  O   UNL A   1      38.524  21.964  26.195  1.00  0.00    -0.377 OA
BRANCH  24  25
ATOM     25  C   UNL A   1      39.881  21.559  26.019  1.00  0.00     0.188 C 
BRANCH  25  26
ATOM     26  C   UNL A   1      40.808  21.422  27.246  1.00  0.00     0.188 C 
BRANCH  26  27
ATOM     27  O   UNL A   1      41.400  20.144  27.395  1.00  0.00    -0.376 OA
BRANCH  27  28
ATOM     28  C   UNL A   1      41.346  19.256  26.291  1.00  0.00     0.202 C 
BRANCH  28  29
ATOM     29  C   UNL A   1      42.641  18.591  25.796  1.00  0.00     0.261 C 
BRANCH  29  30
ATOM     30  O   UNL A   1      43.842  19.374  25.854  1.00  0.00    -0.460 OA
BRANCH  30  31
ATOM     31  C   UNL A   1      44.386  19.801  24.698  1.00  0.00     0.338 C 
ATOM     32  O   UNL A   1      44.374  19.233  23.617  1.00  0.00    -0.246 OA
BRANCH  31  33
ATOM     33  C   UNL A   1      44.853  21.180  24.929  1.00  0.00     0.060 A 
ATOM     34  C   UNL A   1      45.262  21.575  26.212  1.00  0.00     0.016 A 
ATOM     35  C   UNL A   1      44.893  22.075  23.860  1.00  0.00     0.016 A 
ATOM     36  C   UNL A   1      45.681  22.887  26.437  1.00  0.00     0.010 A 
ATOM     37  C   UNL A   1      45.289  23.391  24.090  1.00  0.00     0.010 A 
ATOM     38  C   UNL A   1      45.645  23.810  25.386  1.00  0.00    -0.014 A 
BRANCH  38  39
ATOM     39  C   UNL A   1      45.731  25.263  25.655  1.00  0.00     0.031 A 
ATOM     40  C   UNL A   1      47.101  25.878  25.687  1.00  0.00     0.074 A 
ATOM     41  C   UNL A   1      44.642  25.992  25.947  1.00  0.00     0.049 A 
ATOM     42  N   UNL A   1      47.471  27.064  26.085  1.00  0.00    -0.248 NA
ATOM     43  C   UNL A   1      48.207  25.022  25.224  1.00  0.00     0.031 C 
ATOM     44  C   UNL A   1      43.266  25.502  25.934  1.00  0.00     0.029 A 
ATOM     45  N   UNL A   1      44.538  27.293  26.372  1.00  0.00    -0.354 N 
ATOM     46  C   UNL A   1      48.857  27.078  25.975  1.00  0.00     0.074 A 
ATOM     47  C   UNL A   1      49.259  25.784  25.473  1.00  0.00     0.031 C 
ATOM     48  C   UNL A   1      42.456  26.473  26.391  1.00  0.00     0.029 A 
ATOM     49  C   UNL A   1      43.264  27.633  26.765  1.00  0.00     0.049 A 
ATOM     50  H   UNL A   1      45.296  27.920  26.394  1.00  0.00     0.167 HD
ATOM     51  C   UNL A   1      49.717  28.080  26.273  1.00  0.00     0.034 A 
ATOM     52  C   UNL A   1      42.815  28.732  27.403  1.00  0.00     0.034 A 
ATOM     53  C   UNL A   1      49.302  29.359  26.776  1.00  0.00     0.049 A 
ATOM     54  C   UNL A   1      43.789  29.831  27.749  1.00  0.00     0.074 A 
ATOM     55  C   UNL A   1      50.082  30.463  27.065  1.00  0.00     0.029 A 
ATOM     56  N   UNL A   1      47.994  29.695  27.090  1.00  0.00    -0.354 N 
ATOM     57  N   UNL A   1      45.085  29.878  27.552  1.00  0.00    -0.248 NA
ATOM     58  C   UNL A   1      43.237  31.041  28.376  1.00  0.00     0.031 C 
ATOM     59  C   UNL A   1      49.250  31.451  27.600  1.00  0.00     0.029 A 
ATOM     60  C   UNL A   1      47.944  30.984  27.585  1.00  0.00     0.049 A 
ATOM     61  H   UNL A   1      47.216  29.102  26.977  1.00  0.00     0.167 HD
ATOM     62  C   UNL A   1      45.498  31.132  27.992  1.00  0.00     0.074 A 
ATOM     63  C   UNL A   1      44.312  31.816  28.465  1.00  0.00     0.031 C 
ATOM     64  C   UNL A   1      46.744  31.669  28.002  1.00  0.00     0.034 A 
BRANCH  51  65
ATOM     65  C   UNL A   1      51.186  27.811  26.076  1.00  0.00     0.023 A 
ATOM     66  C   UNL A   1      52.012  27.536  27.185  1.00  0.00     0.012 A 
ATOM     67  C   UNL A   1      51.752  27.836  24.786  1.00  0.00     0.148 A 
ATOM     68  C   UNL A   1      53.384  27.346  27.021  1.00  0.00     0.002 A 
ATOM     69  C   UNL A   1      53.110  27.591  24.624  1.00  0.00     0.091 A 
ATOM     70  F   UNL A   1      50.960  28.124  23.744  1.00  0.00    -0.205 F 
ATOM     71  C   UNL A   1      53.931  27.365  25.742  1.00  0.00     0.022 A 
BRANCH  69  72
ATOM     72  S   UNL A   1      53.889  27.510  23.008  1.00  0.00     0.127 S 
ATOM     73  O   UNL A   1      53.485  26.182  22.552  1.00  0.00    -0.237 OA
ATOM     74  O   UNL A   1      53.246  28.619  22.303  1.00  0.00    -0.237 OA
ATOM     75  O   UNL A   1      55.316  27.688  23.242  1.00  0.00    -0.744 OA
ENDBRANCH  69  72
ENDBRANCH  51  65
BRANCH  52  76
ATOM     76  C   UNL A   1      41.367  28.849  27.735  1.00  0.00     0.023 A 
ATOM     77  C   UNL A   1      40.456  29.219  26.726  1.00  0.00     0.012 A 
ATOM     78  C   UNL A   1      40.882  28.552  29.027  1.00  0.00     0.148 A 
ATOM     79  C   UNL A   1      39.091  29.307  26.999  1.00  0.00     0.002 A 
ATOM     80  C   UNL A   1      39.516  28.604  29.282  1.00  0.00     0.091 A 
ATOM     81  F   UNL A   1      41.768  28.198  29.968  1.00  0.00    -0.205 F 
ATOM     82  C   UNL A   1      38.622  28.992  28.272  1.00  0.00     0.022 A 
BRANCH  80  83
ATOM     83  S   UNL A   1      38.794  28.175  30.872  1.00  0.00     0.127 S 
ATOM     84  O   UNL A   1      38.695  26.718  30.769  1.00  0.00    -0.237 OA
ATOM     85  O   UNL A   1      39.822  28.644  31.801  1.00  0.00    -0.237 OA
ATOM     86  O   UNL A   1      37.513  28.862  30.930  1.00  0.00    -0.744 OA
ENDBRANCH  80  83
ENDBRANCH  52  76
BRANCH  64  87
ATOM     87  C   UNL A   1      46.907  33.092  28.468  1.00  0.00     0.023 A 
ATOM     88  C   UNL A   1      47.131  33.377  29.829  1.00  0.00     0.012 A 
ATOM     89  C   UNL A   1      46.972  34.136  27.522  1.00  0.00     0.148 A 
ATOM     90  C   UNL A   1      47.403  34.682  30.241  1.00  0.00     0.002 A 
ATOM     91  C   UNL A   1      47.295  35.422  27.932  1.00  0.00     0.091 A 
ATOM     92  F   UNL A   1      46.740  33.843  26.234  1.00  0.00    -0.205 F 
ATOM     93  C   UNL A   1      47.501  35.700  29.293  1.00  0.00     0.022 A 
BRANCH  91  94
ATOM     94  S   UNL A   1      47.550  36.770  26.773  1.00  0.00     0.127 S 
ATOM     95  O   UNL A   1      48.761  36.340  26.077  1.00  0.00    -0.237 OA
ATOM     96  O   UNL A   1      46.331  36.717  25.965  1.00  0.00    -0.237 OA
ATOM     97  O   UNL A   1      47.693  37.976  27.577  1.00  0.00    -0.744 OA
ENDBRANCH  91  94
ENDBRANCH  64  87
ENDBRANCH  38  39
ENDBRANCH  31  33
ENDBRANCH  30  31
ENDBRANCH  29  30
ENDBRANCH  28  29
ENDBRANCH  27  28
ENDBRANCH  26  27
ENDBRANCH  25  26
ENDBRANCH  24  25
ENDBRANCH   1  24
TORSDOF 28
ENDMDL
MODEL 3
REMARK VINA RESULT:      -8.3      6.167     10.569
REMARK SMILES COCCCC(=O)N[C@H]1CC[C@@H](C(=O)OCCOCCOCCOCCOC(=O)c2ccc(-c3c4nc(c(-c5cccc(S(=O)(=O)[O-])c5F)c5ccc([nH]5)c(-c5cccc(S(=O)(=O)[O-])c5F)c5nc(c(-c6cccc(S(=O)(=O)[O-])c6F)c6ccc3[nH]6)C=C5)C=C4)cc2)CC1
REMARK SMILES IDX 20 1 19 2 18 3 17 4 16 5 15 6 13 7 14 8 12 9 9 10 10 11
REMARK SMILES IDX 94 12 11 13 93 14 8 15 6 16 7 17 5 19 4 20 3 21 2 22 1 23
REMARK SMILES IDX 21 24 22 25 23 26 24 27 25 28 26 29 27 30 28 31 29 32 30 33
REMARK SMILES IDX 31 34 92 35 32 36 91 37 33 38 34 39 35 40 85 41 36 42 90 43
REMARK SMILES IDX 84 44 86 45 37 46 89 47 83 48 82 49 38 51 70 52 50 53 69 54
REMARK SMILES IDX 51 55 54 56 68 57 87 58 52 59 53 60 67 62 88 63 55 64 39 65
REMARK SMILES IDX 40 66 48 67 41 68 43 69 49 70 42 71 44 72 45 73 46 74 47 75
REMARK SMILES IDX 71 76 72 77 80 78 73 79 75 80 81 81 74 82 76 83 77 84 78 85
REMARK SMILES IDX 79 86 56 87 57 88 65 89 58 90 60 91 66 92 59 93 61 94 62 95
REMARK SMILES IDX 63 96 64 97
REMARK H PARENT 8 18 86 50 54 61
REMARK Flexibility Score: inf
ROOT
ATOM      1  C   UNL A   1      35.892  21.477  25.688  1.00  0.00     0.188 C 
ENDROOT
BRANCH   1   2
ATOM      2  C   UNL A   1      34.881  21.526  26.844  1.00  0.00     0.188 C 
BRANCH   2   3
ATOM      3  O   UNL A   1      33.667  20.858  26.597  1.00  0.00    -0.376 OA
BRANCH   3   4
ATOM      4  C   UNL A   1      33.244  20.586  25.278  1.00  0.00     0.202 C 
BRANCH   4   5
ATOM      5  C   UNL A   1      32.086  21.315  24.579  1.00  0.00     0.261 C 
BRANCH   5   6
ATOM      6  O   UNL A   1      32.249  22.698  24.266  1.00  0.00    -0.463 OA
BRANCH   6   7
ATOM      7  C   UNL A   1      31.583  23.580  25.042  1.00  0.00     0.309 C 
ATOM      8  O   UNL A   1      30.412  23.903  24.867  1.00  0.00    -0.252 OA
BRANCH   7   9
ATOM      9  C   UNL A   1      32.463  24.249  26.091  1.00  0.00     0.099 C 
ATOM     10  C   UNL A   1      33.453  26.864  25.160  1.00  0.00     0.082 C 
ATOM     11  C   UNL A   1      31.970  26.656  25.465  1.00  0.00     0.026 C 
ATOM     12  C   UNL A   1      34.155  25.595  24.706  1.00  0.00     0.026 C 
ATOM     13  C   UNL A   1      31.763  25.549  26.501  1.00  0.00     0.017 C 
ATOM     14  C   UNL A   1      33.941  24.526  25.776  1.00  0.00     0.017 C 
BRANCH  10  15
ATOM     15  N   UNL A   1      33.658  27.964  24.273  1.00  0.00    -0.353 N 
ATOM     16  C   UNL A   1      32.852  28.442  23.296  1.00  0.00     0.220 C 
ATOM     17  O   UNL A   1      33.208  29.513  22.805  1.00  0.00    -0.275 OA
ATOM     18  H   UNL A   1      34.509  28.445  24.389  1.00  0.00     0.163 HD
BRANCH  16  19
ATOM     19  C   UNL A   1      31.503  27.824  22.928  1.00  0.00     0.102 C 
BRANCH  19  20
ATOM     20  C   UNL A   1      31.334  26.630  21.975  1.00  0.00     0.038 C 
BRANCH  20  21
ATOM     21  C   UNL A   1      32.426  25.598  21.634  1.00  0.00     0.160 C 
BRANCH  21  22
ATOM     22  O   UNL A   1      33.187  25.606  20.430  1.00  0.00    -0.385 OA
ATOM     23  C   UNL A   1      32.533  25.572  19.180  1.00  0.00     0.194 C 
ENDBRANCH  21  22
ENDBRANCH  20  21
ENDBRANCH  19  20
ENDBRANCH  16  19
ENDBRANCH  10  15
ENDBRANCH   7   9
ENDBRANCH   6   7
ENDBRANCH   5   6
ENDBRANCH   4   5
ENDBRANCH   3   4
ENDBRANCH   2   3
ENDBRANCH   1   2
BRANCH   1  24
ATOM     24  O   UNL A   1      37.135  22.160  25.771  1.00  0.00    -0.377 OA
BRANCH  24  25
ATOM     25  C   UNL A   1      38.347  21.485  25.436  1.00  0.00     0.188 C 
BRANCH  25  26
ATOM     26  C   UNL A   1      39.654  21.836  26.179  1.00  0.00     0.188 C 
BRANCH  26  27
ATOM     27  O   UNL A   1      40.221  20.762  26.908  1.00  0.00    -0.376 OA
BRANCH  27  28
ATOM     28  C   UNL A   1      40.395  19.524  26.238  1.00  0.00     0.202 C 
BRANCH  28  29
ATOM     29  C   UNL A   1      41.802  18.913  26.140  1.00  0.00     0.261 C 
BRANCH  29  30
ATOM     30  O   UNL A   1      42.914  19.796  26.344  1.00  0.00    -0.460 OA
BRANCH  30  31
ATOM     31  C   UNL A   1      43.672  20.131  25.282  1.00  0.00     0.338 C 
ATOM     32  O   UNL A   1      43.838  19.489  24.256  1.00  0.00    -0.246 OA
BRANCH  31  33
ATOM     33  C   UNL A   1      44.129  21.515  25.503  1.00  0.00     0.060 A 
ATOM     34  C   UNL A   1      44.503  21.932  26.790  1.00  0.00     0.016 A 
ATOM     35  C   UNL A   1      44.196  22.394  24.421  1.00  0.00     0.016 A 
ATOM     36  C   UNL A   1      44.913  23.248  27.004  1.00  0.00     0.010 A 
ATOM     37  C   UNL A   1      44.583  23.714  24.640  1.00  0.00     0.010 A 
ATOM     38  C   UNL A   1      44.903  24.154  25.938  1.00  0.00    -0.014 A 
BRANCH  38  39
ATOM     39  C   UNL A   1      44.979  25.612  26.186  1.00  0.00     0.031 A 
ATOM     40  C   UNL A   1      46.337  26.251  26.126  1.00  0.00     0.074 A 
ATOM     41  C   UNL A   1      43.897  26.325  26.537  1.00  0.00     0.049 A 
ATOM     42  N   UNL A   1      46.710  27.448  26.488  1.00  0.00    -0.248 NA
ATOM     43  C   UNL A   1      47.428  25.409  25.604  1.00  0.00     0.031 C 
ATOM     44  C   UNL A   1      42.533  25.810  26.614  1.00  0.00     0.029 A 
ATOM     45  N   UNL A   1      43.796  27.629  26.954  1.00  0.00    -0.354 N 
ATOM     46  C   UNL A   1      48.085  27.486  26.292  1.00  0.00     0.074 A 
ATOM     47  C   UNL A   1      48.479  26.193  25.779  1.00  0.00     0.031 C 
ATOM     48  C   UNL A   1      41.735  26.772  27.111  1.00  0.00     0.029 A 
ATOM     49  C   UNL A   1      42.543  27.951  27.422  1.00  0.00     0.049 A 
ATOM     50  H   UNL A   1      44.543  28.269  26.922  1.00  0.00     0.167 HD
ATOM     51  C   UNL A   1      48.944  28.505  26.525  1.00  0.00     0.034 A 
ATOM     52  C   UNL A   1      42.114  29.049  28.075  1.00  0.00     0.034 A 
ATOM     53  C   UNL A   1      48.537  29.783  27.038  1.00  0.00     0.049 A 
ATOM     54  C   UNL A   1      43.087  30.169  28.347  1.00  0.00     0.074 A 
ATOM     55  C   UNL A   1      49.313  30.904  27.267  1.00  0.00     0.029 A 
ATOM     56  N   UNL A   1      47.245  30.100  27.430  1.00  0.00    -0.354 N 
ATOM     57  N   UNL A   1      44.368  30.237  28.070  1.00  0.00    -0.248 NA
ATOM     58  C   UNL A   1      42.553  31.377  28.994  1.00  0.00     0.031 C 
ATOM     59  C   UNL A   1      48.498  31.883  27.842  1.00  0.00     0.029 A 
ATOM     60  C   UNL A   1      47.202  31.393  27.914  1.00  0.00     0.049 A 
ATOM     61  H   UNL A   1      46.473  29.492  27.372  1.00  0.00     0.167 HD
ATOM     62  C   UNL A   1      44.784  31.503  28.470  1.00  0.00     0.074 A 
ATOM     63  C   UNL A   1      43.617  32.172  29.008  1.00  0.00     0.031 C 
ATOM     64  C   UNL A   1      46.019  32.062  28.396  1.00  0.00     0.034 A 
BRANCH  51  65
ATOM     65  C   UNL A   1      50.403  28.261  26.240  1.00  0.00     0.023 A 
ATOM     66  C   UNL A   1      50.939  28.570  24.973  1.00  0.00     0.012 A 
ATOM     67  C   UNL A   1      51.245  27.718  27.230  1.00  0.00     0.148 A 
ATOM     68  C   UNL A   1      52.274  28.292  24.678  1.00  0.00     0.002 A 
ATOM     69  C   UNL A   1      52.587  27.495  26.947  1.00  0.00     0.091 A 
ATOM     70  F   UNL A   1      50.715  27.406  28.421  1.00  0.00    -0.205 F 
ATOM     71  C   UNL A   1      53.098  27.763  25.666  1.00  0.00     0.022 A 
BRANCH  69  72
ATOM     72  S   UNL A   1      53.745  26.896  28.181  1.00  0.00     0.127 S 
ATOM     73  O   UNL A   1      54.536  25.942  27.406  1.00  0.00    -0.237 OA
ATOM     74  O   UNL A   1      54.458  28.119  28.551  1.00  0.00    -0.237 OA
ATOM     75  O   UNL A   1      52.935  26.322  29.247  1.00  0.00    -0.744 OA
ENDBRANCH  69  72
ENDBRANCH  51  65
BRANCH  52  76
ATOM     76  C   UNL A   1      40.687  29.145  28.494  1.00  0.00     0.023 A 
ATOM     77  C   UNL A   1      39.702  29.428  27.528  1.00  0.00     0.012 A 
ATOM     78  C   UNL A   1      40.297  28.912  29.830  1.00  0.00     0.148 A 
ATOM     79  C   UNL A   1      38.355  29.493  27.886  1.00  0.00     0.002 A 
ATOM     80  C   UNL A   1      38.949  28.940  30.172  1.00  0.00     0.091 A 
ATOM     81  F   UNL A   1      41.252  28.640  30.730  1.00  0.00    -0.205 F 
ATOM     82  C   UNL A   1      37.979  29.242  29.203  1.00  0.00     0.022 A 
BRANCH  80  83
ATOM     83  S   UNL A   1      38.345  28.586  31.828  1.00  0.00     0.127 S 
ATOM     84  O   UNL A   1      36.937  28.968  31.719  1.00  0.00    -0.237 OA
ATOM     85  O   UNL A   1      38.572  27.144  31.925  1.00  0.00    -0.237 OA
ATOM     86  O   UNL A   1      39.126  29.421  32.728  1.00  0.00    -0.744 OA
ENDBRANCH  80  83
ENDBRANCH  52  76
BRANCH  64  87
ATOM     87  C   UNL A   1      46.183  33.493  28.837  1.00  0.00     0.023 A 
ATOM     88  C   UNL A   1      46.577  33.795  30.155  1.00  0.00     0.012 A 
ATOM     89  C   UNL A   1      46.077  34.533  27.890  1.00  0.00     0.148 A 
ATOM     90  C   UNL A   1      46.848  35.112  30.526  1.00  0.00     0.002 A 
ATOM     91  C   UNL A   1      46.399  35.834  28.253  1.00  0.00     0.091 A 
ATOM     92  F   UNL A   1      45.687  34.224  26.645  1.00  0.00    -0.205 F 
ATOM     93  C   UNL A   1      46.775  36.127  29.573  1.00  0.00     0.022 A 
BRANCH  91  94
ATOM     94  S   UNL A   1      46.440  37.185  27.070  1.00  0.00     0.127 S 
ATOM     95  O   UNL A   1      47.263  38.169  27.770  1.00  0.00    -0.237 OA
ATOM     96  O   UNL A   1      47.086  36.563  25.914  1.00  0.00    -0.237 OA
ATOM     97  O   UNL A   1      45.055  37.578  26.853  1.00  0.00    -0.744 OA
ENDBRANCH  91  94
ENDBRANCH  64  87
ENDBRANCH  38  39
ENDBRANCH  31  33
ENDBRANCH  30  31
ENDBRANCH  29  30
ENDBRANCH  28  29
ENDBRANCH  27  28
ENDBRANCH  26  27
ENDBRANCH  25  26
ENDBRANCH  24  25
ENDBRANCH   1  24
TORSDOF 28
ENDMDL
