MODEL 1
REMARK VINA RESULT:      -8.8      0.000      0.000
REMARK SMILES O=C(Nc1ccccc1C(=O)OCCOCCOCCOCCOC(=O)c1ccc(-c2c3nc(c(-c4cccc(S(=O)(=O)[O-])c4F)c4ccc([nH]4)c(-c4cccc(S(=O)(=O)[O-])c4F)c4nc(c(-c5cccc(S(=O)(=O)[O-])c5F)c5ccc2[nH]5)C=C4)C=C3)cc1)c1ccc(N2C(=O)[C@H]3CC=CC[C@H]3C2=O)cc1
REMARK SMILES IDX 18 1 17 2 16 3 15 4 14 5 13 6 12 7 10 8 11 9 9 10 4 11 5 12
REMARK SMILES IDX 6 13 8 14 7 15 3 16 1 17 2 18 90 20 91 21 106 22 92 23
REMARK SMILES IDX 105 24 93 25 94 26 95 27 103 28 96 29 97 30 102 31 104 32
REMARK SMILES IDX 98 33 101 34 99 35 100 36 19 37 20 38 21 39 22 40 23 41
REMARK SMILES IDX 24 42 25 43 26 44 27 45 28 46 89 47 29 48 88 49 30 50 31 51
REMARK SMILES IDX 32 52 82 53 33 54 87 55 81 56 83 57 34 58 86 59 80 60 79 61
REMARK SMILES IDX 35 63 67 64 47 65 66 66 48 67 51 68 65 69 84 70 49 71 50 72
REMARK SMILES IDX 64 74 85 75 52 76 36 77 37 78 45 79 38 80 40 81 46 82 39 83
REMARK SMILES IDX 41 84 42 85 43 86 44 87 68 88 69 89 77 90 70 91 72 92 78 93
REMARK SMILES IDX 71 94 73 95 74 96 75 97 76 98 53 99 54 100 62 101 55 102
REMARK SMILES IDX 57 103 63 104 56 105 58 106 59 107 60 108 61 109
REMARK H PARENT 3 19 83 62 51 73
REMARK Flexibility Score: inf
ROOT
ATOM      1  O   UNL A   1      37.975  31.167  36.829  1.00  0.00    -0.377 OA
ENDROOT
BRANCH   1   2
ATOM      2  C   UNL A   1      39.288  31.138  36.291  1.00  0.00     0.188 C 
BRANCH   2   3
ATOM      3  C   UNL A   1      39.554  30.456  34.927  1.00  0.00     0.188 C 
BRANCH   3   4
ATOM      4  O   UNL A   1      39.943  31.320  33.882  1.00  0.00    -0.376 OA
BRANCH   4   5
ATOM      5  C   UNL A   1      39.196  32.445  33.483  1.00  0.00     0.202 C 
BRANCH   5   6
ATOM      6  C   UNL A   1      37.673  32.442  33.405  1.00  0.00     0.261 C 
BRANCH   6   7
ATOM      7  O   UNL A   1      37.011  31.212  33.115  1.00  0.00    -0.460 OA
BRANCH   7   8
ATOM      8  C   UNL A   1      36.474  31.083  31.883  1.00  0.00     0.340 C 
ATOM      9  O   UNL A   1      35.353  31.434  31.546  1.00  0.00    -0.246 OA
BRANCH   8  10
ATOM     10  C   UNL A   1      37.504  30.645  30.901  1.00  0.00     0.083 A 
ATOM     11  C   UNL A   1      37.695  31.125  29.588  1.00  0.00     0.056 A 
ATOM     12  C   UNL A   1      38.590  30.425  28.756  1.00  0.00     0.027 A 
ATOM     13  C   UNL A   1      39.326  29.330  29.221  1.00  0.00     0.002 A 
ATOM     14  C   UNL A   1      38.253  29.536  31.355  1.00  0.00     0.018 A 
ATOM     15  C   UNL A   1      39.162  28.889  30.524  1.00  0.00     0.001 A 
BRANCH  11  16
ATOM     16  N   UNL A   1      37.090  32.239  28.961  1.00  0.00    -0.321 N 
ATOM     17  O   UNL A   1      35.873  33.413  27.470  1.00  0.00    -0.269 OA
ATOM     18  C   UNL A   1      36.021  32.373  28.105  1.00  0.00     0.255 C 
ATOM     19  H   UNL A   1      37.523  33.096  29.182  1.00  0.00     0.170 HD
BRANCH  18  20
ATOM     20  C   UNL A   1      35.029  31.292  27.951  1.00  0.00     0.040 A 
ATOM     21  C   UNL A   1      35.402  29.946  27.884  1.00  0.00     0.016 A 
ATOM     22  C   UNL A   1      33.708  31.670  27.716  1.00  0.00     0.016 A 
ATOM     23  C   UNL A   1      34.507  29.011  27.364  1.00  0.00     0.027 A 
ATOM     24  C   UNL A   1      32.833  30.746  27.156  1.00  0.00     0.027 A 
ATOM     25  C   UNL A   1      33.254  29.432  26.906  1.00  0.00     0.052 A 
BRANCH  25  26
ATOM     26  N   UNL A   1      32.425  28.581  26.154  1.00  0.00    -0.250 N 
ATOM     27  C   UNL A   1      32.438  28.507  24.789  1.00  0.00     0.238 C 
ATOM     28  C   UNL A   1      31.499  27.737  26.720  1.00  0.00     0.238 C 
ATOM     29  O   UNL A   1      33.008  29.235  23.987  1.00  0.00    -0.274 OA
ATOM     30  C   UNL A   1      31.701  27.254  24.384  1.00  0.00     0.096 C 
ATOM     31  C   UNL A   1      30.888  26.888  25.631  1.00  0.00     0.096 C 
ATOM     32  O   UNL A   1      31.150  27.655  27.891  1.00  0.00    -0.274 OA
ATOM     33  C   UNL A   1      32.734  26.201  23.952  1.00  0.00     0.041 C 
ATOM     34  C   UNL A   1      30.985  25.427  26.071  1.00  0.00     0.041 C 
ATOM     35  C   UNL A   1      33.242  25.359  25.088  1.00  0.00    -0.030 C 
ATOM     36  C   UNL A   1      32.417  24.974  26.072  1.00  0.00    -0.030 C 
ENDBRANCH  25  26
ENDBRANCH  18  20
ENDBRANCH  11  16
ENDBRANCH   8  10
ENDBRANCH   7   8
ENDBRANCH   6   7
ENDBRANCH   5   6
ENDBRANCH   4   5
ENDBRANCH   3   4
ENDBRANCH   2   3
ENDBRANCH   1   2
BRANCH   1  37
ATOM     37  C   UNL A   1      37.526  32.417  37.328  1.00  0.00     0.188 C 
BRANCH  37  38
ATOM     38  C   UNL A   1      37.796  32.574  38.836  1.00  0.00     0.188 C 
BRANCH  38  39
ATOM     39  O   UNL A   1      38.703  33.565  39.293  1.00  0.00    -0.376 OA
BRANCH  39  40
ATOM     40  C   UNL A   1      40.074  33.280  39.512  1.00  0.00     0.202 C 
BRANCH  40  41
ATOM     41  C   UNL A   1      41.233  34.296  39.408  1.00  0.00     0.261 C 
BRANCH  41  42
ATOM     42  O   UNL A   1      41.009  35.648  39.802  1.00  0.00    -0.460 OA
BRANCH  42  43
ATOM     43  C   UNL A   1      41.364  36.600  38.917  1.00  0.00     0.338 C 
ATOM     44  O   UNL A   1      41.483  37.798  39.125  1.00  0.00    -0.246 OA
BRANCH  43  45
ATOM     45  C   UNL A   1      41.765  35.913  37.674  1.00  0.00     0.060 A 
ATOM     46  C   UNL A   1      40.774  35.497  36.774  1.00  0.00     0.016 A 
ATOM     47  C   UNL A   1      43.116  35.684  37.398  1.00  0.00     0.016 A 
ATOM     48  C   UNL A   1      41.126  34.824  35.608  1.00  0.00     0.010 A 
ATOM     49  C   UNL A   1      43.465  34.974  36.250  1.00  0.00     0.010 A 
ATOM     50  C   UNL A   1      42.468  34.508  35.374  1.00  0.00    -0.014 A 
BRANCH  50  51
ATOM     51  C   UNL A   1      42.800  33.486  34.359  1.00  0.00     0.031 A 
ATOM     52  C   UNL A   1      42.949  33.940  32.932  1.00  0.00     0.074 A 
ATOM     53  C   UNL A   1      42.975  32.196  34.692  1.00  0.00     0.049 A 
ATOM     54  N   UNL A   1      43.160  33.234  31.854  1.00  0.00    -0.248 NA
ATOM     55  C   UNL A   1      42.836  35.390  32.690  1.00  0.00     0.031 C 
ATOM     56  C   UNL A   1      42.883  31.649  36.044  1.00  0.00     0.029 A 
ATOM     57  N   UNL A   1      43.235  31.106  33.901  1.00  0.00    -0.354 N 
ATOM     58  C   UNL A   1      43.178  34.147  30.806  1.00  0.00     0.074 A 
ATOM     59  C   UNL A   1      42.939  35.454  31.373  1.00  0.00     0.031 C 
ATOM     60  C   UNL A   1      43.044  30.316  35.983  1.00  0.00     0.029 A 
ATOM     61  C   UNL A   1      43.220  29.917  34.588  1.00  0.00     0.049 A 
ATOM     62  H   UNL A   1      43.415  31.170  32.935  1.00  0.00     0.167 HD
ATOM     63  C   UNL A   1      43.387  33.917  29.489  1.00  0.00     0.034 A 
ATOM     64  C   UNL A   1      43.301  28.652  34.131  1.00  0.00     0.034 A 
ATOM     65  C   UNL A   1      43.627  32.614  28.934  1.00  0.00     0.049 A 
ATOM     66  C   UNL A   1      43.483  28.418  32.651  1.00  0.00     0.074 A 
ATOM     67  C   UNL A   1      43.872  32.272  27.617  1.00  0.00     0.029 A 
ATOM     68  N   UNL A   1      43.642  31.435  29.664  1.00  0.00    -0.354 N 
ATOM     69  N   UNL A   1      43.588  29.293  31.680  1.00  0.00    -0.248 NA
ATOM     70  C   UNL A   1      43.587  27.019  32.208  1.00  0.00     0.031 C 
ATOM     71  C   UNL A   1      44.000  30.881  27.545  1.00  0.00     0.029 A 
ATOM     72  C   UNL A   1      43.881  30.362  28.824  1.00  0.00     0.049 A 
ATOM     73  H   UNL A   1      43.501  31.372  30.637  1.00  0.00     0.167 HD
ATOM     74  C   UNL A   1      43.814  28.555  30.522  1.00  0.00     0.074 A 
ATOM     75  C   UNL A   1      43.849  27.163  30.916  1.00  0.00     0.031 C 
ATOM     76  C   UNL A   1      43.969  28.987  29.245  1.00  0.00     0.034 A 
BRANCH  63  77
ATOM     77  C   UNL A   1      43.377  35.105  28.564  1.00  0.00     0.023 A 
ATOM     78  C   UNL A   1      42.153  35.577  28.046  1.00  0.00     0.012 A 
ATOM     79  C   UNL A   1      44.571  35.779  28.242  1.00  0.00     0.148 A 
ATOM     80  C   UNL A   1      42.121  36.680  27.195  1.00  0.00     0.002 A 
ATOM     81  C   UNL A   1      44.525  36.908  27.433  1.00  0.00     0.091 A 
ATOM     82  F   UNL A   1      45.725  35.301  28.726  1.00  0.00    -0.205 F 
ATOM     83  C   UNL A   1      43.305  37.352  26.899  1.00  0.00     0.022 A 
BRANCH  81  84
ATOM     84  S   UNL A   1      45.980  37.891  27.057  1.00  0.00     0.127 S 
ATOM     85  O   UNL A   1      46.485  38.193  28.396  1.00  0.00    -0.237 OA
ATOM     86  O   UNL A   1      46.797  36.947  26.296  1.00  0.00    -0.237 OA
ATOM     87  O   UNL A   1      45.507  39.040  26.298  1.00  0.00    -0.744 OA
ENDBRANCH  81  84
ENDBRANCH  63  77
BRANCH  64  88
ATOM     88  C   UNL A   1      43.226  27.503  35.077  1.00  0.00     0.023 A 
ATOM     89  C   UNL A   1      41.975  26.930  35.381  1.00  0.00     0.012 A 
ATOM     90  C   UNL A   1      44.383  26.987  35.694  1.00  0.00     0.148 A 
ATOM     91  C   UNL A   1      41.873  25.895  36.312  1.00  0.00     0.002 A 
ATOM     92  C   UNL A   1      44.281  25.921  36.579  1.00  0.00     0.091 A 
ATOM     93  F   UNL A   1      45.562  27.556  35.405  1.00  0.00    -0.205 F 
ATOM     94  C   UNL A   1      43.025  25.386  36.903  1.00  0.00     0.022 A 
BRANCH  92  95
ATOM     95  S   UNL A   1      45.718  25.132  37.312  1.00  0.00     0.127 S 
ATOM     96  O   UNL A   1      46.271  26.215  38.124  1.00  0.00    -0.237 OA
ATOM     97  O   UNL A   1      45.108  24.043  38.075  1.00  0.00    -0.237 OA
ATOM     98  O   UNL A   1      46.546  24.699  36.194  1.00  0.00    -0.744 OA
ENDBRANCH  92  95
ENDBRANCH  64  88
BRANCH  76  99
ATOM     99  C   UNL A   1      44.251  27.954  28.183  1.00  0.00     0.023 A 
ATOM    100  C   UNL A   1      45.578  27.598  27.876  1.00  0.00     0.012 A 
ATOM    101  C   UNL A   1      43.189  27.280  27.545  1.00  0.00     0.148 A 
ATOM    102  C   UNL A   1      45.845  26.618  26.921  1.00  0.00     0.002 A 
ATOM    103  C   UNL A   1      43.462  26.266  26.637  1.00  0.00     0.091 A 
ATOM    104  F   UNL A   1      41.932  27.642  27.842  1.00  0.00    -0.205 F 
ATOM    105  C   UNL A   1      44.789  25.944  26.312  1.00  0.00     0.022 A 
BRANCH 103 106
ATOM    106  S   UNL A   1      42.169  25.276  25.878  1.00  0.00     0.127 S 
ATOM    107  O   UNL A   1      41.454  26.276  25.087  1.00  0.00    -0.237 OA
ATOM    108  O   UNL A   1      42.941  24.314  25.090  1.00  0.00    -0.237 OA
ATOM    109  O   UNL A   1      41.412  24.690  26.975  1.00  0.00    -0.744 OA
ENDBRANCH 103 106
ENDBRANCH  76  99
ENDBRANCH  50  51
ENDBRANCH  43  45
ENDBRANCH  42  43
ENDBRANCH  41  42
ENDBRANCH  40  41
ENDBRANCH  39  40
ENDBRANCH  38  39
ENDBRANCH  37  38
ENDBRANCH   1  37
TORSDOF 26
ENDMDL
MODEL 2
REMARK VINA RESULT:      -7.8      6.958     14.082
REMARK SMILES O=C(Nc1ccccc1C(=O)OCCOCCOCCOCCOC(=O)c1ccc(-c2c3nc(c(-c4cccc(S(=O)(=O)[O-])c4F)c4ccc([nH]4)c(-c4cccc(S(=O)(=O)[O-])c4F)c4nc(c(-c5cccc(S(=O)(=O)[O-])c5F)c5ccc2[nH]5)C=C4)C=C3)cc1)c1ccc(N2C(=O)[C@H]3CC=CC[C@H]3C2=O)cc1
REMARK SMILES IDX 18 1 17 2 16 3 15 4 14 5 13 6 12 7 10 8 11 9 9 10 4 11 5 12
REMARK SMILES IDX 6 13 8 14 7 15 3 16 1 17 2 18 90 20 91 21 106 22 92 23
REMARK SMILES IDX 105 24 93 25 94 26 95 27 103 28 96 29 97 30 102 31 104 32
REMARK SMILES IDX 98 33 101 34 99 35 100 36 19 37 20 38 21 39 22 40 23 41
REMARK SMILES IDX 24 42 25 43 26 44 27 45 28 46 89 47 29 48 88 49 30 50 31 51
REMARK SMILES IDX 32 52 82 53 33 54 87 55 81 56 83 57 34 58 86 59 80 60 79 61
REMARK SMILES IDX 35 63 67 64 47 65 66 66 48 67 51 68 65 69 84 70 49 71 50 72
REMARK SMILES IDX 64 74 85 75 52 76 36 77 37 78 45 79 38 80 40 81 46 82 39 83
REMARK SMILES IDX 41 84 42 85 43 86 44 87 68 88 69 89 77 90 70 91 72 92 78 93
REMARK SMILES IDX 71 94 73 95 74 96 75 97 76 98 53 99 54 100 62 101 55 102
REMARK SMILES IDX 57 103 63 104 56 105 58 106 59 107 60 108 61 109
REMARK H PARENT 3 19 83 62 51 73
REMARK Flexibility Score: inf
ROOT
ATOM      1  O   UNL A   1      42.205  41.338  24.226  1.00  0.00    -0.377 OA
ENDROOT
BRANCH   1   2
ATOM      2  C   UNL A   1      41.678  42.315  23.342  1.00  0.00     0.188 C 
BRANCH   2   3
ATOM      3  C   UNL A   1      41.885  42.173  21.814  1.00  0.00     0.188 C 
BRANCH   3   4
ATOM      4  O   UNL A   1      41.528  43.300  21.046  1.00  0.00    -0.376 OA
BRANCH   4   5
ATOM      5  C   UNL A   1      41.069  43.222  19.717  1.00  0.00     0.202 C 
BRANCH   5   6
ATOM      6  C   UNL A   1      41.991  43.384  18.513  1.00  0.00     0.261 C 
BRANCH   6   7
ATOM      7  O   UNL A   1      42.190  44.694  17.981  1.00  0.00    -0.460 OA
BRANCH   7   8
ATOM      8  C   UNL A   1      43.103  44.819  16.993  1.00  0.00     0.340 C 
ATOM      9  O   UNL A   1      43.417  43.955  16.190  1.00  0.00    -0.246 OA
BRANCH   8  10
ATOM     10  C   UNL A   1      43.542  46.235  16.858  1.00  0.00     0.083 A 
ATOM     11  C   UNL A   1      44.855  46.740  16.975  1.00  0.00     0.056 A 
ATOM     12  C   UNL A   1      45.020  48.137  17.024  1.00  0.00     0.027 A 
ATOM     13  C   UNL A   1      43.938  49.013  16.892  1.00  0.00     0.002 A 
ATOM     14  C   UNL A   1      42.459  47.132  16.729  1.00  0.00     0.018 A 
ATOM     15  C   UNL A   1      42.655  48.510  16.738  1.00  0.00     0.001 A 
BRANCH  11  16
ATOM     16  N   UNL A   1      46.070  46.021  17.063  1.00  0.00    -0.321 N 
ATOM     17  O   UNL A   1      47.943  45.154  17.969  1.00  0.00    -0.269 OA
ATOM     18  C   UNL A   1      46.769  45.476  18.116  1.00  0.00     0.255 C 
ATOM     19  H   UNL A   1      46.507  45.881  16.192  1.00  0.00     0.170 HD
BRANCH  18  20
ATOM     20  C   UNL A   1      46.121  45.250  19.423  1.00  0.00     0.040 A 
ATOM     21  C   UNL A   1      46.459  45.993  20.558  1.00  0.00     0.016 A 
ATOM     22  C   UNL A   1      45.263  44.155  19.526  1.00  0.00     0.016 A 
ATOM     23  C   UNL A   1      46.121  45.507  21.821  1.00  0.00     0.027 A 
ATOM     24  C   UNL A   1      44.967  43.650  20.787  1.00  0.00     0.027 A 
ATOM     25  C   UNL A   1      45.460  44.280  21.937  1.00  0.00     0.052 A 
BRANCH  25  26
ATOM     26  N   UNL A   1      45.323  43.638  23.180  1.00  0.00    -0.250 N 
ATOM     27  C   UNL A   1      45.850  42.411  23.473  1.00  0.00     0.238 C 
ATOM     28  C   UNL A   1      44.626  44.178  24.236  1.00  0.00     0.238 C 
ATOM     29  O   UNL A   1      46.366  41.598  22.717  1.00  0.00    -0.274 OA
ATOM     30  C   UNL A   1      45.812  42.232  24.971  1.00  0.00     0.096 C 
ATOM     31  C   UNL A   1      44.796  43.281  25.438  1.00  0.00     0.096 C 
ATOM     32  O   UNL A   1      43.935  45.189  24.262  1.00  0.00    -0.274 OA
ATOM     33  C   UNL A   1      47.236  42.420  25.518  1.00  0.00     0.041 C 
ATOM     34  C   UNL A   1      45.248  44.154  26.609  1.00  0.00     0.041 C 
ATOM     35  C   UNL A   1      47.568  43.849  25.844  1.00  0.00    -0.030 C 
ATOM     36  C   UNL A   1      46.644  44.658  26.379  1.00  0.00    -0.030 C 
ENDBRANCH  25  26
ENDBRANCH  18  20
ENDBRANCH  11  16
ENDBRANCH   8  10
ENDBRANCH   7   8
ENDBRANCH   6   7
ENDBRANCH   5   6
ENDBRANCH   4   5
ENDBRANCH   3   4
ENDBRANCH   2   3
ENDBRANCH   1   2
BRANCH   1  37
ATOM     37  C   UNL A   1      41.556  41.208  25.481  1.00  0.00     0.188 C 
BRANCH  37  38
ATOM     38  C   UNL A   1      41.631  39.772  26.031  1.00  0.00     0.188 C 
BRANCH  38  39
ATOM     39  O   UNL A   1      42.437  39.489  27.164  1.00  0.00    -0.376 OA
BRANCH  39  40
ATOM     40  C   UNL A   1      43.835  39.721  27.165  1.00  0.00     0.202 C 
BRANCH  40  41
ATOM     41  C   UNL A   1      44.889  38.873  27.912  1.00  0.00     0.261 C 
BRANCH  41  42
ATOM     42  O   UNL A   1      46.243  38.895  27.463  1.00  0.00    -0.460 OA
BRANCH  42  43
ATOM     43  C   UNL A   1      46.520  38.189  26.349  1.00  0.00     0.338 C 
ATOM     44  O   UNL A   1      46.811  38.629  25.247  1.00  0.00    -0.246 OA
BRANCH  43  45
ATOM     45  C   UNL A   1      46.587  36.768  26.739  1.00  0.00     0.060 A 
ATOM     46  C   UNL A   1      45.880  35.820  25.987  1.00  0.00     0.016 A 
ATOM     47  C   UNL A   1      47.350  36.373  27.840  1.00  0.00     0.016 A 
ATOM     48  C   UNL A   1      45.906  34.477  26.350  1.00  0.00     0.010 A 
ATOM     49  C   UNL A   1      47.345  35.033  28.228  1.00  0.00     0.010 A 
ATOM     50  C   UNL A   1      46.591  34.091  27.507  1.00  0.00    -0.014 A 
BRANCH  50  51
ATOM     51  C   UNL A   1      46.313  32.764  28.097  1.00  0.00     0.031 A 
ATOM     52  C   UNL A   1      45.046  32.603  28.892  1.00  0.00     0.074 A 
ATOM     53  C   UNL A   1      47.154  31.730  27.927  1.00  0.00     0.049 A 
ATOM     54  N   UNL A   1      44.615  31.573  29.568  1.00  0.00    -0.248 NA
ATOM     55  C   UNL A   1      44.146  33.771  28.934  1.00  0.00     0.031 C 
ATOM     56  C   UNL A   1      48.394  31.763  27.154  1.00  0.00     0.029 A 
ATOM     57  N   UNL A   1      47.099  30.454  28.427  1.00  0.00    -0.354 N 
ATOM     58  C   UNL A   1      43.413  31.974  30.137  1.00  0.00     0.074 A 
ATOM     59  C   UNL A   1      43.189  33.346  29.743  1.00  0.00     0.031 C 
ATOM     60  C   UNL A   1      49.006  30.570  27.266  1.00  0.00     0.029 A 
ATOM     61  C   UNL A   1      48.215  29.706  28.140  1.00  0.00     0.049 A 
ATOM     62  H   UNL A   1      46.334  30.108  28.942  1.00  0.00     0.167 HD
ATOM     63  C   UNL A   1      42.563  31.258  30.909  1.00  0.00     0.034 A 
ATOM     64  C   UNL A   1      48.568  28.478  28.568  1.00  0.00     0.034 A 
ATOM     65  C   UNL A   1      42.791  29.893  31.294  1.00  0.00     0.049 A 
ATOM     66  C   UNL A   1      47.628  27.719  29.471  1.00  0.00     0.074 A 
ATOM     67  C   UNL A   1      41.985  29.069  32.057  1.00  0.00     0.029 A 
ATOM     68  N   UNL A   1      43.915  29.154  30.955  1.00  0.00    -0.354 N 
ATOM     69  N   UNL A   1      46.451  28.073  29.930  1.00  0.00    -0.248 NA
ATOM     70  C   UNL A   1      48.052  26.374  29.892  1.00  0.00     0.031 C 
ATOM     71  C   UNL A   1      42.638  27.841  32.209  1.00  0.00     0.029 A 
ATOM     72  C   UNL A   1      43.828  27.886  31.501  1.00  0.00     0.049 A 
ATOM     73  H   UNL A   1      44.663  29.484  30.407  1.00  0.00     0.167 HD
ATOM     74  C   UNL A   1      45.977  26.983  30.654  1.00  0.00     0.074 A 
ATOM     75  C   UNL A   1      46.986  25.950  30.557  1.00  0.00     0.031 C 
ATOM     76  C   UNL A   1      44.818  26.851  31.346  1.00  0.00     0.034 A 
BRANCH  63  77
ATOM     77  C   UNL A   1      41.304  31.939  31.377  1.00  0.00     0.023 A 
ATOM     78  C   UNL A   1      41.319  32.696  32.566  1.00  0.00     0.012 A 
ATOM     79  C   UNL A   1      40.120  31.866  30.618  1.00  0.00     0.148 A 
ATOM     80  C   UNL A   1      40.166  33.341  33.011  1.00  0.00     0.002 A 
ATOM     81  C   UNL A   1      38.989  32.552  31.042  1.00  0.00     0.091 A 
ATOM     82  F   UNL A   1      40.120  31.122  29.503  1.00  0.00    -0.205 F 
ATOM     83  C   UNL A   1      39.006  33.279  32.243  1.00  0.00     0.022 A 
BRANCH  81  84
ATOM     84  S   UNL A   1      37.469  32.602  30.086  1.00  0.00     0.127 S 
ATOM     85  O   UNL A   1      36.461  32.387  31.124  1.00  0.00    -0.237 OA
ATOM     86  O   UNL A   1      37.499  33.956  29.536  1.00  0.00    -0.237 OA
ATOM     87  O   UNL A   1      37.578  31.538  29.098  1.00  0.00    -0.744 OA
ENDBRANCH  81  84
ENDBRANCH  63  77
BRANCH  64  88
ATOM     88  C   UNL A   1      49.864  27.876  28.143  1.00  0.00     0.023 A 
ATOM     89  C   UNL A   1      49.933  27.145  26.941  1.00  0.00     0.012 A 
ATOM     90  C   UNL A   1      51.023  28.005  28.934  1.00  0.00     0.148 A 
ATOM     91  C   UNL A   1      51.120  26.519  26.556  1.00  0.00     0.002 A 
ATOM     92  C   UNL A   1      52.214  27.426  28.517  1.00  0.00     0.091 A 
ATOM     93  F   UNL A   1      50.933  28.691  30.083  1.00  0.00    -0.205 F 
ATOM     94  C   UNL A   1      52.260  26.666  27.338  1.00  0.00     0.022 A 
BRANCH  92  95
ATOM     95  S   UNL A   1      53.759  27.646  29.407  1.00  0.00     0.127 S 
ATOM     96  O   UNL A   1      53.396  27.200  30.751  1.00  0.00    -0.237 OA
ATOM     97  O   UNL A   1      54.656  26.745  28.682  1.00  0.00    -0.237 OA
ATOM     98  O   UNL A   1      54.091  29.059  29.282  1.00  0.00    -0.744 OA
ENDBRANCH  92  95
ENDBRANCH  64  88
BRANCH  76  99
ATOM     99  C   UNL A   1      44.541  25.524  32.006  1.00  0.00     0.023 A 
ATOM    100  C   UNL A   1      44.180  24.407  31.228  1.00  0.00     0.012 A 
ATOM    101  C   UNL A   1      44.718  25.369  33.396  1.00  0.00     0.148 A 
ATOM    102  C   UNL A   1      43.959  23.168  31.828  1.00  0.00     0.002 A 
ATOM    103  C   UNL A   1      44.551  24.120  33.979  1.00  0.00     0.091 A 
ATOM    104  F   UNL A   1      45.050  26.447  34.123  1.00  0.00    -0.205 F 
ATOM    105  C   UNL A   1      44.156  23.021  33.199  1.00  0.00     0.022 A 
BRANCH 103 106
ATOM    106  S   UNL A   1      44.879  23.813  35.718  1.00  0.00     0.127 S 
ATOM    107  O   UNL A   1      43.739  24.469  36.357  1.00  0.00    -0.237 OA
ATOM    108  O   UNL A   1      44.856  22.351  35.783  1.00  0.00    -0.237 OA
ATOM    109  O   UNL A   1      46.178  24.411  35.996  1.00  0.00    -0.744 OA
ENDBRANCH 103 106
ENDBRANCH  76  99
ENDBRANCH  50  51
ENDBRANCH  43  45
ENDBRANCH  42  43
ENDBRANCH  41  42
ENDBRANCH  40  41
ENDBRANCH  39  40
ENDBRANCH  38  39
ENDBRANCH  37  38
ENDBRANCH   1  37
TORSDOF 26
ENDMDL
MODEL 3
REMARK VINA RESULT:      -7.4      5.057     12.122
REMARK SMILES O=C(Nc1ccccc1C(=O)OCCOCCOCCOCCOC(=O)c1ccc(-c2c3nc(c(-c4cccc(S(=O)(=O)[O-])c4F)c4ccc([nH]4)c(-c4cccc(S(=O)(=O)[O-])c4F)c4nc(c(-c5cccc(S(=O)(=O)[O-])c5F)c5ccc2[nH]5)C=C4)C=C3)cc1)c1ccc(N2C(=O)[C@H]3CC=CC[C@H]3C2=O)cc1
REMARK SMILES IDX 18 1 17 2 16 3 15 4 14 5 13 6 12 7 10 8 11 9 9 10 4 11 5 12
REMARK SMILES IDX 6 13 8 14 7 15 3 16 1 17 2 18 90 20 91 21 106 22 92 23
REMARK SMILES IDX 105 24 93 25 94 26 95 27 103 28 96 29 97 30 102 31 104 32
REMARK SMILES IDX 98 33 101 34 99 35 100 36 19 37 20 38 21 39 22 40 23 41
REMARK SMILES IDX 24 42 25 43 26 44 27 45 28 46 89 47 29 48 88 49 30 50 31 51
REMARK SMILES IDX 32 52 82 53 33 54 87 55 81 56 83 57 34 58 86 59 80 60 79 61
REMARK SMILES IDX 35 63 67 64 47 65 66 66 48 67 51 68 65 69 84 70 49 71 50 72
REMARK SMILES IDX 64 74 85 75 52 76 36 77 37 78 45 79 38 80 40 81 46 82 39 83
REMARK SMILES IDX 41 84 42 85 43 86 44 87 68 88 69 89 77 90 70 91 72 92 78 93
REMARK SMILES IDX 71 94 73 95 74 96 75 97 76 98 53 99 54 100 62 101 55 102
REMARK SMILES IDX 57 103 63 104 56 105 58 106 59 107 60 108 61 109
REMARK H PARENT 3 19 83 62 51 73
REMARK Flexibility Score: inf
ROOT
ATOM      1  O   UNL A   1      33.408  27.975  24.807  1.00  0.00    -0.377 OA
ENDROOT
BRANCH   1   2
ATOM      2  C   UNL A   1      32.696  26.867  25.335  1.00  0.00     0.188 C 
BRANCH   2   3
ATOM      3  C   UNL A   1      32.906  25.454  24.738  1.00  0.00     0.188 C 
BRANCH   3   4
ATOM      4  O   UNL A   1      34.194  25.196  24.227  1.00  0.00    -0.376 OA
BRANCH   4   5
ATOM      5  C   UNL A   1      34.531  24.027  23.518  1.00  0.00     0.202 C 
BRANCH   5   6
ATOM      6  C   UNL A   1      35.517  22.992  24.050  1.00  0.00     0.261 C 
BRANCH   6   7
ATOM      7  O   UNL A   1      36.626  23.447  24.825  1.00  0.00    -0.460 OA
BRANCH   7   8
ATOM      8  C   UNL A   1      37.493  22.507  25.260  1.00  0.00     0.340 C 
ATOM      9  O   UNL A   1      37.550  21.348  24.878  1.00  0.00    -0.246 OA
BRANCH   8  10
ATOM     10  C   UNL A   1      38.537  23.115  26.129  1.00  0.00     0.083 A 
ATOM     11  C   UNL A   1      39.627  22.462  26.744  1.00  0.00     0.056 A 
ATOM     12  C   UNL A   1      40.372  23.182  27.698  1.00  0.00     0.027 A 
ATOM     13  C   UNL A   1      40.099  24.522  27.988  1.00  0.00     0.002 A 
ATOM     14  C   UNL A   1      38.272  24.468  26.436  1.00  0.00     0.018 A 
ATOM     15  C   UNL A   1      39.050  25.168  27.352  1.00  0.00     0.001 A 
BRANCH  11  16
ATOM     16  N   UNL A   1      40.090  21.141  26.541  1.00  0.00    -0.321 N 
ATOM     17  O   UNL A   1      41.366  19.451  25.768  1.00  0.00    -0.269 OA
ATOM     18  C   UNL A   1      41.300  20.615  26.150  1.00  0.00     0.255 C 
ATOM     19  H   UNL A   1      39.405  20.455  26.716  1.00  0.00     0.170 HD
BRANCH  18  20
ATOM     20  C   UNL A   1      42.533  21.424  26.203  1.00  0.00     0.040 A 
ATOM     21  C   UNL A   1      43.224  21.648  27.397  1.00  0.00     0.016 A 
ATOM     22  C   UNL A   1      42.906  22.092  25.037  1.00  0.00     0.016 A 
ATOM     23  C   UNL A   1      44.135  22.702  27.476  1.00  0.00     0.027 A 
ATOM     24  C   UNL A   1      43.779  23.170  25.129  1.00  0.00     0.027 A 
ATOM     25  C   UNL A   1      44.337  23.526  26.364  1.00  0.00     0.052 A 
BRANCH  25  26
ATOM     26  N   UNL A   1      45.046  24.736  26.469  1.00  0.00    -0.250 N 
ATOM     27  C   UNL A   1      44.481  25.929  26.822  1.00  0.00     0.238 C 
ATOM     28  C   UNL A   1      46.393  24.845  26.214  1.00  0.00     0.238 C 
ATOM     29  O   UNL A   1      43.296  26.211  26.943  1.00  0.00    -0.274 OA
ATOM     30  C   UNL A   1      45.594  26.884  27.178  1.00  0.00     0.096 C 
ATOM     31  C   UNL A   1      46.839  26.247  26.549  1.00  0.00     0.096 C 
ATOM     32  O   UNL A   1      47.158  24.003  25.758  1.00  0.00    -0.274 OA
ATOM     33  C   UNL A   1      45.641  27.026  28.709  1.00  0.00     0.041 C 
ATOM     34  C   UNL A   1      48.055  26.142  27.469  1.00  0.00     0.041 C 
ATOM     35  C   UNL A   1      46.508  25.997  29.378  1.00  0.00    -0.030 C 
ATOM     36  C   UNL A   1      47.654  25.598  28.810  1.00  0.00    -0.030 C 
ENDBRANCH  25  26
ENDBRANCH  18  20
ENDBRANCH  11  16
ENDBRANCH   8  10
ENDBRANCH   7   8
ENDBRANCH   6   7
ENDBRANCH   5   6
ENDBRANCH   4   5
ENDBRANCH   3   4
ENDBRANCH   2   3
ENDBRANCH   1   2
BRANCH   1  37
ATOM     37  C   UNL A   1      33.645  29.054  25.698  1.00  0.00     0.188 C 
BRANCH  37  38
ATOM     38  C   UNL A   1      33.697  28.597  27.167  1.00  0.00     0.188 C 
BRANCH  38  39
ATOM     39  O   UNL A   1      34.677  29.134  28.041  1.00  0.00    -0.376 OA
BRANCH  39  40
ATOM     40  C   UNL A   1      35.240  30.418  27.836  1.00  0.00     0.202 C 
BRANCH  40  41
ATOM     41  C   UNL A   1      36.253  31.119  28.769  1.00  0.00     0.261 C 
BRANCH  41  42
ATOM     42  O   UNL A   1      35.882  31.386  30.119  1.00  0.00    -0.460 OA
BRANCH  42  43
ATOM     43  C   UNL A   1      36.399  30.570  31.059  1.00  0.00     0.338 C 
ATOM     44  O   UNL A   1      36.330  29.351  31.100  1.00  0.00    -0.246 OA
BRANCH  43  45
ATOM     45  C   UNL A   1      37.228  31.402  31.952  1.00  0.00     0.060 A 
ATOM     46  C   UNL A   1      38.305  30.813  32.628  1.00  0.00     0.016 A 
ATOM     47  C   UNL A   1      36.946  32.761  32.114  1.00  0.00     0.016 A 
ATOM     48  C   UNL A   1      39.086  31.571  33.496  1.00  0.00     0.010 A 
ATOM     49  C   UNL A   1      37.703  33.511  33.014  1.00  0.00     0.010 A 
ATOM     50  C   UNL A   1      38.749  32.907  33.735  1.00  0.00    -0.014 A 
BRANCH  50  51
ATOM     51  C   UNL A   1      39.322  33.594  34.913  1.00  0.00     0.031 A 
ATOM     52  C   UNL A   1      40.482  34.523  34.685  1.00  0.00     0.074 A 
ATOM     53  C   UNL A   1      38.823  33.407  36.146  1.00  0.00     0.049 A 
ATOM     54  N   UNL A   1      41.203  35.179  35.553  1.00  0.00    -0.248 NA
ATOM     55  C   UNL A   1      40.887  34.733  33.282  1.00  0.00     0.031 C 
ATOM     56  C   UNL A   1      37.685  32.553  36.481  1.00  0.00     0.029 A 
ATOM     57  N   UNL A   1      39.239  33.907  37.354  1.00  0.00    -0.354 N 
ATOM     58  C   UNL A   1      42.162  35.856  34.808  1.00  0.00     0.074 A 
ATOM     59  C   UNL A   1      41.943  35.519  33.420  1.00  0.00     0.031 C 
ATOM     60  C   UNL A   1      37.518  32.556  37.815  1.00  0.00     0.029 A 
ATOM     61  C   UNL A   1      38.555  33.386  38.426  1.00  0.00     0.049 A 
ATOM     62  H   UNL A   1      39.959  34.573  37.444  1.00  0.00     0.167 HD
ATOM     63  C   UNL A   1      43.131  36.695  35.241  1.00  0.00     0.034 A 
ATOM     64  C   UNL A   1      38.770  33.539  39.747  1.00  0.00     0.034 A 
ATOM     65  C   UNL A   1      43.340  37.028  36.623  1.00  0.00     0.049 A 
ATOM     66  C   UNL A   1      39.891  34.439  40.207  1.00  0.00     0.074 A 
ATOM     67  C   UNL A   1      44.280  37.883  37.169  1.00  0.00     0.029 A 
ATOM     68  N   UNL A   1      42.605  36.512  37.680  1.00  0.00    -0.354 N 
ATOM     69  N   UNL A   1      40.735  35.145  39.493  1.00  0.00    -0.248 NA
ATOM     70  C   UNL A   1      40.069  34.587  41.660  1.00  0.00     0.031 C 
ATOM     71  C   UNL A   1      44.135  37.857  38.560  1.00  0.00     0.029 A 
ATOM     72  C   UNL A   1      43.076  37.022  38.877  1.00  0.00     0.049 A 
ATOM     73  H   UNL A   1      41.858  35.875  37.591  1.00  0.00     0.167 HD
ATOM     74  C   UNL A   1      41.512  35.852  40.406  1.00  0.00     0.074 A 
ATOM     75  C   UNL A   1      41.026  35.503  41.724  1.00  0.00     0.031 C 
ATOM     76  C   UNL A   1      42.542  36.705  40.176  1.00  0.00     0.034 A 
BRANCH  63  77
ATOM     77  C   UNL A   1      44.029  37.318  34.206  1.00  0.00     0.023 A 
ATOM     78  C   UNL A   1      45.176  36.625  33.766  1.00  0.00     0.012 A 
ATOM     79  C   UNL A   1      43.714  38.567  33.636  1.00  0.00     0.148 A 
ATOM     80  C   UNL A   1      46.015  37.181  32.802  1.00  0.00     0.002 A 
ATOM     81  C   UNL A   1      44.528  39.092  32.639  1.00  0.00     0.091 A 
ATOM     82  F   UNL A   1      42.632  39.220  34.083  1.00  0.00    -0.205 F 
ATOM     83  C   UNL A   1      45.684  38.408  32.231  1.00  0.00     0.022 A 
BRANCH  81  84
ATOM     84  S   UNL A   1      44.148  40.624  31.783  1.00  0.00     0.127 S 
ATOM     85  O   UNL A   1      45.291  40.747  30.879  1.00  0.00    -0.237 OA
ATOM     86  O   UNL A   1      42.882  40.301  31.126  1.00  0.00    -0.237 OA
ATOM     87  O   UNL A   1      44.057  41.650  32.812  1.00  0.00    -0.744 OA
ENDBRANCH  81  84
ENDBRANCH  63  77
BRANCH  64  88
ATOM     88  C   UNL A   1      37.906  32.837  40.737  1.00  0.00     0.023 A 
ATOM     89  C   UNL A   1      38.194  31.506  41.096  1.00  0.00     0.012 A 
ATOM     90  C   UNL A   1      36.787  33.474  41.310  1.00  0.00     0.148 A 
ATOM     91  C   UNL A   1      37.361  30.808  41.973  1.00  0.00     0.002 A 
ATOM     92  C   UNL A   1      35.994  32.792  42.224  1.00  0.00     0.091 A 
ATOM     93  F   UNL A   1      36.519  34.736  40.945  1.00  0.00    -0.205 F 
ATOM     94  C   UNL A   1      36.268  31.453  42.542  1.00  0.00     0.022 A 
BRANCH  92  95
ATOM     95  S   UNL A   1      34.624  33.571  43.087  1.00  0.00     0.127 S 
ATOM     96  O   UNL A   1      35.317  34.538  43.936  1.00  0.00    -0.237 OA
ATOM     97  O   UNL A   1      33.866  34.158  41.981  1.00  0.00    -0.237 OA
ATOM     98  O   UNL A   1      33.936  32.496  43.790  1.00  0.00    -0.744 OA
ENDBRANCH  92  95
ENDBRANCH  64  88
BRANCH  76  99
ATOM     99  C   UNL A   1      43.179  37.372  41.369  1.00  0.00     0.023 A 
ATOM    100  C   UNL A   1      42.671  38.593  41.854  1.00  0.00     0.012 A 
ATOM    101  C   UNL A   1      44.239  36.743  42.055  1.00  0.00     0.148 A 
ATOM    102  C   UNL A   1      43.232  39.196  42.979  1.00  0.00     0.002 A 
ATOM    103  C   UNL A   1      44.756  37.322  43.206  1.00  0.00     0.091 A 
ATOM    104  F   UNL A   1      44.718  35.588  41.570  1.00  0.00    -0.205 F 
ATOM    105  C   UNL A   1      44.265  38.556  43.661  1.00  0.00     0.022 A 
BRANCH 103 106
ATOM    106  S   UNL A   1      46.016  36.524  44.206  1.00  0.00     0.127 S 
ATOM    107  O   UNL A   1      45.379  35.249  44.528  1.00  0.00    -0.237 OA
ATOM    108  O   UNL A   1      47.136  36.425  43.268  1.00  0.00    -0.237 OA
ATOM    109  O   UNL A   1      46.253  37.407  45.339  1.00  0.00    -0.744 OA
ENDBRANCH 103 106
ENDBRANCH  76  99
ENDBRANCH  50  51
ENDBRANCH  43  45
ENDBRANCH  42  43
ENDBRANCH  41  42
ENDBRANCH  40  41
ENDBRANCH  39  40
ENDBRANCH  38  39
ENDBRANCH  37  38
ENDBRANCH   1  37
TORSDOF 26
ENDMDL
