MODEL 1
REMARK VINA RESULT:      -9.1      0.000      0.000
REMARK SMILES C[C@H]1CC[C@H]([NH2+]Cc2c(C(=O)OCCOCCOCCOCCOC(=O)c3ccc(-c4c5nc(c(-c6cccc(S(=O)(=O)[O-])c6F)c6ccc([nH]6)c(-c6cccc(S(=O)(=O)[O-])c6F)c6nc(c(-c7cccc(S(=O)(=O)[O-])c7F)c7ccc4[nH]7)C=C6)C=C5)cc3)n(Cc3ccccc3F)c3ccccc23)CC1
REMARK SMILES IDX 18 1 17 2 16 3 15 4 14 5 13 6 12 7 10 8 11 9 9 10 8 11
REMARK SMILES IDX 104 12 90 13 99 14 103 15 100 16 102 17 101 18 7 19 6 20
REMARK SMILES IDX 5 23 1 24 2 25 3 26 106 27 4 28 105 29 91 30 92 31 93 32
REMARK SMILES IDX 97 33 94 34 96 35 98 36 95 37 19 38 20 39 21 40 22 41 23 42
REMARK SMILES IDX 24 43 25 44 26 45 27 46 28 47 89 48 29 49 88 50 30 51 31 52
REMARK SMILES IDX 32 53 82 54 33 55 87 56 81 57 83 58 34 59 86 60 80 61 79 62
REMARK SMILES IDX 35 64 67 65 47 66 66 67 48 68 51 69 65 70 84 71 49 72 50 73
REMARK SMILES IDX 64 75 85 76 52 77 36 78 37 79 45 80 38 81 40 82 46 83 39 84
REMARK SMILES IDX 41 85 42 86 43 87 44 88 68 89 69 90 77 91 70 92 72 93 78 94
REMARK SMILES IDX 71 95 73 96 74 97 75 98 76 99 53 100 54 101 62 102 55 103
REMARK SMILES IDX 57 104 63 105 56 106 58 107 59 108 60 109 61 110
REMARK H PARENT 6 21 6 22 83 63 51 74
REMARK Flexibility Score: inf
ROOT
ATOM      1  O   UNL A   1      48.601  45.289  27.333  1.00  0.00    -0.377 OA
ENDROOT
BRANCH   1   2
ATOM      2  C   UNL A   1      48.163  45.232  25.995  1.00  0.00     0.188 C 
BRANCH   2   3
ATOM      3  C   UNL A   1      49.228  44.972  24.918  1.00  0.00     0.188 C 
BRANCH   3   4
ATOM      4  O   UNL A   1      49.701  46.037  24.129  1.00  0.00    -0.376 OA
BRANCH   4   5
ATOM      5  C   UNL A   1      49.058  46.402  22.923  1.00  0.00     0.202 C 
BRANCH   5   6
ATOM      6  C   UNL A   1      49.532  46.016  21.519  1.00  0.00     0.261 C 
BRANCH   6   7
ATOM      7  O   UNL A   1      48.636  46.163  20.401  1.00  0.00    -0.459 OA
BRANCH   7   8
ATOM      8  C   UNL A   1      48.252  45.027  19.760  1.00  0.00     0.355 C 
ATOM      9  O   UNL A   1      49.045  44.253  19.219  1.00  0.00    -0.244 OA
BRANCH   8  10
ATOM     10  C   UNL A   1      46.821  44.765  19.858  1.00  0.00     0.137 A 
ATOM     11  C   UNL A   1      45.743  45.106  19.014  1.00  0.00     0.047 A 
ATOM     12  C   UNL A   1      44.598  44.365  19.480  1.00  0.00     0.009 A 
ATOM     13  N   UNL A   1      46.285  43.958  20.868  1.00  0.00    -0.330 N 
ATOM     14  C   UNL A   1      45.018  43.533  20.509  1.00  0.00     0.050 A 
ATOM     15  C   UNL A   1      43.261  44.262  19.032  1.00  0.00     0.011 A 
ATOM     16  C   UNL A   1      44.197  42.510  21.013  1.00  0.00     0.027 A 
ATOM     17  C   UNL A   1      42.411  43.300  19.585  1.00  0.00     0.001 A 
ATOM     18  C   UNL A   1      42.885  42.418  20.546  1.00  0.00     0.002 A 
BRANCH  11  19
ATOM     19  C   UNL A   1      45.635  45.914  17.740  1.00  0.00     0.300 C 
BRANCH  19  20
ATOM     20  N   UNL A   1      44.313  46.009  17.180  1.00  0.00    -0.340 N 
ATOM     21  H   UNL A   1      44.229  45.267  16.486  1.00  0.00     0.346 HD
ATOM     22  H   UNL A   1      43.699  45.945  17.991  1.00  0.00     0.346 HD
BRANCH  20  23
ATOM     23  C   UNL A   1      43.905  47.262  16.526  1.00  0.00     0.182 C 
ATOM     24  C   UNL A   1      43.206  50.600  19.304  1.00  0.00     0.007 C 
ATOM     25  C   UNL A   1      43.460  49.430  18.365  1.00  0.00    -0.014 C 
ATOM     26  C   UNL A   1      44.470  49.729  17.277  1.00  0.00     0.009 C 
ATOM     27  C   UNL A   1      42.212  48.865  17.712  1.00  0.00     0.009 C 
ATOM     28  C   UNL A   1      44.922  48.431  16.611  1.00  0.00     0.065 C 
ATOM     29  C   UNL A   1      42.465  47.534  17.020  1.00  0.00     0.065 C 
ENDBRANCH  20  23
ENDBRANCH  19  20
ENDBRANCH  11  19
BRANCH  13  30
ATOM     30  C   UNL A   1      46.975  43.502  22.088  1.00  0.00     0.161 C 
BRANCH  30  31
ATOM     31  C   UNL A   1      46.098  43.452  23.327  1.00  0.00     0.008 A 
ATOM     32  C   UNL A   1      45.341  44.543  23.776  1.00  0.00     0.008 A 
ATOM     33  C   UNL A   1      45.953  42.255  24.036  1.00  0.00     0.128 A 
ATOM     34  C   UNL A   1      44.528  44.454  24.912  1.00  0.00     0.001 A 
ATOM     35  C   UNL A   1      45.181  42.163  25.196  1.00  0.00     0.039 A 
ATOM     36  F   UNL A   1      46.535  41.138  23.585  1.00  0.00    -0.207 F 
ATOM     37  C   UNL A   1      44.464  43.269  25.637  1.00  0.00     0.003 A 
ENDBRANCH  30  31
ENDBRANCH  13  30
ENDBRANCH   8  10
ENDBRANCH   7   8
ENDBRANCH   6   7
ENDBRANCH   5   6
ENDBRANCH   4   5
ENDBRANCH   3   4
ENDBRANCH   2   3
ENDBRANCH   1   2
BRANCH   1  38
ATOM     38  C   UNL A   1      47.986  44.451  28.299  1.00  0.00     0.188 C 
BRANCH  38  39
ATOM     39  C   UNL A   1      47.484  43.047  27.916  1.00  0.00     0.188 C 
BRANCH  39  40
ATOM     40  O   UNL A   1      46.926  42.347  29.020  1.00  0.00    -0.376 OA
BRANCH  40  41
ATOM     41  C   UNL A   1      45.738  41.614  28.766  1.00  0.00     0.202 C 
BRANCH  41  42
ATOM     42  C   UNL A   1      45.375  40.531  29.793  1.00  0.00     0.261 C 
BRANCH  42  43
ATOM     43  O   UNL A   1      45.843  39.208  29.471  1.00  0.00    -0.460 OA
BRANCH  43  44
ATOM     44  C   UNL A   1      45.470  38.633  28.307  1.00  0.00     0.338 C 
ATOM     45  O   UNL A   1      45.970  38.848  27.206  1.00  0.00    -0.246 OA
BRANCH  44  46
ATOM     46  C   UNL A   1      44.605  37.470  28.658  1.00  0.00     0.060 A 
ATOM     47  C   UNL A   1      44.542  36.986  29.970  1.00  0.00     0.016 A 
ATOM     48  C   UNL A   1      44.081  36.699  27.609  1.00  0.00     0.016 A 
ATOM     49  C   UNL A   1      44.044  35.702  30.206  1.00  0.00     0.010 A 
ATOM     50  C   UNL A   1      43.586  35.411  27.850  1.00  0.00     0.010 A 
ATOM     51  C   UNL A   1      43.591  34.893  29.146  1.00  0.00    -0.014 A 
BRANCH  51  52
ATOM     52  C   UNL A   1      42.940  33.618  29.502  1.00  0.00     0.031 A 
ATOM     53  C   UNL A   1      41.627  33.795  30.186  1.00  0.00     0.074 A 
ATOM     54  C   UNL A   1      43.261  32.354  29.147  1.00  0.00     0.049 A 
ATOM     55  N   UNL A   1      41.281  33.415  31.373  1.00  0.00    -0.248 NA
ATOM     56  C   UNL A   1      40.605  34.565  29.462  1.00  0.00     0.031 C 
ATOM     57  C   UNL A   1      44.264  31.915  28.179  1.00  0.00     0.029 A 
ATOM     58  N   UNL A   1      42.635  31.179  29.504  1.00  0.00    -0.354 N 
ATOM     59  C   UNL A   1      39.934  33.739  31.479  1.00  0.00     0.074 A 
ATOM     60  C   UNL A   1      39.603  34.558  30.338  1.00  0.00     0.031 C 
ATOM     61  C   UNL A   1      44.028  30.622  27.856  1.00  0.00     0.029 A 
ATOM     62  C   UNL A   1      42.926  30.113  28.661  1.00  0.00     0.049 A 
ATOM     63  H   UNL A   1      42.039  31.102  30.283  1.00  0.00     0.167 HD
ATOM     64  C   UNL A   1      39.098  33.165  32.382  1.00  0.00     0.034 A 
ATOM     65  C   UNL A   1      42.259  28.935  28.568  1.00  0.00     0.034 A 
ATOM     66  C   UNL A   1      39.764  32.393  33.386  1.00  0.00     0.049 A 
ATOM     67  C   UNL A   1      41.414  28.751  29.769  1.00  0.00     0.074 A 
ATOM     68  C   UNL A   1      40.715  32.629  34.355  1.00  0.00     0.029 A 
ATOM     69  N   UNL A   1      39.624  31.030  33.313  1.00  0.00    -0.354 N 
ATOM     70  N   UNL A   1      41.835  28.332  30.926  1.00  0.00    -0.248 NA
ATOM     71  C   UNL A   1      40.030  29.192  29.732  1.00  0.00     0.031 C 
ATOM     72  C   UNL A   1      41.394  31.391  34.533  1.00  0.00     0.029 A 
ATOM     73  C   UNL A   1      40.815  30.453  33.676  1.00  0.00     0.049 A 
ATOM     74  H   UNL A   1      38.808  30.548  33.046  1.00  0.00     0.167 HD
ATOM     75  C   UNL A   1      40.928  28.836  31.843  1.00  0.00     0.074 A 
ATOM     76  C   UNL A   1      39.768  29.200  31.039  1.00  0.00     0.031 C 
ATOM     77  C   UNL A   1      41.313  29.211  33.104  1.00  0.00     0.034 A 
BRANCH  64  78
ATOM     78  C   UNL A   1      37.620  33.043  32.153  1.00  0.00     0.023 A 
ATOM     79  C   UNL A   1      37.148  32.061  31.262  1.00  0.00     0.012 A 
ATOM     80  C   UNL A   1      36.706  34.020  32.606  1.00  0.00     0.148 A 
ATOM     81  C   UNL A   1      35.812  32.046  30.849  1.00  0.00     0.002 A 
ATOM     82  C   UNL A   1      35.366  33.955  32.252  1.00  0.00     0.091 A 
ATOM     83  F   UNL A   1      37.162  35.080  33.287  1.00  0.00    -0.205 F 
ATOM     84  C   UNL A   1      34.916  32.981  31.358  1.00  0.00     0.022 A 
BRANCH  82  85
ATOM     85  S   UNL A   1      34.175  35.106  32.941  1.00  0.00     0.127 S 
ATOM     86  O   UNL A   1      32.912  34.476  32.574  1.00  0.00    -0.237 OA
ATOM     87  O   UNL A   1      34.499  35.067  34.368  1.00  0.00    -0.237 OA
ATOM     88  O   UNL A   1      34.480  36.380  32.300  1.00  0.00    -0.744 OA
ENDBRANCH  82  85
ENDBRANCH  64  78
BRANCH  65  89
ATOM     89  C   UNL A   1      42.130  27.955  27.457  1.00  0.00     0.023 A 
ATOM     90  C   UNL A   1      42.072  28.436  26.127  1.00  0.00     0.012 A 
ATOM     91  C   UNL A   1      42.372  26.581  27.648  1.00  0.00     0.148 A 
ATOM     92  C   UNL A   1      42.318  27.597  25.037  1.00  0.00     0.002 A 
ATOM     93  C   UNL A   1      42.600  25.744  26.557  1.00  0.00     0.091 A 
ATOM     94  F   UNL A   1      42.485  26.107  28.896  1.00  0.00    -0.205 F 
ATOM     95  C   UNL A   1      42.595  26.251  25.251  1.00  0.00     0.022 A 
BRANCH  93  96
ATOM     96  S   UNL A   1      42.957  23.998  26.783  1.00  0.00     0.127 S 
ATOM     97  O   UNL A   1      41.633  23.435  27.057  1.00  0.00    -0.237 OA
ATOM     98  O   UNL A   1      43.523  23.630  25.491  1.00  0.00    -0.237 OA
ATOM     99  O   UNL A   1      43.866  23.947  27.924  1.00  0.00    -0.744 OA
ENDBRANCH  93  96
ENDBRANCH  65  89
BRANCH  77 100
ATOM    100  C   UNL A   1      42.500  28.528  33.776  1.00  0.00     0.023 A 
ATOM    101  C   UNL A   1      43.808  29.052  33.777  1.00  0.00     0.012 A 
ATOM    102  C   UNL A   1      42.298  27.317  34.477  1.00  0.00     0.148 A 
ATOM    103  C   UNL A   1      44.874  28.384  34.388  1.00  0.00     0.002 A 
ATOM    104  C   UNL A   1      43.345  26.702  35.167  1.00  0.00     0.091 A 
ATOM    105  F   UNL A   1      41.070  26.774  34.492  1.00  0.00    -0.205 F 
ATOM    106  C   UNL A   1      44.640  27.225  35.110  1.00  0.00     0.022 A 
BRANCH 104 107
ATOM    107  S   UNL A   1      43.075  25.232  36.161  1.00  0.00     0.127 S 
ATOM    108  O   UNL A   1      44.422  24.913  36.639  1.00  0.00    -0.237 OA
ATOM    109  O   UNL A   1      42.165  25.724  37.193  1.00  0.00    -0.237 OA
ATOM    110  O   UNL A   1      42.524  24.241  35.244  1.00  0.00    -0.744 OA
ENDBRANCH 104 107
ENDBRANCH  77 100
ENDBRANCH  51  52
ENDBRANCH  44  46
ENDBRANCH  43  44
ENDBRANCH  42  43
ENDBRANCH  41  42
ENDBRANCH  40  41
ENDBRANCH  39  40
ENDBRANCH  38  39
ENDBRANCH   1  38
TORSDOF 28
ENDMDL
MODEL 2
REMARK VINA RESULT:      -8.7      9.352     15.616
REMARK SMILES C[C@H]1CC[C@H]([NH2+]Cc2c(C(=O)OCCOCCOCCOCCOC(=O)c3ccc(-c4c5nc(c(-c6cccc(S(=O)(=O)[O-])c6F)c6ccc([nH]6)c(-c6cccc(S(=O)(=O)[O-])c6F)c6nc(c(-c7cccc(S(=O)(=O)[O-])c7F)c7ccc4[nH]7)C=C6)C=C5)cc3)n(Cc3ccccc3F)c3ccccc23)CC1
REMARK SMILES IDX 18 1 17 2 16 3 15 4 14 5 13 6 12 7 10 8 11 9 9 10 8 11
REMARK SMILES IDX 104 12 90 13 99 14 103 15 100 16 102 17 101 18 7 19 6 20
REMARK SMILES IDX 5 23 1 24 2 25 3 26 106 27 4 28 105 29 91 30 92 31 93 32
REMARK SMILES IDX 97 33 94 34 96 35 98 36 95 37 19 38 20 39 21 40 22 41 23 42
REMARK SMILES IDX 24 43 25 44 26 45 27 46 28 47 89 48 29 49 88 50 30 51 31 52
REMARK SMILES IDX 32 53 82 54 33 55 87 56 81 57 83 58 34 59 86 60 80 61 79 62
REMARK SMILES IDX 35 64 67 65 47 66 66 67 48 68 51 69 65 70 84 71 49 72 50 73
REMARK SMILES IDX 64 75 85 76 52 77 36 78 37 79 45 80 38 81 40 82 46 83 39 84
REMARK SMILES IDX 41 85 42 86 43 87 44 88 68 89 69 90 77 91 70 92 72 93 78 94
REMARK SMILES IDX 71 95 73 96 74 97 75 98 76 99 53 100 54 101 62 102 55 103
REMARK SMILES IDX 57 104 63 105 56 106 58 107 59 108 60 109 61 110
REMARK H PARENT 6 21 6 22 83 63 51 74
REMARK Flexibility Score: inf
ROOT
ATOM      1  O   UNL A   1      36.239  32.607  30.096  1.00  0.00    -0.377 OA
ENDROOT
BRANCH   1   2
ATOM      2  C   UNL A   1      36.155  32.899  28.720  1.00  0.00     0.188 C 
BRANCH   2   3
ATOM      3  C   UNL A   1      35.728  31.758  27.785  1.00  0.00     0.188 C 
BRANCH   3   4
ATOM      4  O   UNL A   1      36.387  30.516  27.849  1.00  0.00    -0.376 OA
BRANCH   4   5
ATOM      5  C   UNL A   1      35.679  29.299  27.716  1.00  0.00     0.202 C 
BRANCH   5   6
ATOM      6  C   UNL A   1      34.301  29.145  27.067  1.00  0.00     0.261 C 
BRANCH   6   7
ATOM      7  O   UNL A   1      33.988  27.943  26.340  1.00  0.00    -0.459 OA
BRANCH   7   8
ATOM      8  C   UNL A   1      32.929  27.211  26.776  1.00  0.00     0.355 C 
ATOM      9  O   UNL A   1      32.257  27.514  27.766  1.00  0.00    -0.244 OA
BRANCH   8  10
ATOM     10  C   UNL A   1      32.605  26.088  25.905  1.00  0.00     0.137 A 
ATOM     11  C   UNL A   1      31.398  25.693  25.291  1.00  0.00     0.047 A 
ATOM     12  C   UNL A   1      31.731  24.660  24.343  1.00  0.00     0.009 A 
ATOM     13  N   UNL A   1      33.589  25.216  25.427  1.00  0.00    -0.330 N 
ATOM     14  C   UNL A   1      33.112  24.524  24.328  1.00  0.00     0.050 A 
ATOM     15  C   UNL A   1      30.969  23.908  23.418  1.00  0.00     0.011 A 
ATOM     16  C   UNL A   1      33.770  23.774  23.338  1.00  0.00     0.027 A 
ATOM     17  C   UNL A   1      31.611  23.094  22.482  1.00  0.00     0.001 A 
ATOM     18  C   UNL A   1      32.998  23.050  22.428  1.00  0.00     0.002 A 
BRANCH  11  19
ATOM     19  C   UNL A   1      29.982  26.223  25.342  1.00  0.00     0.300 C 
BRANCH  19  20
ATOM     20  N   UNL A   1      29.407  26.572  24.071  1.00  0.00    -0.340 N 
ATOM     21  H   UNL A   1      29.745  25.889  23.393  1.00  0.00     0.346 HD
ATOM     22  H   UNL A   1      28.404  26.579  24.249  1.00  0.00     0.346 HD
BRANCH  20  23
ATOM     23  C   UNL A   1      29.676  27.906  23.509  1.00  0.00     0.182 C 
ATOM     24  C   UNL A   1      33.950  28.839  23.051  1.00  0.00     0.007 C 
ATOM     25  C   UNL A   1      32.478  28.488  23.216  1.00  0.00    -0.014 C 
ATOM     26  C   UNL A   1      31.674  28.618  21.938  1.00  0.00     0.009 C 
ATOM     27  C   UNL A   1      31.764  29.263  24.307  1.00  0.00     0.009 C 
ATOM     28  C   UNL A   1      30.322  27.927  22.098  1.00  0.00     0.065 C 
ATOM     29  C   UNL A   1      30.394  28.688  24.633  1.00  0.00     0.065 C 
ENDBRANCH  20  23
ENDBRANCH  19  20
ENDBRANCH  11  19
BRANCH  13  30
ATOM     30  C   UNL A   1      34.976  25.105  25.912  1.00  0.00     0.161 C 
BRANCH  30  31
ATOM     31  C   UNL A   1      35.623  23.753  25.668  1.00  0.00     0.008 A 
ATOM     32  C   UNL A   1      36.788  23.585  24.907  1.00  0.00     0.008 A 
ATOM     33  C   UNL A   1      35.105  22.606  26.279  1.00  0.00     0.128 A 
ATOM     34  C   UNL A   1      37.367  22.324  24.719  1.00  0.00     0.001 A 
ATOM     35  C   UNL A   1      35.645  21.337  26.065  1.00  0.00     0.039 A 
ATOM     36  F   UNL A   1      34.078  22.710  27.130  1.00  0.00    -0.207 F 
ATOM     37  C   UNL A   1      36.783  21.194  25.280  1.00  0.00     0.003 A 
ENDBRANCH  30  31
ENDBRANCH  13  30
ENDBRANCH   8  10
ENDBRANCH   7   8
ENDBRANCH   6   7
ENDBRANCH   5   6
ENDBRANCH   4   5
ENDBRANCH   3   4
ENDBRANCH   2   3
ENDBRANCH   1   2
BRANCH   1  38
ATOM     38  C   UNL A   1      35.057  32.629  30.882  1.00  0.00     0.188 C 
BRANCH  38  39
ATOM     39  C   UNL A   1      34.124  33.853  30.864  1.00  0.00     0.188 C 
BRANCH  39  40
ATOM     40  O   UNL A   1      33.875  34.368  32.165  1.00  0.00    -0.376 OA
BRANCH  40  41
ATOM     41  C   UNL A   1      34.992  34.910  32.852  1.00  0.00     0.202 C 
BRANCH  41  42
ATOM     42  C   UNL A   1      35.440  34.160  34.116  1.00  0.00     0.261 C 
BRANCH  42  43
ATOM     43  O   UNL A   1      36.803  33.696  34.094  1.00  0.00    -0.460 OA
BRANCH  43  44
ATOM     44  C   UNL A   1      37.280  32.977  35.134  1.00  0.00     0.338 C 
ATOM     45  O   UNL A   1      36.822  32.970  36.273  1.00  0.00    -0.246 OA
BRANCH  44  46
ATOM     46  C   UNL A   1      38.213  31.962  34.564  1.00  0.00     0.060 A 
ATOM     47  C   UNL A   1      39.342  31.538  35.275  1.00  0.00     0.016 A 
ATOM     48  C   UNL A   1      38.097  31.654  33.200  1.00  0.00     0.016 A 
ATOM     49  C   UNL A   1      40.381  30.897  34.596  1.00  0.00     0.010 A 
ATOM     50  C   UNL A   1      39.142  31.014  32.523  1.00  0.00     0.010 A 
ATOM     51  C   UNL A   1      40.304  30.657  33.210  1.00  0.00    -0.014 A 
BRANCH  51  52
ATOM     52  C   UNL A   1      41.373  29.839  32.607  1.00  0.00     0.031 A 
ATOM     53  C   UNL A   1      42.188  30.579  31.602  1.00  0.00     0.074 A 
ATOM     54  C   UNL A   1      41.824  28.613  32.955  1.00  0.00     0.049 A 
ATOM     55  N   UNL A   1      42.340  30.321  30.344  1.00  0.00    -0.248 NA
ATOM     56  C   UNL A   1      42.853  31.806  32.066  1.00  0.00     0.031 C 
ATOM     57  C   UNL A   1      41.471  27.820  34.130  1.00  0.00     0.029 A 
ATOM     58  N   UNL A   1      42.822  27.869  32.364  1.00  0.00    -0.354 N 
ATOM     59  C   UNL A   1      43.268  31.252  29.892  1.00  0.00     0.074 A 
ATOM     60  C   UNL A   1      43.449  32.218  30.949  1.00  0.00     0.031 C 
ATOM     61  C   UNL A   1      42.388  26.838  34.292  1.00  0.00     0.029 A 
ATOM     62  C   UNL A   1      43.333  26.869  33.184  1.00  0.00     0.049 A 
ATOM     63  H   UNL A   1      43.143  28.030  31.447  1.00  0.00     0.167 HD
ATOM     64  C   UNL A   1      43.998  31.088  28.759  1.00  0.00     0.034 A 
ATOM     65  C   UNL A   1      44.489  26.179  33.013  1.00  0.00     0.034 A 
ATOM     66  C   UNL A   1      43.554  30.010  27.929  1.00  0.00     0.049 A 
ATOM     67  C   UNL A   1      44.954  26.335  31.616  1.00  0.00     0.074 A 
ATOM     68  C   UNL A   1      42.388  29.673  27.277  1.00  0.00     0.029 A 
ATOM     69  N   UNL A   1      44.359  28.901  27.873  1.00  0.00    -0.354 N 
ATOM     70  N   UNL A   1      44.498  25.671  30.595  1.00  0.00    -0.248 NA
ATOM     71  C   UNL A   1      45.894  27.397  31.299  1.00  0.00     0.031 C 
ATOM     72  C   UNL A   1      42.386  28.250  27.212  1.00  0.00     0.029 A 
ATOM     73  C   UNL A   1      43.558  27.789  27.814  1.00  0.00     0.049 A 
ATOM     74  H   UNL A   1      45.343  28.902  27.873  1.00  0.00     0.167 HD
ATOM     75  C   UNL A   1      44.754  26.477  29.499  1.00  0.00     0.074 A 
ATOM     76  C   UNL A   1      45.753  27.426  29.975  1.00  0.00     0.031 C 
ATOM     77  C   UNL A   1      43.910  26.513  28.420  1.00  0.00     0.034 A 
BRANCH  64  78
ATOM     78  C   UNL A   1      45.343  31.722  28.564  1.00  0.00     0.023 A 
ATOM     79  C   UNL A   1      45.583  32.463  27.392  1.00  0.00     0.012 A 
ATOM     80  C   UNL A   1      46.449  31.410  29.387  1.00  0.00     0.148 A 
ATOM     81  C   UNL A   1      46.873  32.889  27.060  1.00  0.00     0.002 A 
ATOM     82  C   UNL A   1      47.713  31.899  29.091  1.00  0.00     0.091 A 
ATOM     83  F   UNL A   1      46.292  30.540  30.395  1.00  0.00    -0.205 F 
ATOM     84  C   UNL A   1      47.936  32.624  27.919  1.00  0.00     0.022 A 
BRANCH  82  85
ATOM     85  S   UNL A   1      49.090  31.627  30.210  1.00  0.00     0.127 S 
ATOM     86  O   UNL A   1      50.185  32.264  29.486  1.00  0.00    -0.237 OA
ATOM     87  O   UNL A   1      48.649  32.330  31.416  1.00  0.00    -0.237 OA
ATOM     88  O   UNL A   1      49.162  30.179  30.361  1.00  0.00    -0.744 OA
ENDBRANCH  82  85
ENDBRANCH  64  78
BRANCH  65  89
ATOM     89  C   UNL A   1      45.378  25.482  33.980  1.00  0.00     0.023 A 
ATOM     90  C   UNL A   1      45.649  24.106  33.787  1.00  0.00     0.012 A 
ATOM     91  C   UNL A   1      46.194  26.192  34.882  1.00  0.00     0.148 A 
ATOM     92  C   UNL A   1      46.732  23.482  34.411  1.00  0.00     0.002 A 
ATOM     93  C   UNL A   1      47.264  25.561  35.515  1.00  0.00     0.091 A 
ATOM     94  F   UNL A   1      45.996  27.507  35.044  1.00  0.00    -0.205 F 
ATOM     95  C   UNL A   1      47.549  24.212  35.267  1.00  0.00     0.022 A 
BRANCH  93  96
ATOM     96  S   UNL A   1      48.344  26.461  36.632  1.00  0.00     0.127 S 
ATOM     97  O   UNL A   1      49.529  26.702  35.806  1.00  0.00    -0.237 OA
ATOM     98  O   UNL A   1      47.555  27.651  36.931  1.00  0.00    -0.237 OA
ATOM     99  O   UNL A   1      48.578  25.547  37.745  1.00  0.00    -0.744 OA
ENDBRANCH  93  96
ENDBRANCH  65  89
BRANCH  77 100
ATOM    100  C   UNL A   1      43.080  25.285  28.057  1.00  0.00     0.023 A 
ATOM    101  C   UNL A   1      41.750  25.086  28.476  1.00  0.00     0.012 A 
ATOM    102  C   UNL A   1      43.641  24.290  27.223  1.00  0.00     0.148 A 
ATOM    103  C   UNL A   1      41.030  23.936  28.138  1.00  0.00     0.002 A 
ATOM    104  C   UNL A   1      42.888  23.189  26.809  1.00  0.00     0.091 A 
ATOM    105  F   UNL A   1      44.911  24.431  26.811  1.00  0.00    -0.205 F 
ATOM    106  C   UNL A   1      41.585  23.000  27.280  1.00  0.00     0.022 A 
BRANCH 104 107
ATOM    107  S   UNL A   1      43.548  21.984  25.655  1.00  0.00     0.127 S 
ATOM    108  O   UNL A   1      44.977  21.974  25.978  1.00  0.00    -0.237 OA
ATOM    109  O   UNL A   1      42.831  20.770  26.037  1.00  0.00    -0.237 OA
ATOM    110  O   UNL A   1      43.248  22.513  24.329  1.00  0.00    -0.744 OA
ENDBRANCH 104 107
ENDBRANCH  77 100
ENDBRANCH  51  52
ENDBRANCH  44  46
ENDBRANCH  43  44
ENDBRANCH  42  43
ENDBRANCH  41  42
ENDBRANCH  40  41
ENDBRANCH  39  40
ENDBRANCH  38  39
ENDBRANCH   1  38
TORSDOF 28
ENDMDL
MODEL 3
REMARK VINA RESULT:      -8.4      3.212      5.913
REMARK SMILES C[C@H]1CC[C@H]([NH2+]Cc2c(C(=O)OCCOCCOCCOCCOC(=O)c3ccc(-c4c5nc(c(-c6cccc(S(=O)(=O)[O-])c6F)c6ccc([nH]6)c(-c6cccc(S(=O)(=O)[O-])c6F)c6nc(c(-c7cccc(S(=O)(=O)[O-])c7F)c7ccc4[nH]7)C=C6)C=C5)cc3)n(Cc3ccccc3F)c3ccccc23)CC1
REMARK SMILES IDX 18 1 17 2 16 3 15 4 14 5 13 6 12 7 10 8 11 9 9 10 8 11
REMARK SMILES IDX 104 12 90 13 99 14 103 15 100 16 102 17 101 18 7 19 6 20
REMARK SMILES IDX 5 23 1 24 2 25 3 26 106 27 4 28 105 29 91 30 92 31 93 32
REMARK SMILES IDX 97 33 94 34 96 35 98 36 95 37 19 38 20 39 21 40 22 41 23 42
REMARK SMILES IDX 24 43 25 44 26 45 27 46 28 47 89 48 29 49 88 50 30 51 31 52
REMARK SMILES IDX 32 53 82 54 33 55 87 56 81 57 83 58 34 59 86 60 80 61 79 62
REMARK SMILES IDX 35 64 67 65 47 66 66 67 48 68 51 69 65 70 84 71 49 72 50 73
REMARK SMILES IDX 64 75 85 76 52 77 36 78 37 79 45 80 38 81 40 82 46 83 39 84
REMARK SMILES IDX 41 85 42 86 43 87 44 88 68 89 69 90 77 91 70 92 72 93 78 94
REMARK SMILES IDX 71 95 73 96 74 97 75 98 76 99 53 100 54 101 62 102 55 103
REMARK SMILES IDX 57 104 63 105 56 106 58 107 59 108 60 109 61 110
REMARK H PARENT 6 21 6 22 83 63 51 74
REMARK Flexibility Score: inf
ROOT
ATOM      1  O   UNL A   1      49.697  41.704  34.677  1.00  0.00    -0.377 OA
ENDROOT
BRANCH   1   2
ATOM      2  C   UNL A   1      48.584  42.362  34.117  1.00  0.00     0.188 C 
BRANCH   2   3
ATOM      3  C   UNL A   1      48.842  43.707  33.418  1.00  0.00     0.188 C 
BRANCH   3   4
ATOM      4  O   UNL A   1      48.457  43.883  32.076  1.00  0.00    -0.376 OA
BRANCH   4   5
ATOM      5  C   UNL A   1      48.441  42.800  31.166  1.00  0.00     0.202 C 
BRANCH   5   6
ATOM      6  C   UNL A   1      47.208  42.304  30.405  1.00  0.00     0.261 C 
BRANCH   6   7
ATOM      7  O   UNL A   1      46.891  42.873  29.121  1.00  0.00    -0.459 OA
BRANCH   7   8
ATOM      8  C   UNL A   1      47.217  42.144  28.021  1.00  0.00     0.355 C 
ATOM      9  O   UNL A   1      48.356  41.727  27.797  1.00  0.00    -0.244 OA
BRANCH   8  10
ATOM     10  C   UNL A   1      46.069  41.822  27.181  1.00  0.00     0.137 A 
ATOM     11  C   UNL A   1      44.925  41.030  27.418  1.00  0.00     0.047 A 
ATOM     12  C   UNL A   1      44.013  41.281  26.331  1.00  0.00     0.009 A 
ATOM     13  N   UNL A   1      45.885  42.409  25.925  1.00  0.00    -0.330 N 
ATOM     14  C   UNL A   1      44.565  42.272  25.531  1.00  0.00     0.050 A 
ATOM     15  C   UNL A   1      42.712  40.817  26.029  1.00  0.00     0.011 A 
ATOM     16  C   UNL A   1      43.818  42.913  24.528  1.00  0.00     0.027 A 
ATOM     17  C   UNL A   1      41.990  41.393  24.979  1.00  0.00     0.001 A 
ATOM     18  C   UNL A   1      42.531  42.448  24.256  1.00  0.00     0.002 A 
BRANCH  11  19
ATOM     19  C   UNL A   1      44.477  40.170  28.579  1.00  0.00     0.300 C 
BRANCH  19  20
ATOM     20  N   UNL A   1      44.450  40.827  29.858  1.00  0.00    -0.340 N 
ATOM     21  H   UNL A   1      44.453  40.095  30.569  1.00  0.00     0.346 HD
ATOM     22  H   UNL A   1      45.261  41.443  29.835  1.00  0.00     0.346 HD
BRANCH  20  23
ATOM     23  C   UNL A   1      43.330  41.729  30.173  1.00  0.00     0.182 C 
ATOM     24  C   UNL A   1      43.650  43.697  34.093  1.00  0.00     0.007 C 
ATOM     25  C   UNL A   1      43.567  43.007  32.740  1.00  0.00    -0.014 C 
ATOM     26  C   UNL A   1      43.408  43.963  31.576  1.00  0.00     0.009 C 
ATOM     27  C   UNL A   1      42.483  41.950  32.637  1.00  0.00     0.009 C 
ATOM     28  C   UNL A   1      43.682  43.238  30.261  1.00  0.00     0.065 C 
ATOM     29  C   UNL A   1      42.618  41.092  31.389  1.00  0.00     0.065 C 
ENDBRANCH  20  23
ENDBRANCH  19  20
ENDBRANCH  11  19
BRANCH  13  30
ATOM     30  C   UNL A   1      46.883  43.175  25.157  1.00  0.00     0.161 C 
BRANCH  30  31
ATOM     31  C   UNL A   1      46.910  42.861  23.671  1.00  0.00     0.008 A 
ATOM     32  C   UNL A   1      47.164  41.581  23.161  1.00  0.00     0.008 A 
ATOM     33  C   UNL A   1      46.596  43.856  22.739  1.00  0.00     0.128 A 
ATOM     34  C   UNL A   1      47.162  41.326  21.784  1.00  0.00     0.001 A 
ATOM     35  C   UNL A   1      46.633  43.627  21.362  1.00  0.00     0.039 A 
ATOM     36  F   UNL A   1      46.207  45.065  23.159  1.00  0.00    -0.207 F 
ATOM     37  C   UNL A   1      46.918  42.355  20.881  1.00  0.00     0.003 A 
ENDBRANCH  30  31
ENDBRANCH  13  30
ENDBRANCH   8  10
ENDBRANCH   7   8
ENDBRANCH   6   7
ENDBRANCH   5   6
ENDBRANCH   4   5
ENDBRANCH   3   4
ENDBRANCH   2   3
ENDBRANCH   1   2
BRANCH   1  38
ATOM     38  C   UNL A   1      50.047  40.412  34.205  1.00  0.00     0.188 C 
BRANCH  38  39
ATOM     39  C   UNL A   1      49.052  39.582  33.374  1.00  0.00     0.188 C 
BRANCH  39  40
ATOM     40  O   UNL A   1      49.339  39.618  31.983  1.00  0.00    -0.376 OA
BRANCH  40  41
ATOM     41  C   UNL A   1      48.939  38.486  31.228  1.00  0.00     0.202 C 
BRANCH  41  42
ATOM     42  C   UNL A   1      48.902  38.666  29.702  1.00  0.00     0.261 C 
BRANCH  42  43
ATOM     43  O   UNL A   1      48.289  37.582  28.978  1.00  0.00    -0.460 OA
BRANCH  43  44
ATOM     44  C   UNL A   1      47.264  37.838  28.136  1.00  0.00     0.338 C 
ATOM     45  O   UNL A   1      47.317  38.541  27.132  1.00  0.00    -0.246 OA
BRANCH  44  46
ATOM     46  C   UNL A   1      46.190  36.853  28.454  1.00  0.00     0.060 A 
ATOM     47  C   UNL A   1      45.966  36.424  29.768  1.00  0.00     0.016 A 
ATOM     48  C   UNL A   1      45.600  36.157  27.387  1.00  0.00     0.016 A 
ATOM     49  C   UNL A   1      45.238  35.254  29.994  1.00  0.00     0.010 A 
ATOM     50  C   UNL A   1      44.872  34.983  27.620  1.00  0.00     0.010 A 
ATOM     51  C   UNL A   1      44.712  34.507  28.922  1.00  0.00    -0.014 A 
BRANCH  51  52
ATOM     52  C   UNL A   1      43.827  33.376  29.259  1.00  0.00     0.031 A 
ATOM     53  C   UNL A   1      42.494  33.801  29.775  1.00  0.00     0.074 A 
ATOM     54  C   UNL A   1      43.975  32.057  29.003  1.00  0.00     0.049 A 
ATOM     55  N   UNL A   1      41.965  33.557  30.930  1.00  0.00    -0.248 NA
ATOM     56  C   UNL A   1      41.695  34.672  28.901  1.00  0.00     0.031 C 
ATOM     57  C   UNL A   1      44.992  31.404  28.182  1.00  0.00     0.029 A 
ATOM     58  N   UNL A   1      43.131  31.020  29.340  1.00  0.00    -0.354 N 
ATOM     59  C   UNL A   1      40.685  34.095  30.862  1.00  0.00     0.074 A 
ATOM     60  C   UNL A   1      40.617  34.879  29.653  1.00  0.00     0.031 C 
ATOM     61  C   UNL A   1      44.585  30.146  27.894  1.00  0.00     0.029 A 
ATOM     62  C   UNL A   1      43.334  29.869  28.588  1.00  0.00     0.049 A 
ATOM     63  H   UNL A   1      42.450  31.089  30.047  1.00  0.00     0.167 HD
ATOM     64  C   UNL A   1      39.674  33.718  31.687  1.00  0.00     0.034 A 
ATOM     65  C   UNL A   1      42.498  28.806  28.473  1.00  0.00     0.034 A 
ATOM     66  C   UNL A   1      40.093  32.918  32.798  1.00  0.00     0.049 A 
ATOM     67  C   UNL A   1      41.510  28.835  29.574  1.00  0.00     0.074 A 
ATOM     68  C   UNL A   1      40.959  33.066  33.859  1.00  0.00     0.029 A 
ATOM     69  N   UNL A   1      39.742  31.593  32.773  1.00  0.00    -0.354 N 
ATOM     70  N   UNL A   1      41.730  28.432  30.791  1.00  0.00    -0.248 NA
ATOM     71  C   UNL A   1      40.228  29.484  29.355  1.00  0.00     0.031 C 
ATOM     72  C   UNL A   1      41.405  31.751  34.173  1.00  0.00     0.029 A 
ATOM     73  C   UNL A   1      40.777  30.862  33.299  1.00  0.00     0.049 A 
ATOM     74  H   UNL A   1      38.893  31.228  32.435  1.00  0.00     0.167 HD
ATOM     75  C   UNL A   1      40.822  29.130  31.570  1.00  0.00     0.074 A 
ATOM     76  C   UNL A   1      39.831  29.618  30.620  1.00  0.00     0.031 C 
ATOM     77  C   UNL A   1      41.125  29.523  32.849  1.00  0.00     0.034 A 
BRANCH  64  78
ATOM     78  C   UNL A   1      38.230  33.814  31.293  1.00  0.00     0.023 A 
ATOM     79  C   UNL A   1      37.333  34.479  32.150  1.00  0.00     0.012 A 
ATOM     80  C   UNL A   1      37.690  33.062  30.225  1.00  0.00     0.148 A 
ATOM     81  C   UNL A   1      35.952  34.411  31.941  1.00  0.00     0.002 A 
ATOM     82  C   UNL A   1      36.324  33.060  29.980  1.00  0.00     0.091 A 
ATOM     83  F   UNL A   1      38.493  32.256  29.518  1.00  0.00    -0.205 F 
ATOM     84  C   UNL A   1      35.448  33.717  30.845  1.00  0.00     0.022 A 
BRANCH  82  85
ATOM     85  S   UNL A   1      35.650  32.228  28.540  1.00  0.00     0.127 S 
ATOM     86  O   UNL A   1      34.219  32.275  28.818  1.00  0.00    -0.237 OA
ATOM     87  O   UNL A   1      36.100  33.090  27.447  1.00  0.00    -0.237 OA
ATOM     88  O   UNL A   1      36.273  30.909  28.550  1.00  0.00    -0.744 OA
ENDBRANCH  82  85
ENDBRANCH  64  78
BRANCH  65  89
ATOM     89  C   UNL A   1      42.332  27.789  27.402  1.00  0.00     0.023 A 
ATOM     90  C   UNL A   1      41.923  28.213  26.115  1.00  0.00     0.012 A 
ATOM     91  C   UNL A   1      42.856  26.487  27.528  1.00  0.00     0.148 A 
ATOM     92  C   UNL A   1      42.097  27.402  24.990  1.00  0.00     0.002 A 
ATOM     93  C   UNL A   1      43.011  25.675  26.405  1.00  0.00     0.091 A 
ATOM     94  F   UNL A   1      43.301  26.077  28.723  1.00  0.00    -0.205 F 
ATOM     95  C   UNL A   1      42.653  26.135  25.132  1.00  0.00     0.022 A 
BRANCH  93  96
ATOM     96  S   UNL A   1      43.721  24.030  26.540  1.00  0.00     0.127 S 
ATOM     97  O   UNL A   1      43.694  23.557  25.154  1.00  0.00    -0.237 OA
ATOM     98  O   UNL A   1      45.052  24.312  27.065  1.00  0.00    -0.237 OA
ATOM     99  O   UNL A   1      42.818  23.304  27.427  1.00  0.00    -0.744 OA
ENDBRANCH  93  96
ENDBRANCH  65  89
BRANCH  77 100
ATOM    100  C   UNL A   1      42.105  28.708  33.687  1.00  0.00     0.023 A 
ATOM    101  C   UNL A   1      43.451  29.071  33.893  1.00  0.00     0.012 A 
ATOM    102  C   UNL A   1      41.656  27.534  34.335  1.00  0.00     0.148 A 
ATOM    103  C   UNL A   1      44.323  28.286  34.653  1.00  0.00     0.002 A 
ATOM    104  C   UNL A   1      42.504  26.804  35.170  1.00  0.00     0.091 A 
ATOM    105  F   UNL A   1      40.384  27.142  34.156  1.00  0.00    -0.205 F 
ATOM    106  C   UNL A   1      43.845  27.168  35.318  1.00  0.00     0.022 A 
BRANCH 104 107
ATOM    107  S   UNL A   1      41.912  25.384  36.094  1.00  0.00     0.127 S 
ATOM    108  O   UNL A   1      42.303  24.257  35.243  1.00  0.00    -0.237 OA
ATOM    109  O   UNL A   1      42.667  25.493  37.340  1.00  0.00    -0.237 OA
ATOM    110  O   UNL A   1      40.469  25.566  36.203  1.00  0.00    -0.744 OA
ENDBRANCH 104 107
ENDBRANCH  77 100
ENDBRANCH  51  52
ENDBRANCH  44  46
ENDBRANCH  43  44
ENDBRANCH  42  43
ENDBRANCH  41  42
ENDBRANCH  40  41
ENDBRANCH  39  40
ENDBRANCH  38  39
ENDBRANCH   1  38
TORSDOF 28
ENDMDL
