MODEL 1
REMARK VINA RESULT:      -9.7      0.000      0.000
REMARK SMILES O=C(OCCOCCOCCOCCOC(=O)[C@H]1Cc2c([nH]c3ccccc23)[C@@H](c2ccc(OC(F)(F)F)cc2)[NH2+]1)c1ccc(-c2c3nc(c(-c4cccc(S(=O)(=O)[O-])c4F)c4ccc([nH]4)c(-c4cccc(S(=O)(=O)[O-])c4F)c4nc(c(-c5cccc(S(=O)(=O)[O-])c5F)c5ccc2[nH]5)C=C4)C=C3)cc1
REMARK SMILES IDX 9 1 8 2 7 3 6 4 5 5 4 6 3 7 2 8 1 9 42 10 43 11 104 12 44 13
REMARK SMILES IDX 103 14 45 15 46 16 47 17 97 18 48 19 102 20 96 21 98 22
REMARK SMILES IDX 49 23 101 24 95 25 94 26 50 28 82 29 62 30 81 31 63 32 66 33
REMARK SMILES IDX 80 34 99 35 64 36 65 37 79 39 100 40 67 41 51 42 52 43 60 44
REMARK SMILES IDX 53 45 55 46 61 47 54 48 56 49 57 50 58 51 59 52 83 53 84 54
REMARK SMILES IDX 92 55 85 56 87 57 93 58 86 59 88 60 89 61 90 62 91 63 68 64
REMARK SMILES IDX 69 65 77 66 70 67 72 68 78 69 71 70 73 71 74 72 75 73 76 74
REMARK SMILES IDX 10 75 11 76 12 77 13 78 14 79 15 80 16 81 17 82 18 83 19 84
REMARK SMILES IDX 41 85 20 86 29 87 21 90 28 91 22 92 23 93 27 94 24 96 26 97
REMARK SMILES IDX 25 98 30 99 31 100 40 101 32 102 39 103 33 104 34 105 35 106
REMARK SMILES IDX 36 107 37 108 38 109
REMARK H PARENT 98 27 66 38 41 88 41 89 22 95
REMARK Flexibility Score: inf
ROOT
ATOM      1  O   UNL A   1      36.919  22.627  25.869  1.00  0.00    -0.377 OA
ENDROOT
BRANCH   1   2
ATOM      2  C   UNL A   1      36.677  21.319  25.385  1.00  0.00     0.188 C 
BRANCH   2   3
ATOM      3  C   UNL A   1      37.912  20.522  25.027  1.00  0.00     0.188 C 
BRANCH   3   4
ATOM      4  O   UNL A   1      39.000  21.011  25.774  1.00  0.00    -0.376 OA
BRANCH   4   5
ATOM      5  C   UNL A   1      40.096  20.217  26.161  1.00  0.00     0.202 C 
BRANCH   5   6
ATOM      6  C   UNL A   1      41.460  20.857  26.261  1.00  0.00     0.261 C 
BRANCH   6   7
ATOM      7  O   UNL A   1      41.725  22.103  25.565  1.00  0.00    -0.460 OA
BRANCH   7   8
ATOM      8  C   UNL A   1      42.556  23.161  25.644  1.00  0.00     0.338 C 
ATOM      9  O   UNL A   1      43.487  23.233  24.843  1.00  0.00    -0.246 OA
BRANCH   8  10
ATOM     10  C   UNL A   1      42.385  24.281  26.597  1.00  0.00     0.060 A 
ATOM     11  C   UNL A   1      42.944  25.535  26.429  1.00  0.00     0.016 A 
ATOM     12  C   UNL A   1      41.505  24.111  27.671  1.00  0.00     0.016 A 
ATOM     13  C   UNL A   1      42.922  26.488  27.418  1.00  0.00     0.010 A 
ATOM     14  C   UNL A   1      41.343  25.128  28.616  1.00  0.00     0.010 A 
ATOM     15  C   UNL A   1      42.137  26.280  28.534  1.00  0.00    -0.014 A 
BRANCH  15  16
ATOM     16  C   UNL A   1      42.374  27.178  29.673  1.00  0.00     0.031 A 
ATOM     17  C   UNL A   1      43.578  26.892  30.517  1.00  0.00     0.074 A 
ATOM     18  C   UNL A   1      41.662  28.313  29.801  1.00  0.00     0.049 A 
ATOM     19  N   UNL A   1      43.979  27.474  31.608  1.00  0.00    -0.248 NA
ATOM     20  C   UNL A   1      44.462  25.799  30.061  1.00  0.00     0.031 C 
ATOM     21  C   UNL A   1      40.592  28.753  28.896  1.00  0.00     0.029 A 
ATOM     22  N   UNL A   1      41.756  29.324  30.714  1.00  0.00    -0.354 N 
ATOM     23  C   UNL A   1      45.094  26.756  32.023  1.00  0.00     0.074 A 
ATOM     24  C   UNL A   1      45.332  25.716  31.053  1.00  0.00     0.031 C 
ATOM     25  C   UNL A   1      40.150  29.957  29.287  1.00  0.00     0.029 A 
ATOM     26  C   UNL A   1      40.825  30.318  30.525  1.00  0.00     0.049 A 
ATOM     27  H   UNL A   1      42.425  29.340  31.437  1.00  0.00     0.167 HD
ATOM     28  C   UNL A   1      45.835  26.947  33.134  1.00  0.00     0.034 A 
ATOM     29  C   UNL A   1      40.524  31.369  31.308  1.00  0.00     0.034 A 
ATOM     30  C   UNL A   1      45.579  28.021  34.048  1.00  0.00     0.049 A 
ATOM     31  C   UNL A   1      41.321  31.523  32.575  1.00  0.00     0.074 A 
ATOM     32  C   UNL A   1      46.208  28.312  35.241  1.00  0.00     0.029 A 
ATOM     33  N   UNL A   1      44.599  28.987  33.856  1.00  0.00    -0.354 N 
ATOM     34  N   UNL A   1      42.336  30.806  33.002  1.00  0.00    -0.248 NA
ATOM     35  C   UNL A   1      40.944  32.627  33.462  1.00  0.00     0.031 C 
ATOM     36  C   UNL A   1      45.578  29.433  35.790  1.00  0.00     0.029 A 
ATOM     37  C   UNL A   1      44.596  29.874  34.912  1.00  0.00     0.049 A 
ATOM     38  H   UNL A   1      43.994  29.031  33.080  1.00  0.00     0.167 HD
ATOM     39  C   UNL A   1      42.745  31.392  34.189  1.00  0.00     0.074 A 
ATOM     40  C   UNL A   1      41.875  32.535  34.402  1.00  0.00     0.031 C 
ATOM     41  C   UNL A   1      43.736  31.024  35.038  1.00  0.00     0.034 A 
BRANCH  28  42
ATOM     42  C   UNL A   1      46.895  25.926  33.436  1.00  0.00     0.023 A 
ATOM     43  C   UNL A   1      48.202  26.060  32.928  1.00  0.00     0.012 A 
ATOM     44  C   UNL A   1      46.563  24.786  34.194  1.00  0.00     0.148 A 
ATOM     45  C   UNL A   1      49.149  25.054  33.131  1.00  0.00     0.002 A 
ATOM     46  C   UNL A   1      47.523  23.814  34.437  1.00  0.00     0.091 A 
ATOM     47  F   UNL A   1      45.303  24.657  34.635  1.00  0.00    -0.205 F 
ATOM     48  C   UNL A   1      48.812  23.936  33.892  1.00  0.00     0.022 A 
BRANCH  46  49
ATOM     49  S   UNL A   1      47.207  22.372  35.457  1.00  0.00     0.127 S 
ATOM     50  O   UNL A   1      48.503  21.701  35.435  1.00  0.00    -0.237 OA
ATOM     51  O   UNL A   1      46.851  22.978  36.738  1.00  0.00    -0.237 OA
ATOM     52  O   UNL A   1      46.120  21.646  34.803  1.00  0.00    -0.744 OA
ENDBRANCH  46  49
ENDBRANCH  28  42
BRANCH  29  53
ATOM     53  C   UNL A   1      39.423  32.306  30.944  1.00  0.00     0.023 A 
ATOM     54  C   UNL A   1      39.644  33.308  29.979  1.00  0.00     0.012 A 
ATOM     55  C   UNL A   1      38.150  32.209  31.545  1.00  0.00     0.148 A 
ATOM     56  C   UNL A   1      38.633  34.213  29.647  1.00  0.00     0.002 A 
ATOM     57  C   UNL A   1      37.131  33.075  31.167  1.00  0.00     0.091 A 
ATOM     58  F   UNL A   1      37.957  31.261  32.474  1.00  0.00    -0.205 F 
ATOM     59  C   UNL A   1      37.376  34.091  30.233  1.00  0.00     0.022 A 
BRANCH  57  60
ATOM     60  S   UNL A   1      35.450  32.917  31.782  1.00  0.00     0.127 S 
ATOM     61  O   UNL A   1      34.820  32.128  30.730  1.00  0.00    -0.237 OA
ATOM     62  O   UNL A   1      35.656  32.213  33.046  1.00  0.00    -0.237 OA
ATOM     63  O   UNL A   1      34.956  34.284  31.931  1.00  0.00    -0.744 OA
ENDBRANCH  57  60
ENDBRANCH  29  53
BRANCH  41  64
ATOM     64  C   UNL A   1      43.976  31.910  36.226  1.00  0.00     0.023 A 
ATOM     65  C   UNL A   1      44.942  32.932  36.166  1.00  0.00     0.012 A 
ATOM     66  C   UNL A   1      43.173  31.768  37.373  1.00  0.00     0.148 A 
ATOM     67  C   UNL A   1      45.130  33.781  37.255  1.00  0.00     0.002 A 
ATOM     68  C   UNL A   1      43.322  32.657  38.425  1.00  0.00     0.091 A 
ATOM     69  F   UNL A   1      42.275  30.772  37.408  1.00  0.00    -0.205 F 
ATOM     70  C   UNL A   1      44.312  33.653  38.376  1.00  0.00     0.022 A 
BRANCH  68  71
ATOM     71  S   UNL A   1      42.229  32.636  39.846  1.00  0.00     0.127 S 
ATOM     72  O   UNL A   1      42.694  31.449  40.562  1.00  0.00    -0.237 OA
ATOM     73  O   UNL A   1      42.548  33.906  40.500  1.00  0.00    -0.237 OA
ATOM     74  O   UNL A   1      40.876  32.557  39.312  1.00  0.00    -0.744 OA
ENDBRANCH  68  71
ENDBRANCH  41  64
ENDBRANCH  15  16
ENDBRANCH   8  10
ENDBRANCH   7   8
ENDBRANCH   6   7
ENDBRANCH   5   6
ENDBRANCH   4   5
ENDBRANCH   3   4
ENDBRANCH   2   3
ENDBRANCH   1   2
BRANCH   1  75
ATOM     75  C   UNL A   1      36.260  23.789  25.359  1.00  0.00     0.188 C 
BRANCH  75  76
ATOM     76  C   UNL A   1      34.746  23.776  25.138  1.00  0.00     0.188 C 
BRANCH  76  77
ATOM     77  O   UNL A   1      34.381  23.677  23.783  1.00  0.00    -0.376 OA
BRANCH  77  78
ATOM     78  C   UNL A   1      33.275  22.842  23.457  1.00  0.00     0.202 C 
BRANCH  78  79
ATOM     79  C   UNL A   1      32.224  22.379  24.503  1.00  0.00     0.261 C 
BRANCH  79  80
ATOM     80  O   UNL A   1      30.976  23.113  24.593  1.00  0.00    -0.459 OA
BRANCH  80  81
ATOM     81  C   UNL A   1      31.038  24.348  25.164  1.00  0.00     0.365 C 
ATOM     82  O   UNL A   1      31.176  24.516  26.380  1.00  0.00    -0.245 OA
BRANCH  81  83
ATOM     83  C   UNL A   1      30.937  25.595  24.224  1.00  0.00     0.298 C 
ATOM     84  C   UNL A   1      29.841  26.666  24.434  1.00  0.00     0.115 C 
ATOM     85  N   UNL A   1      32.324  26.092  24.049  1.00  0.00    -0.323 N 
ATOM     86  C   UNL A   1      30.052  27.819  23.527  1.00  0.00    -0.006 A 
ATOM     87  C   UNL A   1      32.565  27.484  23.662  1.00  0.00     0.262 C 
ATOM     88  H   UNL A   1      32.758  25.510  23.333  1.00  0.00     0.347 HD
ATOM     89  H   UNL A   1      32.709  26.045  24.993  1.00  0.00     0.347 HD
ATOM     90  C   UNL A   1      31.329  28.155  23.167  1.00  0.00     0.083 A 
ATOM     91  C   UNL A   1      29.150  28.714  22.894  1.00  0.00     0.003 A 
ATOM     92  N   UNL A   1      31.256  29.254  22.353  1.00  0.00    -0.353 N 
ATOM     93  C   UNL A   1      29.938  29.645  22.210  1.00  0.00     0.046 A 
ATOM     94  C   UNL A   1      27.747  28.849  22.848  1.00  0.00     0.010 A 
ATOM     95  H   UNL A   1      32.027  29.697  21.931  1.00  0.00     0.166 HD
ATOM     96  C   UNL A   1      29.387  30.745  21.541  1.00  0.00     0.026 A 
ATOM     97  C   UNL A   1      27.182  29.931  22.161  1.00  0.00     0.001 A 
ATOM     98  C   UNL A   1      27.994  30.874  21.535  1.00  0.00     0.002 A 
BRANCH  87  99
ATOM     99  C   UNL A   1      33.217  28.190  24.847  1.00  0.00     0.016 A 
ATOM    100  C   UNL A   1      33.040  29.551  25.138  1.00  0.00     0.014 A 
ATOM    101  C   UNL A   1      34.031  27.437  25.711  1.00  0.00     0.014 A 
ATOM    102  C   UNL A   1      33.684  30.138  26.228  1.00  0.00     0.047 A 
ATOM    103  C   UNL A   1      34.654  28.017  26.815  1.00  0.00     0.047 A 
ATOM    104  C   UNL A   1      34.504  29.379  27.065  1.00  0.00     0.129 A 
BRANCH 104 105
ATOM    105  O   UNL A   1      35.092  30.083  28.075  1.00  0.00    -0.406 OA
BRANCH 105 106
ATOM    106  C   UNL A   1      36.508  30.094  28.111  1.00  0.00     0.573 C 
ATOM    107  F   UNL A   1      36.971  31.219  28.693  1.00  0.00    -0.132 F 
ATOM    108  F   UNL A   1      36.995  29.013  28.760  1.00  0.00    -0.132 F 
ATOM    109  F   UNL A   1      36.971  30.054  26.841  1.00  0.00    -0.132 F 
ENDBRANCH 105 106
ENDBRANCH 104 105
ENDBRANCH  87  99
ENDBRANCH  81  83
ENDBRANCH  80  81
ENDBRANCH  79  80
ENDBRANCH  78  79
ENDBRANCH  77  78
ENDBRANCH  76  77
ENDBRANCH  75  76
ENDBRANCH   1  75
TORSDOF 26
ENDMDL
MODEL 2
REMARK VINA RESULT:      -9.1      1.654      1.960
REMARK SMILES O=C(OCCOCCOCCOCCOC(=O)[C@H]1Cc2c([nH]c3ccccc23)[C@@H](c2ccc(OC(F)(F)F)cc2)[NH2+]1)c1ccc(-c2c3nc(c(-c4cccc(S(=O)(=O)[O-])c4F)c4ccc([nH]4)c(-c4cccc(S(=O)(=O)[O-])c4F)c4nc(c(-c5cccc(S(=O)(=O)[O-])c5F)c5ccc2[nH]5)C=C4)C=C3)cc1
REMARK SMILES IDX 9 1 8 2 7 3 6 4 5 5 4 6 3 7 2 8 1 9 42 10 43 11 104 12 44 13
REMARK SMILES IDX 103 14 45 15 46 16 47 17 97 18 48 19 102 20 96 21 98 22
REMARK SMILES IDX 49 23 101 24 95 25 94 26 50 28 82 29 62 30 81 31 63 32 66 33
REMARK SMILES IDX 80 34 99 35 64 36 65 37 79 39 100 40 67 41 51 42 52 43 60 44
REMARK SMILES IDX 53 45 55 46 61 47 54 48 56 49 57 50 58 51 59 52 83 53 84 54
REMARK SMILES IDX 92 55 85 56 87 57 93 58 86 59 88 60 89 61 90 62 91 63 68 64
REMARK SMILES IDX 69 65 77 66 70 67 72 68 78 69 71 70 73 71 74 72 75 73 76 74
REMARK SMILES IDX 10 75 11 76 12 77 13 78 14 79 15 80 16 81 17 82 18 83 19 84
REMARK SMILES IDX 41 85 20 86 29 87 21 90 28 91 22 92 23 93 27 94 24 96 26 97
REMARK SMILES IDX 25 98 30 99 31 100 40 101 32 102 39 103 33 104 34 105 35 106
REMARK SMILES IDX 36 107 37 108 38 109
REMARK H PARENT 98 27 66 38 41 88 41 89 22 95
REMARK Flexibility Score: inf
ROOT
ATOM      1  O   UNL A   1      37.464  21.701  25.729  1.00  0.00    -0.377 OA
ENDROOT
BRANCH   1   2
ATOM      2  C   UNL A   1      37.386  20.420  25.131  1.00  0.00     0.188 C 
BRANCH   2   3
ATOM      3  C   UNL A   1      38.701  19.680  25.010  1.00  0.00     0.188 C 
BRANCH   3   4
ATOM      4  O   UNL A   1      39.572  20.135  26.018  1.00  0.00    -0.376 OA
BRANCH   4   5
ATOM      5  C   UNL A   1      40.913  19.724  26.128  1.00  0.00     0.202 C 
BRANCH   5   6
ATOM      6  C   UNL A   1      41.977  20.768  26.372  1.00  0.00     0.261 C 
BRANCH   6   7
ATOM      7  O   UNL A   1      42.022  21.959  25.544  1.00  0.00    -0.460 OA
BRANCH   7   8
ATOM      8  C   UNL A   1      42.662  23.144  25.492  1.00  0.00     0.338 C 
ATOM      9  O   UNL A   1      43.409  23.362  24.539  1.00  0.00    -0.246 OA
BRANCH   8  10
ATOM     10  C   UNL A   1      42.478  24.231  26.480  1.00  0.00     0.060 A 
ATOM     11  C   UNL A   1      43.059  25.482  26.375  1.00  0.00     0.016 A 
ATOM     12  C   UNL A   1      41.563  24.035  27.520  1.00  0.00     0.016 A 
ATOM     13  C   UNL A   1      43.020  26.398  27.397  1.00  0.00     0.010 A 
ATOM     14  C   UNL A   1      41.386  25.020  28.496  1.00  0.00     0.010 A 
ATOM     15  C   UNL A   1      42.197  26.162  28.481  1.00  0.00    -0.014 A 
BRANCH  15  16
ATOM     16  C   UNL A   1      42.412  27.014  29.659  1.00  0.00     0.031 A 
ATOM     17  C   UNL A   1      43.537  26.632  30.570  1.00  0.00     0.074 A 
ATOM     18  C   UNL A   1      41.763  28.188  29.772  1.00  0.00     0.049 A 
ATOM     19  N   UNL A   1      43.899  27.160  31.702  1.00  0.00    -0.248 NA
ATOM     20  C   UNL A   1      44.381  25.498  30.143  1.00  0.00     0.031 C 
ATOM     21  C   UNL A   1      40.786  28.718  28.812  1.00  0.00     0.029 A 
ATOM     22  N   UNL A   1      41.857  29.168  30.719  1.00  0.00    -0.354 N 
ATOM     23  C   UNL A   1      44.937  26.363  32.168  1.00  0.00     0.074 A 
ATOM     24  C   UNL A   1      45.176  25.335  31.186  1.00  0.00     0.031 C 
ATOM     25  C   UNL A   1      40.393  29.937  29.209  1.00  0.00     0.029 A 
ATOM     26  C   UNL A   1      41.004  30.223  30.498  1.00  0.00     0.049 A 
ATOM     27  H   UNL A   1      42.476  29.124  31.484  1.00  0.00     0.167 HD
ATOM     28  C   UNL A   1      45.611  26.479  33.331  1.00  0.00     0.034 A 
ATOM     29  C   UNL A   1      40.716  31.271  31.290  1.00  0.00     0.034 A 
ATOM     30  C   UNL A   1      45.361  27.545  34.257  1.00  0.00     0.049 A 
ATOM     31  C   UNL A   1      41.434  31.343  32.610  1.00  0.00     0.074 A 
ATOM     32  C   UNL A   1      45.924  27.765  35.496  1.00  0.00     0.029 A 
ATOM     33  N   UNL A   1      44.457  28.574  34.029  1.00  0.00    -0.354 N 
ATOM     34  N   UNL A   1      42.371  30.553  33.081  1.00  0.00    -0.248 NA
ATOM     35  C   UNL A   1      41.066  32.446  33.503  1.00  0.00     0.031 C 
ATOM     36  C   UNL A   1      45.329  28.910  36.036  1.00  0.00     0.029 A 
ATOM     37  C   UNL A   1      44.437  29.433  35.108  1.00  0.00     0.049 A 
ATOM     38  H   UNL A   1      43.909  28.676  33.217  1.00  0.00     0.167 HD
ATOM     39  C   UNL A   1      42.735  31.082  34.310  1.00  0.00     0.074 A 
ATOM     40  C   UNL A   1      41.924  32.273  34.499  1.00  0.00     0.031 C 
ATOM     41  C   UNL A   1      43.642  30.632  35.211  1.00  0.00     0.034 A 
BRANCH  28  42
ATOM     42  C   UNL A   1      46.584  25.386  33.672  1.00  0.00     0.023 A 
ATOM     43  C   UNL A   1      46.221  24.328  34.529  1.00  0.00     0.012 A 
ATOM     44  C   UNL A   1      47.900  25.449  33.172  1.00  0.00     0.148 A 
ATOM     45  C   UNL A   1      47.164  23.376  34.919  1.00  0.00     0.002 A 
ATOM     46  C   UNL A   1      48.819  24.470  33.522  1.00  0.00     0.091 A 
ATOM     47  F   UNL A   1      48.237  26.484  32.391  1.00  0.00    -0.205 F 
ATOM     48  C   UNL A   1      48.459  23.442  34.410  1.00  0.00     0.022 A 
BRANCH  46  49
ATOM     49  S   UNL A   1      50.489  24.431  32.869  1.00  0.00     0.127 S 
ATOM     50  O   UNL A   1      51.071  25.630  33.464  1.00  0.00    -0.237 OA
ATOM     51  O   UNL A   1      50.997  23.170  33.407  1.00  0.00    -0.237 OA
ATOM     52  O   UNL A   1      50.355  24.462  31.414  1.00  0.00    -0.744 OA
ENDBRANCH  46  49
ENDBRANCH  28  42
BRANCH  29  53
ATOM     53  C   UNL A   1      39.701  32.285  30.882  1.00  0.00     0.023 A 
ATOM     54  C   UNL A   1      40.045  33.288  29.956  1.00  0.00     0.012 A 
ATOM     55  C   UNL A   1      38.390  32.258  31.402  1.00  0.00     0.148 A 
ATOM     56  C   UNL A   1      39.115  34.263  29.584  1.00  0.00     0.002 A 
ATOM     57  C   UNL A   1      37.453  33.196  30.983  1.00  0.00     0.091 A 
ATOM     58  F   UNL A   1      38.080  31.307  32.295  1.00  0.00    -0.205 F 
ATOM     59  C   UNL A   1      37.819  34.212  30.090  1.00  0.00     0.022 A 
BRANCH  57  60
ATOM     60  S   UNL A   1      35.730  33.135  31.491  1.00  0.00     0.127 S 
ATOM     61  O   UNL A   1      35.105  34.041  30.536  1.00  0.00    -0.237 OA
ATOM     62  O   UNL A   1      35.411  31.721  31.305  1.00  0.00    -0.237 OA
ATOM     63  O   UNL A   1      35.715  33.575  32.884  1.00  0.00    -0.744 OA
ENDBRANCH  57  60
ENDBRANCH  29  53
BRANCH  41  64
ATOM     64  C   UNL A   1      43.855  31.471  36.437  1.00  0.00     0.023 A 
ATOM     65  C   UNL A   1      43.079  31.254  37.591  1.00  0.00     0.012 A 
ATOM     66  C   UNL A   1      44.892  32.422  36.457  1.00  0.00     0.148 A 
ATOM     67  C   UNL A   1      43.310  32.005  38.741  1.00  0.00     0.002 A 
ATOM     68  C   UNL A   1      45.157  33.119  37.625  1.00  0.00     0.091 A 
ATOM     69  F   UNL A   1      45.602  32.621  35.336  1.00  0.00    -0.205 F 
ATOM     70  C   UNL A   1      44.357  32.925  38.763  1.00  0.00     0.022 A 
BRANCH  68  71
ATOM     71  S   UNL A   1      46.560  34.227  37.771  1.00  0.00     0.127 S 
ATOM     72  O   UNL A   1      46.248  34.941  39.007  1.00  0.00    -0.237 OA
ATOM     73  O   UNL A   1      47.683  33.293  37.872  1.00  0.00    -0.237 OA
ATOM     74  O   UNL A   1      46.560  35.038  36.561  1.00  0.00    -0.744 OA
ENDBRANCH  68  71
ENDBRANCH  41  64
ENDBRANCH  15  16
ENDBRANCH   8  10
ENDBRANCH   7   8
ENDBRANCH   6   7
ENDBRANCH   5   6
ENDBRANCH   4   5
ENDBRANCH   3   4
ENDBRANCH   2   3
ENDBRANCH   1   2
BRANCH   1  75
ATOM     75  C   UNL A   1      37.200  22.916  25.022  1.00  0.00     0.188 C 
BRANCH  75  76
ATOM     76  C   UNL A   1      35.757  23.355  24.768  1.00  0.00     0.188 C 
BRANCH  76  77
ATOM     77  O   UNL A   1      35.086  22.551  23.829  1.00  0.00    -0.376 OA
BRANCH  77  78
ATOM     78  C   UNL A   1      33.829  22.001  24.209  1.00  0.00     0.202 C 
BRANCH  78  79
ATOM     79  C   UNL A   1      33.141  22.316  25.565  1.00  0.00     0.261 C 
BRANCH  79  80
ATOM     80  O   UNL A   1      31.739  22.688  25.553  1.00  0.00    -0.459 OA
BRANCH  80  81
ATOM     81  C   UNL A   1      31.437  23.927  26.032  1.00  0.00     0.365 C 
ATOM     82  O   UNL A   1      31.329  24.170  27.238  1.00  0.00    -0.245 OA
BRANCH  81  83
ATOM     83  C   UNL A   1      31.228  25.080  24.995  1.00  0.00     0.298 C 
ATOM     84  C   UNL A   1      30.073  26.097  25.154  1.00  0.00     0.115 C 
ATOM     85  N   UNL A   1      32.575  25.644  24.731  1.00  0.00    -0.323 N 
ATOM     86  C   UNL A   1      30.183  27.180  24.147  1.00  0.00    -0.006 A 
ATOM     87  C   UNL A   1      32.715  27.011  24.221  1.00  0.00     0.262 C 
ATOM     88  H   UNL A   1      33.023  25.030  24.051  1.00  0.00     0.347 HD
ATOM     89  H   UNL A   1      32.990  25.702  25.661  1.00  0.00     0.347 HD
ATOM     90  C   UNL A   1      31.425  27.560  23.715  1.00  0.00     0.083 A 
ATOM     91  C   UNL A   1      29.207  27.960  23.473  1.00  0.00     0.003 A 
ATOM     92  N   UNL A   1      31.258  28.579  22.815  1.00  0.00    -0.353 N 
ATOM     93  C   UNL A   1      29.914  28.876  22.687  1.00  0.00     0.046 A 
ATOM     94  C   UNL A   1      27.798  28.006  23.466  1.00  0.00     0.010 A 
ATOM     95  H   UNL A   1      31.986  29.030  22.331  1.00  0.00     0.166 HD
ATOM     96  C   UNL A   1      29.275  29.879  21.948  1.00  0.00     0.026 A 
ATOM     97  C   UNL A   1      27.145  28.988  22.711  1.00  0.00     0.001 A 
ATOM     98  C   UNL A   1      27.877  29.922  21.980  1.00  0.00     0.002 A 
BRANCH  87  99
ATOM     99  C   UNL A   1      33.357  27.854  25.319  1.00  0.00     0.016 A 
ATOM    100  C   UNL A   1      34.397  28.767  25.094  1.00  0.00     0.014 A 
ATOM    101  C   UNL A   1      32.871  27.725  26.632  1.00  0.00     0.014 A 
ATOM    102  C   UNL A   1      34.952  29.491  26.149  1.00  0.00     0.047 A 
ATOM    103  C   UNL A   1      33.409  28.467  27.683  1.00  0.00     0.047 A 
ATOM    104  C   UNL A   1      34.471  29.337  27.450  1.00  0.00     0.129 A 
BRANCH 104 105
ATOM    105  O   UNL A   1      35.121  30.085  28.388  1.00  0.00    -0.406 OA
BRANCH 105 106
ATOM    106  C   UNL A   1      36.442  29.694  28.719  1.00  0.00     0.573 C 
ATOM    107  F   UNL A   1      36.506  29.211  29.976  1.00  0.00    -0.132 F 
ATOM    108  F   UNL A   1      36.918  28.773  27.852  1.00  0.00    -0.132 F 
ATOM    109  F   UNL A   1      37.243  30.782  28.643  1.00  0.00    -0.132 F 
ENDBRANCH 105 106
ENDBRANCH 104 105
ENDBRANCH  87  99
ENDBRANCH  81  83
ENDBRANCH  80  81
ENDBRANCH  79  80
ENDBRANCH  78  79
ENDBRANCH  77  78
ENDBRANCH  76  77
ENDBRANCH  75  76
ENDBRANCH   1  75
TORSDOF 26
ENDMDL
MODEL 3
REMARK VINA RESULT:      -9.0      3.622      5.783
REMARK SMILES O=C(OCCOCCOCCOCCOC(=O)[C@H]1Cc2c([nH]c3ccccc23)[C@@H](c2ccc(OC(F)(F)F)cc2)[NH2+]1)c1ccc(-c2c3nc(c(-c4cccc(S(=O)(=O)[O-])c4F)c4ccc([nH]4)c(-c4cccc(S(=O)(=O)[O-])c4F)c4nc(c(-c5cccc(S(=O)(=O)[O-])c5F)c5ccc2[nH]5)C=C4)C=C3)cc1
REMARK SMILES IDX 9 1 8 2 7 3 6 4 5 5 4 6 3 7 2 8 1 9 42 10 43 11 104 12 44 13
REMARK SMILES IDX 103 14 45 15 46 16 47 17 97 18 48 19 102 20 96 21 98 22
REMARK SMILES IDX 49 23 101 24 95 25 94 26 50 28 82 29 62 30 81 31 63 32 66 33
REMARK SMILES IDX 80 34 99 35 64 36 65 37 79 39 100 40 67 41 51 42 52 43 60 44
REMARK SMILES IDX 53 45 55 46 61 47 54 48 56 49 57 50 58 51 59 52 83 53 84 54
REMARK SMILES IDX 92 55 85 56 87 57 93 58 86 59 88 60 89 61 90 62 91 63 68 64
REMARK SMILES IDX 69 65 77 66 70 67 72 68 78 69 71 70 73 71 74 72 75 73 76 74
REMARK SMILES IDX 10 75 11 76 12 77 13 78 14 79 15 80 16 81 17 82 18 83 19 84
REMARK SMILES IDX 41 85 20 86 29 87 21 90 28 91 22 92 23 93 27 94 24 96 26 97
REMARK SMILES IDX 25 98 30 99 31 100 40 101 32 102 39 103 33 104 34 105 35 106
REMARK SMILES IDX 36 107 37 108 38 109
REMARK H PARENT 98 27 66 38 41 88 41 89 22 95
REMARK Flexibility Score: inf
ROOT
ATOM      1  O   UNL A   1      42.853  19.845  25.589  1.00  0.00    -0.377 OA
ENDROOT
BRANCH   1   2
ATOM      2  C   UNL A   1      43.755  18.832  25.184  1.00  0.00     0.188 C 
BRANCH   2   3
ATOM      3  C   UNL A   1      44.896  19.295  24.305  1.00  0.00     0.188 C 
BRANCH   3   4
ATOM      4  O   UNL A   1      44.541  20.519  23.707  1.00  0.00    -0.376 OA
BRANCH   4   5
ATOM      5  C   UNL A   1      44.930  21.772  24.214  1.00  0.00     0.202 C 
BRANCH   5   6
ATOM      6  C   UNL A   1      43.911  22.887  24.260  1.00  0.00     0.261 C 
BRANCH   6   7
ATOM      7  O   UNL A   1      44.355  24.263  24.390  1.00  0.00    -0.460 OA
BRANCH   7   8
ATOM      8  C   UNL A   1      45.229  24.991  25.112  1.00  0.00     0.338 C 
ATOM      9  O   UNL A   1      46.318  25.262  24.609  1.00  0.00    -0.246 OA
BRANCH   8  10
ATOM     10  C   UNL A   1      44.940  25.542  26.456  1.00  0.00     0.060 A 
ATOM     11  C   UNL A   1      45.066  26.878  26.790  1.00  0.00     0.016 A 
ATOM     12  C   UNL A   1      44.385  24.691  27.417  1.00  0.00     0.016 A 
ATOM     13  C   UNL A   1      44.972  27.323  28.086  1.00  0.00     0.010 A 
ATOM     14  C   UNL A   1      44.132  25.158  28.710  1.00  0.00     0.010 A 
ATOM     15  C   UNL A   1      44.524  26.457  29.064  1.00  0.00    -0.014 A 
BRANCH  15  16
ATOM     16  C   UNL A   1      44.719  26.888  30.455  1.00  0.00     0.031 A 
ATOM     17  C   UNL A   1      46.038  26.560  31.083  1.00  0.00     0.074 A 
ATOM     18  C   UNL A   1      43.834  27.719  31.036  1.00  0.00     0.049 A 
ATOM     19  N   UNL A   1      46.444  26.758  32.303  1.00  0.00    -0.248 NA
ATOM     20  C   UNL A   1      47.049  25.925  30.212  1.00  0.00     0.031 C 
ATOM     21  C   UNL A   1      42.613  28.238  30.406  1.00  0.00     0.029 A 
ATOM     22  N   UNL A   1      43.844  28.309  32.268  1.00  0.00    -0.354 N 
ATOM     23  C   UNL A   1      47.706  26.182  32.371  1.00  0.00     0.074 A 
ATOM     24  C   UNL A   1      48.020  25.656  31.066  1.00  0.00     0.031 C 
ATOM     25  C   UNL A   1      42.008  29.088  31.249  1.00  0.00     0.029 A 
ATOM     26  C   UNL A   1      42.737  29.087  32.509  1.00  0.00     0.049 A 
ATOM     27  H   UNL A   1      44.573  28.189  32.919  1.00  0.00     0.167 HD
ATOM     28  C   UNL A   1      48.516  26.089  33.446  1.00  0.00     0.034 A 
ATOM     29  C   UNL A   1      42.340  29.681  33.648  1.00  0.00     0.034 A 
ATOM     30  C   UNL A   1      48.173  26.664  34.714  1.00  0.00     0.049 A 
ATOM     31  C   UNL A   1      43.227  29.508  34.850  1.00  0.00     0.074 A 
ATOM     32  C   UNL A   1      48.864  26.607  35.906  1.00  0.00     0.029 A 
ATOM     33  N   UNL A   1      47.022  27.407  34.943  1.00  0.00    -0.354 N 
ATOM     34  N   UNL A   1      44.393  28.908  34.933  1.00  0.00    -0.248 NA
ATOM     35  C   UNL A   1      42.758  30.095  36.109  1.00  0.00     0.031 C 
ATOM     36  C   UNL A   1      48.108  27.285  36.868  1.00  0.00     0.029 A 
ATOM     37  C   UNL A   1      46.974  27.812  36.261  1.00  0.00     0.049 A 
ATOM     38  H   UNL A   1      46.339  27.615  34.264  1.00  0.00     0.167 HD
ATOM     39  C   UNL A   1      44.816  29.075  36.243  1.00  0.00     0.074 A 
ATOM     40  C   UNL A   1      43.785  29.849  36.910  1.00  0.00     0.031 C 
ATOM     41  C   UNL A   1      45.942  28.627  36.851  1.00  0.00     0.034 A 
BRANCH  28  42
ATOM     42  C   UNL A   1      49.767  25.271  33.295  1.00  0.00     0.023 A 
ATOM     43  C   UNL A   1      50.941  25.827  32.749  1.00  0.00     0.012 A 
ATOM     44  C   UNL A   1      49.751  23.908  33.653  1.00  0.00     0.148 A 
ATOM     45  C   UNL A   1      52.063  25.030  32.520  1.00  0.00     0.002 A 
ATOM     46  C   UNL A   1      50.888  23.133  33.472  1.00  0.00     0.091 A 
ATOM     47  F   UNL A   1      48.613  23.388  34.134  1.00  0.00    -0.205 F 
ATOM     48  C   UNL A   1      52.040  23.686  32.888  1.00  0.00     0.022 A 
BRANCH  46  49
ATOM     49  S   UNL A   1      50.978  21.413  33.973  1.00  0.00     0.127 S 
ATOM     50  O   UNL A   1      52.337  21.057  33.576  1.00  0.00    -0.237 OA
ATOM     51  O   UNL A   1      50.763  21.505  35.415  1.00  0.00    -0.237 OA
ATOM     52  O   UNL A   1      49.917  20.723  33.242  1.00  0.00    -0.744 OA
ENDBRANCH  46  49
ENDBRANCH  28  42
BRANCH  29  53
ATOM     53  C   UNL A   1      41.057  30.439  33.711  1.00  0.00     0.023 A 
ATOM     54  C   UNL A   1      39.867  29.775  34.069  1.00  0.00     0.012 A 
ATOM     55  C   UNL A   1      41.007  31.819  33.425  1.00  0.00     0.148 A 
ATOM     56  C   UNL A   1      38.651  30.463  34.105  1.00  0.00     0.002 A 
ATOM     57  C   UNL A   1      39.804  32.510  33.519  1.00  0.00     0.091 A 
ATOM     58  F   UNL A   1      42.144  32.436  33.070  1.00  0.00    -0.205 F 
ATOM     59  C   UNL A   1      38.621  31.829  33.840  1.00  0.00     0.022 A 
BRANCH  57  60
ATOM     60  S   UNL A   1      39.692  34.291  33.311  1.00  0.00     0.127 S 
ATOM     61  O   UNL A   1      38.256  34.514  33.416  1.00  0.00    -0.237 OA
ATOM     62  O   UNL A   1      40.480  34.777  34.443  1.00  0.00    -0.237 OA
ATOM     63  O   UNL A   1      40.284  34.572  32.005  1.00  0.00    -0.744 OA
ENDBRANCH  57  60
ENDBRANCH  29  53
BRANCH  41  64
ATOM     64  C   UNL A   1      46.147  29.030  38.282  1.00  0.00     0.023 A 
ATOM     65  C   UNL A   1      46.888  30.185  38.596  1.00  0.00     0.012 A 
ATOM     66  C   UNL A   1      45.525  28.294  39.308  1.00  0.00     0.148 A 
ATOM     67  C   UNL A   1      47.037  30.581  39.924  1.00  0.00     0.002 A 
ATOM     68  C   UNL A   1      45.625  28.731  40.618  1.00  0.00     0.091 A 
ATOM     69  F   UNL A   1      44.843  27.187  38.979  1.00  0.00    -0.205 F 
ATOM     70  C   UNL A   1      46.394  29.864  40.931  1.00  0.00     0.022 A 
BRANCH  68  71
ATOM     71  S   UNL A   1      44.728  27.937  41.954  1.00  0.00     0.127 S 
ATOM     72  O   UNL A   1      43.698  28.930  42.252  1.00  0.00    -0.237 OA
ATOM     73  O   UNL A   1      44.234  26.717  41.313  1.00  0.00    -0.237 OA
ATOM     74  O   UNL A   1      45.703  27.708  43.012  1.00  0.00    -0.744 OA
ENDBRANCH  68  71
ENDBRANCH  41  64
ENDBRANCH  15  16
ENDBRANCH   8  10
ENDBRANCH   7   8
ENDBRANCH   6   7
ENDBRANCH   5   6
ENDBRANCH   4   5
ENDBRANCH   3   4
ENDBRANCH   2   3
ENDBRANCH   1   2
BRANCH   1  75
ATOM     75  C   UNL A   1      41.599  19.575  26.222  1.00  0.00     0.188 C 
BRANCH  75  76
ATOM     76  C   UNL A   1      40.979  20.608  27.165  1.00  0.00     0.188 C 
BRANCH  76  77
ATOM     77  O   UNL A   1      40.805  21.871  26.572  1.00  0.00    -0.376 OA
BRANCH  77  78
ATOM     78  C   UNL A   1      39.957  22.801  27.236  1.00  0.00     0.202 C 
BRANCH  78  79
ATOM     79  C   UNL A   1      39.114  23.868  26.484  1.00  0.00     0.261 C 
BRANCH  79  80
ATOM     80  O   UNL A   1      37.674  23.857  26.664  1.00  0.00    -0.459 OA
BRANCH  80  81
ATOM     81  C   UNL A   1      36.924  23.714  25.536  1.00  0.00     0.365 C 
ATOM     82  O   UNL A   1      37.386  23.282  24.476  1.00  0.00    -0.245 OA
BRANCH  81  83
ATOM     83  C   UNL A   1      35.413  24.113  25.609  1.00  0.00     0.298 C 
ATOM     84  C   UNL A   1      34.674  24.668  24.368  1.00  0.00     0.115 C 
ATOM     85  N   UNL A   1      34.734  23.022  26.350  1.00  0.00    -0.323 N 
ATOM     86  C   UNL A   1      33.224  24.816  24.642  1.00  0.00    -0.006 A 
ATOM     87  C   UNL A   1      33.295  22.802  26.185  1.00  0.00     0.262 C 
ATOM     88  H   UNL A   1      34.892  23.198  27.343  1.00  0.00     0.347 HD
ATOM     89  H   UNL A   1      35.144  22.178  25.949  1.00  0.00     0.347 HD
ATOM     90  C   UNL A   1      32.621  23.950  25.513  1.00  0.00     0.083 A 
ATOM     91  C   UNL A   1      32.253  25.738  24.170  1.00  0.00     0.003 A 
ATOM     92  N   UNL A   1      31.294  24.280  25.576  1.00  0.00    -0.353 N 
ATOM     93  C   UNL A   1      31.033  25.338  24.726  1.00  0.00     0.046 A 
ATOM     94  C   UNL A   1      32.272  26.855  23.310  1.00  0.00     0.010 A 
ATOM     95  H   UNL A   1      30.627  23.831  26.142  1.00  0.00     0.166 HD
ATOM     96  C   UNL A   1      29.822  25.965  24.405  1.00  0.00     0.026 A 
ATOM     97  C   UNL A   1      31.072  27.506  22.999  1.00  0.00     0.001 A 
ATOM     98  C   UNL A   1      29.864  27.052  23.525  1.00  0.00     0.002 A 
BRANCH  87  99
ATOM     99  C   UNL A   1      33.108  21.469  25.467  1.00  0.00     0.016 A 
ATOM    100  C   UNL A   1      33.279  20.221  26.083  1.00  0.00     0.014 A 
ATOM    101  C   UNL A   1      32.725  21.485  24.114  1.00  0.00     0.014 A 
ATOM    102  C   UNL A   1      33.112  19.039  25.360  1.00  0.00     0.047 A 
ATOM    103  C   UNL A   1      32.533  20.304  23.398  1.00  0.00     0.047 A 
ATOM    104  C   UNL A   1      32.750  19.073  24.012  1.00  0.00     0.129 A 
BRANCH 104 105
ATOM    105  O   UNL A   1      32.647  17.848  23.421  1.00  0.00    -0.406 OA
BRANCH 105 106
ATOM    106  C   UNL A   1      33.762  16.982  23.536  1.00  0.00     0.573 C 
ATOM    107  F   UNL A   1      33.998  16.335  22.377  1.00  0.00    -0.132 F 
ATOM    108  F   UNL A   1      34.872  17.652  23.917  1.00  0.00    -0.132 F 
ATOM    109  F   UNL A   1      33.493  16.059  24.488  1.00  0.00    -0.132 F 
ENDBRANCH 105 106
ENDBRANCH 104 105
ENDBRANCH  87  99
ENDBRANCH  81  83
ENDBRANCH  80  81
ENDBRANCH  79  80
ENDBRANCH  78  79
ENDBRANCH  77  78
ENDBRANCH  76  77
ENDBRANCH  75  76
ENDBRANCH   1  75
TORSDOF 26
ENDMDL
