MODEL 1
REMARK VINA RESULT:      -8.8      0.000      0.000
REMARK SMILES O=C(OCCOCCOCCOCCOC(=O)[C@@H](NC(=O)c1ccncc1Cl)C1CC1)c1ccc(-c2c3nc(c(-c4cccc(S(=O)(=O)[O-])c4F)c4ccc([nH]4)c(-c4cccc(S(=O)(=O)[O-])c4F)c4nc(c(-c5cccc(S(=O)(=O)[O-])c5F)c5ccc2[nH]5)C=C4)C=C3)cc1
REMARK SMILES IDX 8 1 7 2 6 3 5 4 4 5 3 6 2 7 1 8 32 9 33 10 94 11 34 12 93 13
REMARK SMILES IDX 35 14 36 15 37 16 87 17 38 18 92 19 86 20 88 21 39 22 91 23
REMARK SMILES IDX 85 24 84 25 40 27 72 28 52 29 71 30 53 31 56 32 70 33 89 34
REMARK SMILES IDX 54 35 55 36 69 38 90 39 57 40 41 41 42 42 50 43 43 44 45 45
REMARK SMILES IDX 51 46 44 47 46 48 47 49 48 50 49 51 73 52 74 53 82 54 75 55
REMARK SMILES IDX 77 56 83 57 76 58 78 59 79 60 80 61 81 62 58 63 59 64 67 65
REMARK SMILES IDX 60 66 62 67 68 68 61 69 63 70 64 71 65 72 66 73 9 74 10 75
REMARK SMILES IDX 11 76 12 77 13 78 14 79 15 80 16 81 17 82 18 83 19 84 20 85
REMARK SMILES IDX 21 87 22 88 23 89 27 90 24 91 26 92 28 93 25 94 29 95 30 96
REMARK SMILES IDX 31 97
REMARK H PARENT 88 26 56 37 19 86
REMARK Flexibility Score: inf
ROOT
ATOM      1  C   UNL A   1      38.808  22.818  26.177  1.00  0.00     0.188 C 
ENDROOT
BRANCH   1   2
ATOM      2  C   UNL A   1      39.065  21.384  25.733  1.00  0.00     0.188 C 
BRANCH   2   3
ATOM      3  O   UNL A   1      40.208  20.852  26.389  1.00  0.00    -0.376 OA
BRANCH   3   4
ATOM      4  C   UNL A   1      40.421  19.462  26.161  1.00  0.00     0.202 C 
BRANCH   4   5
ATOM      5  C   UNL A   1      41.890  19.065  26.327  1.00  0.00     0.261 C 
BRANCH   5   6
ATOM      6  O   UNL A   1      42.648  19.292  25.127  1.00  0.00    -0.460 OA
BRANCH   6   7
ATOM      7  C   UNL A   1      43.768  20.045  24.978  1.00  0.00     0.338 C 
ATOM      8  O   UNL A   1      44.755  19.512  24.467  1.00  0.00    -0.246 OA
BRANCH   7   9
ATOM      9  C   UNL A   1      43.884  21.486  25.381  1.00  0.00     0.060 A 
ATOM     10  C   UNL A   1      43.742  22.579  24.527  1.00  0.00     0.016 A 
ATOM     11  C   UNL A   1      44.088  21.758  26.747  1.00  0.00     0.016 A 
ATOM     12  C   UNL A   1      43.835  23.887  24.977  1.00  0.00     0.010 A 
ATOM     13  C   UNL A   1      44.181  23.074  27.217  1.00  0.00     0.010 A 
ATOM     14  C   UNL A   1      44.081  24.142  26.320  1.00  0.00    -0.014 A 
BRANCH  14  15
ATOM     15  C   UNL A   1      44.441  25.524  26.680  1.00  0.00     0.031 A 
ATOM     16  C   UNL A   1      43.377  26.371  27.310  1.00  0.00     0.074 A 
ATOM     17  C   UNL A   1      45.722  25.929  26.608  1.00  0.00     0.049 A 
ATOM     18  N   UNL A   1      43.438  27.605  27.724  1.00  0.00    -0.248 NA
ATOM     19  C   UNL A   1      42.067  25.726  27.529  1.00  0.00     0.031 C 
ATOM     20  C   UNL A   1      46.839  25.112  26.129  1.00  0.00     0.029 A 
ATOM     21  N   UNL A   1      46.301  27.118  26.958  1.00  0.00    -0.354 N 
ATOM     22  C   UNL A   1      42.171  27.898  28.212  1.00  0.00     0.074 A 
ATOM     23  C   UNL A   1      41.360  26.713  28.055  1.00  0.00     0.031 C 
ATOM     24  C   UNL A   1      47.971  25.832  26.207  1.00  0.00     0.029 A 
ATOM     25  C   UNL A   1      47.649  27.170  26.691  1.00  0.00     0.049 A 
ATOM     26  H   UNL A   1      45.802  27.864  27.362  1.00  0.00     0.167 HD
ATOM     27  C   UNL A   1      41.728  29.056  28.746  1.00  0.00     0.034 A 
ATOM     28  C   UNL A   1      48.507  28.203  26.796  1.00  0.00     0.034 A 
ATOM     29  C   UNL A   1      42.558  30.217  28.892  1.00  0.00     0.049 A 
ATOM     30  C   UNL A   1      47.969  29.509  27.323  1.00  0.00     0.074 A 
ATOM     31  C   UNL A   1      42.215  31.479  29.333  1.00  0.00     0.029 A 
ATOM     32  N   UNL A   1      43.915  30.246  28.593  1.00  0.00    -0.354 N 
ATOM     33  N   UNL A   1      46.763  29.786  27.765  1.00  0.00    -0.248 NA
ATOM     34  C   UNL A   1      48.903  30.640  27.380  1.00  0.00     0.031 C 
ATOM     35  C   UNL A   1      43.364  32.277  29.288  1.00  0.00     0.029 A 
ATOM     36  C   UNL A   1      44.427  31.503  28.842  1.00  0.00     0.049 A 
ATOM     37  H   UNL A   1      44.434  29.481  28.252  1.00  0.00     0.167 HD
ATOM     38  C   UNL A   1      46.798  31.113  28.172  1.00  0.00     0.074 A 
ATOM     39  C   UNL A   1      48.156  31.575  27.953  1.00  0.00     0.031 C 
ATOM     40  C   UNL A   1      45.802  31.894  28.658  1.00  0.00     0.034 A 
BRANCH  27  41
ATOM     41  C   UNL A   1      40.286  29.106  29.172  1.00  0.00     0.023 A 
ATOM     42  C   UNL A   1      39.277  29.310  28.208  1.00  0.00     0.012 A 
ATOM     43  C   UNL A   1      39.934  28.990  30.530  1.00  0.00     0.148 A 
ATOM     44  C   UNL A   1      37.942  29.436  28.595  1.00  0.00     0.002 A 
ATOM     45  C   UNL A   1      38.599  29.080  30.903  1.00  0.00     0.091 A 
ATOM     46  F   UNL A   1      40.912  28.827  31.431  1.00  0.00    -0.205 F 
ATOM     47  C   UNL A   1      37.603  29.315  29.940  1.00  0.00     0.022 A 
BRANCH  45  48
ATOM     48  S   UNL A   1      38.052  28.898  32.604  1.00  0.00     0.127 S 
ATOM     49  O   UNL A   1      36.658  29.333  32.514  1.00  0.00    -0.237 OA
ATOM     50  O   UNL A   1      38.230  27.464  32.829  1.00  0.00    -0.237 OA
ATOM     51  O   UNL A   1      38.919  29.754  33.400  1.00  0.00    -0.744 OA
ENDBRANCH  45  48
ENDBRANCH  27  41
BRANCH  28  52
ATOM     52  C   UNL A   1      49.935  28.054  26.384  1.00  0.00     0.023 A 
ATOM     53  C   UNL A   1      50.295  28.175  25.028  1.00  0.00     0.012 A 
ATOM     54  C   UNL A   1      50.944  27.791  27.334  1.00  0.00     0.148 A 
ATOM     55  C   UNL A   1      51.623  28.006  24.624  1.00  0.00     0.002 A 
ATOM     56  C   UNL A   1      52.271  27.683  26.932  1.00  0.00     0.091 A 
ATOM     57  F   UNL A   1      50.587  27.644  28.618  1.00  0.00    -0.205 F 
ATOM     58  C   UNL A   1      52.611  27.771  25.576  1.00  0.00     0.022 A 
BRANCH  56  59
ATOM     59  S   UNL A   1      53.611  27.518  28.118  1.00  0.00     0.127 S 
ATOM     60  O   UNL A   1      53.521  28.776  28.851  1.00  0.00    -0.237 OA
ATOM     61  O   UNL A   1      53.208  26.332  28.876  1.00  0.00    -0.237 OA
ATOM     62  O   UNL A   1      54.812  27.327  27.316  1.00  0.00    -0.744 OA
ENDBRANCH  56  59
ENDBRANCH  28  52
BRANCH  40  63
ATOM     63  C   UNL A   1      46.154  33.311  29.014  1.00  0.00     0.023 A 
ATOM     64  C   UNL A   1      46.856  33.578  30.205  1.00  0.00     0.012 A 
ATOM     65  C   UNL A   1      45.867  34.361  28.122  1.00  0.00     0.148 A 
ATOM     66  C   UNL A   1      47.245  34.878  30.516  1.00  0.00     0.002 A 
ATOM     67  C   UNL A   1      46.302  35.646  28.415  1.00  0.00     0.091 A 
ATOM     68  F   UNL A   1      45.178  34.084  27.006  1.00  0.00    -0.205 F 
ATOM     69  C   UNL A   1      46.981  35.908  29.616  1.00  0.00     0.022 A 
BRANCH  67  70
ATOM     70  S   UNL A   1      46.098  37.007  27.262  1.00  0.00     0.127 S 
ATOM     71  O   UNL A   1      46.486  38.152  28.081  1.00  0.00    -0.237 OA
ATOM     72  O   UNL A   1      47.048  36.663  26.203  1.00  0.00    -0.237 OA
ATOM     73  O   UNL A   1      44.701  36.972  26.849  1.00  0.00    -0.744 OA
ENDBRANCH  67  70
ENDBRANCH  40  63
ENDBRANCH  14  15
ENDBRANCH   7   9
ENDBRANCH   6   7
ENDBRANCH   5   6
ENDBRANCH   4   5
ENDBRANCH   3   4
ENDBRANCH   2   3
ENDBRANCH   1   2
BRANCH   1  74
ATOM     74  O   UNL A   1      37.481  23.311  25.994  1.00  0.00    -0.377 OA
BRANCH  74  75
ATOM     75  C   UNL A   1      37.012  23.591  24.674  1.00  0.00     0.188 C 
BRANCH  75  76
ATOM     76  C   UNL A   1      35.553  23.998  24.408  1.00  0.00     0.188 C 
BRANCH  76  77
ATOM     77  O   UNL A   1      35.081  23.841  23.079  1.00  0.00    -0.376 OA
BRANCH  77  78
ATOM     78  C   UNL A   1      33.977  22.951  22.932  1.00  0.00     0.202 C 
BRANCH  78  79
ATOM     79  C   UNL A   1      32.629  23.668  23.023  1.00  0.00     0.261 C 
BRANCH  79  80
ATOM     80  O   UNL A   1      31.569  22.917  23.639  1.00  0.00    -0.462 OA
BRANCH  80  81
ATOM     81  C   UNL A   1      31.891  22.139  24.705  1.00  0.00     0.329 C 
ATOM     82  O   UNL A   1      31.689  20.932  24.765  1.00  0.00    -0.250 OA
BRANCH  81  83
ATOM     83  C   UNL A   1      32.339  23.006  25.919  1.00  0.00     0.195 C 
BRANCH  83  84
ATOM     84  N   UNL A   1      31.215  23.799  26.461  1.00  0.00    -0.338 N 
ATOM     85  C   UNL A   1      30.655  25.006  26.183  1.00  0.00     0.253 C 
ATOM     86  H   UNL A   1      30.761  23.340  27.205  1.00  0.00     0.164 HD
ATOM     87  O   UNL A   1      29.505  25.280  26.516  1.00  0.00    -0.269 OA
BRANCH  85  88
ATOM     88  C   UNL A   1      31.488  26.090  25.683  1.00  0.00     0.061 A 
ATOM     89  C   UNL A   1      32.554  26.470  26.506  1.00  0.00     0.035 A 
ATOM     90  C   UNL A   1      31.227  26.750  24.495  1.00  0.00     0.072 A 
ATOM     91  C   UNL A   1      33.379  27.480  26.059  1.00  0.00     0.112 A 
ATOM     92  C   UNL A   1      32.123  27.744  24.137  1.00  0.00     0.132 A 
ATOM     93  Cl  UNL A   1      29.898  26.375  23.474  1.00  0.00    -0.082 Cl
ATOM     94  N   UNL A   1      33.197  28.118  24.883  1.00  0.00    -0.263 NA
ENDBRANCH  85  88
ENDBRANCH  83  84
BRANCH  83  95
ATOM     95  C   UNL A   1      32.983  22.099  26.934  1.00  0.00     0.023 C 
ATOM     96  C   UNL A   1      34.408  22.347  27.383  1.00  0.00     0.007 C 
ATOM     97  C   UNL A   1      33.280  22.580  28.337  1.00  0.00     0.007 C 
ENDBRANCH  83  95
ENDBRANCH  81  83
ENDBRANCH  80  81
ENDBRANCH  79  80
ENDBRANCH  78  79
ENDBRANCH  77  78
ENDBRANCH  76  77
ENDBRANCH  75  76
ENDBRANCH  74  75
ENDBRANCH   1  74
TORSDOF 26
ENDMDL
MODEL 2
REMARK VINA RESULT:      -8.5      3.375      5.089
REMARK SMILES O=C(OCCOCCOCCOCCOC(=O)[C@@H](NC(=O)c1ccncc1Cl)C1CC1)c1ccc(-c2c3nc(c(-c4cccc(S(=O)(=O)[O-])c4F)c4ccc([nH]4)c(-c4cccc(S(=O)(=O)[O-])c4F)c4nc(c(-c5cccc(S(=O)(=O)[O-])c5F)c5ccc2[nH]5)C=C4)C=C3)cc1
REMARK SMILES IDX 8 1 7 2 6 3 5 4 4 5 3 6 2 7 1 8 32 9 33 10 94 11 34 12 93 13
REMARK SMILES IDX 35 14 36 15 37 16 87 17 38 18 92 19 86 20 88 21 39 22 91 23
REMARK SMILES IDX 85 24 84 25 40 27 72 28 52 29 71 30 53 31 56 32 70 33 89 34
REMARK SMILES IDX 54 35 55 36 69 38 90 39 57 40 41 41 42 42 50 43 43 44 45 45
REMARK SMILES IDX 51 46 44 47 46 48 47 49 48 50 49 51 73 52 74 53 82 54 75 55
REMARK SMILES IDX 77 56 83 57 76 58 78 59 79 60 80 61 81 62 58 63 59 64 67 65
REMARK SMILES IDX 60 66 62 67 68 68 61 69 63 70 64 71 65 72 66 73 9 74 10 75
REMARK SMILES IDX 11 76 12 77 13 78 14 79 15 80 16 81 17 82 18 83 19 84 20 85
REMARK SMILES IDX 21 87 22 88 23 89 27 90 24 91 26 92 28 93 25 94 29 95 30 96
REMARK SMILES IDX 31 97
REMARK H PARENT 88 26 56 37 19 86
REMARK Flexibility Score: inf
ROOT
ATOM      1  C   UNL A   1      34.892  21.881  24.391  1.00  0.00     0.188 C 
ENDROOT
BRANCH   1   2
ATOM      2  C   UNL A   1      35.381  20.563  24.977  1.00  0.00     0.188 C 
BRANCH   2   3
ATOM      3  O   UNL A   1      36.603  20.747  25.678  1.00  0.00    -0.376 OA
BRANCH   3   4
ATOM      4  C   UNL A   1      37.752  20.840  24.841  1.00  0.00     0.202 C 
BRANCH   4   5
ATOM      5  C   UNL A   1      39.009  21.232  25.620  1.00  0.00     0.261 C 
BRANCH   5   6
ATOM      6  O   UNL A   1      38.752  22.292  26.557  1.00  0.00    -0.460 OA
BRANCH   6   7
ATOM      7  C   UNL A   1      38.519  23.603  26.289  1.00  0.00     0.338 C 
ATOM      8  O   UNL A   1      37.651  23.874  25.459  1.00  0.00    -0.246 OA
BRANCH   7   9
ATOM      9  C   UNL A   1      39.238  24.746  26.945  1.00  0.00     0.060 A 
ATOM     10  C   UNL A   1      39.234  25.027  28.312  1.00  0.00     0.016 A 
ATOM     11  C   UNL A   1      40.036  25.562  26.122  1.00  0.00     0.016 A 
ATOM     12  C   UNL A   1      39.946  26.087  28.851  1.00  0.00     0.010 A 
ATOM     13  C   UNL A   1      40.763  26.636  26.652  1.00  0.00     0.010 A 
ATOM     14  C   UNL A   1      40.694  26.913  28.021  1.00  0.00    -0.014 A 
BRANCH  14  15
ATOM     15  C   UNL A   1      41.194  28.167  28.608  1.00  0.00     0.031 A 
ATOM     16  C   UNL A   1      40.178  29.143  29.120  1.00  0.00     0.074 A 
ATOM     17  C   UNL A   1      42.511  28.329  28.834  1.00  0.00     0.049 A 
ATOM     18  N   UNL A   1      40.355  30.304  29.685  1.00  0.00    -0.248 NA
ATOM     19  C   UNL A   1      38.763  28.739  29.003  1.00  0.00     0.031 C 
ATOM     20  C   UNL A   1      43.552  27.361  28.483  1.00  0.00     0.029 A 
ATOM     21  N   UNL A   1      43.193  29.354  29.430  1.00  0.00    -0.354 N 
ATOM     22  C   UNL A   1      39.081  30.787  29.951  1.00  0.00     0.074 A 
ATOM     23  C   UNL A   1      38.136  29.793  29.499  1.00  0.00     0.031 C 
ATOM     24  C   UNL A   1      44.745  27.846  28.864  1.00  0.00     0.029 A 
ATOM     25  C   UNL A   1      44.557  29.174  29.435  1.00  0.00     0.049 A 
ATOM     26  H   UNL A   1      42.752  30.144  29.818  1.00  0.00     0.167 HD
ATOM     27  C   UNL A   1      38.734  31.959  30.527  1.00  0.00     0.034 A 
ATOM     28  C   UNL A   1      45.533  30.016  29.828  1.00  0.00     0.034 A 
ATOM     29  C   UNL A   1      39.697  32.926  30.969  1.00  0.00     0.049 A 
ATOM     30  C   UNL A   1      45.121  31.350  30.395  1.00  0.00     0.074 A 
ATOM     31  C   UNL A   1      39.483  34.188  31.486  1.00  0.00     0.029 A 
ATOM     32  N   UNL A   1      41.071  32.725  30.942  1.00  0.00    -0.354 N 
ATOM     33  N   UNL A   1      43.913  31.810  30.628  1.00  0.00    -0.248 NA
ATOM     34  C   UNL A   1      46.197  32.276  30.768  1.00  0.00     0.031 C 
ATOM     35  C   UNL A   1      40.733  34.757  31.760  1.00  0.00     0.029 A 
ATOM     36  C   UNL A   1      41.722  33.837  31.436  1.00  0.00     0.049 A 
ATOM     37  H   UNL A   1      41.516  31.908  30.617  1.00  0.00     0.167 HD
ATOM     38  C   UNL A   1      44.082  33.068  31.192  1.00  0.00     0.074 A 
ATOM     39  C   UNL A   1      45.513  33.283  31.296  1.00  0.00     0.031 C 
ATOM     40  C   UNL A   1      43.150  33.978  31.568  1.00  0.00     0.034 A 
BRANCH  27  41
ATOM     41  C   UNL A   1      37.264  32.242  30.670  1.00  0.00     0.023 A 
ATOM     42  C   UNL A   1      36.638  32.084  31.923  1.00  0.00     0.012 A 
ATOM     43  C   UNL A   1      36.496  32.627  29.555  1.00  0.00     0.148 A 
ATOM     44  C   UNL A   1      35.261  32.267  32.056  1.00  0.00     0.002 A 
ATOM     45  C   UNL A   1      35.131  32.844  29.703  1.00  0.00     0.091 A 
ATOM     46  F   UNL A   1      37.107  32.743  28.369  1.00  0.00    -0.205 F 
ATOM     47  C   UNL A   1      34.510  32.653  30.949  1.00  0.00     0.022 A 
BRANCH  45  48
ATOM     48  S   UNL A   1      34.082  33.382  28.349  1.00  0.00     0.127 S 
ATOM     49  O   UNL A   1      35.001  34.219  27.577  1.00  0.00    -0.237 OA
ATOM     50  O   UNL A   1      33.732  32.113  27.712  1.00  0.00    -0.237 OA
ATOM     51  O   UNL A   1      32.964  34.087  28.960  1.00  0.00    -0.744 OA
ENDBRANCH  45  48
ENDBRANCH  27  41
BRANCH  28  52
ATOM     52  C   UNL A   1      46.970  29.637  29.683  1.00  0.00     0.023 A 
ATOM     53  C   UNL A   1      47.650  29.022  30.751  1.00  0.00     0.012 A 
ATOM     54  C   UNL A   1      47.672  29.885  28.485  1.00  0.00     0.148 A 
ATOM     55  C   UNL A   1      49.004  28.691  30.641  1.00  0.00     0.002 A 
ATOM     56  C   UNL A   1      49.002  29.499  28.361  1.00  0.00     0.091 A 
ATOM     57  F   UNL A   1      47.026  30.500  27.484  1.00  0.00    -0.205 F 
ATOM     58  C   UNL A   1      49.677  28.920  29.444  1.00  0.00     0.022 A 
BRANCH  56  59
ATOM     59  S   UNL A   1      49.890  29.637  26.805  1.00  0.00     0.127 S 
ATOM     60  O   UNL A   1      49.067  28.823  25.916  1.00  0.00    -0.237 OA
ATOM     61  O   UNL A   1      49.839  31.077  26.547  1.00  0.00    -0.237 OA
ATOM     62  O   UNL A   1      51.229  29.132  27.080  1.00  0.00    -0.744 OA
ENDBRANCH  56  59
ENDBRANCH  28  52
BRANCH  40  63
ATOM     63  C   UNL A   1      43.650  35.268  32.154  1.00  0.00     0.023 A 
ATOM     64  C   UNL A   1      43.969  35.335  33.525  1.00  0.00     0.012 A 
ATOM     65  C   UNL A   1      43.888  36.381  31.326  1.00  0.00     0.148 A 
ATOM     66  C   UNL A   1      44.494  36.505  34.068  1.00  0.00     0.002 A 
ATOM     67  C   UNL A   1      44.458  37.526  31.866  1.00  0.00     0.091 A 
ATOM     68  F   UNL A   1      43.555  36.298  30.030  1.00  0.00    -0.205 F 
ATOM     69  C   UNL A   1      44.752  37.594  33.237  1.00  0.00     0.022 A 
BRANCH  67  70
ATOM     70  S   UNL A   1      44.921  38.929  30.846  1.00  0.00     0.127 S 
ATOM     71  O   UNL A   1      43.739  39.085  30.001  1.00  0.00    -0.237 OA
ATOM     72  O   UNL A   1      45.106  39.988  31.839  1.00  0.00    -0.237 OA
ATOM     73  O   UNL A   1      46.141  38.534  30.155  1.00  0.00    -0.744 OA
ENDBRANCH  67  70
ENDBRANCH  40  63
ENDBRANCH  14  15
ENDBRANCH   7   9
ENDBRANCH   6   7
ENDBRANCH   5   6
ENDBRANCH   4   5
ENDBRANCH   3   4
ENDBRANCH   2   3
ENDBRANCH   1   2
BRANCH   1  74
ATOM     74  O   UNL A   1      33.880  22.567  25.129  1.00  0.00    -0.377 OA
BRANCH  74  75
ATOM     75  C   UNL A   1      33.185  21.881  26.171  1.00  0.00     0.188 C 
BRANCH  75  76
ATOM     76  C   UNL A   1      32.918  22.544  27.532  1.00  0.00     0.188 C 
BRANCH  76  77
ATOM     77  O   UNL A   1      31.733  23.318  27.641  1.00  0.00    -0.376 OA
BRANCH  77  78
ATOM     78  C   UNL A   1      30.940  23.376  26.459  1.00  0.00     0.202 C 
BRANCH  78  79
ATOM     79  C   UNL A   1      30.529  24.805  26.097  1.00  0.00     0.261 C 
BRANCH  79  80
ATOM     80  O   UNL A   1      31.394  25.842  26.592  1.00  0.00    -0.462 OA
BRANCH  80  81
ATOM     81  C   UNL A   1      32.507  26.127  25.868  1.00  0.00     0.329 C 
ATOM     82  O   UNL A   1      33.629  25.711  26.134  1.00  0.00    -0.250 OA
BRANCH  81  83
ATOM     83  C   UNL A   1      32.218  27.221  24.798  1.00  0.00     0.195 C 
BRANCH  83  84
ATOM     84  N   UNL A   1      31.734  26.625  23.534  1.00  0.00    -0.338 N 
ATOM     85  C   UNL A   1      31.082  27.083  22.433  1.00  0.00     0.253 C 
ATOM     86  H   UNL A   1      31.935  25.663  23.475  1.00  0.00     0.164 HD
ATOM     87  O   UNL A   1      31.124  26.488  21.359  1.00  0.00    -0.269 OA
BRANCH  85  88
ATOM     88  C   UNL A   1      30.124  28.171  22.561  1.00  0.00     0.061 A 
ATOM     89  C   UNL A   1      30.548  29.416  22.081  1.00  0.00     0.035 A 
ATOM     90  C   UNL A   1      28.887  28.017  23.162  1.00  0.00     0.072 A 
ATOM     91  C   UNL A   1      29.662  30.470  22.166  1.00  0.00     0.112 A 
ATOM     92  C   UNL A   1      28.074  29.138  23.187  1.00  0.00     0.132 A 
ATOM     93  Cl  UNL A   1      28.337  26.532  23.828  1.00  0.00    -0.082 Cl
ATOM     94  N   UNL A   1      28.426  30.356  22.695  1.00  0.00    -0.263 NA
ENDBRANCH  85  88
ENDBRANCH  83  84
BRANCH  83  95
ATOM     95  C   UNL A   1      31.267  28.225  25.394  1.00  0.00     0.023 C 
ATOM     96  C   UNL A   1      31.645  28.980  26.651  1.00  0.00     0.007 C 
ATOM     97  C   UNL A   1      31.563  29.708  25.347  1.00  0.00     0.007 C 
ENDBRANCH  83  95
ENDBRANCH  81  83
ENDBRANCH  80  81
ENDBRANCH  79  80
ENDBRANCH  78  79
ENDBRANCH  77  78
ENDBRANCH  76  77
ENDBRANCH  75  76
ENDBRANCH  74  75
ENDBRANCH   1  74
TORSDOF 26
ENDMDL
MODEL 3
REMARK VINA RESULT:      -8.5      3.429      5.006
REMARK SMILES O=C(OCCOCCOCCOCCOC(=O)[C@@H](NC(=O)c1ccncc1Cl)C1CC1)c1ccc(-c2c3nc(c(-c4cccc(S(=O)(=O)[O-])c4F)c4ccc([nH]4)c(-c4cccc(S(=O)(=O)[O-])c4F)c4nc(c(-c5cccc(S(=O)(=O)[O-])c5F)c5ccc2[nH]5)C=C4)C=C3)cc1
REMARK SMILES IDX 8 1 7 2 6 3 5 4 4 5 3 6 2 7 1 8 32 9 33 10 94 11 34 12 93 13
REMARK SMILES IDX 35 14 36 15 37 16 87 17 38 18 92 19 86 20 88 21 39 22 91 23
REMARK SMILES IDX 85 24 84 25 40 27 72 28 52 29 71 30 53 31 56 32 70 33 89 34
REMARK SMILES IDX 54 35 55 36 69 38 90 39 57 40 41 41 42 42 50 43 43 44 45 45
REMARK SMILES IDX 51 46 44 47 46 48 47 49 48 50 49 51 73 52 74 53 82 54 75 55
REMARK SMILES IDX 77 56 83 57 76 58 78 59 79 60 80 61 81 62 58 63 59 64 67 65
REMARK SMILES IDX 60 66 62 67 68 68 61 69 63 70 64 71 65 72 66 73 9 74 10 75
REMARK SMILES IDX 11 76 12 77 13 78 14 79 15 80 16 81 17 82 18 83 19 84 20 85
REMARK SMILES IDX 21 87 22 88 23 89 27 90 24 91 26 92 28 93 25 94 29 95 30 96
REMARK SMILES IDX 31 97
REMARK H PARENT 88 26 56 37 19 86
REMARK Flexibility Score: inf
ROOT
ATOM      1  C   UNL A   1      34.943  21.931  24.434  1.00  0.00     0.188 C 
ENDROOT
BRANCH   1   2
ATOM      2  C   UNL A   1      35.315  20.574  25.016  1.00  0.00     0.188 C 
BRANCH   2   3
ATOM      3  O   UNL A   1      36.574  20.636  25.672  1.00  0.00    -0.376 OA
BRANCH   3   4
ATOM      4  C   UNL A   1      37.680  20.853  24.800  1.00  0.00     0.202 C 
BRANCH   4   5
ATOM      5  C   UNL A   1      38.941  21.276  25.557  1.00  0.00     0.261 C 
BRANCH   5   6
ATOM      6  O   UNL A   1      38.675  22.324  26.504  1.00  0.00    -0.460 OA
BRANCH   6   7
ATOM      7  C   UNL A   1      38.435  23.637  26.248  1.00  0.00     0.338 C 
ATOM      8  O   UNL A   1      37.558  23.912  25.428  1.00  0.00    -0.246 OA
BRANCH   7   9
ATOM      9  C   UNL A   1      39.155  24.776  26.907  1.00  0.00     0.060 A 
ATOM     10  C   UNL A   1      39.127  25.072  28.271  1.00  0.00     0.016 A 
ATOM     11  C   UNL A   1      39.980  25.574  26.092  1.00  0.00     0.016 A 
ATOM     12  C   UNL A   1      39.843  26.128  28.814  1.00  0.00     0.010 A 
ATOM     13  C   UNL A   1      40.711  26.643  26.627  1.00  0.00     0.010 A 
ATOM     14  C   UNL A   1      40.617  26.935  27.991  1.00  0.00    -0.014 A 
BRANCH  14  15
ATOM     15  C   UNL A   1      41.122  28.189  28.576  1.00  0.00     0.031 A 
ATOM     16  C   UNL A   1      40.109  29.171  29.081  1.00  0.00     0.074 A 
ATOM     17  C   UNL A   1      42.439  28.345  28.806  1.00  0.00     0.049 A 
ATOM     18  N   UNL A   1      40.291  30.334  29.643  1.00  0.00    -0.248 NA
ATOM     19  C   UNL A   1      38.693  28.775  28.961  1.00  0.00     0.031 C 
ATOM     20  C   UNL A   1      43.476  27.370  28.462  1.00  0.00     0.029 A 
ATOM     21  N   UNL A   1      43.125  29.368  29.401  1.00  0.00    -0.354 N 
ATOM     22  C   UNL A   1      39.018  30.824  29.904  1.00  0.00     0.074 A 
ATOM     23  C   UNL A   1      38.069  29.834  29.451  1.00  0.00     0.031 C 
ATOM     24  C   UNL A   1      44.671  27.849  28.846  1.00  0.00     0.029 A 
ATOM     25  C   UNL A   1      44.487  29.181  29.412  1.00  0.00     0.049 A 
ATOM     26  H   UNL A   1      42.686  30.161  29.785  1.00  0.00     0.167 HD
ATOM     27  C   UNL A   1      38.676  32.000  30.475  1.00  0.00     0.034 A 
ATOM     28  C   UNL A   1      45.467  30.018  29.805  1.00  0.00     0.034 A 
ATOM     29  C   UNL A   1      39.642  32.963  30.916  1.00  0.00     0.049 A 
ATOM     30  C   UNL A   1      45.060  31.357  30.367  1.00  0.00     0.074 A 
ATOM     31  C   UNL A   1      39.433  34.228  31.429  1.00  0.00     0.029 A 
ATOM     32  N   UNL A   1      41.015  32.754  30.895  1.00  0.00    -0.354 N 
ATOM     33  N   UNL A   1      43.853  31.824  30.594  1.00  0.00    -0.248 NA
ATOM     34  C   UNL A   1      46.139  32.278  30.740  1.00  0.00     0.031 C 
ATOM     35  C   UNL A   1      40.685  34.791  31.705  1.00  0.00     0.029 A 
ATOM     36  C   UNL A   1      41.670  33.865  31.388  1.00  0.00     0.049 A 
ATOM     37  H   UNL A   1      41.457  31.935  30.574  1.00  0.00     0.167 HD
ATOM     38  C   UNL A   1      44.027  33.082  31.154  1.00  0.00     0.074 A 
ATOM     39  C   UNL A   1      45.459  33.290  31.263  1.00  0.00     0.031 C 
ATOM     40  C   UNL A   1      43.098  33.998  31.524  1.00  0.00     0.034 A 
BRANCH  27  41
ATOM     41  C   UNL A   1      37.207  32.291  30.611  1.00  0.00     0.023 A 
ATOM     42  C   UNL A   1      36.521  31.907  31.782  1.00  0.00     0.012 A 
ATOM     43  C   UNL A   1      36.498  32.910  29.564  1.00  0.00     0.148 A 
ATOM     44  C   UNL A   1      35.144  32.100  31.892  1.00  0.00     0.002 A 
ATOM     45  C   UNL A   1      35.132  33.132  29.697  1.00  0.00     0.091 A 
ATOM     46  F   UNL A   1      37.164  33.239  28.450  1.00  0.00    -0.205 F 
ATOM     47  C   UNL A   1      34.451  32.717  30.854  1.00  0.00     0.022 A 
BRANCH  45  48
ATOM     48  S   UNL A   1      34.156  33.956  28.435  1.00  0.00     0.127 S 
ATOM     49  O   UNL A   1      34.051  32.913  27.415  1.00  0.00    -0.237 OA
ATOM     50  O   UNL A   1      32.911  34.237  29.149  1.00  0.00    -0.237 OA
ATOM     51  O   UNL A   1      34.915  35.135  28.043  1.00  0.00    -0.744 OA
ENDBRANCH  45  48
ENDBRANCH  27  41
BRANCH  28  52
ATOM     52  C   UNL A   1      46.902  29.631  29.667  1.00  0.00     0.023 A 
ATOM     53  C   UNL A   1      47.570  28.998  30.733  1.00  0.00     0.012 A 
ATOM     54  C   UNL A   1      47.615  29.890  28.477  1.00  0.00     0.148 A 
ATOM     55  C   UNL A   1      48.922  28.659  30.629  1.00  0.00     0.002 A 
ATOM     56  C   UNL A   1      48.944  29.497  28.359  1.00  0.00     0.091 A 
ATOM     57  F   UNL A   1      46.981  30.523  27.480  1.00  0.00    -0.205 F 
ATOM     58  C   UNL A   1      49.605  28.899  29.440  1.00  0.00     0.022 A 
BRANCH  56  59
ATOM     59  S   UNL A   1      49.845  29.649  26.812  1.00  0.00     0.127 S 
ATOM     60  O   UNL A   1      49.036  28.833  25.911  1.00  0.00    -0.237 OA
ATOM     61  O   UNL A   1      49.785  31.090  26.560  1.00  0.00    -0.237 OA
ATOM     62  O   UNL A   1      51.185  29.153  27.097  1.00  0.00    -0.744 OA
ENDBRANCH  56  59
ENDBRANCH  28  52
BRANCH  40  63
ATOM     63  C   UNL A   1      43.603  35.288  32.108  1.00  0.00     0.023 A 
ATOM     64  C   UNL A   1      43.983  35.339  33.463  1.00  0.00     0.012 A 
ATOM     65  C   UNL A   1      43.784  36.418  31.289  1.00  0.00     0.148 A 
ATOM     66  C   UNL A   1      44.513  36.510  34.001  1.00  0.00     0.002 A 
ATOM     67  C   UNL A   1      44.359  37.564  31.820  1.00  0.00     0.091 A 
ATOM     68  F   UNL A   1      43.392  36.349  30.008  1.00  0.00    -0.205 F 
ATOM     69  C   UNL A   1      44.714  37.615  33.178  1.00  0.00     0.022 A 
BRANCH  67  70
ATOM     70  S   UNL A   1      44.750  38.991  30.804  1.00  0.00     0.127 S 
ATOM     71  O   UNL A   1      45.680  38.420  29.833  1.00  0.00    -0.237 OA
ATOM     72  O   UNL A   1      43.441  39.352  30.257  1.00  0.00    -0.237 OA
ATOM     73  O   UNL A   1      45.316  39.981  31.710  1.00  0.00    -0.744 OA
ENDBRANCH  67  70
ENDBRANCH  40  63
ENDBRANCH  14  15
ENDBRANCH   7   9
ENDBRANCH   6   7
ENDBRANCH   5   6
ENDBRANCH   4   5
ENDBRANCH   3   4
ENDBRANCH   2   3
ENDBRANCH   1   2
BRANCH   1  74
ATOM     74  O   UNL A   1      34.053  22.732  25.211  1.00  0.00    -0.377 OA
BRANCH  74  75
ATOM     75  C   UNL A   1      33.378  22.150  26.327  1.00  0.00     0.188 C 
BRANCH  75  76
ATOM     76  C   UNL A   1      32.845  23.013  27.484  1.00  0.00     0.188 C 
BRANCH  76  77
ATOM     77  O   UNL A   1      31.642  23.726  27.243  1.00  0.00    -0.376 OA
BRANCH  77  78
ATOM     78  C   UNL A   1      31.114  23.590  25.926  1.00  0.00     0.202 C 
BRANCH  78  79
ATOM     79  C   UNL A   1      30.359  24.839  25.464  1.00  0.00     0.261 C 
BRANCH  79  80
ATOM     80  O   UNL A   1      30.147  24.944  24.046  1.00  0.00    -0.462 OA
BRANCH  80  81
ATOM     81  C   UNL A   1      30.312  26.166  23.477  1.00  0.00     0.329 C 
ATOM     82  O   UNL A   1      29.522  27.095  23.597  1.00  0.00    -0.250 OA
BRANCH  81  83
ATOM     83  C   UNL A   1      31.507  26.166  22.480  1.00  0.00     0.195 C 
BRANCH  83  84
ATOM     84  N   UNL A   1      32.046  27.529  22.282  1.00  0.00    -0.338 N 
ATOM     85  C   UNL A   1      32.818  28.382  23.007  1.00  0.00     0.253 C 
ATOM     86  H   UNL A   1      31.783  27.911  21.414  1.00  0.00     0.164 HD
ATOM     87  O   UNL A   1      33.442  29.300  22.480  1.00  0.00    -0.269 OA
BRANCH  85  88
ATOM     88  C   UNL A   1      32.742  28.368  24.460  1.00  0.00     0.061 A 
ATOM     89  C   UNL A   1      33.643  27.518  25.110  1.00  0.00     0.035 A 
ATOM     90  C   UNL A   1      31.809  29.104  25.170  1.00  0.00     0.072 A 
ATOM     91  C   UNL A   1      33.617  27.490  26.489  1.00  0.00     0.112 A 
ATOM     92  C   UNL A   1      31.876  29.009  26.550  1.00  0.00     0.132 A 
ATOM     93  Cl  UNL A   1      30.635  30.114  24.427  1.00  0.00    -0.082 Cl
ATOM     94  N   UNL A   1      32.761  28.230  27.227  1.00  0.00    -0.263 NA
ENDBRANCH  85  88
ENDBRANCH  83  84
BRANCH  83  95
ATOM     95  C   UNL A   1      32.532  25.178  22.971  1.00  0.00     0.023 C 
ATOM     96  C   UNL A   1      32.908  23.982  22.121  1.00  0.00     0.007 C 
ATOM     97  C   UNL A   1      33.899  25.083  22.330  1.00  0.00     0.007 C 
ENDBRANCH  83  95
ENDBRANCH  81  83
ENDBRANCH  80  81
ENDBRANCH  79  80
ENDBRANCH  78  79
ENDBRANCH  77  78
ENDBRANCH  76  77
ENDBRANCH  75  76
ENDBRANCH  74  75
ENDBRANCH   1  74
TORSDOF 26
ENDMDL
