MODEL 1
REMARK VINA RESULT:      -8.0      0.000      0.000
REMARK SMILES C[C@H](C(=O)OCCOCCOCCOCCOC(=O)c1ccc(-c2c3nc(c(-c4cccc(S(=O)(=O)[O-])c4F)c4ccc([nH]4)c(-c4cccc(S(=O)(=O)[O-])c4F)c4nc(c(-c5cccc(S(=O)(=O)[O-])c5F)c5ccc2[nH]5)C=C4)C=C3)cc1)c1ccc(C[C@H]2CCC[C@@H]2O)cc1
REMARK SMILES IDX 10 1 9 2 8 3 7 4 6 5 5 6 3 7 4 8 2 9 1 10 83 11 84 12 95 13
REMARK SMILES IDX 85 14 94 15 86 16 87 17 88 18 89 19 92 20 90 21 91 22 93 23
REMARK SMILES IDX 11 25 12 26 13 27 14 28 15 29 16 30 17 31 18 32 19 33 20 34
REMARK SMILES IDX 21 35 82 36 22 37 81 38 23 39 24 40 25 41 75 42 26 43 80 44
REMARK SMILES IDX 74 45 76 46 27 47 79 48 73 49 72 50 28 52 60 53 40 54 59 55
REMARK SMILES IDX 41 56 44 57 58 58 77 59 42 60 43 61 57 63 78 64 45 65 29 66
REMARK SMILES IDX 30 67 38 68 31 69 33 70 39 71 32 72 34 73 35 74 36 75 37 76
REMARK SMILES IDX 61 77 62 78 70 79 63 80 65 81 71 82 64 83 66 84 67 85 68 86
REMARK SMILES IDX 69 87 46 88 47 89 55 90 48 91 50 92 56 93 49 94 51 95 52 96
REMARK SMILES IDX 53 97 54 98
REMARK H PARENT 93 24 76 51 44 62
REMARK Flexibility Score: inf
ROOT
ATOM      1  C   UNL A   1      40.703  21.801  27.487  1.00  0.00     0.188 C 
ENDROOT
BRANCH   1   2
ATOM      2  C   UNL A   1      39.861  21.644  26.203  1.00  0.00     0.188 C 
BRANCH   2   3
ATOM      3  O   UNL A   1      38.437  21.722  26.222  1.00  0.00    -0.376 OA
BRANCH   3   4
ATOM      4  C   UNL A   1      37.792  22.880  25.720  1.00  0.00     0.202 C 
BRANCH   4   5
ATOM      5  C   UNL A   1      36.275  23.035  25.953  1.00  0.00     0.261 C 
BRANCH   5   6
ATOM      6  O   UNL A   1      35.562  21.872  26.427  1.00  0.00    -0.463 OA
BRANCH   6   7
ATOM      7  C   UNL A   1      34.462  21.517  25.717  1.00  0.00     0.313 C 
ATOM      8  O   UNL A   1      34.524  21.020  24.594  1.00  0.00    -0.252 OA
BRANCH   7   9
ATOM      9  C   UNL A   1      33.125  21.876  26.393  1.00  0.00     0.126 C 
ATOM     10  C   UNL A   1      33.419  22.029  27.897  1.00  0.00     0.025 C 
BRANCH   9  11
ATOM     11  C   UNL A   1      32.328  23.088  25.885  1.00  0.00    -0.034 A 
ATOM     12  C   UNL A   1      31.921  24.133  26.733  1.00  0.00     0.005 A 
ATOM     13  C   UNL A   1      31.956  23.186  24.533  1.00  0.00     0.005 A 
ATOM     14  C   UNL A   1      31.168  25.218  26.261  1.00  0.00     0.004 A 
ATOM     15  C   UNL A   1      31.185  24.267  24.063  1.00  0.00     0.004 A 
ATOM     16  C   UNL A   1      30.754  25.281  24.929  1.00  0.00    -0.048 A 
BRANCH  16  17
ATOM     17  C   UNL A   1      29.873  26.411  24.436  1.00  0.00     0.041 C 
BRANCH  17  18
ATOM     18  C   UNL A   1      30.582  27.714  24.009  1.00  0.00     0.022 C 
ATOM     19  C   UNL A   1      31.458  28.370  25.091  1.00  0.00     0.007 C 
ATOM     20  C   UNL A   1      31.484  27.613  22.769  1.00  0.00     0.117 C 
ATOM     21  C   UNL A   1      32.775  28.741  24.409  1.00  0.00     0.003 C 
ATOM     22  C   UNL A   1      32.448  28.779  22.928  1.00  0.00     0.032 C 
BRANCH  20  23
ATOM     23  O   UNL A   1      30.753  27.740  21.562  1.00  0.00    -0.393 OA
ATOM     24  H   UNL A   1      29.897  27.293  21.654  1.00  0.00     0.210 HD
ENDBRANCH  20  23
ENDBRANCH  17  18
ENDBRANCH  16  17
ENDBRANCH   9  11
ENDBRANCH   7   9
ENDBRANCH   6   7
ENDBRANCH   5   6
ENDBRANCH   4   5
ENDBRANCH   3   4
ENDBRANCH   2   3
ENDBRANCH   1   2
BRANCH   1  25
ATOM     25  O   UNL A   1      41.765  22.727  27.386  1.00  0.00    -0.377 OA
BRANCH  25  26
ATOM     26  C   UNL A   1      41.780  23.735  28.371  1.00  0.00     0.188 C 
BRANCH  26  27
ATOM     27  C   UNL A   1      42.352  25.077  27.891  1.00  0.00     0.188 C 
BRANCH  27  28
ATOM     28  O   UNL A   1      41.549  26.192  28.270  1.00  0.00    -0.376 OA
BRANCH  28  29
ATOM     29  C   UNL A   1      40.382  26.471  27.512  1.00  0.00     0.202 C 
BRANCH  29  30
ATOM     30  C   UNL A   1      39.301  27.352  28.163  1.00  0.00     0.261 C 
BRANCH  30  31
ATOM     31  O   UNL A   1      39.750  28.409  29.023  1.00  0.00    -0.460 OA
BRANCH  31  32
ATOM     32  C   UNL A   1      38.832  29.285  29.488  1.00  0.00     0.338 C 
ATOM     33  O   UNL A   1      37.676  29.037  29.787  1.00  0.00    -0.246 OA
BRANCH  32  34
ATOM     34  C   UNL A   1      39.531  30.555  29.792  1.00  0.00     0.060 A 
ATOM     35  C   UNL A   1      40.927  30.537  29.926  1.00  0.00     0.016 A 
ATOM     36  C   UNL A   1      38.830  31.759  29.903  1.00  0.00     0.016 A 
ATOM     37  C   UNL A   1      41.622  31.715  30.195  1.00  0.00     0.010 A 
ATOM     38  C   UNL A   1      39.525  32.935  30.208  1.00  0.00     0.010 A 
ATOM     39  C   UNL A   1      40.920  32.910  30.390  1.00  0.00    -0.014 A 
BRANCH  39  40
ATOM     40  C   UNL A   1      41.612  34.067  31.007  1.00  0.00     0.031 A 
ATOM     41  C   UNL A   1      41.687  34.121  32.509  1.00  0.00     0.074 A 
ATOM     42  C   UNL A   1      42.172  35.039  30.265  1.00  0.00     0.049 A 
ATOM     43  N   UNL A   1      42.213  35.033  33.283  1.00  0.00    -0.248 NA
ATOM     44  C   UNL A   1      41.084  32.991  33.236  1.00  0.00     0.031 C 
ATOM     45  C   UNL A   1      42.188  35.090  28.805  1.00  0.00     0.029 A 
ATOM     46  N   UNL A   1      42.821  36.187  30.650  1.00  0.00    -0.354 N 
ATOM     47  C   UNL A   1      41.977  34.606  34.584  1.00  0.00     0.074 A 
ATOM     48  C   UNL A   1      41.254  33.356  34.497  1.00  0.00     0.031 C 
ATOM     49  C   UNL A   1      42.790  36.229  28.415  1.00  0.00     0.029 A 
ATOM     50  C   UNL A   1      43.178  36.997  29.598  1.00  0.00     0.049 A 
ATOM     51  H   UNL A   1      43.013  36.409  31.590  1.00  0.00     0.167 HD
ATOM     52  C   UNL A   1      42.334  35.195  35.748  1.00  0.00     0.034 A 
ATOM     53  C   UNL A   1      43.730  38.228  29.594  1.00  0.00     0.034 A 
ATOM     54  C   UNL A   1      43.061  36.430  35.833  1.00  0.00     0.049 A 
ATOM     55  C   UNL A   1      44.083  38.882  30.908  1.00  0.00     0.074 A 
ATOM     56  C   UNL A   1      43.512  37.084  36.965  1.00  0.00     0.029 A 
ATOM     57  N   UNL A   1      43.425  37.209  34.747  1.00  0.00    -0.354 N 
ATOM     58  N   UNL A   1      43.955  38.414  32.127  1.00  0.00    -0.248 NA
ATOM     59  C   UNL A   1      44.685  40.222  30.844  1.00  0.00     0.031 C 
ATOM     60  C   UNL A   1      44.113  38.282  36.565  1.00  0.00     0.029 A 
ATOM     61  C   UNL A   1      44.079  38.350  35.181  1.00  0.00     0.049 A 
ATOM     62  H   UNL A   1      43.247  36.985  33.805  1.00  0.00     0.167 HD
ATOM     63  C   UNL A   1      44.499  39.381  32.968  1.00  0.00     0.074 A 
ATOM     64  C   UNL A   1      44.972  40.454  32.118  1.00  0.00     0.031 C 
ATOM     65  C   UNL A   1      44.592  39.385  34.321  1.00  0.00     0.034 A 
BRANCH  52  66
ATOM     66  C   UNL A   1      41.941  34.507  37.028  1.00  0.00     0.023 A 
ATOM     67  C   UNL A   1      40.623  34.620  37.514  1.00  0.00     0.012 A 
ATOM     68  C   UNL A   1      42.870  33.709  37.723  1.00  0.00     0.148 A 
ATOM     69  C   UNL A   1      40.244  33.973  38.689  1.00  0.00     0.002 A 
ATOM     70  C   UNL A   1      42.471  33.028  38.867  1.00  0.00     0.091 A 
ATOM     71  F   UNL A   1      44.125  33.637  37.258  1.00  0.00    -0.205 F 
ATOM     72  C   UNL A   1      41.164  33.168  39.358  1.00  0.00     0.022 A 
BRANCH  70  73
ATOM     73  S   UNL A   1      43.557  31.905  39.753  1.00  0.00     0.127 S 
ATOM     74  O   UNL A   1      44.623  32.808  40.184  1.00  0.00    -0.237 OA
ATOM     75  O   UNL A   1      42.690  31.426  40.828  1.00  0.00    -0.237 OA
ATOM     76  O   UNL A   1      43.956  30.887  38.791  1.00  0.00    -0.744 OA
ENDBRANCH  70  73
ENDBRANCH  52  66
BRANCH  53  77
ATOM     77  C   UNL A   1      44.007  38.926  28.305  1.00  0.00     0.023 A 
ATOM     78  C   UNL A   1      43.045  39.802  27.765  1.00  0.00     0.012 A 
ATOM     79  C   UNL A   1      45.213  38.717  27.608  1.00  0.00     0.148 A 
ATOM     80  C   UNL A   1      43.263  40.429  26.537  1.00  0.00     0.002 A 
ATOM     81  C   UNL A   1      45.448  39.389  26.413  1.00  0.00     0.091 A 
ATOM     82  F   UNL A   1      46.108  37.867  28.128  1.00  0.00    -0.205 F 
ATOM     83  C   UNL A   1      44.468  40.231  25.866  1.00  0.00     0.022 A 
BRANCH  81  84
ATOM     84  S   UNL A   1      47.015  39.288  25.541  1.00  0.00     0.127 S 
ATOM     85  O   UNL A   1      46.725  40.031  24.317  1.00  0.00    -0.237 OA
ATOM     86  O   UNL A   1      47.920  39.962  26.472  1.00  0.00    -0.237 OA
ATOM     87  O   UNL A   1      47.279  37.866  25.367  1.00  0.00    -0.744 OA
ENDBRANCH  81  84
ENDBRANCH  53  77
BRANCH  65  88
ATOM     88  C   UNL A   1      45.276  40.557  34.979  1.00  0.00     0.023 A 
ATOM     89  C   UNL A   1      44.521  41.659  35.426  1.00  0.00     0.012 A 
ATOM     90  C   UNL A   1      46.664  40.525  35.226  1.00  0.00     0.148 A 
ATOM     91  C   UNL A   1      45.142  42.726  36.075  1.00  0.00     0.002 A 
ATOM     92  C   UNL A   1      47.265  41.565  35.921  1.00  0.00     0.091 A 
ATOM     93  F   UNL A   1      47.368  39.473  34.780  1.00  0.00    -0.205 F 
ATOM     94  C   UNL A   1      46.509  42.674  36.333  1.00  0.00     0.022 A 
BRANCH  92  95
ATOM     95  S   UNL A   1      49.000  41.536  36.388  1.00  0.00     0.127 S 
ATOM     96  O   UNL A   1      49.178  42.871  36.957  1.00  0.00    -0.237 OA
ATOM     97  O   UNL A   1      49.038  40.447  37.365  1.00  0.00    -0.237 OA
ATOM     98  O   UNL A   1      49.744  41.276  35.163  1.00  0.00    -0.744 OA
ENDBRANCH  92  95
ENDBRANCH  65  88
ENDBRANCH  39  40
ENDBRANCH  32  34
ENDBRANCH  31  32
ENDBRANCH  30  31
ENDBRANCH  29  30
ENDBRANCH  28  29
ENDBRANCH  27  28
ENDBRANCH  26  27
ENDBRANCH  25  26
ENDBRANCH   1  25
TORSDOF 27
ENDMDL
MODEL 2
REMARK VINA RESULT:      -7.8      7.089     12.153
REMARK SMILES C[C@H](C(=O)OCCOCCOCCOCCOC(=O)c1ccc(-c2c3nc(c(-c4cccc(S(=O)(=O)[O-])c4F)c4ccc([nH]4)c(-c4cccc(S(=O)(=O)[O-])c4F)c4nc(c(-c5cccc(S(=O)(=O)[O-])c5F)c5ccc2[nH]5)C=C4)C=C3)cc1)c1ccc(C[C@H]2CCC[C@@H]2O)cc1
REMARK SMILES IDX 10 1 9 2 8 3 7 4 6 5 5 6 3 7 4 8 2 9 1 10 83 11 84 12 95 13
REMARK SMILES IDX 85 14 94 15 86 16 87 17 88 18 89 19 92 20 90 21 91 22 93 23
REMARK SMILES IDX 11 25 12 26 13 27 14 28 15 29 16 30 17 31 18 32 19 33 20 34
REMARK SMILES IDX 21 35 82 36 22 37 81 38 23 39 24 40 25 41 75 42 26 43 80 44
REMARK SMILES IDX 74 45 76 46 27 47 79 48 73 49 72 50 28 52 60 53 40 54 59 55
REMARK SMILES IDX 41 56 44 57 58 58 77 59 42 60 43 61 57 63 78 64 45 65 29 66
REMARK SMILES IDX 30 67 38 68 31 69 33 70 39 71 32 72 34 73 35 74 36 75 37 76
REMARK SMILES IDX 61 77 62 78 70 79 63 80 65 81 71 82 64 83 66 84 67 85 68 86
REMARK SMILES IDX 69 87 46 88 47 89 55 90 48 91 50 92 56 93 49 94 51 95 52 96
REMARK SMILES IDX 53 97 54 98
REMARK H PARENT 93 24 76 51 44 62
REMARK Flexibility Score: inf
ROOT
ATOM      1  C   UNL A   1      34.531  33.953  33.482  1.00  0.00     0.188 C 
ENDROOT
BRANCH   1   2
ATOM      2  C   UNL A   1      34.560  34.697  32.130  1.00  0.00     0.188 C 
BRANCH   2   3
ATOM      3  O   UNL A   1      33.565  34.481  31.130  1.00  0.00    -0.376 OA
BRANCH   3   4
ATOM      4  C   UNL A   1      33.954  34.332  29.776  1.00  0.00     0.202 C 
BRANCH   4   5
ATOM      5  C   UNL A   1      35.315  33.673  29.470  1.00  0.00     0.261 C 
BRANCH   5   6
ATOM      6  O   UNL A   1      35.394  32.237  29.607  1.00  0.00    -0.463 OA
BRANCH   6   7
ATOM      7  C   UNL A   1      35.308  31.524  28.456  1.00  0.00     0.313 C 
ATOM      8  O   UNL A   1      34.913  32.010  27.398  1.00  0.00    -0.252 OA
BRANCH   7   9
ATOM      9  C   UNL A   1      35.657  30.031  28.605  1.00  0.00     0.126 C 
ATOM     10  C   UNL A   1      34.765  29.269  27.607  1.00  0.00     0.025 C 
BRANCH   9  11
ATOM     11  C   UNL A   1      37.119  29.583  28.455  1.00  0.00    -0.034 A 
ATOM     12  C   UNL A   1      37.845  29.007  29.513  1.00  0.00     0.005 A 
ATOM     13  C   UNL A   1      37.800  29.753  27.236  1.00  0.00     0.005 A 
ATOM     14  C   UNL A   1      39.188  28.632  29.370  1.00  0.00     0.004 A 
ATOM     15  C   UNL A   1      39.154  29.392  27.099  1.00  0.00     0.004 A 
ATOM     16  C   UNL A   1      39.876  28.855  28.175  1.00  0.00    -0.048 A 
BRANCH  16  17
ATOM     17  C   UNL A   1      41.348  28.524  28.045  1.00  0.00     0.041 C 
BRANCH  17  18
ATOM     18  C   UNL A   1      41.704  27.115  27.524  1.00  0.00     0.022 C 
ATOM     19  C   UNL A   1      41.170  25.948  28.374  1.00  0.00     0.007 C 
ATOM     20  C   UNL A   1      41.264  26.799  26.086  1.00  0.00     0.117 C 
ATOM     21  C   UNL A   1      40.565  24.945  27.391  1.00  0.00     0.003 C 
ATOM     22  C   UNL A   1      41.199  25.280  26.053  1.00  0.00     0.032 C 
BRANCH  20  23
ATOM     23  O   UNL A   1      42.192  27.273  25.125  1.00  0.00    -0.393 OA
ATOM     24  H   UNL A   1      41.714  27.572  24.335  1.00  0.00     0.210 HD
ENDBRANCH  20  23
ENDBRANCH  17  18
ENDBRANCH  16  17
ENDBRANCH   9  11
ENDBRANCH   7   9
ENDBRANCH   6   7
ENDBRANCH   5   6
ENDBRANCH   4   5
ENDBRANCH   3   4
ENDBRANCH   2   3
ENDBRANCH   1   2
BRANCH   1  25
ATOM     25  O   UNL A   1      35.711  33.239  33.788  1.00  0.00    -0.377 OA
BRANCH  25  26
ATOM     26  C   UNL A   1      35.967  32.120  32.969  1.00  0.00     0.188 C 
BRANCH  26  27
ATOM     27  C   UNL A   1      37.303  31.421  33.258  1.00  0.00     0.188 C 
BRANCH  27  28
ATOM     28  O   UNL A   1      38.153  31.349  32.114  1.00  0.00    -0.376 OA
BRANCH  28  29
ATOM     29  C   UNL A   1      38.214  32.472  31.249  1.00  0.00     0.202 C 
BRANCH  29  30
ATOM     30  C   UNL A   1      39.247  33.567  31.573  1.00  0.00     0.261 C 
BRANCH  30  31
ATOM     31  O   UNL A   1      40.104  33.343  32.701  1.00  0.00    -0.460 OA
BRANCH  31  32
ATOM     32  C   UNL A   1      41.324  33.925  32.699  1.00  0.00     0.338 C 
ATOM     33  O   UNL A   1      41.585  35.067  33.037  1.00  0.00    -0.246 OA
BRANCH  32  34
ATOM     34  C   UNL A   1      42.329  32.869  32.436  1.00  0.00     0.060 A 
ATOM     35  C   UNL A   1      42.021  31.548  32.789  1.00  0.00     0.016 A 
ATOM     36  C   UNL A   1      43.544  33.165  31.811  1.00  0.00     0.016 A 
ATOM     37  C   UNL A   1      42.935  30.523  32.541  1.00  0.00     0.010 A 
ATOM     38  C   UNL A   1      44.474  32.142  31.595  1.00  0.00     0.010 A 
ATOM     39  C   UNL A   1      44.187  30.824  31.992  1.00  0.00    -0.014 A 
BRANCH  39  40
ATOM     40  C   UNL A   1      45.267  29.810  32.050  1.00  0.00     0.031 A 
ATOM     41  C   UNL A   1      45.979  29.616  33.361  1.00  0.00     0.074 A 
ATOM     42  C   UNL A   1      45.606  29.069  30.979  1.00  0.00     0.049 A 
ATOM     43  N   UNL A   1      46.966  28.815  33.661  1.00  0.00    -0.248 NA
ATOM     44  C   UNL A   1      45.511  30.441  34.489  1.00  0.00     0.031 C 
ATOM     45  C   UNL A   1      44.979  29.145  29.662  1.00  0.00     0.029 A 
ATOM     46  N   UNL A   1      46.584  28.116  30.833  1.00  0.00    -0.354 N 
ATOM     47  C   UNL A   1      47.260  29.062  34.997  1.00  0.00     0.074 A 
ATOM     48  C   UNL A   1      46.351  30.091  35.450  1.00  0.00     0.031 C 
ATOM     49  C   UNL A   1      45.608  28.295  28.830  1.00  0.00     0.029 A 
ATOM     50  C   UNL A   1      46.698  27.636  29.550  1.00  0.00     0.049 A 
ATOM     51  H   UNL A   1      47.151  27.806  31.576  1.00  0.00     0.167 HD
ATOM     52  C   UNL A   1      48.197  28.481  35.780  1.00  0.00     0.034 A 
ATOM     53  C   UNL A   1      47.595  26.782  29.015  1.00  0.00     0.034 A 
ATOM     54  C   UNL A   1      49.092  27.451  35.333  1.00  0.00     0.049 A 
ATOM     55  C   UNL A   1      48.656  26.176  29.902  1.00  0.00     0.074 A 
ATOM     56  C   UNL A   1      50.045  26.764  36.064  1.00  0.00     0.029 A 
ATOM     57  N   UNL A   1      49.162  26.974  34.034  1.00  0.00    -0.354 N 
ATOM     58  N   UNL A   1      48.849  26.335  31.189  1.00  0.00    -0.248 NA
ATOM     59  C   UNL A   1      49.606  25.251  29.266  1.00  0.00     0.031 C 
ATOM     60  C   UNL A   1      50.720  25.901  35.195  1.00  0.00     0.029 A 
ATOM     61  C   UNL A   1      50.155  26.015  33.935  1.00  0.00     0.049 A 
ATOM     62  H   UNL A   1      48.589  27.272  33.291  1.00  0.00     0.167 HD
ATOM     63  C   UNL A   1      49.909  25.498  31.525  1.00  0.00     0.074 A 
ATOM     64  C   UNL A   1      50.307  24.823  30.307  1.00  0.00     0.031 C 
ATOM     65  C   UNL A   1      50.505  25.311  32.728  1.00  0.00     0.034 A 
BRANCH  52  66
ATOM     66  C   UNL A   1      48.302  28.947  37.207  1.00  0.00     0.023 A 
ATOM     67  C   UNL A   1      49.199  29.979  37.549  1.00  0.00     0.012 A 
ATOM     68  C   UNL A   1      47.472  28.394  38.202  1.00  0.00     0.148 A 
ATOM     69  C   UNL A   1      49.291  30.431  38.865  1.00  0.00     0.002 A 
ATOM     70  C   UNL A   1      47.536  28.883  39.501  1.00  0.00     0.091 A 
ATOM     71  F   UNL A   1      46.645  27.396  37.861  1.00  0.00    -0.205 F 
ATOM     72  C   UNL A   1      48.452  29.892  39.837  1.00  0.00     0.022 A 
BRANCH  70  73
ATOM     73  S   UNL A   1      46.441  28.311  40.805  1.00  0.00     0.127 S 
ATOM     74  O   UNL A   1      46.695  26.871  40.790  1.00  0.00    -0.237 OA
ATOM     75  O   UNL A   1      46.968  29.012  41.975  1.00  0.00    -0.237 OA
ATOM     76  O   UNL A   1      45.098  28.709  40.408  1.00  0.00    -0.744 OA
ENDBRANCH  70  73
ENDBRANCH  52  66
BRANCH  53  77
ATOM     77  C   UNL A   1      47.526  26.425  27.568  1.00  0.00     0.023 A 
ATOM     78  C   UNL A   1      48.260  27.174  26.628  1.00  0.00     0.012 A 
ATOM     79  C   UNL A   1      46.728  25.354  27.119  1.00  0.00     0.148 A 
ATOM     80  C   UNL A   1      48.174  26.887  25.265  1.00  0.00     0.002 A 
ATOM     81  C   UNL A   1      46.691  25.037  25.766  1.00  0.00     0.091 A 
ATOM     82  F   UNL A   1      46.023  24.663  28.026  1.00  0.00    -0.205 F 
ATOM     83  C   UNL A   1      47.397  25.814  24.835  1.00  0.00     0.022 A 
BRANCH  81  84
ATOM     84  S   UNL A   1      45.815  23.602  25.134  1.00  0.00     0.127 S 
ATOM     85  O   UNL A   1      46.166  23.638  23.716  1.00  0.00    -0.237 OA
ATOM     86  O   UNL A   1      46.433  22.516  25.895  1.00  0.00    -0.237 OA
ATOM     87  O   UNL A   1      44.410  23.830  25.442  1.00  0.00    -0.744 OA
ENDBRANCH  81  84
ENDBRANCH  53  77
BRANCH  65  88
ATOM     88  C   UNL A   1      51.620  24.299  32.815  1.00  0.00     0.023 A 
ATOM     89  C   UNL A   1      52.956  24.694  32.603  1.00  0.00     0.012 A 
ATOM     90  C   UNL A   1      51.345  22.967  33.189  1.00  0.00     0.148 A 
ATOM     91  C   UNL A   1      53.994  23.772  32.725  1.00  0.00     0.002 A 
ATOM     92  C   UNL A   1      52.389  22.069  33.362  1.00  0.00     0.091 A 
ATOM     93  F   UNL A   1      50.066  22.607  33.373  1.00  0.00    -0.205 F 
ATOM     94  C   UNL A   1      53.714  22.465  33.117  1.00  0.00     0.022 A 
BRANCH  92  95
ATOM     95  S   UNL A   1      52.132  20.395  33.963  1.00  0.00     0.127 S 
ATOM     96  O   UNL A   1      53.175  19.659  33.251  1.00  0.00    -0.237 OA
ATOM     97  O   UNL A   1      52.364  20.544  35.400  1.00  0.00    -0.237 OA
ATOM     98  O   UNL A   1      50.765  20.044  33.604  1.00  0.00    -0.744 OA
ENDBRANCH  92  95
ENDBRANCH  65  88
ENDBRANCH  39  40
ENDBRANCH  32  34
ENDBRANCH  31  32
ENDBRANCH  30  31
ENDBRANCH  29  30
ENDBRANCH  28  29
ENDBRANCH  27  28
ENDBRANCH  26  27
ENDBRANCH  25  26
ENDBRANCH   1  25
TORSDOF 27
ENDMDL
MODEL 3
REMARK VINA RESULT:      -7.7      5.799     15.881
REMARK SMILES C[C@H](C(=O)OCCOCCOCCOCCOC(=O)c1ccc(-c2c3nc(c(-c4cccc(S(=O)(=O)[O-])c4F)c4ccc([nH]4)c(-c4cccc(S(=O)(=O)[O-])c4F)c4nc(c(-c5cccc(S(=O)(=O)[O-])c5F)c5ccc2[nH]5)C=C4)C=C3)cc1)c1ccc(C[C@H]2CCC[C@@H]2O)cc1
REMARK SMILES IDX 10 1 9 2 8 3 7 4 6 5 5 6 3 7 4 8 2 9 1 10 83 11 84 12 95 13
REMARK SMILES IDX 85 14 94 15 86 16 87 17 88 18 89 19 92 20 90 21 91 22 93 23
REMARK SMILES IDX 11 25 12 26 13 27 14 28 15 29 16 30 17 31 18 32 19 33 20 34
REMARK SMILES IDX 21 35 82 36 22 37 81 38 23 39 24 40 25 41 75 42 26 43 80 44
REMARK SMILES IDX 74 45 76 46 27 47 79 48 73 49 72 50 28 52 60 53 40 54 59 55
REMARK SMILES IDX 41 56 44 57 58 58 77 59 42 60 43 61 57 63 78 64 45 65 29 66
REMARK SMILES IDX 30 67 38 68 31 69 33 70 39 71 32 72 34 73 35 74 36 75 37 76
REMARK SMILES IDX 61 77 62 78 70 79 63 80 65 81 71 82 64 83 66 84 67 85 68 86
REMARK SMILES IDX 69 87 46 88 47 89 55 90 48 91 50 92 56 93 49 94 51 95 52 96
REMARK SMILES IDX 53 97 54 98
REMARK H PARENT 93 24 76 51 44 62
REMARK Flexibility Score: inf
ROOT
ATOM      1  C   UNL A   1      44.113  40.529  29.952  1.00  0.00     0.188 C 
ENDROOT
BRANCH   1   2
ATOM      2  C   UNL A   1      43.911  39.797  28.609  1.00  0.00     0.188 C 
BRANCH   2   3
ATOM      3  O   UNL A   1      42.735  39.978  27.822  1.00  0.00    -0.376 OA
BRANCH   3   4
ATOM      4  C   UNL A   1      42.832  39.981  26.408  1.00  0.00     0.202 C 
BRANCH   4   5
ATOM      5  C   UNL A   1      42.389  41.247  25.645  1.00  0.00     0.261 C 
BRANCH   5   6
ATOM      6  O   UNL A   1      43.181  41.634  24.501  1.00  0.00    -0.463 OA
BRANCH   6   7
ATOM      7  C   UNL A   1      42.791  42.766  23.862  1.00  0.00     0.313 C 
ATOM      8  O   UNL A   1      41.660  42.917  23.406  1.00  0.00    -0.252 OA
BRANCH   7   9
ATOM      9  C   UNL A   1      43.910  43.808  23.672  1.00  0.00     0.126 C 
ATOM     10  C   UNL A   1      45.117  43.312  24.491  1.00  0.00     0.025 C 
BRANCH   9  11
ATOM     11  C   UNL A   1      44.354  44.181  22.250  1.00  0.00    -0.034 A 
ATOM     12  C   UNL A   1      44.939  45.423  21.943  1.00  0.00     0.005 A 
ATOM     13  C   UNL A   1      44.172  43.284  21.182  1.00  0.00     0.005 A 
ATOM     14  C   UNL A   1      45.311  45.762  20.634  1.00  0.00     0.004 A 
ATOM     15  C   UNL A   1      44.531  43.632  19.866  1.00  0.00     0.004 A 
ATOM     16  C   UNL A   1      45.075  44.889  19.569  1.00  0.00    -0.048 A 
BRANCH  16  17
ATOM     17  C   UNL A   1      45.403  45.286  18.144  1.00  0.00     0.041 C 
BRANCH  17  18
ATOM     18  C   UNL A   1      44.219  45.704  17.246  1.00  0.00     0.022 C 
ATOM     19  C   UNL A   1      43.438  44.541  16.607  1.00  0.00     0.007 C 
ATOM     20  C   UNL A   1      43.151  46.588  17.908  1.00  0.00     0.117 C 
ATOM     21  C   UNL A   1      41.957  44.861  16.806  1.00  0.00     0.003 C 
ATOM     22  C   UNL A   1      41.911  46.356  17.059  1.00  0.00     0.032 C 
BRANCH  20  23
ATOM     23  O   UNL A   1      43.507  47.960  17.896  1.00  0.00    -0.393 OA
ATOM     24  H   UNL A   1      43.352  48.326  17.011  1.00  0.00     0.210 HD
ENDBRANCH  20  23
ENDBRANCH  17  18
ENDBRANCH  16  17
ENDBRANCH   9  11
ENDBRANCH   7   9
ENDBRANCH   6   7
ENDBRANCH   5   6
ENDBRANCH   4   5
ENDBRANCH   3   4
ENDBRANCH   2   3
ENDBRANCH   1   2
BRANCH   1  25
ATOM     25  O   UNL A   1      44.795  41.762  29.855  1.00  0.00    -0.377 OA
BRANCH  25  26
ATOM     26  C   UNL A   1      44.634  42.628  30.956  1.00  0.00     0.188 C 
BRANCH  26  27
ATOM     27  C   UNL A   1      45.881  42.760  31.841  1.00  0.00     0.188 C 
BRANCH  27  28
ATOM     28  O   UNL A   1      45.689  43.644  32.945  1.00  0.00    -0.376 OA
BRANCH  28  29
ATOM     29  C   UNL A   1      45.299  43.089  34.191  1.00  0.00     0.202 C 
BRANCH  29  30
ATOM     30  C   UNL A   1      45.816  41.682  34.541  1.00  0.00     0.261 C 
BRANCH  30  31
ATOM     31  O   UNL A   1      44.841  40.636  34.653  1.00  0.00    -0.460 OA
BRANCH  31  32
ATOM     32  C   UNL A   1      45.187  39.511  35.317  1.00  0.00     0.338 C 
ATOM     33  O   UNL A   1      45.680  39.447  36.430  1.00  0.00    -0.246 OA
BRANCH  32  34
ATOM     34  C   UNL A   1      44.655  38.355  34.558  1.00  0.00     0.060 A 
ATOM     35  C   UNL A   1      44.658  37.094  35.169  1.00  0.00     0.016 A 
ATOM     36  C   UNL A   1      44.120  38.515  33.277  1.00  0.00     0.016 A 
ATOM     37  C   UNL A   1      44.149  35.985  34.493  1.00  0.00     0.010 A 
ATOM     38  C   UNL A   1      43.642  37.396  32.586  1.00  0.00     0.010 A 
ATOM     39  C   UNL A   1      43.688  36.121  33.179  1.00  0.00    -0.014 A 
BRANCH  39  40
ATOM     40  C   UNL A   1      43.476  34.907  32.354  1.00  0.00     0.031 A 
ATOM     41  C   UNL A   1      44.663  34.336  31.627  1.00  0.00     0.074 A 
ATOM     42  C   UNL A   1      42.273  34.314  32.257  1.00  0.00     0.049 A 
ATOM     43  N   UNL A   1      44.733  33.304  30.830  1.00  0.00    -0.248 NA
ATOM     44  C   UNL A   1      45.949  35.028  31.828  1.00  0.00     0.031 C 
ATOM     45  C   UNL A   1      41.053  34.755  32.928  1.00  0.00     0.029 A 
ATOM     46  N   UNL A   1      41.881  33.216  31.530  1.00  0.00    -0.354 N 
ATOM     47  C   UNL A   1      46.055  33.240  30.408  1.00  0.00     0.074 A 
ATOM     48  C   UNL A   1      46.754  34.342  31.032  1.00  0.00     0.031 C 
ATOM     49  C   UNL A   1      40.038  33.952  32.559  1.00  0.00     0.029 A 
ATOM     50  C   UNL A   1      40.532  32.959  31.605  1.00  0.00     0.049 A 
ATOM     51  H   UNL A   1      42.505  32.666  31.005  1.00  0.00     0.167 HD
ATOM     52  C   UNL A   1      46.640  32.343  29.582  1.00  0.00     0.034 A 
ATOM     53  C   UNL A   1      39.781  32.043  30.959  1.00  0.00     0.034 A 
ATOM     54  C   UNL A   1      45.947  31.243  28.971  1.00  0.00     0.049 A 
ATOM     55  C   UNL A   1      40.452  31.078  30.010  1.00  0.00     0.074 A 
ATOM     56  C   UNL A   1      46.462  30.251  28.156  1.00  0.00     0.029 A 
ATOM     57  N   UNL A   1      44.588  31.001  29.090  1.00  0.00    -0.354 N 
ATOM     58  N   UNL A   1      41.723  30.961  29.709  1.00  0.00    -0.248 NA
ATOM     59  C   UNL A   1      39.586  30.100  29.335  1.00  0.00     0.031 C 
ATOM     60  C   UNL A   1      45.404  29.433  27.747  1.00  0.00     0.029 A 
ATOM     61  C   UNL A   1      44.240  29.887  28.347  1.00  0.00     0.049 A 
ATOM     62  H   UNL A   1      43.962  31.542  29.624  1.00  0.00     0.167 HD
ATOM     63  C   UNL A   1      41.814  29.871  28.847  1.00  0.00     0.074 A 
ATOM     64  C   UNL A   1      40.471  29.355  28.686  1.00  0.00     0.031 C 
ATOM     65  C   UNL A   1      42.907  29.351  28.238  1.00  0.00     0.034 A 
BRANCH  52  66
ATOM     66  C   UNL A   1      48.106  32.515  29.289  1.00  0.00     0.023 A 
ATOM     67  C   UNL A   1      49.068  31.879  30.101  1.00  0.00     0.012 A 
ATOM     68  C   UNL A   1      48.528  33.268  28.176  1.00  0.00     0.148 A 
ATOM     69  C   UNL A   1      50.428  32.017  29.827  1.00  0.00     0.002 A 
ATOM     70  C   UNL A   1      49.883  33.360  27.882  1.00  0.00     0.091 A 
ATOM     71  F   UNL A   1      47.599  33.885  27.433  1.00  0.00    -0.205 F 
ATOM     72  C   UNL A   1      50.834  32.746  28.712  1.00  0.00     0.022 A 
BRANCH  70  73
ATOM     73  S   UNL A   1      50.501  34.208  26.425  1.00  0.00     0.127 S 
ATOM     74  O   UNL A   1      51.946  34.048  26.583  1.00  0.00    -0.237 OA
ATOM     75  O   UNL A   1      49.914  33.420  25.341  1.00  0.00    -0.237 OA
ATOM     76  O   UNL A   1      50.014  35.577  26.517  1.00  0.00    -0.744 OA
ENDBRANCH  70  73
ENDBRANCH  52  66
BRANCH  53  77
ATOM     77  C   UNL A   1      38.310  31.973  31.193  1.00  0.00     0.023 A 
ATOM     78  C   UNL A   1      37.815  31.285  32.319  1.00  0.00     0.012 A 
ATOM     79  C   UNL A   1      37.400  32.573  30.302  1.00  0.00     0.148 A 
ATOM     80  C   UNL A   1      36.441  31.166  32.533  1.00  0.00     0.002 A 
ATOM     81  C   UNL A   1      36.035  32.500  30.552  1.00  0.00     0.091 A 
ATOM     82  F   UNL A   1      37.889  33.208  29.228  1.00  0.00    -0.205 F 
ATOM     83  C   UNL A   1      35.551  31.781  31.656  1.00  0.00     0.022 A 
BRANCH  81  84
ATOM     84  S   UNL A   1      34.821  33.361  29.545  1.00  0.00     0.127 S 
ATOM     85  O   UNL A   1      33.881  33.842  30.555  1.00  0.00    -0.237 OA
ATOM     86  O   UNL A   1      35.637  34.400  28.916  1.00  0.00    -0.237 OA
ATOM     87  O   UNL A   1      34.297  32.364  28.620  1.00  0.00    -0.744 OA
ENDBRANCH  81  84
ENDBRANCH  53  77
BRANCH  65  88
ATOM     88  C   UNL A   1      42.721  28.126  27.378  1.00  0.00     0.023 A 
ATOM     89  C   UNL A   1      42.504  28.258  25.992  1.00  0.00     0.012 A 
ATOM     90  C   UNL A   1      42.844  26.838  27.938  1.00  0.00     0.148 A 
ATOM     91  C   UNL A   1      42.375  27.128  25.185  1.00  0.00     0.002 A 
ATOM     92  C   UNL A   1      42.769  25.719  27.119  1.00  0.00     0.091 A 
ATOM     93  F   UNL A   1      43.037  26.732  29.262  1.00  0.00    -0.205 F 
ATOM     94  C   UNL A   1      42.520  25.861  25.745  1.00  0.00     0.022 A 
BRANCH  92  95
ATOM     95  S   UNL A   1      43.046  24.053  27.734  1.00  0.00     0.127 S 
ATOM     96  O   UNL A   1      44.101  24.272  28.722  1.00  0.00    -0.237 OA
ATOM     97  O   UNL A   1      41.740  23.714  28.302  1.00  0.00    -0.237 OA
ATOM     98  O   UNL A   1      43.429  23.254  26.578  1.00  0.00    -0.744 OA
ENDBRANCH  92  95
ENDBRANCH  65  88
ENDBRANCH  39  40
ENDBRANCH  32  34
ENDBRANCH  31  32
ENDBRANCH  30  31
ENDBRANCH  29  30
ENDBRANCH  28  29
ENDBRANCH  27  28
ENDBRANCH  26  27
ENDBRANCH  25  26
ENDBRANCH   1  25
TORSDOF 27
ENDMDL
