MODEL 1
REMARK VINA RESULT:      -7.1      0.000      0.000
REMARK SMILES CC[C@](C)(NC(=O)NCc1ccco1)C(=O)OCCOCCOCCOCCOC(=O)c1ccc(-c2c3nc(c(-c4cccc(S(=O)(=O)[O-])c4F)c4ccc([nH]4)c(-c4cccc(S(=O)(=O)[O-])c4F)c4nc(c(-c5cccc(S(=O)(=O)[O-])c5F)c5ccc2[nH]5)C=C4)C=C3)cc1
REMARK SMILES IDX 23 1 22 2 21 3 20 4 19 5 18 6 17 7 15 8 16 9 3 10 4 11 2 12
REMARK SMILES IDX 1 13 5 14 6 15 7 17 8 18 9 20 10 21 11 22 14 23 12 24 13 25
REMARK SMILES IDX 24 26 25 27 26 28 27 29 28 30 29 31 30 32 31 33 32 34 33 35
REMARK SMILES IDX 94 36 34 37 93 38 35 39 36 40 37 41 87 42 38 43 92 44 86 45
REMARK SMILES IDX 88 46 39 47 91 48 85 49 84 50 40 52 72 53 52 54 71 55 53 56
REMARK SMILES IDX 56 57 70 58 89 59 54 60 55 61 69 63 90 64 57 65 41 66 42 67
REMARK SMILES IDX 50 68 43 69 45 70 51 71 44 72 46 73 47 74 48 75 49 76 73 77
REMARK SMILES IDX 74 78 82 79 75 80 77 81 83 82 76 83 78 84 79 85 80 86 81 87
REMARK SMILES IDX 58 88 59 89 67 90 60 91 62 92 68 93 61 94 63 95 64 96 65 97
REMARK SMILES IDX 66 98
REMARK H PARENT 5 16 8 19 88 51 56 62
REMARK Flexibility Score: inf
ROOT
ATOM      1  O   UNL A   1      36.358  31.911  28.916  1.00  0.00    -0.377 OA
ENDROOT
BRANCH   1   2
ATOM      2  C   UNL A   1      36.887  30.828  28.178  1.00  0.00     0.188 C 
BRANCH   2   3
ATOM      3  C   UNL A   1      38.257  30.276  28.605  1.00  0.00     0.188 C 
BRANCH   3   4
ATOM      4  O   UNL A   1      38.863  29.256  27.812  1.00  0.00    -0.376 OA
BRANCH   4   5
ATOM      5  C   UNL A   1      39.589  28.192  28.428  1.00  0.00     0.202 C 
BRANCH   5   6
ATOM      6  C   UNL A   1      39.957  26.996  27.552  1.00  0.00     0.261 C 
BRANCH   6   7
ATOM      7  O   UNL A   1      41.389  26.878  27.556  1.00  0.00    -0.462 OA
BRANCH   7   8
ATOM      8  C   UNL A   1      41.953  25.955  26.755  1.00  0.00     0.331 C 
ATOM      9  O   UNL A   1      41.307  25.274  25.965  1.00  0.00    -0.249 OA
BRANCH   8  10
ATOM     10  C   UNL A   1      43.519  25.936  26.864  1.00  0.00     0.136 C 
ATOM     11  C   UNL A   1      43.796  27.432  27.192  1.00  0.00     0.047 C 
BRANCH  10  12
ATOM     12  C   UNL A   1      44.053  25.477  25.476  1.00  0.00     0.037 C 
ATOM     13  C   UNL A   1      45.460  25.937  25.120  1.00  0.00     0.007 C 
ENDBRANCH  10  12
BRANCH  10  14
ATOM     14  N   UNL A   1      44.283  25.202  27.943  1.00  0.00    -0.322 N 
ATOM     15  C   UNL A   1      44.751  23.955  28.151  1.00  0.00     0.316 C 
ATOM     16  H   UNL A   1      44.497  25.796  28.699  1.00  0.00     0.166 HD
ATOM     17  O   UNL A   1      45.801  23.857  28.789  1.00  0.00    -0.249 OA
ATOM     18  N   UNL A   1      44.117  22.846  27.742  1.00  0.00    -0.331 N 
ATOM     19  H   UNL A   1      44.650  22.024  27.642  1.00  0.00     0.165 HD
BRANCH  18  20
ATOM     20  C   UNL A   1      42.728  22.776  27.443  1.00  0.00     0.193 C 
BRANCH  20  21
ATOM     21  C   UNL A   1      42.176  21.457  27.104  1.00  0.00     0.122 A 
ATOM     22  C   UNL A   1      40.942  20.860  27.262  1.00  0.00     0.047 A 
ATOM     23  O   UNL A   1      42.942  20.724  26.246  1.00  0.00    -0.467 OA
ATOM     24  C   UNL A   1      40.956  19.706  26.438  1.00  0.00     0.042 A 
ATOM     25  C   UNL A   1      42.200  19.661  25.856  1.00  0.00     0.195 A 
ENDBRANCH  20  21
ENDBRANCH  18  20
ENDBRANCH  10  14
ENDBRANCH   8  10
ENDBRANCH   7   8
ENDBRANCH   6   7
ENDBRANCH   5   6
ENDBRANCH   4   5
ENDBRANCH   3   4
ENDBRANCH   2   3
ENDBRANCH   1   2
BRANCH   1  26
ATOM     26  C   UNL A   1      35.811  32.973  28.141  1.00  0.00     0.188 C 
BRANCH  26  27
ATOM     27  C   UNL A   1      35.374  34.115  29.059  1.00  0.00     0.188 C 
BRANCH  27  28
ATOM     28  O   UNL A   1      35.536  33.870  30.459  1.00  0.00    -0.376 OA
BRANCH  28  29
ATOM     29  C   UNL A   1      34.391  34.132  31.272  1.00  0.00     0.202 C 
BRANCH  29  30
ATOM     30  C   UNL A   1      34.619  33.863  32.775  1.00  0.00     0.261 C 
BRANCH  30  31
ATOM     31  O   UNL A   1      35.402  32.695  33.057  1.00  0.00    -0.460 OA
BRANCH  31  32
ATOM     32  C   UNL A   1      36.286  32.835  34.069  1.00  0.00     0.338 C 
ATOM     33  O   UNL A   1      36.108  33.389  35.147  1.00  0.00    -0.246 OA
BRANCH  32  34
ATOM     34  C   UNL A   1      37.531  32.134  33.714  1.00  0.00     0.060 A 
ATOM     35  C   UNL A   1      38.672  32.321  34.506  1.00  0.00     0.016 A 
ATOM     36  C   UNL A   1      37.591  31.375  32.545  1.00  0.00     0.016 A 
ATOM     37  C   UNL A   1      39.899  31.802  34.089  1.00  0.00     0.010 A 
ATOM     38  C   UNL A   1      38.821  30.867  32.123  1.00  0.00     0.010 A 
ATOM     39  C   UNL A   1      39.987  31.121  32.865  1.00  0.00    -0.014 A 
BRANCH  39  40
ATOM     40  C   UNL A   1      41.309  30.856  32.245  1.00  0.00     0.031 A 
ATOM     41  C   UNL A   1      41.858  31.869  31.277  1.00  0.00     0.074 A 
ATOM     42  C   UNL A   1      41.981  29.717  32.486  1.00  0.00     0.049 A 
ATOM     43  N   UNL A   1      42.944  31.818  30.551  1.00  0.00    -0.248 NA
ATOM     44  C   UNL A   1      41.069  33.100  31.096  1.00  0.00     0.031 C 
ATOM     45  C   UNL A   1      41.543  28.655  33.386  1.00  0.00     0.029 A 
ATOM     46  N   UNL A   1      43.157  29.248  31.956  1.00  0.00    -0.354 N 
ATOM     47  C   UNL A   1      42.951  32.990  29.802  1.00  0.00     0.074 A 
ATOM     48  C   UNL A   1      41.761  33.729  30.159  1.00  0.00     0.031 C 
ATOM     49  C   UNL A   1      42.417  27.636  33.316  1.00  0.00     0.029 A 
ATOM     50  C   UNL A   1      43.461  27.966  32.345  1.00  0.00     0.049 A 
ATOM     51  H   UNL A   1      43.728  29.780  31.354  1.00  0.00     0.167 HD
ATOM     52  C   UNL A   1      43.871  33.417  28.906  1.00  0.00     0.034 A 
ATOM     53  C   UNL A   1      44.449  27.142  31.940  1.00  0.00     0.034 A 
ATOM     54  C   UNL A   1      45.061  32.690  28.563  1.00  0.00     0.049 A 
ATOM     55  C   UNL A   1      45.457  27.635  30.931  1.00  0.00     0.074 A 
ATOM     56  C   UNL A   1      46.088  33.069  27.719  1.00  0.00     0.029 A 
ATOM     57  N   UNL A   1      45.373  31.423  29.031  1.00  0.00    -0.354 N 
ATOM     58  N   UNL A   1      45.533  28.805  30.345  1.00  0.00    -0.248 NA
ATOM     59  C   UNL A   1      46.533  26.706  30.551  1.00  0.00     0.031 C 
ATOM     60  C   UNL A   1      47.009  32.019  27.655  1.00  0.00     0.029 A 
ATOM     61  C   UNL A   1      46.569  30.997  28.481  1.00  0.00     0.049 A 
ATOM     62  H   UNL A   1      44.825  30.903  29.663  1.00  0.00     0.167 HD
ATOM     63  C   UNL A   1      46.678  28.765  29.554  1.00  0.00     0.074 A 
ATOM     64  C   UNL A   1      47.274  27.460  29.750  1.00  0.00     0.031 C 
ATOM     65  C   UNL A   1      47.182  29.717  28.730  1.00  0.00     0.034 A 
BRANCH  52  66
ATOM     66  C   UNL A   1      43.634  34.751  28.249  1.00  0.00     0.023 A 
ATOM     67  C   UNL A   1      42.949  34.810  27.019  1.00  0.00     0.012 A 
ATOM     68  C   UNL A   1      44.053  35.946  28.865  1.00  0.00     0.148 A 
ATOM     69  C   UNL A   1      42.714  36.035  26.395  1.00  0.00     0.002 A 
ATOM     70  C   UNL A   1      43.778  37.165  28.259  1.00  0.00     0.091 A 
ATOM     71  F   UNL A   1      44.727  35.868  30.022  1.00  0.00    -0.205 F 
ATOM     72  C   UNL A   1      43.120  37.211  27.019  1.00  0.00     0.022 A 
BRANCH  70  73
ATOM     73  S   UNL A   1      44.195  38.737  29.023  1.00  0.00     0.127 S 
ATOM     74  O   UNL A   1      45.650  38.758  28.882  1.00  0.00    -0.237 OA
ATOM     75  O   UNL A   1      43.487  39.693  28.170  1.00  0.00    -0.237 OA
ATOM     76  O   UNL A   1      43.697  38.660  30.389  1.00  0.00    -0.744 OA
ENDBRANCH  70  73
ENDBRANCH  52  66
BRANCH  53  77
ATOM     77  C   UNL A   1      44.547  25.768  32.509  1.00  0.00     0.023 A 
ATOM     78  C   UNL A   1      44.146  24.664  31.734  1.00  0.00     0.012 A 
ATOM     79  C   UNL A   1      45.063  25.550  33.802  1.00  0.00     0.148 A 
ATOM     80  C   UNL A   1      44.234  23.368  32.245  1.00  0.00     0.002 A 
ATOM     81  C   UNL A   1      45.199  24.254  34.283  1.00  0.00     0.091 A 
ATOM     82  F   UNL A   1      45.421  26.617  34.530  1.00  0.00    -0.205 F 
ATOM     83  C   UNL A   1      44.771  23.162  33.513  1.00  0.00     0.022 A 
BRANCH  81  84
ATOM     84  S   UNL A   1      45.999  23.886  35.849  1.00  0.00     0.127 S 
ATOM     85  O   UNL A   1      47.319  24.482  35.658  1.00  0.00    -0.237 OA
ATOM     86  O   UNL A   1      45.137  24.592  36.798  1.00  0.00    -0.237 OA
ATOM     87  O   UNL A   1      45.970  22.436  35.974  1.00  0.00    -0.744 OA
ENDBRANCH  81  84
ENDBRANCH  53  77
BRANCH  65  88
ATOM     88  C   UNL A   1      48.463  29.413  27.996  1.00  0.00     0.023 A 
ATOM     89  C   UNL A   1      49.698  29.788  28.558  1.00  0.00     0.012 A 
ATOM     90  C   UNL A   1      48.444  28.662  26.803  1.00  0.00     0.148 A 
ATOM     91  C   UNL A   1      50.895  29.438  27.933  1.00  0.00     0.002 A 
ATOM     92  C   UNL A   1      49.641  28.277  26.212  1.00  0.00     0.091 A 
ATOM     93  F   UNL A   1      47.257  28.329  26.276  1.00  0.00    -0.205 F 
ATOM     94  C   UNL A   1      50.868  28.673  26.769  1.00  0.00     0.022 A 
BRANCH  92  95
ATOM     95  S   UNL A   1      49.703  27.210  24.767  1.00  0.00     0.127 S 
ATOM     96  O   UNL A   1      51.144  27.097  24.542  1.00  0.00    -0.237 OA
ATOM     97  O   UNL A   1      49.064  25.988  25.255  1.00  0.00    -0.237 OA
ATOM     98  O   UNL A   1      48.961  27.904  23.723  1.00  0.00    -0.744 OA
ENDBRANCH  92  95
ENDBRANCH  65  88
ENDBRANCH  39  40
ENDBRANCH  32  34
ENDBRANCH  31  32
ENDBRANCH  30  31
ENDBRANCH  29  30
ENDBRANCH  28  29
ENDBRANCH  27  28
ENDBRANCH  26  27
ENDBRANCH   1  26
TORSDOF 27
ENDMDL
MODEL 2
REMARK VINA RESULT:      -6.5      2.079      2.713
REMARK SMILES CC[C@](C)(NC(=O)NCc1ccco1)C(=O)OCCOCCOCCOCCOC(=O)c1ccc(-c2c3nc(c(-c4cccc(S(=O)(=O)[O-])c4F)c4ccc([nH]4)c(-c4cccc(S(=O)(=O)[O-])c4F)c4nc(c(-c5cccc(S(=O)(=O)[O-])c5F)c5ccc2[nH]5)C=C4)C=C3)cc1
REMARK SMILES IDX 23 1 22 2 21 3 20 4 19 5 18 6 17 7 15 8 16 9 3 10 4 11 2 12
REMARK SMILES IDX 1 13 5 14 6 15 7 17 8 18 9 20 10 21 11 22 14 23 12 24 13 25
REMARK SMILES IDX 24 26 25 27 26 28 27 29 28 30 29 31 30 32 31 33 32 34 33 35
REMARK SMILES IDX 94 36 34 37 93 38 35 39 36 40 37 41 87 42 38 43 92 44 86 45
REMARK SMILES IDX 88 46 39 47 91 48 85 49 84 50 40 52 72 53 52 54 71 55 53 56
REMARK SMILES IDX 56 57 70 58 89 59 54 60 55 61 69 63 90 64 57 65 41 66 42 67
REMARK SMILES IDX 50 68 43 69 45 70 51 71 44 72 46 73 47 74 48 75 49 76 73 77
REMARK SMILES IDX 74 78 82 79 75 80 77 81 83 82 76 83 78 84 79 85 80 86 81 87
REMARK SMILES IDX 58 88 59 89 67 90 60 91 62 92 68 93 61 94 63 95 64 96 65 97
REMARK SMILES IDX 66 98
REMARK H PARENT 5 16 8 19 88 51 56 62
REMARK Flexibility Score: inf
ROOT
ATOM      1  O   UNL A   1      34.915  32.394  29.627  1.00  0.00    -0.377 OA
ENDROOT
BRANCH   1   2
ATOM      2  C   UNL A   1      35.691  31.885  28.561  1.00  0.00     0.188 C 
BRANCH   2   3
ATOM      3  C   UNL A   1      36.339  30.504  28.749  1.00  0.00     0.188 C 
BRANCH   3   4
ATOM      4  O   UNL A   1      37.161  29.984  27.703  1.00  0.00    -0.376 OA
BRANCH   4   5
ATOM      5  C   UNL A   1      38.403  29.346  28.004  1.00  0.00     0.202 C 
BRANCH   5   6
ATOM      6  C   UNL A   1      39.414  29.213  26.867  1.00  0.00     0.261 C 
BRANCH   6   7
ATOM      7  O   UNL A   1      40.114  27.972  27.051  1.00  0.00    -0.462 OA
BRANCH   7   8
ATOM      8  C   UNL A   1      41.320  27.831  26.471  1.00  0.00     0.331 C 
ATOM      9  O   UNL A   1      41.537  28.133  25.302  1.00  0.00    -0.249 OA
BRANCH   8  10
ATOM     10  C   UNL A   1      42.425  27.355  27.481  1.00  0.00     0.136 C 
ATOM     11  C   UNL A   1      41.909  25.922  27.805  1.00  0.00     0.047 C 
BRANCH  10  12
ATOM     12  C   UNL A   1      42.377  28.339  28.685  1.00  0.00     0.037 C 
ATOM     13  C   UNL A   1      41.818  27.773  29.983  1.00  0.00     0.007 C 
ENDBRANCH  10  12
BRANCH  10  14
ATOM     14  N   UNL A   1      43.871  27.121  27.105  1.00  0.00    -0.322 N 
ATOM     15  C   UNL A   1      44.573  26.864  25.983  1.00  0.00     0.316 C 
ATOM     16  H   UNL A   1      44.459  27.170  27.893  1.00  0.00     0.166 HD
ATOM     17  O   UNL A   1      45.713  27.327  25.925  1.00  0.00    -0.249 OA
ATOM     18  N   UNL A   1      44.110  26.111  24.974  1.00  0.00    -0.331 N 
ATOM     19  H   UNL A   1      44.523  26.228  24.088  1.00  0.00     0.165 HD
BRANCH  18  20
ATOM     20  C   UNL A   1      43.066  25.153  25.096  1.00  0.00     0.193 C 
BRANCH  20  21
ATOM     21  C   UNL A   1      43.454  23.759  25.356  1.00  0.00     0.122 A 
ATOM     22  C   UNL A   1      43.060  22.804  26.270  1.00  0.00     0.047 A 
ATOM     23  O   UNL A   1      44.187  23.179  24.363  1.00  0.00    -0.467 OA
ATOM     24  C   UNL A   1      43.569  21.570  25.793  1.00  0.00     0.042 A 
ATOM     25  C   UNL A   1      44.261  21.856  24.641  1.00  0.00     0.195 A 
ENDBRANCH  20  21
ENDBRANCH  18  20
ENDBRANCH  10  14
ENDBRANCH   8  10
ENDBRANCH   7   8
ENDBRANCH   6   7
ENDBRANCH   5   6
ENDBRANCH   4   5
ENDBRANCH   3   4
ENDBRANCH   2   3
ENDBRANCH   1   2
BRANCH   1  26
ATOM     26  C   UNL A   1      34.385  33.701  29.431  1.00  0.00     0.188 C 
BRANCH  26  27
ATOM     27  C   UNL A   1      34.194  34.393  30.781  1.00  0.00     0.188 C 
BRANCH  27  28
ATOM     28  O   UNL A   1      34.904  33.805  31.875  1.00  0.00    -0.376 OA
BRANCH  28  29
ATOM     29  C   UNL A   1      34.214  33.789  33.126  1.00  0.00     0.202 C 
BRANCH  29  30
ATOM     30  C   UNL A   1      35.149  33.848  34.353  1.00  0.00     0.261 C 
BRANCH  30  31
ATOM     31  O   UNL A   1      36.327  33.037  34.242  1.00  0.00    -0.460 OA
BRANCH  31  32
ATOM     32  C   UNL A   1      37.467  33.722  34.009  1.00  0.00     0.338 C 
ATOM     33  O   UNL A   1      37.622  34.938  34.005  1.00  0.00    -0.246 OA
BRANCH  32  34
ATOM     34  C   UNL A   1      38.570  32.764  33.825  1.00  0.00     0.060 A 
ATOM     35  C   UNL A   1      39.780  32.975  34.501  1.00  0.00     0.016 A 
ATOM     36  C   UNL A   1      38.436  31.719  32.911  1.00  0.00     0.016 A 
ATOM     37  C   UNL A   1      40.887  32.175  34.208  1.00  0.00     0.010 A 
ATOM     38  C   UNL A   1      39.547  30.929  32.610  1.00  0.00     0.010 A 
ATOM     39  C   UNL A   1      40.788  31.185  33.219  1.00  0.00    -0.014 A 
BRANCH  39  40
ATOM     40  C   UNL A   1      42.010  30.559  32.658  1.00  0.00     0.031 A 
ATOM     41  C   UNL A   1      42.638  31.184  31.442  1.00  0.00     0.074 A 
ATOM     42  C   UNL A   1      42.519  29.427  33.175  1.00  0.00     0.049 A 
ATOM     43  N   UNL A   1      43.653  30.772  30.727  1.00  0.00    -0.248 NA
ATOM     44  C   UNL A   1      42.032  32.437  30.960  1.00  0.00     0.031 C 
ATOM     45  C   UNL A   1      41.988  28.719  34.336  1.00  0.00     0.029 A 
ATOM     46  N   UNL A   1      43.573  28.653  32.759  1.00  0.00    -0.354 N 
ATOM     47  C   UNL A   1      43.785  31.694  29.694  1.00  0.00     0.074 A 
ATOM     48  C   UNL A   1      42.746  32.683  29.872  1.00  0.00     0.031 C 
ATOM     49  C   UNL A   1      42.693  27.589  34.517  1.00  0.00     0.029 A 
ATOM     50  C   UNL A   1      43.707  27.483  33.466  1.00  0.00     0.049 A 
ATOM     51  H   UNL A   1      44.176  28.911  32.023  1.00  0.00     0.167 HD
ATOM     52  C   UNL A   1      44.696  31.720  28.694  1.00  0.00     0.034 A 
ATOM     53  C   UNL A   1      44.531  26.433  33.270  1.00  0.00     0.034 A 
ATOM     54  C   UNL A   1      45.737  30.745  28.526  1.00  0.00     0.049 A 
ATOM     55  C   UNL A   1      45.531  26.479  32.141  1.00  0.00     0.074 A 
ATOM     56  C   UNL A   1      46.750  30.721  27.585  1.00  0.00     0.029 A 
ATOM     57  N   UNL A   1      45.887  29.609  29.306  1.00  0.00    -0.354 N 
ATOM     58  N   UNL A   1      45.741  27.429  31.263  1.00  0.00    -0.248 NA
ATOM     59  C   UNL A   1      46.427  25.321  31.995  1.00  0.00     0.031 C 
ATOM     60  C   UNL A   1      47.498  29.555  27.779  1.00  0.00     0.029 A 
ATOM     61  C   UNL A   1      46.966  28.867  28.858  1.00  0.00     0.049 A 
ATOM     62  H   UNL A   1      45.311  29.366  30.067  1.00  0.00     0.167 HD
ATOM     63  C   UNL A   1      46.811  27.001  30.483  1.00  0.00     0.074 A 
ATOM     64  C   UNL A   1      47.217  25.712  31.003  1.00  0.00     0.031 C 
ATOM     65  C   UNL A   1      47.396  27.613  29.422  1.00  0.00     0.034 A 
BRANCH  52  66
ATOM     66  C   UNL A   1      44.617  32.859  27.712  1.00  0.00     0.023 A 
ATOM     67  C   UNL A   1      43.933  32.682  26.493  1.00  0.00     0.012 A 
ATOM     68  C   UNL A   1      45.186  34.112  28.012  1.00  0.00     0.148 A 
ATOM     69  C   UNL A   1      43.844  33.725  25.571  1.00  0.00     0.002 A 
ATOM     70  C   UNL A   1      45.056  35.159  27.107  1.00  0.00     0.091 A 
ATOM     71  F   UNL A   1      45.856  34.253  29.164  1.00  0.00    -0.205 F 
ATOM     72  C   UNL A   1      44.396  34.964  25.882  1.00  0.00     0.022 A 
BRANCH  70  73
ATOM     73  S   UNL A   1      45.669  36.812  27.453  1.00  0.00     0.127 S 
ATOM     74  O   UNL A   1      45.267  36.991  28.847  1.00  0.00    -0.237 OA
ATOM     75  O   UNL A   1      47.110  36.657  27.250  1.00  0.00    -0.237 OA
ATOM     76  O   UNL A   1      45.014  37.689  26.492  1.00  0.00    -0.744 OA
ENDBRANCH  70  73
ENDBRANCH  52  66
BRANCH  53  77
ATOM     77  C   UNL A   1      44.460  25.256  34.181  1.00  0.00     0.023 A 
ATOM     78  C   UNL A   1      43.557  24.213  33.902  1.00  0.00     0.012 A 
ATOM     79  C   UNL A   1      45.304  25.152  35.305  1.00  0.00     0.148 A 
ATOM     80  C   UNL A   1      43.478  23.099  34.739  1.00  0.00     0.002 A 
ATOM     81  C   UNL A   1      45.259  24.015  36.101  1.00  0.00     0.091 A 
ATOM     82  F   UNL A   1      46.144  26.165  35.563  1.00  0.00    -0.205 F 
ATOM     83  C   UNL A   1      44.336  22.994  35.830  1.00  0.00     0.022 A 
BRANCH  81  84
ATOM     84  S   UNL A   1      46.414  23.736  37.449  1.00  0.00     0.127 S 
ATOM     85  O   UNL A   1      47.637  23.392  36.728  1.00  0.00    -0.237 OA
ATOM     86  O   UNL A   1      46.431  25.044  38.104  1.00  0.00    -0.237 OA
ATOM     87  O   UNL A   1      45.830  22.670  38.252  1.00  0.00    -0.744 OA
ENDBRANCH  81  84
ENDBRANCH  53  77
BRANCH  65  88
ATOM     88  C   UNL A   1      48.564  26.926  28.763  1.00  0.00     0.023 A 
ATOM     89  C   UNL A   1      48.351  26.108  27.637  1.00  0.00     0.012 A 
ATOM     90  C   UNL A   1      49.881  27.177  29.197  1.00  0.00     0.148 A 
ATOM     91  C   UNL A   1      49.430  25.534  26.965  1.00  0.00     0.002 A 
ATOM     92  C   UNL A   1      50.953  26.641  28.494  1.00  0.00     0.091 A 
ATOM     93  F   UNL A   1      50.061  27.946  30.281  1.00  0.00    -0.205 F 
ATOM     94  C   UNL A   1      50.729  25.810  27.384  1.00  0.00     0.022 A 
BRANCH  92  95
ATOM     95  S   UNL A   1      52.662  27.020  28.903  1.00  0.00     0.127 S 
ATOM     96  O   UNL A   1      52.798  26.399  30.220  1.00  0.00    -0.237 OA
ATOM     97  O   UNL A   1      53.395  26.345  27.832  1.00  0.00    -0.237 OA
ATOM     98  O   UNL A   1      52.766  28.473  28.884  1.00  0.00    -0.744 OA
ENDBRANCH  92  95
ENDBRANCH  65  88
ENDBRANCH  39  40
ENDBRANCH  32  34
ENDBRANCH  31  32
ENDBRANCH  30  31
ENDBRANCH  29  30
ENDBRANCH  28  29
ENDBRANCH  27  28
ENDBRANCH  26  27
ENDBRANCH   1  26
TORSDOF 27
ENDMDL
MODEL 3
REMARK VINA RESULT:      -6.2      5.422     12.214
REMARK SMILES CC[C@](C)(NC(=O)NCc1ccco1)C(=O)OCCOCCOCCOCCOC(=O)c1ccc(-c2c3nc(c(-c4cccc(S(=O)(=O)[O-])c4F)c4ccc([nH]4)c(-c4cccc(S(=O)(=O)[O-])c4F)c4nc(c(-c5cccc(S(=O)(=O)[O-])c5F)c5ccc2[nH]5)C=C4)C=C3)cc1
REMARK SMILES IDX 23 1 22 2 21 3 20 4 19 5 18 6 17 7 15 8 16 9 3 10 4 11 2 12
REMARK SMILES IDX 1 13 5 14 6 15 7 17 8 18 9 20 10 21 11 22 14 23 12 24 13 25
REMARK SMILES IDX 24 26 25 27 26 28 27 29 28 30 29 31 30 32 31 33 32 34 33 35
REMARK SMILES IDX 94 36 34 37 93 38 35 39 36 40 37 41 87 42 38 43 92 44 86 45
REMARK SMILES IDX 88 46 39 47 91 48 85 49 84 50 40 52 72 53 52 54 71 55 53 56
REMARK SMILES IDX 56 57 70 58 89 59 54 60 55 61 69 63 90 64 57 65 41 66 42 67
REMARK SMILES IDX 50 68 43 69 45 70 51 71 44 72 46 73 47 74 48 75 49 76 73 77
REMARK SMILES IDX 74 78 82 79 75 80 77 81 83 82 76 83 78 84 79 85 80 86 81 87
REMARK SMILES IDX 58 88 59 89 67 90 60 91 62 92 68 93 61 94 63 95 64 96 65 97
REMARK SMILES IDX 66 98
REMARK H PARENT 5 16 8 19 88 51 56 62
REMARK Flexibility Score: inf
ROOT
ATOM      1  O   UNL A   1      36.719  21.579  24.266  1.00  0.00    -0.377 OA
ENDROOT
BRANCH   1   2
ATOM      2  C   UNL A   1      36.453  22.734  23.497  1.00  0.00     0.188 C 
BRANCH   2   3
ATOM      3  C   UNL A   1      35.072  23.390  23.652  1.00  0.00     0.188 C 
BRANCH   3   4
ATOM      4  O   UNL A   1      34.311  23.672  22.477  1.00  0.00    -0.376 OA
BRANCH   4   5
ATOM      5  C   UNL A   1      33.298  22.768  22.034  1.00  0.00     0.202 C 
BRANCH   5   6
ATOM      6  C   UNL A   1      32.098  22.557  22.955  1.00  0.00     0.261 C 
BRANCH   6   7
ATOM      7  O   UNL A   1      31.462  23.832  23.140  1.00  0.00    -0.462 OA
BRANCH   7   8
ATOM      8  C   UNL A   1      31.440  24.357  24.379  1.00  0.00     0.331 C 
ATOM      9  O   UNL A   1      31.452  23.669  25.395  1.00  0.00    -0.249 OA
BRANCH   8  10
ATOM     10  C   UNL A   1      31.516  25.925  24.371  1.00  0.00     0.136 C 
ATOM     11  C   UNL A   1      32.259  26.164  23.024  1.00  0.00     0.047 C 
BRANCH  10  12
ATOM     12  C   UNL A   1      32.331  26.335  25.632  1.00  0.00     0.037 C 
ATOM     13  C   UNL A   1      31.524  26.903  26.790  1.00  0.00     0.007 C 
ENDBRANCH  10  12
BRANCH  10  14
ATOM     14  N   UNL A   1      30.310  26.830  24.261  1.00  0.00    -0.322 N 
ATOM     15  C   UNL A   1      29.990  27.982  23.638  1.00  0.00     0.316 C 
ATOM     16  H   UNL A   1      29.552  26.484  24.786  1.00  0.00     0.166 HD
ATOM     17  O   UNL A   1      28.821  28.105  23.267  1.00  0.00    -0.249 OA
ATOM     18  N   UNL A   1      30.856  28.989  23.448  1.00  0.00    -0.331 N 
ATOM     19  H   UNL A   1      30.658  29.635  22.732  1.00  0.00     0.165 HD
BRANCH  18  20
ATOM     20  C   UNL A   1      32.039  29.188  24.211  1.00  0.00     0.193 C 
BRANCH  20  21
ATOM     21  C   UNL A   1      32.008  30.229  25.249  1.00  0.00     0.122 A 
ATOM     22  C   UNL A   1      31.065  31.145  25.665  1.00  0.00     0.047 A 
ATOM     23  O   UNL A   1      33.016  30.149  26.163  1.00  0.00    -0.467 OA
ATOM     24  C   UNL A   1      31.520  31.637  26.914  1.00  0.00     0.042 A 
ATOM     25  C   UNL A   1      32.719  31.013  27.163  1.00  0.00     0.195 A 
ENDBRANCH  20  21
ENDBRANCH  18  20
ENDBRANCH  10  14
ENDBRANCH   8  10
ENDBRANCH   7   8
ENDBRANCH   6   7
ENDBRANCH   5   6
ENDBRANCH   4   5
ENDBRANCH   3   4
ENDBRANCH   2   3
ENDBRANCH   1   2
BRANCH   1  26
ATOM     26  C   UNL A   1      36.969  21.807  25.650  1.00  0.00     0.188 C 
BRANCH  26  27
ATOM     27  C   UNL A   1      38.227  22.661  25.818  1.00  0.00     0.188 C 
BRANCH  27  28
ATOM     28  O   UNL A   1      39.263  22.073  26.610  1.00  0.00    -0.376 OA
BRANCH  28  29
ATOM     29  C   UNL A   1      40.369  21.536  25.883  1.00  0.00     0.202 C 
BRANCH  29  30
ATOM     30  C   UNL A   1      41.698  22.283  26.127  1.00  0.00     0.261 C 
BRANCH  30  31
ATOM     31  O   UNL A   1      41.590  23.713  26.091  1.00  0.00    -0.460 OA
BRANCH  31  32
ATOM     32  C   UNL A   1      42.762  24.367  25.943  1.00  0.00     0.338 C 
ATOM     33  O   UNL A   1      43.467  24.422  24.941  1.00  0.00    -0.246 OA
BRANCH  32  34
ATOM     34  C   UNL A   1      43.058  25.103  27.182  1.00  0.00     0.060 A 
ATOM     35  C   UNL A   1      42.387  24.754  28.363  1.00  0.00     0.016 A 
ATOM     36  C   UNL A   1      43.922  26.199  27.151  1.00  0.00     0.016 A 
ATOM     37  C   UNL A   1      42.528  25.549  29.502  1.00  0.00     0.010 A 
ATOM     38  C   UNL A   1      44.052  26.998  28.287  1.00  0.00     0.010 A 
ATOM     39  C   UNL A   1      43.318  26.707  29.450  1.00  0.00    -0.014 A 
BRANCH  39  40
ATOM     40  C   UNL A   1      43.222  27.732  30.519  1.00  0.00     0.031 A 
ATOM     41  C   UNL A   1      43.979  27.502  31.798  1.00  0.00     0.074 A 
ATOM     42  C   UNL A   1      42.434  28.813  30.384  1.00  0.00     0.049 A 
ATOM     43  N   UNL A   1      43.983  28.209  32.898  1.00  0.00    -0.248 NA
ATOM     44  C   UNL A   1      44.840  26.307  31.847  1.00  0.00     0.031 C 
ATOM     45  C   UNL A   1      41.638  29.133  29.203  1.00  0.00     0.029 A 
ATOM     46  N   UNL A   1      42.142  29.818  31.272  1.00  0.00    -0.354 N 
ATOM     47  C   UNL A   1      44.815  27.528  33.780  1.00  0.00     0.074 A 
ATOM     48  C   UNL A   1      45.295  26.352  33.090  1.00  0.00     0.031 C 
ATOM     49  C   UNL A   1      40.913  30.237  29.453  1.00  0.00     0.029 A 
ATOM     50  C   UNL A   1      41.175  30.684  30.821  1.00  0.00     0.049 A 
ATOM     51  H   UNL A   1      42.583  29.909  32.148  1.00  0.00     0.167 HD
ATOM     52  C   UNL A   1      45.158  27.858  35.047  1.00  0.00     0.034 A 
ATOM     53  C   UNL A   1      40.550  31.699  31.451  1.00  0.00     0.034 A 
ATOM     54  C   UNL A   1      44.693  29.034  35.727  1.00  0.00     0.049 A 
ATOM     55  C   UNL A   1      40.940  32.042  32.868  1.00  0.00     0.074 A 
ATOM     56  C   UNL A   1      45.036  29.492  36.987  1.00  0.00     0.029 A 
ATOM     57  N   UNL A   1      43.767  29.928  35.213  1.00  0.00    -0.354 N 
ATOM     58  N   UNL A   1      41.839  31.478  33.636  1.00  0.00    -0.248 NA
ATOM     59  C   UNL A   1      40.250  33.181  33.495  1.00  0.00     0.031 C 
ATOM     60  C   UNL A   1      44.296  30.650  37.245  1.00  0.00     0.029 A 
ATOM     61  C   UNL A   1      43.513  30.928  36.136  1.00  0.00     0.049 A 
ATOM     62  H   UNL A   1      43.353  29.863  34.323  1.00  0.00     0.167 HD
ATOM     63  C   UNL A   1      41.847  32.209  34.820  1.00  0.00     0.074 A 
ATOM     64  C   UNL A   1      40.874  33.269  34.662  1.00  0.00     0.031 C 
ATOM     65  C   UNL A   1      42.584  32.012  35.943  1.00  0.00     0.034 A 
BRANCH  52  66
ATOM     66  C   UNL A   1      46.103  26.938  35.773  1.00  0.00     0.023 A 
ATOM     67  C   UNL A   1      47.475  27.256  35.836  1.00  0.00     0.012 A 
ATOM     68  C   UNL A   1      45.631  25.781  36.422  1.00  0.00     0.148 A 
ATOM     69  C   UNL A   1      48.367  26.421  36.507  1.00  0.00     0.002 A 
ATOM     70  C   UNL A   1      46.519  24.976  37.125  1.00  0.00     0.091 A 
ATOM     71  F   UNL A   1      44.327  25.480  36.328  1.00  0.00    -0.205 F 
ATOM     72  C   UNL A   1      47.889  25.288  37.158  1.00  0.00     0.022 A 
BRANCH  70  73
ATOM     73  S   UNL A   1      45.984  23.537  38.058  1.00  0.00     0.127 S 
ATOM     74  O   UNL A   1      47.235  23.103  38.676  1.00  0.00    -0.237 OA
ATOM     75  O   UNL A   1      45.013  24.115  38.989  1.00  0.00    -0.237 OA
ATOM     76  O   UNL A   1      45.413  22.619  37.083  1.00  0.00    -0.744 OA
ENDBRANCH  70  73
ENDBRANCH  52  66
BRANCH  53  77
ATOM     77  C   UNL A   1      39.503  32.483  30.736  1.00  0.00     0.023 A 
ATOM     78  C   UNL A   1      39.844  33.703  30.124  1.00  0.00     0.012 A 
ATOM     79  C   UNL A   1      38.180  32.009  30.635  1.00  0.00     0.148 A 
ATOM     80  C   UNL A   1      38.881  34.450  29.444  1.00  0.00     0.002 A 
ATOM     81  C   UNL A   1      37.240  32.730  29.910  1.00  0.00     0.091 A 
ATOM     82  F   UNL A   1      37.872  30.853  31.242  1.00  0.00    -0.205 F 
ATOM     83  C   UNL A   1      37.584  33.959  29.327  1.00  0.00     0.022 A 
BRANCH  81  84
ATOM     84  S   UNL A   1      35.582  32.112  29.598  1.00  0.00     0.127 S 
ATOM     85  O   UNL A   1      35.028  32.046  30.948  1.00  0.00    -0.237 OA
ATOM     86  O   UNL A   1      35.023  33.169  28.754  1.00  0.00    -0.237 OA
ATOM     87  O   UNL A   1      35.761  30.834  28.922  1.00  0.00    -0.744 OA
ENDBRANCH  81  84
ENDBRANCH  53  77
BRANCH  65  88
ATOM     88  C   UNL A   1      42.405  32.977  37.086  1.00  0.00     0.023 A 
ATOM     89  C   UNL A   1      41.500  32.675  38.122  1.00  0.00     0.012 A 
ATOM     90  C   UNL A   1      43.210  34.130  37.185  1.00  0.00     0.148 A 
ATOM     91  C   UNL A   1      41.385  33.516  39.229  1.00  0.00     0.002 A 
ATOM     92  C   UNL A   1      43.124  34.937  38.312  1.00  0.00     0.091 A 
ATOM     93  F   UNL A   1      44.053  34.408  36.180  1.00  0.00    -0.205 F 
ATOM     94  C   UNL A   1      42.204  34.638  39.331  1.00  0.00     0.022 A 
BRANCH  92  95
ATOM     95  S   UNL A   1      44.207  36.347  38.574  1.00  0.00     0.127 S 
ATOM     96  O   UNL A   1      43.382  37.203  39.425  1.00  0.00    -0.237 OA
ATOM     97  O   UNL A   1      45.353  35.738  39.251  1.00  0.00    -0.237 OA
ATOM     98  O   UNL A   1      44.501  36.879  37.250  1.00  0.00    -0.744 OA
ENDBRANCH  92  95
ENDBRANCH  65  88
ENDBRANCH  39  40
ENDBRANCH  32  34
ENDBRANCH  31  32
ENDBRANCH  30  31
ENDBRANCH  29  30
ENDBRANCH  28  29
ENDBRANCH  27  28
ENDBRANCH  26  27
ENDBRANCH   1  26
TORSDOF 27
ENDMDL
