MODEL 1
REMARK VINA RESULT:     -10.2      0.000      0.000
REMARK SMILES C[C@@H]1CC[C@@]1(SC1CCCCC1)C(=O)OCCOCCOCCOCCOC(=O)c1ccc(-c2c3nc(c(-c4cccc(S(=O)(=O)[O-])c4F)c4ccc([nH]4)c(-c4cccc(S(=O)(=O)[O-])c4F)c4nc(c(-c5cccc(S(=O)(=O)[O-])c5F)c5ccc2[nH]5)C=C4)C=C3)cc1
REMARK SMILES IDX 22 1 21 2 20 3 19 4 18 5 17 6 16 7 15 8 13 9 14 10 5 11 1 12
REMARK SMILES IDX 2 13 3 14 4 15 6 16 7 17 8 18 12 19 9 20 11 21 10 22 23 23
REMARK SMILES IDX 24 24 25 25 26 26 27 27 28 28 29 29 30 30 31 31 92 32 32 33
REMARK SMILES IDX 91 34 33 35 34 36 35 37 85 38 36 39 90 40 84 41 86 42 37 43
REMARK SMILES IDX 89 44 83 45 82 46 38 48 70 49 50 50 69 51 51 52 54 53 68 54
REMARK SMILES IDX 87 55 52 56 53 57 67 59 88 60 55 61 39 62 40 63 48 64 41 65
REMARK SMILES IDX 43 66 49 67 42 68 44 69 45 70 46 71 47 72 71 73 72 74 80 75
REMARK SMILES IDX 73 76 75 77 81 78 74 79 76 80 77 81 78 82 79 83 56 84 57 85
REMARK SMILES IDX 65 86 58 87 60 88 66 89 59 90 61 91 62 92 63 93 64 94
REMARK H PARENT 86 47 54 58
REMARK Flexibility Score: inf
ROOT
ATOM      1  C   UNL A   1      32.685  21.616  25.344  1.00  0.00     0.188 C 
ENDROOT
BRANCH   1   2
ATOM      2  O   UNL A   1      32.711  22.247  26.609  1.00  0.00    -0.377 OA
BRANCH   2   3
ATOM      3  C   UNL A   1      32.491  23.647  26.632  1.00  0.00     0.188 C 
BRANCH   3   4
ATOM      4  C   UNL A   1      31.065  24.247  26.534  1.00  0.00     0.188 C 
BRANCH   4   5
ATOM      5  O   UNL A   1      30.996  25.641  26.802  1.00  0.00    -0.376 OA
BRANCH   5   6
ATOM      6  C   UNL A   1      32.129  26.456  26.567  1.00  0.00     0.202 C 
BRANCH   6   7
ATOM      7  C   UNL A   1      31.908  27.960  26.380  1.00  0.00     0.261 C 
BRANCH   7   8
ATOM      8  O   UNL A   1      31.878  28.443  25.027  1.00  0.00    -0.462 OA
BRANCH   8   9
ATOM      9  C   UNL A   1      31.065  29.492  24.710  1.00  0.00     0.322 C 
ATOM     10  O   UNL A   1      31.018  30.513  25.396  1.00  0.00    -0.251 OA
BRANCH   9  11
ATOM     11  C   UNL A   1      30.233  29.216  23.391  1.00  0.00     0.116 C 
ATOM     12  C   UNL A   1      27.663  30.235  23.523  1.00  0.00     0.010 C 
ATOM     13  C   UNL A   1      29.121  30.318  23.124  1.00  0.00     0.013 C 
ATOM     14  C   UNL A   1      29.448  30.264  21.625  1.00  0.00     0.007 C 
ATOM     15  C   UNL A   1      30.777  29.574  21.967  1.00  0.00     0.030 C 
BRANCH  11  16
ATOM     16  S   UNL A   1      29.548  27.484  23.421  1.00  0.00    -0.140 SA
BRANCH  16  17
ATOM     17  C   UNL A   1      31.050  26.435  23.151  1.00  0.00     0.048 C 
ATOM     18  C   UNL A   1      30.679  24.955  23.026  1.00  0.00     0.014 C 
ATOM     19  C   UNL A   1      32.024  26.831  22.034  1.00  0.00     0.014 C 
ATOM     20  C   UNL A   1      31.926  24.074  23.002  1.00  0.00     0.001 C 
ATOM     21  C   UNL A   1      33.261  25.941  21.974  1.00  0.00     0.001 C 
ATOM     22  C   UNL A   1      32.861  24.472  21.865  1.00  0.00     0.000 C 
ENDBRANCH  16  17
ENDBRANCH  11  16
ENDBRANCH   9  11
ENDBRANCH   8   9
ENDBRANCH   7   8
ENDBRANCH   6   7
ENDBRANCH   5   6
ENDBRANCH   4   5
ENDBRANCH   3   4
ENDBRANCH   2   3
ENDBRANCH   1   2
BRANCH   1  23
ATOM     23  C   UNL A   1      34.097  21.252  24.854  1.00  0.00     0.188 C 
BRANCH  23  24
ATOM     24  O   UNL A   1      35.091  22.239  25.055  1.00  0.00    -0.376 OA
BRANCH  24  25
ATOM     25  C   UNL A   1      36.267  22.003  25.811  1.00  0.00     0.202 C 
BRANCH  25  26
ATOM     26  C   UNL A   1      37.367  20.954  25.540  1.00  0.00     0.261 C 
BRANCH  26  27
ATOM     27  O   UNL A   1      38.689  21.387  25.239  1.00  0.00    -0.460 OA
BRANCH  27  28
ATOM     28  C   UNL A   1      39.648  21.140  26.155  1.00  0.00     0.338 C 
ATOM     29  O   UNL A   1      40.225  20.094  26.349  1.00  0.00    -0.246 OA
BRANCH  28  30
ATOM     30  C   UNL A   1      40.025  22.453  26.724  1.00  0.00     0.060 A 
ATOM     31  C   UNL A   1      39.342  23.590  26.272  1.00  0.00     0.016 A 
ATOM     32  C   UNL A   1      40.987  22.555  27.734  1.00  0.00     0.016 A 
ATOM     33  C   UNL A   1      39.632  24.837  26.815  1.00  0.00     0.010 A 
ATOM     34  C   UNL A   1      41.312  23.813  28.245  1.00  0.00     0.010 A 
ATOM     35  C   UNL A   1      40.655  24.958  27.761  1.00  0.00    -0.014 A 
BRANCH  35  36
ATOM     36  C   UNL A   1      41.169  26.310  28.059  1.00  0.00     0.031 A 
ATOM     37  C   UNL A   1      42.562  26.649  27.616  1.00  0.00     0.074 A 
ATOM     38  C   UNL A   1      40.400  27.228  28.663  1.00  0.00     0.049 A 
ATOM     39  N   UNL A   1      43.209  27.779  27.711  1.00  0.00    -0.248 NA
ATOM     40  C   UNL A   1      43.327  25.565  26.979  1.00  0.00     0.031 C 
ATOM     41  C   UNL A   1      39.034  27.008  29.133  1.00  0.00     0.029 A 
ATOM     42  N   UNL A   1      40.674  28.528  29.000  1.00  0.00    -0.354 N 
ATOM     43  C   UNL A   1      44.466  27.537  27.174  1.00  0.00     0.074 A 
ATOM     44  C   UNL A   1      44.495  26.150  26.766  1.00  0.00     0.031 C 
ATOM     45  C   UNL A   1      38.600  28.129  29.732  1.00  0.00     0.029 A 
ATOM     46  C   UNL A   1      39.663  29.133  29.703  1.00  0.00     0.049 A 
ATOM     47  H   UNL A   1      41.514  28.982  28.762  1.00  0.00     0.167 HD
ATOM     48  C   UNL A   1      45.501  28.396  27.024  1.00  0.00     0.034 A 
ATOM     49  C   UNL A   1      39.615  30.349  30.280  1.00  0.00     0.034 A 
ATOM     50  C   UNL A   1      45.466  29.772  27.439  1.00  0.00     0.049 A 
ATOM     51  C   UNL A   1      40.783  31.285  30.122  1.00  0.00     0.074 A 
ATOM     52  C   UNL A   1      46.439  30.742  27.282  1.00  0.00     0.029 A 
ATOM     53  N   UNL A   1      44.417  30.364  28.126  1.00  0.00    -0.354 N 
ATOM     54  N   UNL A   1      41.917  31.091  29.492  1.00  0.00    -0.248 NA
ATOM     55  C   UNL A   1      40.649  32.620  30.720  1.00  0.00     0.031 C 
ATOM     56  C   UNL A   1      45.997  31.908  27.920  1.00  0.00     0.029 A 
ATOM     57  C   UNL A   1      44.728  31.679  28.429  1.00  0.00     0.049 A 
ATOM     58  H   UNL A   1      43.574  29.915  28.364  1.00  0.00     0.167 HD
ATOM     59  C   UNL A   1      42.624  32.285  29.599  1.00  0.00     0.074 A 
ATOM     60  C   UNL A   1      41.774  33.203  30.329  1.00  0.00     0.031 C 
ATOM     61  C   UNL A   1      43.867  32.589  29.144  1.00  0.00     0.034 A 
BRANCH  48  62
ATOM     62  C   UNL A   1      46.760  27.850  26.403  1.00  0.00     0.023 A 
ATOM     63  C   UNL A   1      47.744  27.239  27.209  1.00  0.00     0.012 A 
ATOM     64  C   UNL A   1      46.972  27.949  25.014  1.00  0.00     0.148 A 
ATOM     65  C   UNL A   1      48.938  26.783  26.651  1.00  0.00     0.002 A 
ATOM     66  C   UNL A   1      48.141  27.445  24.458  1.00  0.00     0.091 A 
ATOM     67  F   UNL A   1      46.042  28.561  24.267  1.00  0.00    -0.205 F 
ATOM     68  C   UNL A   1      49.132  26.877  25.276  1.00  0.00     0.022 A 
BRANCH  66  69
ATOM     69  S   UNL A   1      48.442  27.446  22.689  1.00  0.00     0.127 S 
ATOM     70  O   UNL A   1      48.408  26.017  22.382  1.00  0.00    -0.237 OA
ATOM     71  O   UNL A   1      47.299  28.207  22.182  1.00  0.00    -0.237 OA
ATOM     72  O   UNL A   1      49.731  28.097  22.503  1.00  0.00    -0.744 OA
ENDBRANCH  66  69
ENDBRANCH  48  62
BRANCH  49  73
ATOM     73  C   UNL A   1      38.402  30.741  31.049  1.00  0.00     0.023 A 
ATOM     74  C   UNL A   1      38.333  30.498  32.432  1.00  0.00     0.012 A 
ATOM     75  C   UNL A   1      37.341  31.416  30.413  1.00  0.00     0.148 A 
ATOM     76  C   UNL A   1      37.219  30.906  33.168  1.00  0.00     0.002 A 
ATOM     77  C   UNL A   1      36.265  31.873  31.160  1.00  0.00     0.091 A 
ATOM     78  F   UNL A   1      37.426  31.625  29.091  1.00  0.00    -0.205 F 
ATOM     79  C   UNL A   1      36.193  31.604  32.536  1.00  0.00     0.022 A 
BRANCH  77  80
ATOM     80  S   UNL A   1      34.971  32.903  30.461  1.00  0.00     0.127 S 
ATOM     81  O   UNL A   1      35.732  34.048  29.969  1.00  0.00    -0.237 OA
ATOM     82  O   UNL A   1      34.427  32.030  29.421  1.00  0.00    -0.237 OA
ATOM     83  O   UNL A   1      34.051  33.186  31.555  1.00  0.00    -0.744 OA
ENDBRANCH  77  80
ENDBRANCH  49  73
BRANCH  61  84
ATOM     84  C   UNL A   1      44.380  33.983  29.409  1.00  0.00     0.023 A 
ATOM     85  C   UNL A   1      45.121  34.252  30.578  1.00  0.00     0.012 A 
ATOM     86  C   UNL A   1      44.168  35.019  28.477  1.00  0.00     0.148 A 
ATOM     87  C   UNL A   1      45.596  35.537  30.839  1.00  0.00     0.002 A 
ATOM     88  C   UNL A   1      44.693  36.283  28.716  1.00  0.00     0.091 A 
ATOM     89  F   UNL A   1      43.450  34.752  27.376  1.00  0.00    -0.205 F 
ATOM     90  C   UNL A   1      45.392  36.549  29.904  1.00  0.00     0.022 A 
BRANCH  88  91
ATOM     91  S   UNL A   1      44.563  37.622  27.525  1.00  0.00     0.127 S 
ATOM     92  O   UNL A   1      43.244  37.377  26.944  1.00  0.00    -0.237 OA
ATOM     93  O   UNL A   1      44.643  38.807  28.379  1.00  0.00    -0.237 OA
ATOM     94  O   UNL A   1      45.687  37.458  26.613  1.00  0.00    -0.744 OA
ENDBRANCH  88  91
ENDBRANCH  61  84
ENDBRANCH  35  36
ENDBRANCH  28  30
ENDBRANCH  27  28
ENDBRANCH  26  27
ENDBRANCH  25  26
ENDBRANCH  24  25
ENDBRANCH  23  24
ENDBRANCH   1  23
TORSDOF 25
ENDMDL
MODEL 2
REMARK VINA RESULT:      -9.6      6.164     11.254
REMARK SMILES C[C@@H]1CC[C@@]1(SC1CCCCC1)C(=O)OCCOCCOCCOCCOC(=O)c1ccc(-c2c3nc(c(-c4cccc(S(=O)(=O)[O-])c4F)c4ccc([nH]4)c(-c4cccc(S(=O)(=O)[O-])c4F)c4nc(c(-c5cccc(S(=O)(=O)[O-])c5F)c5ccc2[nH]5)C=C4)C=C3)cc1
REMARK SMILES IDX 22 1 21 2 20 3 19 4 18 5 17 6 16 7 15 8 13 9 14 10 5 11 1 12
REMARK SMILES IDX 2 13 3 14 4 15 6 16 7 17 8 18 12 19 9 20 11 21 10 22 23 23
REMARK SMILES IDX 24 24 25 25 26 26 27 27 28 28 29 29 30 30 31 31 92 32 32 33
REMARK SMILES IDX 91 34 33 35 34 36 35 37 85 38 36 39 90 40 84 41 86 42 37 43
REMARK SMILES IDX 89 44 83 45 82 46 38 48 70 49 50 50 69 51 51 52 54 53 68 54
REMARK SMILES IDX 87 55 52 56 53 57 67 59 88 60 55 61 39 62 40 63 48 64 41 65
REMARK SMILES IDX 43 66 49 67 42 68 44 69 45 70 46 71 47 72 71 73 72 74 80 75
REMARK SMILES IDX 73 76 75 77 81 78 74 79 76 80 77 81 78 82 79 83 56 84 57 85
REMARK SMILES IDX 65 86 58 87 60 88 66 89 59 90 61 91 62 92 63 93 64 94
REMARK H PARENT 86 47 54 58
REMARK Flexibility Score: inf
ROOT
ATOM      1  C   UNL A   1      35.391  30.891  28.158  1.00  0.00     0.188 C 
ENDROOT
BRANCH   1   2
ATOM      2  O   UNL A   1      34.316  30.295  27.460  1.00  0.00    -0.377 OA
BRANCH   2   3
ATOM      3  C   UNL A   1      33.174  31.104  27.231  1.00  0.00     0.188 C 
BRANCH   3   4
ATOM      4  C   UNL A   1      31.801  30.487  26.860  1.00  0.00     0.188 C 
BRANCH   4   5
ATOM      5  O   UNL A   1      31.748  29.071  26.961  1.00  0.00    -0.376 OA
BRANCH   5   6
ATOM      6  C   UNL A   1      31.583  28.292  25.790  1.00  0.00     0.202 C 
BRANCH   6   7
ATOM      7  C   UNL A   1      30.945  26.907  25.931  1.00  0.00     0.261 C 
BRANCH   7   8
ATOM      8  O   UNL A   1      31.840  25.783  25.950  1.00  0.00    -0.462 OA
BRANCH   8   9
ATOM      9  C   UNL A   1      31.774  24.860  24.948  1.00  0.00     0.322 C 
ATOM     10  O   UNL A   1      31.002  23.902  24.993  1.00  0.00    -0.251 OA
BRANCH   9  11
ATOM     11  C   UNL A   1      32.785  25.188  23.774  1.00  0.00     0.116 C 
ATOM     12  C   UNL A   1      31.507  26.095  21.493  1.00  0.00     0.010 C 
ATOM     13  C   UNL A   1      32.246  26.317  22.796  1.00  0.00     0.013 C 
ATOM     14  C   UNL A   1      33.661  26.904  22.715  1.00  0.00     0.007 C 
ATOM     15  C   UNL A   1      34.033  26.112  23.978  1.00  0.00     0.030 C 
BRANCH  11  16
ATOM     16  S   UNL A   1      33.260  23.621  22.885  1.00  0.00    -0.140 SA
BRANCH  16  17
ATOM     17  C   UNL A   1      34.625  22.943  23.935  1.00  0.00     0.048 C 
ATOM     18  C   UNL A   1      34.272  21.555  24.478  1.00  0.00     0.014 C 
ATOM     19  C   UNL A   1      36.050  22.938  23.365  1.00  0.00     0.014 C 
ATOM     20  C   UNL A   1      35.305  21.081  25.498  1.00  0.00     0.001 C 
ATOM     21  C   UNL A   1      37.092  22.437  24.360  1.00  0.00     0.001 C 
ATOM     22  C   UNL A   1      36.706  21.060  24.895  1.00  0.00     0.000 C 
ENDBRANCH  16  17
ENDBRANCH  11  16
ENDBRANCH   9  11
ENDBRANCH   8   9
ENDBRANCH   7   8
ENDBRANCH   6   7
ENDBRANCH   5   6
ENDBRANCH   4   5
ENDBRANCH   3   4
ENDBRANCH   2   3
ENDBRANCH   1   2
BRANCH   1  23
ATOM     23  C   UNL A   1      34.959  32.171  28.895  1.00  0.00     0.188 C 
BRANCH  23  24
ATOM     24  O   UNL A   1      35.362  33.390  28.298  1.00  0.00    -0.376 OA
BRANCH  24  25
ATOM     25  C   UNL A   1      34.465  34.462  28.058  1.00  0.00     0.202 C 
BRANCH  25  26
ATOM     26  C   UNL A   1      33.301  34.934  28.956  1.00  0.00     0.261 C 
BRANCH  26  27
ATOM     27  O   UNL A   1      33.581  35.711  30.115  1.00  0.00    -0.460 OA
BRANCH  27  28
ATOM     28  C   UNL A   1      33.153  35.234  31.302  1.00  0.00     0.338 C 
ATOM     29  O   UNL A   1      32.012  35.179  31.702  1.00  0.00    -0.246 OA
BRANCH  28  30
ATOM     30  C   UNL A   1      34.322  34.576  31.929  1.00  0.00     0.060 A 
ATOM     31  C   UNL A   1      35.597  35.083  31.646  1.00  0.00     0.016 A 
ATOM     32  C   UNL A   1      34.159  33.521  32.832  1.00  0.00     0.016 A 
ATOM     33  C   UNL A   1      36.717  34.524  32.251  1.00  0.00     0.010 A 
ATOM     34  C   UNL A   1      35.288  32.929  33.403  1.00  0.00     0.010 A 
ATOM     35  C   UNL A   1      36.569  33.412  33.086  1.00  0.00    -0.014 A 
BRANCH  35  36
ATOM     36  C   UNL A   1      37.778  32.638  33.432  1.00  0.00     0.031 A 
ATOM     37  C   UNL A   1      38.542  33.034  34.661  1.00  0.00     0.074 A 
ATOM     38  C   UNL A   1      38.158  31.580  32.701  1.00  0.00     0.049 A 
ATOM     39  N   UNL A   1      39.593  32.477  35.199  1.00  0.00    -0.248 NA
ATOM     40  C   UNL A   1      38.050  34.220  35.382  1.00  0.00     0.031 C 
ATOM     41  C   UNL A   1      37.491  31.105  31.492  1.00  0.00     0.029 A 
ATOM     42  N   UNL A   1      39.218  30.725  32.867  1.00  0.00    -0.354 N 
ATOM     43  C   UNL A   1      39.908  33.259  36.303  1.00  0.00     0.074 A 
ATOM     44  C   UNL A   1      38.944  34.336  36.351  1.00  0.00     0.031 C 
ATOM     45  C   UNL A   1      38.181  30.061  31.001  1.00  0.00     0.029 A 
ATOM     46  C   UNL A   1      39.343  29.810  31.852  1.00  0.00     0.049 A 
ATOM     47  H   UNL A   1      39.829  30.765  33.638  1.00  0.00     0.167 HD
ATOM     48  C   UNL A   1      40.905  33.090  37.202  1.00  0.00     0.034 A 
ATOM     49  C   UNL A   1      40.304  28.894  31.625  1.00  0.00     0.034 A 
ATOM     50  C   UNL A   1      41.863  32.020  37.142  1.00  0.00     0.049 A 
ATOM     51  C   UNL A   1      41.418  28.732  32.624  1.00  0.00     0.074 A 
ATOM     52  C   UNL A   1      42.878  31.724  38.034  1.00  0.00     0.029 A 
ATOM     53  N   UNL A   1      41.949  31.091  36.115  1.00  0.00    -0.354 N 
ATOM     54  N   UNL A   1      41.629  29.391  33.739  1.00  0.00    -0.248 NA
ATOM     55  C   UNL A   1      42.403  27.676  32.354  1.00  0.00     0.031 C 
ATOM     56  C   UNL A   1      43.609  30.646  37.519  1.00  0.00     0.029 A 
ATOM     57  C   UNL A   1      43.019  30.239  36.333  1.00  0.00     0.049 A 
ATOM     58  H   UNL A   1      41.339  31.046  35.344  1.00  0.00     0.167 HD
ATOM     59  C   UNL A   1      42.758  28.817  34.315  1.00  0.00     0.074 A 
ATOM     60  C   UNL A   1      43.165  27.737  33.438  1.00  0.00     0.031 C 
ATOM     61  C   UNL A   1      43.405  29.158  35.460  1.00  0.00     0.034 A 
BRANCH  48  62
ATOM     62  C   UNL A   1      41.009  34.106  38.309  1.00  0.00     0.023 A 
ATOM     63  C   UNL A   1      41.968  35.139  38.238  1.00  0.00     0.012 A 
ATOM     64  C   UNL A   1      40.157  34.033  39.427  1.00  0.00     0.148 A 
ATOM     65  C   UNL A   1      42.111  36.048  39.285  1.00  0.00     0.002 A 
ATOM     66  C   UNL A   1      40.270  34.975  40.442  1.00  0.00     0.091 A 
ATOM     67  F   UNL A   1      39.273  33.027  39.494  1.00  0.00    -0.205 F 
ATOM     68  C   UNL A   1      41.256  35.973  40.381  1.00  0.00     0.022 A 
BRANCH  66  69
ATOM     69  S   UNL A   1      39.160  35.008  41.852  1.00  0.00     0.127 S 
ATOM     70  O   UNL A   1      37.883  34.657  41.231  1.00  0.00    -0.237 OA
ATOM     71  O   UNL A   1      39.725  33.968  42.712  1.00  0.00    -0.237 OA
ATOM     72  O   UNL A   1      39.245  36.355  42.397  1.00  0.00    -0.744 OA
ENDBRANCH  66  69
ENDBRANCH  48  62
BRANCH  49  73
ATOM     73  C   UNL A   1      40.233  28.056  30.397  1.00  0.00     0.023 A 
ATOM     74  C   UNL A   1      39.287  27.019  30.303  1.00  0.00     0.012 A 
ATOM     75  C   UNL A   1      41.064  28.333  29.294  1.00  0.00     0.148 A 
ATOM     76  C   UNL A   1      39.181  26.261  29.136  1.00  0.00     0.002 A 
ATOM     77  C   UNL A   1      40.913  27.616  28.116  1.00  0.00     0.091 A 
ATOM     78  F   UNL A   1      41.965  29.319  29.413  1.00  0.00    -0.205 F 
ATOM     79  C   UNL A   1      39.983  26.567  28.040  1.00  0.00     0.022 A 
BRANCH  77  80
ATOM     80  S   UNL A   1      41.798  28.033  26.610  1.00  0.00     0.127 S 
ATOM     81  O   UNL A   1      41.238  27.077  25.658  1.00  0.00    -0.237 OA
ATOM     82  O   UNL A   1      41.389  29.423  26.402  1.00  0.00    -0.237 OA
ATOM     83  O   UNL A   1      43.211  27.858  26.916  1.00  0.00    -0.744 OA
ENDBRANCH  77  80
ENDBRANCH  49  73
BRANCH  61  84
ATOM     84  C   UNL A   1      44.617  28.343  35.840  1.00  0.00     0.023 A 
ATOM     85  C   UNL A   1      45.903  28.764  35.446  1.00  0.00     0.012 A 
ATOM     86  C   UNL A   1      44.486  27.182  36.629  1.00  0.00     0.148 A 
ATOM     87  C   UNL A   1      47.031  28.018  35.786  1.00  0.00     0.002 A 
ATOM     88  C   UNL A   1      45.619  26.475  37.013  1.00  0.00     0.091 A 
ATOM     89  F   UNL A   1      43.255  26.786  36.985  1.00  0.00    -0.205 F 
ATOM     90  C   UNL A   1      46.891  26.880  36.577  1.00  0.00     0.022 A 
BRANCH  88  91
ATOM     91  S   UNL A   1      45.543  25.054  38.110  1.00  0.00     0.127 S 
ATOM     92  O   UNL A   1      46.958  24.725  38.270  1.00  0.00    -0.237 OA
ATOM     93  O   UNL A   1      44.909  25.617  39.303  1.00  0.00    -0.237 OA
ATOM     94  O   UNL A   1      44.743  24.054  37.416  1.00  0.00    -0.744 OA
ENDBRANCH  88  91
ENDBRANCH  61  84
ENDBRANCH  35  36
ENDBRANCH  28  30
ENDBRANCH  27  28
ENDBRANCH  26  27
ENDBRANCH  25  26
ENDBRANCH  24  25
ENDBRANCH  23  24
ENDBRANCH   1  23
TORSDOF 25
ENDMDL
MODEL 3
REMARK VINA RESULT:      -9.6      1.855      2.143
REMARK SMILES C[C@@H]1CC[C@@]1(SC1CCCCC1)C(=O)OCCOCCOCCOCCOC(=O)c1ccc(-c2c3nc(c(-c4cccc(S(=O)(=O)[O-])c4F)c4ccc([nH]4)c(-c4cccc(S(=O)(=O)[O-])c4F)c4nc(c(-c5cccc(S(=O)(=O)[O-])c5F)c5ccc2[nH]5)C=C4)C=C3)cc1
REMARK SMILES IDX 22 1 21 2 20 3 19 4 18 5 17 6 16 7 15 8 13 9 14 10 5 11 1 12
REMARK SMILES IDX 2 13 3 14 4 15 6 16 7 17 8 18 12 19 9 20 11 21 10 22 23 23
REMARK SMILES IDX 24 24 25 25 26 26 27 27 28 28 29 29 30 30 31 31 92 32 32 33
REMARK SMILES IDX 91 34 33 35 34 36 35 37 85 38 36 39 90 40 84 41 86 42 37 43
REMARK SMILES IDX 89 44 83 45 82 46 38 48 70 49 50 50 69 51 51 52 54 53 68 54
REMARK SMILES IDX 87 55 52 56 53 57 67 59 88 60 55 61 39 62 40 63 48 64 41 65
REMARK SMILES IDX 43 66 49 67 42 68 44 69 45 70 46 71 47 72 71 73 72 74 80 75
REMARK SMILES IDX 73 76 75 77 81 78 74 79 76 80 77 81 78 82 79 83 56 84 57 85
REMARK SMILES IDX 65 86 58 87 60 88 66 89 59 90 61 91 62 92 63 93 64 94
REMARK H PARENT 86 47 54 58
REMARK Flexibility Score: inf
ROOT
ATOM      1  C   UNL A   1      32.652  21.853  25.314  1.00  0.00     0.188 C 
ENDROOT
BRANCH   1   2
ATOM      2  O   UNL A   1      32.668  22.378  26.627  1.00  0.00    -0.377 OA
BRANCH   2   3
ATOM      3  C   UNL A   1      32.650  23.790  26.752  1.00  0.00     0.188 C 
BRANCH   3   4
ATOM      4  C   UNL A   1      31.327  24.596  26.683  1.00  0.00     0.188 C 
BRANCH   4   5
ATOM      5  O   UNL A   1      31.466  25.978  26.979  1.00  0.00    -0.376 OA
BRANCH   5   6
ATOM      6  C   UNL A   1      32.566  26.699  26.455  1.00  0.00     0.202 C 
BRANCH   6   7
ATOM      7  C   UNL A   1      32.388  28.198  26.196  1.00  0.00     0.261 C 
BRANCH   7   8
ATOM      8  O   UNL A   1      32.085  28.588  24.847  1.00  0.00    -0.462 OA
BRANCH   8   9
ATOM      9  C   UNL A   1      31.115  29.520  24.623  1.00  0.00     0.322 C 
ATOM     10  O   UNL A   1      30.919  30.458  25.395  1.00  0.00    -0.251 OA
BRANCH   9  11
ATOM     11  C   UNL A   1      30.318  29.232  23.284  1.00  0.00     0.116 C 
ATOM     12  C   UNL A   1      27.677  30.047  23.424  1.00  0.00     0.010 C 
ATOM     13  C   UNL A   1      29.128  30.256  23.045  1.00  0.00     0.013 C 
ATOM     14  C   UNL A   1      29.471  30.284  21.550  1.00  0.00     0.007 C 
ATOM     15  C   UNL A   1      30.846  29.685  21.882  1.00  0.00     0.030 C 
BRANCH  11  16
ATOM     16  S   UNL A   1      29.766  27.453  23.241  1.00  0.00    -0.140 SA
BRANCH  16  17
ATOM     17  C   UNL A   1      31.277  26.561  22.649  1.00  0.00     0.048 C 
ATOM     18  C   UNL A   1      31.537  25.299  23.476  1.00  0.00     0.014 C 
ATOM     19  C   UNL A   1      31.397  26.245  21.152  1.00  0.00     0.014 C 
ATOM     20  C   UNL A   1      32.884  24.673  23.120  1.00  0.00     0.001 C 
ATOM     21  C   UNL A   1      32.724  25.590  20.783  1.00  0.00     0.001 C 
ATOM     22  C   UNL A   1      32.963  24.344  21.632  1.00  0.00     0.000 C 
ENDBRANCH  16  17
ENDBRANCH  11  16
ENDBRANCH   9  11
ENDBRANCH   8   9
ENDBRANCH   7   8
ENDBRANCH   6   7
ENDBRANCH   5   6
ENDBRANCH   4   5
ENDBRANCH   3   4
ENDBRANCH   2   3
ENDBRANCH   1   2
BRANCH   1  23
ATOM     23  C   UNL A   1      34.073  21.619  24.772  1.00  0.00     0.188 C 
BRANCH  23  24
ATOM     24  O   UNL A   1      35.038  22.588  25.138  1.00  0.00    -0.376 OA
BRANCH  24  25
ATOM     25  C   UNL A   1      36.215  22.267  25.862  1.00  0.00     0.202 C 
BRANCH  25  26
ATOM     26  C   UNL A   1      37.196  21.106  25.594  1.00  0.00     0.261 C 
BRANCH  26  27
ATOM     27  O   UNL A   1      38.543  21.396  25.236  1.00  0.00    -0.460 OA
BRANCH  27  28
ATOM     28  C   UNL A   1      39.501  21.115  26.143  1.00  0.00     0.338 C 
ATOM     29  O   UNL A   1      40.041  20.049  26.336  1.00  0.00    -0.246 OA
BRANCH  28  30
ATOM     30  C   UNL A   1      39.934  22.416  26.703  1.00  0.00     0.060 A 
ATOM     31  C   UNL A   1      39.353  23.583  26.190  1.00  0.00     0.016 A 
ATOM     32  C   UNL A   1      40.847  22.481  27.760  1.00  0.00     0.016 A 
ATOM     33  C   UNL A   1      39.695  24.821  26.720  1.00  0.00     0.010 A 
ATOM     34  C   UNL A   1      41.227  23.728  28.260  1.00  0.00     0.010 A 
ATOM     35  C   UNL A   1      40.673  24.900  27.716  1.00  0.00    -0.014 A 
BRANCH  35  36
ATOM     36  C   UNL A   1      41.259  26.223  28.012  1.00  0.00     0.031 A 
ATOM     37  C   UNL A   1      42.639  26.514  27.502  1.00  0.00     0.074 A 
ATOM     38  C   UNL A   1      40.562  27.159  28.674  1.00  0.00     0.049 A 
ATOM     39  N   UNL A   1      43.338  27.614  27.583  1.00  0.00    -0.248 NA
ATOM     40  C   UNL A   1      43.323  25.414  26.803  1.00  0.00     0.031 C 
ATOM     41  C   UNL A   1      39.215  26.985  29.212  1.00  0.00     0.029 A 
ATOM     42  N   UNL A   1      40.909  28.439  29.021  1.00  0.00    -0.354 N 
ATOM     43  C   UNL A   1      44.553  27.332  26.974  1.00  0.00     0.074 A 
ATOM     44  C   UNL A   1      44.502  25.954  26.539  1.00  0.00     0.031 C 
ATOM     45  C   UNL A   1      38.861  28.111  29.856  1.00  0.00     0.029 A 
ATOM     46  C   UNL A   1      39.962  29.070  29.789  1.00  0.00     0.049 A 
ATOM     47  H   UNL A   1      41.753  28.863  28.746  1.00  0.00     0.167 HD
ATOM     48  C   UNL A   1      45.614  28.151  26.785  1.00  0.00     0.034 A 
ATOM     49  C   UNL A   1      39.996  30.275  30.390  1.00  0.00     0.034 A 
ATOM     50  C   UNL A   1      45.659  29.517  27.228  1.00  0.00     0.049 A 
ATOM     51  C   UNL A   1      41.193  31.165  30.187  1.00  0.00     0.074 A 
ATOM     52  C   UNL A   1      46.662  30.450  27.037  1.00  0.00     0.029 A 
ATOM     53  N   UNL A   1      44.674  30.138  27.981  1.00  0.00    -0.354 N 
ATOM     54  N   UNL A   1      42.283  30.938  29.493  1.00  0.00    -0.248 NA
ATOM     55  C   UNL A   1      41.147  32.491  30.818  1.00  0.00     0.031 C 
ATOM     56  C   UNL A   1      46.304  31.619  27.720  1.00  0.00     0.029 A 
ATOM     57  C   UNL A   1      45.056  31.432  28.292  1.00  0.00     0.049 A 
ATOM     58  H   UNL A   1      43.827  29.719  28.255  1.00  0.00     0.167 HD
ATOM     59  C   UNL A   1      43.045  32.099  29.585  1.00  0.00     0.074 A 
ATOM     60  C   UNL A   1      42.274  33.036  30.377  1.00  0.00     0.031 C 
ATOM     61  C   UNL A   1      44.273  32.362  29.069  1.00  0.00     0.034 A 
BRANCH  48  62
ATOM     62  C   UNL A   1      46.814  27.567  26.087  1.00  0.00     0.023 A 
ATOM     63  C   UNL A   1      46.927  27.644  24.682  1.00  0.00     0.012 A 
ATOM     64  C   UNL A   1      47.832  26.935  26.825  1.00  0.00     0.148 A 
ATOM     65  C   UNL A   1      48.005  27.057  24.022  1.00  0.00     0.002 A 
ATOM     66  C   UNL A   1      48.930  26.397  26.165  1.00  0.00     0.091 A 
ATOM     67  F   UNL A   1      47.695  26.841  28.156  1.00  0.00    -0.205 F 
ATOM     68  C   UNL A   1      49.011  26.442  24.763  1.00  0.00     0.022 A 
BRANCH  66  69
ATOM     69  S   UNL A   1      50.313  25.660  27.040  1.00  0.00     0.127 S 
ATOM     70  O   UNL A   1      49.745  24.382  27.468  1.00  0.00    -0.237 OA
ATOM     71  O   UNL A   1      51.324  25.557  25.987  1.00  0.00    -0.237 OA
ATOM     72  O   UNL A   1      50.649  26.588  28.111  1.00  0.00    -0.744 OA
ENDBRANCH  66  69
ENDBRANCH  48  62
BRANCH  49  73
ATOM     73  C   UNL A   1      38.844  30.700  31.230  1.00  0.00     0.023 A 
ATOM     74  C   UNL A   1      38.803  30.365  32.596  1.00  0.00     0.012 A 
ATOM     75  C   UNL A   1      37.817  31.494  30.684  1.00  0.00     0.148 A 
ATOM     76  C   UNL A   1      37.750  30.801  33.401  1.00  0.00     0.002 A 
ATOM     77  C   UNL A   1      36.804  31.975  31.502  1.00  0.00     0.091 A 
ATOM     78  F   UNL A   1      37.872  31.789  29.377  1.00  0.00    -0.205 F 
ATOM     79  C   UNL A   1      36.759  31.616  32.858  1.00  0.00     0.022 A 
BRANCH  77  80
ATOM     80  S   UNL A   1      35.570  33.144  30.926  1.00  0.00     0.127 S 
ATOM     81  O   UNL A   1      34.333  32.543  31.418  1.00  0.00    -0.237 OA
ATOM     82  O   UNL A   1      35.977  34.369  31.615  1.00  0.00    -0.237 OA
ATOM     83  O   UNL A   1      35.710  33.192  29.477  1.00  0.00    -0.744 OA
ENDBRANCH  77  80
ENDBRANCH  49  73
BRANCH  61  84
ATOM     84  C   UNL A   1      44.858  33.727  29.333  1.00  0.00     0.023 A 
ATOM     85  C   UNL A   1      44.597  34.791  28.446  1.00  0.00     0.012 A 
ATOM     86  C   UNL A   1      45.631  33.969  30.487  1.00  0.00     0.148 A 
ATOM     87  C   UNL A   1      45.136  36.057  28.675  1.00  0.00     0.002 A 
ATOM     88  C   UNL A   1      46.118  35.247  30.739  1.00  0.00     0.091 A 
ATOM     89  F   UNL A   1      45.884  32.945  31.315  1.00  0.00    -0.205 F 
ATOM     90  C   UNL A   1      45.887  36.287  29.825  1.00  0.00     0.022 A 
BRANCH  88  91
ATOM     91  S   UNL A   1      47.012  35.659  32.241  1.00  0.00     0.127 S 
ATOM     92  O   UNL A   1      47.238  37.093  32.069  1.00  0.00    -0.237 OA
ATOM     93  O   UNL A   1      46.043  35.316  33.283  1.00  0.00    -0.237 OA
ATOM     94  O   UNL A   1      48.210  34.832  32.235  1.00  0.00    -0.744 OA
ENDBRANCH  88  91
ENDBRANCH  61  84
ENDBRANCH  35  36
ENDBRANCH  28  30
ENDBRANCH  27  28
ENDBRANCH  26  27
ENDBRANCH  25  26
ENDBRANCH  24  25
ENDBRANCH  23  24
ENDBRANCH   1  23
TORSDOF 25
ENDMDL
