MODEL 1
REMARK VINA RESULT:      -7.6      0.000      0.000
REMARK SMILES C[NH+]1CCC([N@@H+](CC(=O)OCCOCCOCCOCCOC(=O)c2ccc(-c3c4nc(c(-c5cccc(S(=O)(=O)[O-])c5F)c5ccc([nH]5)c(-c5cccc(S(=O)(=O)[O-])c5F)c5nc(c(-c6cccc(S(=O)(=O)[O-])c6F)c6ccc3[nH]6)C=C5)C=C4)cc2)C(C)(C)C)CC1
REMARK SMILES IDX 17 1 16 2 15 3 14 4 13 5 12 6 11 7 10 8 8 9 9 10 7 11 6 12
REMARK SMILES IDX 5 14 1 15 2 16 3 17 93 18 4 20 92 21 88 22 89 23 90 24 91 25
REMARK SMILES IDX 18 26 19 27 20 28 21 29 22 30 23 31 24 32 25 33 26 34 87 35
REMARK SMILES IDX 27 36 86 37 28 38 29 39 30 40 80 41 31 42 85 43 79 44 81 45
REMARK SMILES IDX 32 46 84 47 78 48 77 49 33 51 65 52 45 53 64 54 46 55 49 56
REMARK SMILES IDX 63 57 82 58 47 59 48 60 62 62 83 63 50 64 34 65 35 66 43 67
REMARK SMILES IDX 36 68 38 69 44 70 37 71 39 72 40 73 41 74 42 75 66 76 67 77
REMARK SMILES IDX 75 78 68 79 70 80 76 81 69 82 71 83 72 84 73 85 74 86 51 87
REMARK SMILES IDX 52 88 60 89 53 90 55 91 61 92 54 93 56 94 57 95 58 96 59 97
REMARK H PARENT 6 13 2 19 81 50 49 61
REMARK Flexibility Score: inf
ROOT
ATOM      1  C   UNL A   1      35.003  31.723  28.289  1.00  0.00     0.188 C 
ENDROOT
BRANCH   1   2
ATOM      2  O   UNL A   1      33.973  31.626  27.312  1.00  0.00    -0.377 OA
BRANCH   2   3
ATOM      3  C   UNL A   1      33.123  30.486  27.335  1.00  0.00     0.188 C 
BRANCH   3   4
ATOM      4  C   UNL A   1      31.888  30.759  26.468  1.00  0.00     0.188 C 
BRANCH   4   5
ATOM      5  O   UNL A   1      31.361  29.597  25.821  1.00  0.00    -0.376 OA
BRANCH   5   6
ATOM      6  C   UNL A   1      31.997  29.226  24.599  1.00  0.00     0.202 C 
BRANCH   6   7
ATOM      7  C   UNL A   1      31.722  27.801  24.110  1.00  0.00     0.261 C 
BRANCH   7   8
ATOM      8  O   UNL A   1      32.789  27.168  23.370  1.00  0.00    -0.459 OA
BRANCH   8   9
ATOM      9  C   UNL A   1      33.461  26.183  24.019  1.00  0.00     0.361 C 
ATOM     10  O   UNL A   1      34.013  26.353  25.107  1.00  0.00    -0.245 OA
BRANCH   9  11
ATOM     11  C   UNL A   1      33.667  24.872  23.245  1.00  0.00     0.387 C 
BRANCH  11  12
ATOM     12  N   UNL A   1      33.340  23.559  23.851  1.00  0.00    -0.319 N 
ATOM     13  H   UNL A   1      32.963  23.604  24.796  1.00  0.00     0.349 HD
BRANCH  12  14
ATOM     14  C   UNL A   1      34.528  22.744  24.243  1.00  0.00     0.196 C 
ATOM     15  C   UNL A   1      38.489  21.814  25.768  1.00  0.00     0.332 C 
ATOM     16  N   UNL A   1      37.257  22.446  25.299  1.00  0.00    -0.337 N 
ATOM     17  C   UNL A   1      36.132  22.060  26.151  1.00  0.00     0.268 C 
ATOM     18  C   UNL A   1      36.967  22.057  23.919  1.00  0.00     0.268 C 
ATOM     19  H   UNL A   1      37.387  23.456  25.342  1.00  0.00     0.347 HD
ATOM     20  C   UNL A   1      34.862  22.809  25.747  1.00  0.00     0.126 C 
ATOM     21  C   UNL A   1      35.813  22.921  23.414  1.00  0.00     0.126 C 
ENDBRANCH  12  14
BRANCH  12  22
ATOM     22  C   UNL A   1      31.956  23.041  23.766  1.00  0.00     0.090 C 
ATOM     23  C   UNL A   1      31.912  21.774  22.923  1.00  0.00     0.078 C 
ATOM     24  C   UNL A   1      31.311  22.727  25.143  1.00  0.00     0.078 C 
ATOM     25  C   UNL A   1      30.958  24.030  23.099  1.00  0.00     0.078 C 
ENDBRANCH  12  22
ENDBRANCH  11  12
ENDBRANCH   9  11
ENDBRANCH   8   9
ENDBRANCH   7   8
ENDBRANCH   6   7
ENDBRANCH   5   6
ENDBRANCH   4   5
ENDBRANCH   3   4
ENDBRANCH   2   3
ENDBRANCH   1   2
BRANCH   1  26
ATOM     26  C   UNL A   1      35.807  33.028  28.364  1.00  0.00     0.188 C 
BRANCH  26  27
ATOM     27  O   UNL A   1      35.724  33.808  29.556  1.00  0.00    -0.376 OA
BRANCH  27  28
ATOM     28  C   UNL A   1      35.079  33.231  30.686  1.00  0.00     0.202 C 
BRANCH  28  29
ATOM     29  C   UNL A   1      35.979  32.795  31.843  1.00  0.00     0.261 C 
BRANCH  29  30
ATOM     30  O   UNL A   1      37.065  31.976  31.387  1.00  0.00    -0.460 OA
BRANCH  30  31
ATOM     31  C   UNL A   1      36.917  30.654  31.621  1.00  0.00     0.338 C 
ATOM     32  O   UNL A   1      35.899  30.070  31.949  1.00  0.00    -0.246 OA
BRANCH  31  33
ATOM     33  C   UNL A   1      38.156  29.947  31.264  1.00  0.00     0.060 A 
ATOM     34  C   UNL A   1      38.376  28.689  31.840  1.00  0.00     0.016 A 
ATOM     35  C   UNL A   1      39.139  30.565  30.490  1.00  0.00     0.016 A 
ATOM     36  C   UNL A   1      39.611  28.070  31.700  1.00  0.00     0.010 A 
ATOM     37  C   UNL A   1      40.385  29.950  30.364  1.00  0.00     0.010 A 
ATOM     38  C   UNL A   1      40.636  28.727  31.013  1.00  0.00    -0.014 A 
BRANCH  38  39
ATOM     39  C   UNL A   1      42.024  28.239  31.156  1.00  0.00     0.031 A 
ATOM     40  C   UNL A   1      42.804  28.654  32.372  1.00  0.00     0.074 A 
ATOM     41  C   UNL A   1      42.572  27.439  30.228  1.00  0.00     0.049 A 
ATOM     42  N   UNL A   1      44.040  28.383  32.693  1.00  0.00    -0.248 NA
ATOM     43  C   UNL A   1      42.089  29.477  33.364  1.00  0.00     0.031 C 
ATOM     44  C   UNL A   1      41.887  26.937  29.039  1.00  0.00     0.029 A 
ATOM     45  N   UNL A   1      43.845  26.945  30.120  1.00  0.00    -0.354 N 
ATOM     46  C   UNL A   1      44.258  29.012  33.913  1.00  0.00     0.074 A 
ATOM     47  C   UNL A   1      43.034  29.696  34.265  1.00  0.00     0.031 C 
ATOM     48  C   UNL A   1      42.774  26.279  28.272  1.00  0.00     0.029 A 
ATOM     49  C   UNL A   1      44.079  26.309  28.926  1.00  0.00     0.049 A 
ATOM     50  H   UNL A   1      44.523  27.036  30.828  1.00  0.00     0.167 HD
ATOM     51  C   UNL A   1      45.372  29.000  34.680  1.00  0.00     0.034 A 
ATOM     52  C   UNL A   1      45.228  25.827  28.412  1.00  0.00     0.034 A 
ATOM     53  C   UNL A   1      46.579  28.308  34.321  1.00  0.00     0.049 A 
ATOM     54  C   UNL A   1      46.472  25.871  29.254  1.00  0.00     0.074 A 
ATOM     55  C   UNL A   1      47.751  28.184  35.044  1.00  0.00     0.029 A 
ATOM     56  N   UNL A   1      46.773  27.637  33.122  1.00  0.00    -0.354 N 
ATOM     57  N   UNL A   1      46.632  26.359  30.461  1.00  0.00    -0.248 NA
ATOM     58  C   UNL A   1      47.680  25.254  28.690  1.00  0.00     0.031 C 
ATOM     59  C   UNL A   1      48.666  27.464  34.267  1.00  0.00     0.029 A 
ATOM     60  C   UNL A   1      48.053  27.114  33.073  1.00  0.00     0.049 A 
ATOM     61  H   UNL A   1      46.100  27.547  32.411  1.00  0.00     0.167 HD
ATOM     62  C   UNL A   1      47.944  26.072  30.820  1.00  0.00     0.074 A 
ATOM     63  C   UNL A   1      48.531  25.358  29.702  1.00  0.00     0.031 C 
ATOM     64  C   UNL A   1      48.604  26.372  31.967  1.00  0.00     0.034 A 
BRANCH  51  65
ATOM     65  C   UNL A   1      45.323  29.748  35.987  1.00  0.00     0.023 A 
ATOM     66  C   UNL A   1      44.983  29.063  37.172  1.00  0.00     0.012 A 
ATOM     67  C   UNL A   1      45.629  31.120  36.045  1.00  0.00     0.148 A 
ATOM     68  C   UNL A   1      44.913  29.741  38.389  1.00  0.00     0.002 A 
ATOM     69  C   UNL A   1      45.598  31.780  37.269  1.00  0.00     0.091 A 
ATOM     70  F   UNL A   1      45.919  31.760  34.905  1.00  0.00    -0.205 F 
ATOM     71  C   UNL A   1      45.229  31.097  38.439  1.00  0.00     0.022 A 
BRANCH  69  72
ATOM     72  S   UNL A   1      46.058  33.508  37.441  1.00  0.00     0.127 S 
ATOM     73  O   UNL A   1      44.993  34.173  36.694  1.00  0.00    -0.237 OA
ATOM     74  O   UNL A   1      45.997  33.701  38.891  1.00  0.00    -0.237 OA
ATOM     75  O   UNL A   1      47.393  33.624  36.872  1.00  0.00    -0.744 OA
ENDBRANCH  69  72
ENDBRANCH  51  65
BRANCH  52  76
ATOM     76  C   UNL A   1      45.222  25.228  27.050  1.00  0.00     0.023 A 
ATOM     77  C   UNL A   1      45.599  26.009  25.942  1.00  0.00     0.012 A 
ATOM     78  C   UNL A   1      44.907  23.867  26.860  1.00  0.00     0.148 A 
ATOM     79  C   UNL A   1      45.644  25.450  24.664  1.00  0.00     0.002 A 
ATOM     80  C   UNL A   1      45.003  23.305  25.592  1.00  0.00     0.091 A 
ATOM     81  F   UNL A   1      44.544  23.146  27.929  1.00  0.00    -0.205 F 
ATOM     82  C   UNL A   1      45.357  24.099  24.491  1.00  0.00     0.022 A 
BRANCH  80  83
ATOM     83  S   UNL A   1      44.782  21.547  25.297  1.00  0.00     0.127 S 
ATOM     84  O   UNL A   1      44.540  21.513  23.858  1.00  0.00    -0.237 OA
ATOM     85  O   UNL A   1      46.075  21.008  25.720  1.00  0.00    -0.237 OA
ATOM     86  O   UNL A   1      43.661  21.142  26.136  1.00  0.00    -0.744 OA
ENDBRANCH  80  83
ENDBRANCH  52  76
BRANCH  64  87
ATOM     87  C   UNL A   1      50.031  25.906  32.090  1.00  0.00     0.023 A 
ATOM     88  C   UNL A   1      51.085  26.794  31.804  1.00  0.00     0.012 A 
ATOM     89  C   UNL A   1      50.323  24.613  32.568  1.00  0.00     0.148 A 
ATOM     90  C   UNL A   1      52.410  26.393  31.963  1.00  0.00     0.002 A 
ATOM     91  C   UNL A   1      51.645  24.237  32.771  1.00  0.00     0.091 A 
ATOM     92  F   UNL A   1      49.304  23.776  32.815  1.00  0.00    -0.205 F 
ATOM     93  C   UNL A   1      52.690  25.120  32.458  1.00  0.00     0.022 A 
BRANCH  91  94
ATOM     94  S   UNL A   1      52.093  22.656  33.497  1.00  0.00     0.127 S 
ATOM     95  O   UNL A   1      53.521  22.584  33.195  1.00  0.00    -0.237 OA
ATOM     96  O   UNL A   1      51.778  22.863  34.911  1.00  0.00    -0.237 OA
ATOM     97  O   UNL A   1      51.261  21.661  32.835  1.00  0.00    -0.744 OA
ENDBRANCH  91  94
ENDBRANCH  64  87
ENDBRANCH  38  39
ENDBRANCH  31  33
ENDBRANCH  30  31
ENDBRANCH  29  30
ENDBRANCH  28  29
ENDBRANCH  27  28
ENDBRANCH  26  27
ENDBRANCH   1  26
TORSDOF 26
ENDMDL
MODEL 2
REMARK VINA RESULT:      -7.6      6.391     10.748
REMARK SMILES C[NH+]1CCC([N@@H+](CC(=O)OCCOCCOCCOCCOC(=O)c2ccc(-c3c4nc(c(-c5cccc(S(=O)(=O)[O-])c5F)c5ccc([nH]5)c(-c5cccc(S(=O)(=O)[O-])c5F)c5nc(c(-c6cccc(S(=O)(=O)[O-])c6F)c6ccc3[nH]6)C=C5)C=C4)cc2)C(C)(C)C)CC1
REMARK SMILES IDX 17 1 16 2 15 3 14 4 13 5 12 6 11 7 10 8 8 9 9 10 7 11 6 12
REMARK SMILES IDX 5 14 1 15 2 16 3 17 93 18 4 20 92 21 88 22 89 23 90 24 91 25
REMARK SMILES IDX 18 26 19 27 20 28 21 29 22 30 23 31 24 32 25 33 26 34 87 35
REMARK SMILES IDX 27 36 86 37 28 38 29 39 30 40 80 41 31 42 85 43 79 44 81 45
REMARK SMILES IDX 32 46 84 47 78 48 77 49 33 51 65 52 45 53 64 54 46 55 49 56
REMARK SMILES IDX 63 57 82 58 47 59 48 60 62 62 83 63 50 64 34 65 35 66 43 67
REMARK SMILES IDX 36 68 38 69 44 70 37 71 39 72 40 73 41 74 42 75 66 76 67 77
REMARK SMILES IDX 75 78 68 79 70 80 76 81 69 82 71 83 72 84 73 85 74 86 51 87
REMARK SMILES IDX 52 88 60 89 53 90 55 91 61 92 54 93 56 94 57 95 58 96 59 97
REMARK H PARENT 6 13 2 19 81 50 49 61
REMARK Flexibility Score: inf
ROOT
ATOM      1  C   UNL A   1      42.551  21.717  27.675  1.00  0.00     0.188 C 
ENDROOT
BRANCH   1   2
ATOM      2  O   UNL A   1      42.380  21.034  26.438  1.00  0.00    -0.377 OA
BRANCH   2   3
ATOM      3  C   UNL A   1      41.127  20.416  26.174  1.00  0.00     0.188 C 
BRANCH   3   4
ATOM      4  C   UNL A   1      40.018  21.193  26.894  1.00  0.00     0.188 C 
BRANCH   4   5
ATOM      5  O   UNL A   1      39.360  22.163  26.074  1.00  0.00    -0.376 OA
BRANCH   5   6
ATOM      6  C   UNL A   1      38.199  21.706  25.382  1.00  0.00     0.202 C 
BRANCH   6   7
ATOM      7  C   UNL A   1      36.892  22.431  25.719  1.00  0.00     0.261 C 
BRANCH   7   8
ATOM      8  O   UNL A   1      36.602  23.609  24.935  1.00  0.00    -0.459 OA
BRANCH   8   9
ATOM      9  C   UNL A   1      36.022  23.392  23.727  1.00  0.00     0.361 C 
ATOM     10  O   UNL A   1      36.596  22.818  22.802  1.00  0.00    -0.245 OA
BRANCH   9  11
ATOM     11  C   UNL A   1      34.661  24.066  23.491  1.00  0.00     0.387 C 
BRANCH  11  12
ATOM     12  N   UNL A   1      33.541  23.899  24.447  1.00  0.00    -0.319 N 
ATOM     13  H   UNL A   1      33.818  23.841  25.427  1.00  0.00     0.349 HD
BRANCH  12  14
ATOM     14  C   UNL A   1      32.909  22.547  24.430  1.00  0.00     0.196 C 
ATOM     15  C   UNL A   1      32.552  18.236  24.026  1.00  0.00     0.332 C 
ATOM     16  N   UNL A   1      32.987  19.631  24.056  1.00  0.00    -0.337 N 
ATOM     17  C   UNL A   1      32.910  20.158  25.418  1.00  0.00     0.268 C 
ATOM     18  C   UNL A   1      32.156  20.453  23.176  1.00  0.00     0.268 C 
ATOM     19  H   UNL A   1      33.953  19.665  23.731  1.00  0.00     0.347 HD
ATOM     20  C   UNL A   1      33.477  21.577  25.485  1.00  0.00     0.126 C 
ATOM     21  C   UNL A   1      32.797  21.835  23.071  1.00  0.00     0.126 C 
ENDBRANCH  12  14
BRANCH  12  22
ATOM     22  C   UNL A   1      32.963  25.090  25.109  1.00  0.00     0.090 C 
ATOM     23  C   UNL A   1      34.052  25.893  25.808  1.00  0.00     0.078 C 
ATOM     24  C   UNL A   1      32.201  26.042  24.149  1.00  0.00     0.078 C 
ATOM     25  C   UNL A   1      31.916  24.749  26.209  1.00  0.00     0.078 C 
ENDBRANCH  12  22
ENDBRANCH  11  12
ENDBRANCH   9  11
ENDBRANCH   8   9
ENDBRANCH   7   8
ENDBRANCH   6   7
ENDBRANCH   5   6
ENDBRANCH   4   5
ENDBRANCH   3   4
ENDBRANCH   2   3
ENDBRANCH   1   2
BRANCH   1  26
ATOM     26  C   UNL A   1      42.715  23.242  27.641  1.00  0.00     0.188 C 
BRANCH  26  27
ATOM     27  O   UNL A   1      41.631  24.051  28.095  1.00  0.00    -0.376 OA
BRANCH  27  28
ATOM     28  C   UNL A   1      41.920  25.381  28.510  1.00  0.00     0.202 C 
BRANCH  28  29
ATOM     29  C   UNL A   1      41.172  26.503  27.791  1.00  0.00     0.261 C 
BRANCH  29  30
ATOM     30  O   UNL A   1      41.281  26.381  26.365  1.00  0.00    -0.460 OA
BRANCH  30  31
ATOM     31  C   UNL A   1      42.529  26.545  25.875  1.00  0.00     0.338 C 
ATOM     32  O   UNL A   1      43.137  25.793  25.134  1.00  0.00    -0.246 OA
BRANCH  31  33
ATOM     33  C   UNL A   1      43.029  27.880  26.236  1.00  0.00     0.060 A 
ATOM     34  C   UNL A   1      44.174  27.949  27.041  1.00  0.00     0.016 A 
ATOM     35  C   UNL A   1      42.315  29.031  25.903  1.00  0.00     0.016 A 
ATOM     36  C   UNL A   1      44.571  29.167  27.577  1.00  0.00     0.010 A 
ATOM     37  C   UNL A   1      42.704  30.251  26.455  1.00  0.00     0.010 A 
ATOM     38  C   UNL A   1      43.802  30.309  27.334  1.00  0.00    -0.014 A 
BRANCH  38  39
ATOM     39  C   UNL A   1      44.019  31.511  28.166  1.00  0.00     0.031 A 
ATOM     40  C   UNL A   1      43.068  31.775  29.299  1.00  0.00     0.074 A 
ATOM     41  C   UNL A   1      45.045  32.342  27.921  1.00  0.00     0.049 A 
ATOM     42  N   UNL A   1      43.036  32.777  30.135  1.00  0.00    -0.248 NA
ATOM     43  C   UNL A   1      42.017  30.767  29.526  1.00  0.00     0.031 C 
ATOM     44  C   UNL A   1      46.053  32.151  26.881  1.00  0.00     0.029 A 
ATOM     45  N   UNL A   1      45.380  33.535  28.504  1.00  0.00    -0.354 N 
ATOM     46  C   UNL A   1      41.958  32.531  30.976  1.00  0.00     0.074 A 
ATOM     47  C   UNL A   1      41.347  31.297  30.538  1.00  0.00     0.031 C 
ATOM     48  C   UNL A   1      46.843  33.237  26.838  1.00  0.00     0.029 A 
ATOM     49  C   UNL A   1      46.399  34.187  27.855  1.00  0.00     0.049 A 
ATOM     50  H   UNL A   1      44.935  33.889  29.308  1.00  0.00     0.167 HD
ATOM     51  C   UNL A   1      41.530  33.259  32.033  1.00  0.00     0.034 A 
ATOM     52  C   UNL A   1      46.898  35.424  28.047  1.00  0.00     0.034 A 
ATOM     53  C   UNL A   1      42.153  34.481  32.463  1.00  0.00     0.049 A 
ATOM     54  C   UNL A   1      46.373  36.245  29.192  1.00  0.00     0.074 A 
ATOM     55  C   UNL A   1      41.837  35.275  33.550  1.00  0.00     0.029 A 
ATOM     56  N   UNL A   1      43.210  35.097  31.808  1.00  0.00    -0.354 N 
ATOM     57  N   UNL A   1      45.435  35.945  30.059  1.00  0.00    -0.248 NA
ATOM     58  C   UNL A   1      47.007  37.550  29.420  1.00  0.00     0.031 C 
ATOM     59  C   UNL A   1      42.685  36.388  33.534  1.00  0.00     0.029 A 
ATOM     60  C   UNL A   1      43.548  36.273  32.454  1.00  0.00     0.049 A 
ATOM     61  H   UNL A   1      43.655  34.749  31.003  1.00  0.00     0.167 HD
ATOM     62  C   UNL A   1      45.394  37.002  30.961  1.00  0.00     0.074 A 
ATOM     63  C   UNL A   1      46.410  37.946  30.537  1.00  0.00     0.031 C 
ATOM     64  C   UNL A   1      44.590  37.177  32.039  1.00  0.00     0.034 A 
BRANCH  51  65
ATOM     65  C   UNL A   1      40.342  32.739  32.799  1.00  0.00     0.023 A 
ATOM     66  C   UNL A   1      40.521  31.725  33.763  1.00  0.00     0.012 A 
ATOM     67  C   UNL A   1      39.055  33.263  32.579  1.00  0.00     0.148 A 
ATOM     68  C   UNL A   1      39.432  31.216  34.469  1.00  0.00     0.002 A 
ATOM     69  C   UNL A   1      37.980  32.779  33.317  1.00  0.00     0.091 A 
ATOM     70  F   UNL A   1      38.899  34.203  31.637  1.00  0.00    -0.205 F 
ATOM     71  C   UNL A   1      38.164  31.749  34.253  1.00  0.00     0.022 A 
BRANCH  69  72
ATOM     72  S   UNL A   1      36.323  33.454  33.157  1.00  0.00     0.127 S 
ATOM     73  O   UNL A   1      36.599  34.878  32.979  1.00  0.00    -0.237 OA
ATOM     74  O   UNL A   1      35.827  32.775  31.958  1.00  0.00    -0.237 OA
ATOM     75  O   UNL A   1      35.627  33.097  34.385  1.00  0.00    -0.744 OA
ENDBRANCH  69  72
ENDBRANCH  51  65
BRANCH  52  76
ATOM     76  C   UNL A   1      47.978  35.922  27.153  1.00  0.00     0.023 A 
ATOM     77  C   UNL A   1      47.652  36.715  26.038  1.00  0.00     0.012 A 
ATOM     78  C   UNL A   1      49.333  35.665  27.445  1.00  0.00     0.148 A 
ATOM     79  C   UNL A   1      48.656  37.229  25.217  1.00  0.00     0.002 A 
ATOM     80  C   UNL A   1      50.330  36.221  26.652  1.00  0.00     0.091 A 
ATOM     81  F   UNL A   1      49.619  34.901  28.508  1.00  0.00    -0.205 F 
ATOM     82  C   UNL A   1      49.992  36.991  25.528  1.00  0.00     0.022 A 
BRANCH  80  83
ATOM     83  S   UNL A   1      52.075  36.080  27.054  1.00  0.00     0.127 S 
ATOM     84  O   UNL A   1      52.685  36.949  26.051  1.00  0.00    -0.237 OA
ATOM     85  O   UNL A   1      52.109  36.597  28.423  1.00  0.00    -0.237 OA
ATOM     86  O   UNL A   1      52.394  34.663  26.940  1.00  0.00    -0.744 OA
ENDBRANCH  80  83
ENDBRANCH  52  76
BRANCH  64  87
ATOM     87  C   UNL A   1      44.790  38.424  32.860  1.00  0.00     0.023 A 
ATOM     88  C   UNL A   1      45.893  38.521  33.729  1.00  0.00     0.012 A 
ATOM     89  C   UNL A   1      43.929  39.529  32.706  1.00  0.00     0.148 A 
ATOM     90  C   UNL A   1      46.120  39.688  34.456  1.00  0.00     0.002 A 
ATOM     91  C   UNL A   1      44.190  40.706  33.396  1.00  0.00     0.091 A 
ATOM     92  F   UNL A   1      42.873  39.409  31.888  1.00  0.00    -0.205 F 
ATOM     93  C   UNL A   1      45.277  40.783  34.281  1.00  0.00     0.022 A 
BRANCH  91  94
ATOM     94  S   UNL A   1      43.216  42.196  33.155  1.00  0.00     0.127 S 
ATOM     95  O   UNL A   1      43.297  42.374  31.707  1.00  0.00    -0.237 OA
ATOM     96  O   UNL A   1      41.899  41.789  33.647  1.00  0.00    -0.237 OA
ATOM     97  O   UNL A   1      43.863  43.230  33.951  1.00  0.00    -0.744 OA
ENDBRANCH  91  94
ENDBRANCH  64  87
ENDBRANCH  38  39
ENDBRANCH  31  33
ENDBRANCH  30  31
ENDBRANCH  29  30
ENDBRANCH  28  29
ENDBRANCH  27  28
ENDBRANCH  26  27
ENDBRANCH   1  26
TORSDOF 26
ENDMDL
MODEL 3
REMARK VINA RESULT:      -7.5      4.466      5.587
REMARK SMILES C[NH+]1CCC([N@@H+](CC(=O)OCCOCCOCCOCCOC(=O)c2ccc(-c3c4nc(c(-c5cccc(S(=O)(=O)[O-])c5F)c5ccc([nH]5)c(-c5cccc(S(=O)(=O)[O-])c5F)c5nc(c(-c6cccc(S(=O)(=O)[O-])c6F)c6ccc3[nH]6)C=C5)C=C4)cc2)C(C)(C)C)CC1
REMARK SMILES IDX 17 1 16 2 15 3 14 4 13 5 12 6 11 7 10 8 8 9 9 10 7 11 6 12
REMARK SMILES IDX 5 14 1 15 2 16 3 17 93 18 4 20 92 21 88 22 89 23 90 24 91 25
REMARK SMILES IDX 18 26 19 27 20 28 21 29 22 30 23 31 24 32 25 33 26 34 87 35
REMARK SMILES IDX 27 36 86 37 28 38 29 39 30 40 80 41 31 42 85 43 79 44 81 45
REMARK SMILES IDX 32 46 84 47 78 48 77 49 33 51 65 52 45 53 64 54 46 55 49 56
REMARK SMILES IDX 63 57 82 58 47 59 48 60 62 62 83 63 50 64 34 65 35 66 43 67
REMARK SMILES IDX 36 68 38 69 44 70 37 71 39 72 40 73 41 74 42 75 66 76 67 77
REMARK SMILES IDX 75 78 68 79 70 80 76 81 69 82 71 83 72 84 73 85 74 86 51 87
REMARK SMILES IDX 52 88 60 89 53 90 55 91 61 92 54 93 56 94 57 95 58 96 59 97
REMARK H PARENT 6 13 2 19 81 50 49 61
REMARK Flexibility Score: inf
ROOT
ATOM      1  C   UNL A   1      33.205  29.710  26.907  1.00  0.00     0.188 C 
ENDROOT
BRANCH   1   2
ATOM      2  O   UNL A   1      32.354  29.981  25.799  1.00  0.00    -0.377 OA
BRANCH   2   3
ATOM      3  C   UNL A   1      31.713  28.888  25.153  1.00  0.00     0.188 C 
BRANCH   3   4
ATOM      4  C   UNL A   1      30.876  29.413  23.982  1.00  0.00     0.188 C 
BRANCH   4   5
ATOM      5  O   UNL A   1      29.851  28.514  23.548  1.00  0.00    -0.376 OA
BRANCH   5   6
ATOM      6  C   UNL A   1      30.274  27.182  23.262  1.00  0.00     0.202 C 
BRANCH   6   7
ATOM      7  C   UNL A   1      29.405  26.066  23.848  1.00  0.00     0.261 C 
BRANCH   7   8
ATOM      8  O   UNL A   1      30.114  24.975  24.476  1.00  0.00    -0.459 OA
BRANCH   8   9
ATOM      9  C   UNL A   1      30.441  25.151  25.782  1.00  0.00     0.361 C 
ATOM     10  O   UNL A   1      29.852  25.942  26.519  1.00  0.00    -0.245 OA
BRANCH   9  11
ATOM     11  C   UNL A   1      31.717  24.447  26.267  1.00  0.00     0.387 C 
BRANCH  11  12
ATOM     12  N   UNL A   1      32.680  23.850  25.311  1.00  0.00    -0.319 N 
ATOM     13  H   UNL A   1      32.452  23.991  24.328  1.00  0.00     0.349 HD
BRANCH  12  14
ATOM     14  C   UNL A   1      32.628  22.361  25.227  1.00  0.00     0.196 C 
ATOM     15  C   UNL A   1      33.824  18.306  24.226  1.00  0.00     0.332 C 
ATOM     16  N   UNL A   1      33.690  19.754  24.377  1.00  0.00    -0.337 N 
ATOM     17  C   UNL A   1      33.812  20.132  25.785  1.00  0.00     0.268 C 
ATOM     18  C   UNL A   1      32.396  20.210  23.869  1.00  0.00     0.268 C 
ATOM     19  H   UNL A   1      34.435  20.195  23.839  1.00  0.00     0.347 HD
ATOM     20  C   UNL A   1      33.795  21.652  25.942  1.00  0.00     0.126 C 
ATOM     21  C   UNL A   1      32.410  21.737  23.838  1.00  0.00     0.126 C 
ENDBRANCH  12  14
BRANCH  12  22
ATOM     22  C   UNL A   1      33.766  24.686  24.752  1.00  0.00     0.090 C 
ATOM     23  C   UNL A   1      33.440  25.098  23.322  1.00  0.00     0.078 C 
ATOM     24  C   UNL A   1      34.062  25.972  25.569  1.00  0.00     0.078 C 
ATOM     25  C   UNL A   1      35.141  23.961  24.681  1.00  0.00     0.078 C 
ENDBRANCH  12  22
ENDBRANCH  11  12
ENDBRANCH   9  11
ENDBRANCH   8   9
ENDBRANCH   7   8
ENDBRANCH   6   7
ENDBRANCH   5   6
ENDBRANCH   4   5
ENDBRANCH   3   4
ENDBRANCH   2   3
ENDBRANCH   1   2
BRANCH   1  26
ATOM     26  C   UNL A   1      34.215  30.788  27.323  1.00  0.00     0.188 C 
BRANCH  26  27
ATOM     27  O   UNL A   1      33.864  31.672  28.386  1.00  0.00    -0.376 OA
BRANCH  27  28
ATOM     28  C   UNL A   1      34.918  32.333  29.078  1.00  0.00     0.202 C 
BRANCH  28  29
ATOM     29  C   UNL A   1      34.840  32.340  30.604  1.00  0.00     0.261 C 
BRANCH  29  30
ATOM     30  O   UNL A   1      36.093  32.714  31.195  1.00  0.00    -0.460 OA
BRANCH  30  31
ATOM     31  C   UNL A   1      36.783  31.696  31.754  1.00  0.00     0.338 C 
ATOM     32  O   UNL A   1      36.340  30.783  32.427  1.00  0.00    -0.246 OA
BRANCH  31  33
ATOM     33  C   UNL A   1      38.181  31.739  31.298  1.00  0.00     0.060 A 
ATOM     34  C   UNL A   1      38.414  31.763  29.917  1.00  0.00     0.016 A 
ATOM     35  C   UNL A   1      39.237  31.624  32.203  1.00  0.00     0.016 A 
ATOM     36  C   UNL A   1      39.705  31.602  29.430  1.00  0.00     0.010 A 
ATOM     37  C   UNL A   1      40.530  31.445  31.713  1.00  0.00     0.010 A 
ATOM     38  C   UNL A   1      40.755  31.381  30.325  1.00  0.00    -0.014 A 
BRANCH  38  39
ATOM     39  C   UNL A   1      42.044  30.874  29.809  1.00  0.00     0.031 A 
ATOM     40  C   UNL A   1      43.066  31.869  29.339  1.00  0.00     0.074 A 
ATOM     41  C   UNL A   1      42.297  29.555  29.767  1.00  0.00     0.049 A 
ATOM     42  N   UNL A   1      44.244  31.661  28.816  1.00  0.00    -0.248 NA
ATOM     43  C   UNL A   1      42.718  33.293  29.491  1.00  0.00     0.031 C 
ATOM     44  C   UNL A   1      41.396  28.509  30.243  1.00  0.00     0.029 A 
ATOM     45  N   UNL A   1      43.372  28.874  29.260  1.00  0.00    -0.354 N 
ATOM     46  C   UNL A   1      44.771  32.921  28.562  1.00  0.00     0.074 A 
ATOM     47  C   UNL A   1      43.778  33.889  28.968  1.00  0.00     0.031 C 
ATOM     48  C   UNL A   1      41.914  27.311  29.924  1.00  0.00     0.029 A 
ATOM     49  C   UNL A   1      43.185  27.514  29.233  1.00  0.00     0.049 A 
ATOM     50  H   UNL A   1      44.195  29.314  28.948  1.00  0.00     0.167 HD
ATOM     51  C   UNL A   1      45.985  33.241  28.056  1.00  0.00     0.034 A 
ATOM     52  C   UNL A   1      43.947  26.545  28.688  1.00  0.00     0.034 A 
ATOM     53  C   UNL A   1      46.966  32.267  27.664  1.00  0.00     0.049 A 
ATOM     54  C   UNL A   1      45.269  26.922  28.078  1.00  0.00     0.074 A 
ATOM     55  C   UNL A   1      48.247  32.475  27.188  1.00  0.00     0.029 A 
ATOM     56  N   UNL A   1      46.763  30.895  27.686  1.00  0.00    -0.354 N 
ATOM     57  N   UNL A   1      45.811  28.110  27.957  1.00  0.00    -0.248 NA
ATOM     58  C   UNL A   1      46.107  25.825  27.577  1.00  0.00     0.031 C 
ATOM     59  C   UNL A   1      48.808  31.228  26.892  1.00  0.00     0.029 A 
ATOM     60  C   UNL A   1      47.887  30.241  27.212  1.00  0.00     0.049 A 
ATOM     61  H   UNL A   1      45.941  30.450  27.994  1.00  0.00     0.167 HD
ATOM     62  C   UNL A   1      47.070  27.903  27.407  1.00  0.00     0.074 A 
ATOM     63  C   UNL A   1      47.211  26.471  27.226  1.00  0.00     0.031 C 
ATOM     64  C   UNL A   1      48.022  28.813  27.078  1.00  0.00     0.034 A 
BRANCH  51  65
ATOM     65  C   UNL A   1      46.314  34.704  27.914  1.00  0.00     0.023 A 
ATOM     66  C   UNL A   1      46.031  35.370  26.703  1.00  0.00     0.012 A 
ATOM     67  C   UNL A   1      46.885  35.422  28.980  1.00  0.00     0.148 A 
ATOM     68  C   UNL A   1      46.346  36.719  26.544  1.00  0.00     0.002 A 
ATOM     69  C   UNL A   1      47.157  36.777  28.829  1.00  0.00     0.091 A 
ATOM     70  F   UNL A   1      47.175  34.766  30.112  1.00  0.00    -0.205 F 
ATOM     71  C   UNL A   1      46.900  37.424  27.609  1.00  0.00     0.022 A 
BRANCH  69  72
ATOM     72  S   UNL A   1      47.805  37.784  30.168  1.00  0.00     0.127 S 
ATOM     73  O   UNL A   1      46.631  37.925  31.027  1.00  0.00    -0.237 OA
ATOM     74  O   UNL A   1      48.860  36.929  30.715  1.00  0.00    -0.237 OA
ATOM     75  O   UNL A   1      48.283  39.012  29.549  1.00  0.00    -0.744 OA
ENDBRANCH  69  72
ENDBRANCH  51  65
BRANCH  52  76
ATOM     76  C   UNL A   1      43.482  25.132  28.744  1.00  0.00     0.023 A 
ATOM     77  C   UNL A   1      43.871  24.311  29.819  1.00  0.00     0.012 A 
ATOM     78  C   UNL A   1      42.601  24.623  27.769  1.00  0.00     0.148 A 
ATOM     79  C   UNL A   1      43.406  22.999  29.911  1.00  0.00     0.002 A 
ATOM     80  C   UNL A   1      42.103  23.331  27.894  1.00  0.00     0.091 A 
ATOM     81  F   UNL A   1      42.252  25.421  26.751  1.00  0.00    -0.205 F 
ATOM     82  C   UNL A   1      42.516  22.513  28.957  1.00  0.00     0.022 A 
BRANCH  80  83
ATOM     83  S   UNL A   1      40.852  22.668  26.789  1.00  0.00     0.127 S 
ATOM     84  O   UNL A   1      40.216  21.657  27.627  1.00  0.00    -0.237 OA
ATOM     85  O   UNL A   1      40.034  23.852  26.519  1.00  0.00    -0.237 OA
ATOM     86  O   UNL A   1      41.575  22.163  25.629  1.00  0.00    -0.744 OA
ENDBRANCH  80  83
ENDBRANCH  52  76
BRANCH  64  87
ATOM     87  C   UNL A   1      49.317  28.290  26.515  1.00  0.00     0.023 A 
ATOM     88  C   UNL A   1      49.432  28.045  25.134  1.00  0.00     0.012 A 
ATOM     89  C   UNL A   1      50.443  28.122  27.346  1.00  0.00     0.148 A 
ATOM     90  C   UNL A   1      50.640  27.610  24.591  1.00  0.00     0.002 A 
ATOM     91  C   UNL A   1      51.656  27.737  26.790  1.00  0.00     0.091 A 
ATOM     92  F   UNL A   1      50.306  28.342  28.662  1.00  0.00    -0.205 F 
ATOM     93  C   UNL A   1      51.754  27.468  25.416  1.00  0.00     0.022 A 
BRANCH  91  94
ATOM     94  S   UNL A   1      53.164  27.625  27.760  1.00  0.00     0.127 S 
ATOM     95  O   UNL A   1      53.303  26.180  27.929  1.00  0.00    -0.237 OA
ATOM     96  O   UNL A   1      54.153  28.233  26.869  1.00  0.00    -0.237 OA
ATOM     97  O   UNL A   1      52.911  28.377  28.981  1.00  0.00    -0.744 OA
ENDBRANCH  91  94
ENDBRANCH  64  87
ENDBRANCH  38  39
ENDBRANCH  31  33
ENDBRANCH  30  31
ENDBRANCH  29  30
ENDBRANCH  28  29
ENDBRANCH  27  28
ENDBRANCH  26  27
ENDBRANCH   1  26
TORSDOF 26
ENDMDL
