MODEL 1
REMARK VINA RESULT:     -10.3      0.000      0.000
REMARK SMILES CN(C(=O)C[C@@H]1SC(=O)N(c2ccccc2)C1=O)c1ccccc1C(=O)OCCOCCOCCOCCOC(=O)c1ccc(-c2c3nc(c(-c4cccc(S(=O)(=O)[O-])c4F)c4ccc([nH]4)c(-c4cccc(S(=O)(=O)[O-])c4F)c4nc(c(-c5cccc(S(=O)(=O)[O-])c5F)c5ccc2[nH]5)C=C4)C=C3)cc1
REMARK SMILES IDX 32 1 31 2 30 3 29 4 28 5 27 6 25 7 26 8 24 9 19 10 20 11
REMARK SMILES IDX 21 12 23 13 22 14 2 15 1 16 3 17 4 18 5 19 6 20 7 21 17 22
REMARK SMILES IDX 8 23 10 24 18 25 9 26 11 27 12 28 16 29 13 30 15 31 14 32
REMARK SMILES IDX 33 33 34 34 35 35 36 36 37 37 38 38 39 39 40 40 41 41 42 42
REMARK SMILES IDX 43 43 104 44 44 45 103 46 45 47 46 48 47 49 97 50 48 51
REMARK SMILES IDX 102 52 96 53 98 54 49 55 101 56 95 57 94 58 50 60 82 61
REMARK SMILES IDX 62 62 81 63 63 64 66 65 80 66 99 67 64 68 65 69 79 71 100 72
REMARK SMILES IDX 67 73 51 74 52 75 60 76 53 77 55 78 61 79 54 80 56 81 57 82
REMARK SMILES IDX 58 83 59 84 83 85 84 86 92 87 85 88 87 89 93 90 86 91 88 92
REMARK SMILES IDX 89 93 90 94 91 95 68 96 69 97 77 98 70 99 72 100 78 101
REMARK SMILES IDX 71 102 73 103 74 104 75 105 76 106
REMARK H PARENT 98 59 66 70
REMARK Flexibility Score: inf
ROOT
ATOM      1  C   UNL A   1      36.182  20.726  25.011  1.00  0.00     0.188 C 
ENDROOT
BRANCH   1   2
ATOM      2  C   UNL A   1      36.977  21.604  24.069  1.00  0.00     0.188 C 
BRANCH   2   3
ATOM      3  O   UNL A   1      37.709  22.720  24.537  1.00  0.00    -0.376 OA
BRANCH   3   4
ATOM      4  C   UNL A   1      37.760  23.021  25.921  1.00  0.00     0.202 C 
BRANCH   4   5
ATOM      5  C   UNL A   1      36.816  24.097  26.460  1.00  0.00     0.261 C 
BRANCH   5   6
ATOM      6  O   UNL A   1      35.521  24.132  25.822  1.00  0.00    -0.460 OA
BRANCH   6   7
ATOM      7  C   UNL A   1      34.503  23.556  26.500  1.00  0.00     0.340 C 
ATOM      8  O   UNL A   1      34.639  22.990  27.579  1.00  0.00    -0.246 OA
BRANCH   7   9
ATOM      9  C   UNL A   1      33.121  23.806  25.963  1.00  0.00     0.083 A 
ATOM     10  C   UNL A   1      32.365  23.173  24.948  1.00  0.00     0.058 A 
ATOM     11  C   UNL A   1      30.965  23.412  24.988  1.00  0.00     0.027 A 
ATOM     12  C   UNL A   1      30.370  24.427  25.734  1.00  0.00     0.002 A 
ATOM     13  C   UNL A   1      32.506  24.879  26.675  1.00  0.00     0.018 A 
ATOM     14  C   UNL A   1      31.163  25.219  26.528  1.00  0.00     0.001 A 
BRANCH  10  15
ATOM     15  N   UNL A   1      32.821  22.358  23.823  1.00  0.00    -0.315 N 
ATOM     16  C   UNL A   1      32.741  20.910  23.896  1.00  0.00     0.153 C 
BRANCH  15  17
ATOM     17  C   UNL A   1      33.499  23.004  22.763  1.00  0.00     0.228 C 
ATOM     18  O   UNL A   1      34.731  23.013  22.652  1.00  0.00    -0.274 OA
BRANCH  17  19
ATOM     19  C   UNL A   1      32.748  23.686  21.641  1.00  0.00     0.125 C 
BRANCH  19  20
ATOM     20  C   UNL A   1      33.005  25.191  21.574  1.00  0.00     0.156 C 
ATOM     21  S   UNL A   1      33.836  25.698  23.081  1.00  0.00    -0.050 SA
ATOM     22  C   UNL A   1      31.803  26.125  21.460  1.00  0.00     0.248 C 
ATOM     23  C   UNL A   1      32.624  26.877  23.510  1.00  0.00     0.293 C 
ATOM     24  N   UNL A   1      31.600  26.890  22.601  1.00  0.00    -0.240 N 
ATOM     25  O   UNL A   1      31.185  26.244  20.402  1.00  0.00    -0.273 OA
ATOM     26  O   UNL A   1      32.782  27.535  24.523  1.00  0.00    -0.261 OA
BRANCH  24  27
ATOM     27  C   UNL A   1      30.462  27.760  22.696  1.00  0.00     0.053 A 
ATOM     28  C   UNL A   1      28.968  27.138  23.474  1.00  0.00     0.027 A 
ATOM     29  C   UNL A   1      30.449  29.472  22.082  1.00  0.00     0.027 A 
ATOM     30  C   UNL A   1      27.462  28.123  23.550  1.00  0.00     0.002 A 
ATOM     31  C   UNL A   1      28.928  30.471  22.115  1.00  0.00     0.002 A 
ATOM     32  C   UNL A   1      27.447  29.798  22.908  1.00  0.00     0.000 A 
ENDBRANCH  24  27
ENDBRANCH  19  20
ENDBRANCH  17  19
ENDBRANCH  15  17
ENDBRANCH  10  15
ENDBRANCH   7   9
ENDBRANCH   6   7
ENDBRANCH   5   6
ENDBRANCH   4   5
ENDBRANCH   3   4
ENDBRANCH   2   3
ENDBRANCH   1   2
BRANCH   1  33
ATOM     33  O   UNL A   1      36.355  19.326  24.991  1.00  0.00    -0.377 OA
BRANCH  33  34
ATOM     34  C   UNL A   1      37.641  18.737  25.001  1.00  0.00     0.188 C 
BRANCH  34  35
ATOM     35  C   UNL A   1      38.844  19.486  25.555  1.00  0.00     0.188 C 
BRANCH  35  36
ATOM     36  O   UNL A   1      40.160  18.918  25.567  1.00  0.00    -0.376 OA
BRANCH  36  37
ATOM     37  C   UNL A   1      41.426  19.738  26.052  1.00  0.00     0.202 C 
BRANCH  37  38
ATOM     38  C   UNL A   1      43.552  19.256  26.087  1.00  0.00     0.261 C 
BRANCH  38  39
ATOM     39  O   UNL A   1      44.427  18.571  24.919  1.00  0.00    -0.460 OA
BRANCH  39  40
ATOM     40  C   UNL A   1      45.248  19.268  24.087  1.00  0.00     0.338 C 
ATOM     41  O   UNL A   1      45.775  18.885  23.058  1.00  0.00    -0.246 OA
BRANCH  40  42
ATOM     42  C   UNL A   1      45.035  20.694  24.447  1.00  0.00     0.060 A 
ATOM     43  C   UNL A   1      44.439  21.566  23.515  1.00  0.00     0.016 A 
ATOM     44  C   UNL A   1      45.313  21.132  25.739  1.00  0.00     0.016 A 
ATOM     45  C   UNL A   1      44.139  22.883  23.862  1.00  0.00     0.010 A 
ATOM     46  C   UNL A   1      45.072  22.464  26.068  1.00  0.00     0.010 A 
ATOM     47  C   UNL A   1      44.525  23.352  25.117  1.00  0.00    -0.014 A 
BRANCH  47  48
ATOM     48  C   UNL A   1      44.726  24.800  25.339  1.00  0.00     0.031 A 
ATOM     49  C   UNL A   1      46.149  25.275  25.319  1.00  0.00     0.074 A 
ATOM     50  C   UNL A   1      43.722  25.638  25.648  1.00  0.00     0.049 A 
ATOM     51  N   UNL A   1      46.649  26.406  25.727  1.00  0.00    -0.248 NA
ATOM     52  C   UNL A   1      47.147  24.336  24.769  1.00  0.00     0.031 C 
ATOM     53  C   UNL A   1      42.304  25.317  25.596  1.00  0.00     0.029 A 
ATOM     54  N   UNL A   1      43.757  26.917  26.144  1.00  0.00    -0.354 N 
ATOM     55  C   UNL A   1      48.017  26.297  25.531  1.00  0.00     0.074 A 
ATOM     56  C   UNL A   1      48.277  24.995  24.964  1.00  0.00     0.031 C 
ATOM     57  C   UNL A   1      41.605  26.311  26.171  1.00  0.00     0.029 A 
ATOM     58  C   UNL A   1      42.536  27.342  26.617  1.00  0.00     0.049 A 
ATOM     59  H   UNL A   1      44.571  27.473  26.161  1.00  0.00     0.167 HD
ATOM     60  C   UNL A   1      48.973  27.209  25.805  1.00  0.00     0.034 A 
ATOM     61  C   UNL A   1      42.221  28.419  27.364  1.00  0.00     0.034 A 
ATOM     62  C   UNL A   1      48.695  28.498  26.367  1.00  0.00     0.049 A 
ATOM     63  C   UNL A   1      43.314  29.396  27.713  1.00  0.00     0.074 A 
ATOM     64  C   UNL A   1      49.581  29.523  26.634  1.00  0.00     0.029 A 
ATOM     65  N   UNL A   1      47.442  28.924  26.776  1.00  0.00    -0.354 N 
ATOM     66  N   UNL A   1      44.594  29.333  27.437  1.00  0.00    -0.248 NA
ATOM     67  C   UNL A   1      42.918  30.615  28.433  1.00  0.00     0.031 C 
ATOM     68  C   UNL A   1      48.872  30.548  27.265  1.00  0.00     0.029 A 
ATOM     69  C   UNL A   1      47.534  30.189  27.320  1.00  0.00     0.049 A 
ATOM     70  H   UNL A   1      46.611  28.402  26.693  1.00  0.00     0.167 HD
ATOM     71  C   UNL A   1      45.142  30.526  27.889  1.00  0.00     0.074 A 
ATOM     72  C   UNL A   1      44.056  31.294  28.461  1.00  0.00     0.031 C 
ATOM     73  C   UNL A   1      46.428  30.953  27.834  1.00  0.00     0.034 A 
BRANCH  60  74
ATOM     74  C   UNL A   1      50.401  26.843  25.526  1.00  0.00     0.023 A 
ATOM     75  C   UNL A   1      51.124  26.046  26.438  1.00  0.00     0.012 A 
ATOM     76  C   UNL A   1      51.000  27.227  24.312  1.00  0.00     0.148 A 
ATOM     77  C   UNL A   1      52.428  25.651  26.148  1.00  0.00     0.002 A 
ATOM     78  C   UNL A   1      52.278  26.785  24.007  1.00  0.00     0.091 A 
ATOM     79  F   UNL A   1      50.302  28.012  23.479  1.00  0.00    -0.205 F 
ATOM     80  C   UNL A   1      52.999  26.006  24.928  1.00  0.00     0.022 A 
BRANCH  78  81
ATOM     81  S   UNL A   1      53.062  27.117  22.428  1.00  0.00     0.127 S 
ATOM     82  O   UNL A   1      52.026  26.691  21.488  1.00  0.00    -0.237 OA
ATOM     83  O   UNL A   1      53.271  28.563  22.492  1.00  0.00    -0.237 OA
ATOM     84  O   UNL A   1      54.282  26.321  22.404  1.00  0.00    -0.744 OA
ENDBRANCH  78  81
ENDBRANCH  60  74
BRANCH  61  85
ATOM     85  C   UNL A   1      40.822  28.641  27.827  1.00  0.00     0.023 A 
ATOM     86  C   UNL A   1      39.859  29.145  26.932  1.00  0.00     0.012 A 
ATOM     87  C   UNL A   1      40.446  28.375  29.159  1.00  0.00     0.148 A 
ATOM     88  C   UNL A   1      38.565  29.435  27.367  1.00  0.00     0.002 A 
ATOM     89  C   UNL A   1      39.141  28.613  29.572  1.00  0.00     0.091 A 
ATOM     90  F   UNL A   1      41.377  27.900  30.000  1.00  0.00    -0.205 F 
ATOM     91  C   UNL A   1      38.205  29.165  28.685  1.00  0.00     0.022 A 
BRANCH  89  92
ATOM     92  S   UNL A   1      38.556  28.178  31.214  1.00  0.00     0.127 S 
ATOM     93  O   UNL A   1      39.510  28.880  32.068  1.00  0.00    -0.237 OA
ATOM     94  O   UNL A   1      37.204  28.737  31.210  1.00  0.00    -0.237 OA
ATOM     95  O   UNL A   1      38.599  26.722  31.279  1.00  0.00    -0.744 OA
ENDBRANCH  89  92
ENDBRANCH  61  85
BRANCH  73  96
ATOM     96  C   UNL A   1      46.732  32.342  28.325  1.00  0.00     0.023 A 
ATOM     97  C   UNL A   1      47.111  32.560  29.663  1.00  0.00     0.012 A 
ATOM     98  C   UNL A   1      46.742  33.416  27.412  1.00  0.00     0.148 A 
ATOM     99  C   UNL A   1      47.469  33.838  30.092  1.00  0.00     0.002 A 
ATOM    100  C   UNL A   1      47.158  34.671  27.832  1.00  0.00     0.091 A 
ATOM    101  F   UNL A   1      46.365  33.182  26.148  1.00  0.00    -0.205 F 
ATOM    102  C   UNL A   1      47.507  34.887  29.175  1.00  0.00     0.022 A 
BRANCH 100 103
ATOM    103  S   UNL A   1      47.342  36.051  26.701  1.00  0.00     0.127 S 
ATOM    104  O   UNL A   1      47.373  37.187  27.622  1.00  0.00    -0.237 OA
ATOM    105  O   UNL A   1      48.621  35.753  26.058  1.00  0.00    -0.237 OA
ATOM    106  O   UNL A   1      46.189  36.007  25.813  1.00  0.00    -0.744 OA
ENDBRANCH 100 103
ENDBRANCH  73  96
ENDBRANCH  47  48
ENDBRANCH  40  42
ENDBRANCH  39  40
ENDBRANCH  38  39
ENDBRANCH  37  38
ENDBRANCH  36  37
ENDBRANCH  35  36
ENDBRANCH  34  35
ENDBRANCH  33  34
ENDBRANCH   1  33
TORSDOF 28
ENDMDL
MODEL 2
REMARK VINA RESULT:     -10.0      6.336     10.960
REMARK SMILES CN(C(=O)C[C@@H]1SC(=O)N(c2ccccc2)C1=O)c1ccccc1C(=O)OCCOCCOCCOCCOC(=O)c1ccc(-c2c3nc(c(-c4cccc(S(=O)(=O)[O-])c4F)c4ccc([nH]4)c(-c4cccc(S(=O)(=O)[O-])c4F)c4nc(c(-c5cccc(S(=O)(=O)[O-])c5F)c5ccc2[nH]5)C=C4)C=C3)cc1
REMARK SMILES IDX 32 1 31 2 30 3 29 4 28 5 27 6 25 7 26 8 24 9 19 10 20 11
REMARK SMILES IDX 21 12 23 13 22 14 2 15 1 16 3 17 4 18 5 19 6 20 7 21 17 22
REMARK SMILES IDX 8 23 10 24 18 25 9 26 11 27 12 28 16 29 13 30 15 31 14 32
REMARK SMILES IDX 33 33 34 34 35 35 36 36 37 37 38 38 39 39 40 40 41 41 42 42
REMARK SMILES IDX 43 43 104 44 44 45 103 46 45 47 46 48 47 49 97 50 48 51
REMARK SMILES IDX 102 52 96 53 98 54 49 55 101 56 95 57 94 58 50 60 82 61
REMARK SMILES IDX 62 62 81 63 63 64 66 65 80 66 99 67 64 68 65 69 79 71 100 72
REMARK SMILES IDX 67 73 51 74 52 75 60 76 53 77 55 78 61 79 54 80 56 81 57 82
REMARK SMILES IDX 58 83 59 84 83 85 84 86 92 87 85 88 87 89 93 90 86 91 88 92
REMARK SMILES IDX 89 93 90 94 91 95 68 96 69 97 77 98 70 99 72 100 78 101
REMARK SMILES IDX 71 102 73 103 74 104 75 105 76 106
REMARK H PARENT 98 59 66 70
REMARK Flexibility Score: inf
ROOT
ATOM      1  C   UNL A   1      39.046  24.320  27.484  1.00  0.00     0.188 C 
ENDROOT
BRANCH   1   2
ATOM      2  C   UNL A   1      39.776  23.127  26.905  1.00  0.00     0.188 C 
BRANCH   2   3
ATOM      3  O   UNL A   1      39.174  22.289  25.938  1.00  0.00    -0.376 OA
BRANCH   3   4
ATOM      4  C   UNL A   1      37.776  22.338  25.709  1.00  0.00     0.202 C 
BRANCH   4   5
ATOM      5  C   UNL A   1      37.188  21.416  24.640  1.00  0.00     0.261 C 
BRANCH   5   6
ATOM      6  O   UNL A   1      35.838  21.742  24.245  1.00  0.00    -0.460 OA
BRANCH   6   7
ATOM      7  C   UNL A   1      34.852  21.024  24.829  1.00  0.00     0.340 C 
ATOM      8  O   UNL A   1      34.918  19.816  25.027  1.00  0.00    -0.246 OA
BRANCH   7   9
ATOM      9  C   UNL A   1      33.715  21.812  25.419  1.00  0.00     0.083 A 
ATOM     10  C   UNL A   1      32.561  22.393  24.843  1.00  0.00     0.058 A 
ATOM     11  C   UNL A   1      31.517  22.710  25.754  1.00  0.00     0.027 A 
ATOM     12  C   UNL A   1      31.680  22.768  27.136  1.00  0.00     0.002 A 
ATOM     13  C   UNL A   1      33.885  21.933  26.831  1.00  0.00     0.018 A 
ATOM     14  C   UNL A   1      32.904  22.449  27.674  1.00  0.00     0.001 A 
BRANCH  10  15
ATOM     15  N   UNL A   1      32.309  22.777  23.456  1.00  0.00    -0.315 N 
ATOM     16  C   UNL A   1      32.028  21.758  22.460  1.00  0.00     0.153 C 
BRANCH  15  17
ATOM     17  C   UNL A   1      32.527  24.126  23.086  1.00  0.00     0.228 C 
ATOM     18  O   UNL A   1      31.650  24.842  22.588  1.00  0.00    -0.274 OA
BRANCH  17  19
ATOM     19  C   UNL A   1      33.852  24.810  23.337  1.00  0.00     0.125 C 
BRANCH  19  20
ATOM     20  C   UNL A   1      33.707  26.162  24.035  1.00  0.00     0.156 C 
ATOM     21  S   UNL A   1      33.254  25.877  25.747  1.00  0.00    -0.050 SA
ATOM     22  C   UNL A   1      32.654  27.136  23.511  1.00  0.00     0.248 C 
ATOM     23  C   UNL A   1      31.793  26.827  25.657  1.00  0.00     0.293 C 
ATOM     24  N   UNL A   1      31.600  27.323  24.395  1.00  0.00    -0.240 N 
ATOM     25  O   UNL A   1      32.827  27.762  22.466  1.00  0.00    -0.273 OA
ATOM     26  O   UNL A   1      31.113  26.948  26.660  1.00  0.00    -0.261 OA
BRANCH  24  27
ATOM     27  C   UNL A   1      30.480  28.140  24.025  1.00  0.00     0.053 A 
ATOM     28  C   UNL A   1      30.627  29.922  24.185  1.00  0.00     0.027 A 
ATOM     29  C   UNL A   1      28.913  27.471  23.387  1.00  0.00     0.027 A 
ATOM     30  C   UNL A   1      29.240  31.019  23.839  1.00  0.00     0.002 A 
ATOM     31  C   UNL A   1      27.488  28.558  23.066  1.00  0.00     0.002 A 
ATOM     32  C   UNL A   1      27.687  30.348  23.245  1.00  0.00     0.000 A 
ENDBRANCH  24  27
ENDBRANCH  19  20
ENDBRANCH  17  19
ENDBRANCH  15  17
ENDBRANCH  10  15
ENDBRANCH   7   9
ENDBRANCH   6   7
ENDBRANCH   5   6
ENDBRANCH   4   5
ENDBRANCH   3   4
ENDBRANCH   2   3
ENDBRANCH   1   2
BRANCH   1  33
ATOM     33  O   UNL A   1      39.394  25.627  27.083  1.00  0.00    -0.377 OA
BRANCH  33  34
ATOM     34  C   UNL A   1      40.685  25.933  26.592  1.00  0.00     0.188 C 
BRANCH  34  35
ATOM     35  C   UNL A   1      41.169  27.373  26.498  1.00  0.00     0.188 C 
BRANCH  35  36
ATOM     36  O   UNL A   1      40.301  28.489  26.730  1.00  0.00    -0.376 OA
BRANCH  36  37
ATOM     37  C   UNL A   1      39.816  28.890  28.184  1.00  0.00     0.202 C 
BRANCH  37  38
ATOM     38  C   UNL A   1      38.756  27.776  29.729  1.00  0.00     0.261 C 
BRANCH  38  39
ATOM     39  O   UNL A   1      39.280  27.396  31.206  1.00  0.00    -0.460 OA
BRANCH  39  40
ATOM     40  C   UNL A   1      38.690  27.836  32.350  1.00  0.00     0.338 C 
ATOM     41  O   UNL A   1      37.912  27.237  33.071  1.00  0.00    -0.246 OA
BRANCH  40  42
ATOM     42  C   UNL A   1      39.497  29.011  32.768  1.00  0.00     0.060 A 
ATOM     43  C   UNL A   1      38.870  30.262  32.935  1.00  0.00     0.016 A 
ATOM     44  C   UNL A   1      40.837  28.848  33.107  1.00  0.00     0.016 A 
ATOM     45  C   UNL A   1      39.584  31.358  33.420  1.00  0.00     0.010 A 
ATOM     46  C   UNL A   1      41.568  29.955  33.532  1.00  0.00     0.010 A 
ATOM     47  C   UNL A   1      40.953  31.221  33.646  1.00  0.00    -0.014 A 
BRANCH  47  48
ATOM     48  C   UNL A   1      41.832  32.411  33.633  1.00  0.00     0.031 A 
ATOM     49  C   UNL A   1      42.005  33.112  34.948  1.00  0.00     0.074 A 
ATOM     50  C   UNL A   1      42.365  32.911  32.506  1.00  0.00     0.049 A 
ATOM     51  N   UNL A   1      42.488  34.296  35.195  1.00  0.00    -0.248 NA
ATOM     52  C   UNL A   1      41.560  32.377  36.149  1.00  0.00     0.031 C 
ATOM     53  C   UNL A   1      42.353  32.266  31.202  1.00  0.00     0.029 A 
ATOM     54  N   UNL A   1      42.958  34.127  32.272  1.00  0.00    -0.354 N 
ATOM     55  C   UNL A   1      42.361  34.467  36.566  1.00  0.00     0.074 A 
ATOM     56  C   UNL A   1      41.760  33.270  37.103  1.00  0.00     0.031 C 
ATOM     57  C   UNL A   1      42.782  33.138  30.274  1.00  0.00     0.029 A 
ATOM     58  C   UNL A   1      43.110  34.399  30.930  1.00  0.00     0.049 A 
ATOM     59  H   UNL A   1      43.245  34.741  32.988  1.00  0.00     0.167 HD
ATOM     60  C   UNL A   1      42.714  35.537  37.308  1.00  0.00     0.034 A 
ATOM     61  C   UNL A   1      43.434  35.551  30.310  1.00  0.00     0.034 A 
ATOM     62  C   UNL A   1      43.311  36.717  36.755  1.00  0.00     0.049 A 
ATOM     63  C   UNL A   1      43.766  36.754  31.154  1.00  0.00     0.074 A 
ATOM     64  C   UNL A   1      43.762  37.840  37.421  1.00  0.00     0.029 A 
ATOM     65  N   UNL A   1      43.511  36.938  35.402  1.00  0.00    -0.354 N 
ATOM     66  N   UNL A   1      43.738  36.877  32.459  1.00  0.00    -0.248 NA
ATOM     67  C   UNL A   1      44.221  37.962  30.450  1.00  0.00     0.031 C 
ATOM     68  C   UNL A   1      44.177  38.768  36.464  1.00  0.00     0.029 A 
ATOM     69  C   UNL A   1      44.054  38.192  35.209  1.00  0.00     0.049 A 
ATOM     70  H   UNL A   1      43.296  36.297  34.685  1.00  0.00     0.167 HD
ATOM     71  C   UNL A   1      44.231  38.146  32.734  1.00  0.00     0.074 A 
ATOM     72  C   UNL A   1      44.548  38.756  31.460  1.00  0.00     0.031 C 
ATOM     73  C   UNL A   1      44.410  38.754  33.933  1.00  0.00     0.034 A 
BRANCH  60  74
ATOM     74  C   UNL A   1      42.448  35.494  38.783  1.00  0.00     0.023 A 
ATOM     75  C   UNL A   1      41.230  35.976  39.302  1.00  0.00     0.012 A 
ATOM     76  C   UNL A   1      43.384  34.896  39.648  1.00  0.00     0.148 A 
ATOM     77  C   UNL A   1      40.954  35.876  40.664  1.00  0.00     0.002 A 
ATOM     78  C   UNL A   1      43.080  34.751  40.993  1.00  0.00     0.091 A 
ATOM     79  F   UNL A   1      44.548  34.475  39.134  1.00  0.00    -0.205 F 
ATOM     80  C   UNL A   1      41.871  35.249  41.506  1.00  0.00     0.022 A 
BRANCH  78  81
ATOM     81  S   UNL A   1      44.156  33.883  42.137  1.00  0.00     0.127 S 
ATOM     82  O   UNL A   1      43.227  33.535  43.212  1.00  0.00    -0.237 OA
ATOM     83  O   UNL A   1      44.605  32.749  41.329  1.00  0.00    -0.237 OA
ATOM     84  O   UNL A   1      45.203  34.825  42.507  1.00  0.00    -0.744 OA
ENDBRANCH  78  81
ENDBRANCH  60  74
BRANCH  61  85
ATOM     85  C   UNL A   1      43.467  35.629  28.822  1.00  0.00     0.023 A 
ATOM     86  C   UNL A   1      42.359  36.145  28.122  1.00  0.00     0.012 A 
ATOM     87  C   UNL A   1      44.584  35.173  28.095  1.00  0.00     0.148 A 
ATOM     88  C   UNL A   1      42.338  36.151  26.727  1.00  0.00     0.002 A 
ATOM     89  C   UNL A   1      44.582  35.234  26.707  1.00  0.00     0.091 A 
ATOM     90  F   UNL A   1      45.630  34.680  28.777  1.00  0.00    -0.205 F 
ATOM     91  C   UNL A   1      43.450  35.700  26.019  1.00  0.00     0.022 A 
BRANCH  89  92
ATOM     92  S   UNL A   1      46.016  34.793  25.719  1.00  0.00     0.127 S 
ATOM     93  O   UNL A   1      46.832  36.000  25.819  1.00  0.00    -0.237 OA
ATOM     94  O   UNL A   1      46.538  33.635  26.445  1.00  0.00    -0.237 OA
ATOM     95  O   UNL A   1      45.503  34.483  24.391  1.00  0.00    -0.744 OA
ENDBRANCH  89  92
ENDBRANCH  61  85
BRANCH  73  96
ATOM     96  C   UNL A   1      45.051  40.115  33.946  1.00  0.00     0.023 A 
ATOM     97  C   UNL A   1      46.451  40.246  34.000  1.00  0.00     0.012 A 
ATOM     98  C   UNL A   1      44.248  41.263  33.794  1.00  0.00     0.148 A 
ATOM     99  C   UNL A   1      47.042  41.507  33.931  1.00  0.00     0.002 A 
ATOM    100  C   UNL A   1      44.846  42.508  33.665  1.00  0.00     0.091 A 
ATOM    101  F   UNL A   1      42.917  41.111  33.758  1.00  0.00    -0.205 F 
ATOM    102  C   UNL A   1      46.242  42.634  33.748  1.00  0.00     0.022 A 
BRANCH 100 103
ATOM    103  S   UNL A   1      43.905  43.996  33.320  1.00  0.00     0.127 S 
ATOM    104  O   UNL A   1      44.965  44.995  33.193  1.00  0.00    -0.237 OA
ATOM    105  O   UNL A   1      43.237  43.653  32.064  1.00  0.00    -0.237 OA
ATOM    106  O   UNL A   1      43.010  44.185  34.453  1.00  0.00    -0.744 OA
ENDBRANCH 100 103
ENDBRANCH  73  96
ENDBRANCH  47  48
ENDBRANCH  40  42
ENDBRANCH  39  40
ENDBRANCH  38  39
ENDBRANCH  37  38
ENDBRANCH  36  37
ENDBRANCH  35  36
ENDBRANCH  34  35
ENDBRANCH  33  34
ENDBRANCH   1  33
TORSDOF 28
ENDMDL
MODEL 3
REMARK VINA RESULT:      -9.5      6.276     11.311
REMARK SMILES CN(C(=O)C[C@@H]1SC(=O)N(c2ccccc2)C1=O)c1ccccc1C(=O)OCCOCCOCCOCCOC(=O)c1ccc(-c2c3nc(c(-c4cccc(S(=O)(=O)[O-])c4F)c4ccc([nH]4)c(-c4cccc(S(=O)(=O)[O-])c4F)c4nc(c(-c5cccc(S(=O)(=O)[O-])c5F)c5ccc2[nH]5)C=C4)C=C3)cc1
REMARK SMILES IDX 32 1 31 2 30 3 29 4 28 5 27 6 25 7 26 8 24 9 19 10 20 11
REMARK SMILES IDX 21 12 23 13 22 14 2 15 1 16 3 17 4 18 5 19 6 20 7 21 17 22
REMARK SMILES IDX 8 23 10 24 18 25 9 26 11 27 12 28 16 29 13 30 15 31 14 32
REMARK SMILES IDX 33 33 34 34 35 35 36 36 37 37 38 38 39 39 40 40 41 41 42 42
REMARK SMILES IDX 43 43 104 44 44 45 103 46 45 47 46 48 47 49 97 50 48 51
REMARK SMILES IDX 102 52 96 53 98 54 49 55 101 56 95 57 94 58 50 60 82 61
REMARK SMILES IDX 62 62 81 63 63 64 66 65 80 66 99 67 64 68 65 69 79 71 100 72
REMARK SMILES IDX 67 73 51 74 52 75 60 76 53 77 55 78 61 79 54 80 56 81 57 82
REMARK SMILES IDX 58 83 59 84 83 85 84 86 92 87 85 88 87 89 93 90 86 91 88 92
REMARK SMILES IDX 89 93 90 94 91 95 68 96 69 97 77 98 70 99 72 100 78 101
REMARK SMILES IDX 71 102 73 103 74 104 75 105 76 106
REMARK H PARENT 98 59 66 70
REMARK Flexibility Score: inf
ROOT
ATOM      1  C   UNL A   1      38.940  24.350  27.557  1.00  0.00     0.188 C 
ENDROOT
BRANCH   1   2
ATOM      2  C   UNL A   1      39.644  23.191  26.885  1.00  0.00     0.188 C 
BRANCH   2   3
ATOM      3  O   UNL A   1      39.012  22.426  25.878  1.00  0.00    -0.376 OA
BRANCH   3   4
ATOM      4  C   UNL A   1      37.607  22.479  25.704  1.00  0.00     0.202 C 
BRANCH   4   5
ATOM      5  C   UNL A   1      36.969  21.530  24.689  1.00  0.00     0.261 C 
BRANCH   5   6
ATOM      6  O   UNL A   1      35.627  21.889  24.295  1.00  0.00    -0.460 OA
BRANCH   6   7
ATOM      7  C   UNL A   1      34.624  21.217  24.903  1.00  0.00     0.340 C 
ATOM      8  O   UNL A   1      34.693  20.036  25.224  1.00  0.00    -0.246 OA
BRANCH   7   9
ATOM      9  C   UNL A   1      33.453  22.043  25.362  1.00  0.00     0.083 A 
ATOM     10  C   UNL A   1      32.392  22.662  24.660  1.00  0.00     0.058 A 
ATOM     11  C   UNL A   1      31.262  23.013  25.446  1.00  0.00     0.027 A 
ATOM     12  C   UNL A   1      31.267  23.066  26.838  1.00  0.00     0.002 A 
ATOM     13  C   UNL A   1      33.464  22.159  26.784  1.00  0.00     0.018 A 
ATOM     14  C   UNL A   1      32.410  22.707  27.511  1.00  0.00     0.001 A 
BRANCH  10  15
ATOM     15  N   UNL A   1      32.313  23.053  23.254  1.00  0.00    -0.315 N 
ATOM     16  C   UNL A   1      32.052  22.052  22.235  1.00  0.00     0.153 C 
BRANCH  15  17
ATOM     17  C   UNL A   1      32.677  24.376  22.908  1.00  0.00     0.228 C 
ATOM     18  O   UNL A   1      31.962  25.119  22.225  1.00  0.00    -0.274 OA
BRANCH  17  19
ATOM     19  C   UNL A   1      33.959  25.002  23.411  1.00  0.00     0.125 C 
BRANCH  19  20
ATOM     20  C   UNL A   1      33.736  26.337  24.122  1.00  0.00     0.156 C 
ATOM     21  S   UNL A   1      33.264  26.010  25.821  1.00  0.00    -0.050 SA
ATOM     22  C   UNL A   1      32.649  27.267  23.588  1.00  0.00     0.248 C 
ATOM     23  C   UNL A   1      31.762  26.892  25.712  1.00  0.00     0.293 C 
ATOM     24  N   UNL A   1      31.571  27.393  24.452  1.00  0.00    -0.240 N 
ATOM     25  O   UNL A   1      32.814  27.913  22.553  1.00  0.00    -0.273 OA
ATOM     26  O   UNL A   1      31.057  26.969  26.703  1.00  0.00    -0.261 OA
BRANCH  24  27
ATOM     27  C   UNL A   1      30.421  28.162  24.068  1.00  0.00     0.053 A 
ATOM     28  C   UNL A   1      30.544  29.954  24.075  1.00  0.00     0.027 A 
ATOM     29  C   UNL A   1      28.839  27.422  23.562  1.00  0.00     0.027 A 
ATOM     30  C   UNL A   1      29.125  30.999  23.705  1.00  0.00     0.002 A 
ATOM     31  C   UNL A   1      27.382  28.459  23.219  1.00  0.00     0.002 A 
ATOM     32  C   UNL A   1      27.558  30.260  23.240  1.00  0.00     0.000 A 
ENDBRANCH  24  27
ENDBRANCH  19  20
ENDBRANCH  17  19
ENDBRANCH  15  17
ENDBRANCH  10  15
ENDBRANCH   7   9
ENDBRANCH   6   7
ENDBRANCH   5   6
ENDBRANCH   4   5
ENDBRANCH   3   4
ENDBRANCH   2   3
ENDBRANCH   1   2
BRANCH   1  33
ATOM     33  O   UNL A   1      39.351  25.675  27.298  1.00  0.00    -0.377 OA
BRANCH  33  34
ATOM     34  C   UNL A   1      40.690  25.986  26.966  1.00  0.00     0.188 C 
BRANCH  34  35
ATOM     35  C   UNL A   1      41.178  27.427  26.931  1.00  0.00     0.188 C 
BRANCH  35  36
ATOM     36  O   UNL A   1      40.281  28.541  27.025  1.00  0.00    -0.376 OA
BRANCH  36  37
ATOM     37  C   UNL A   1      39.689  29.030  28.411  1.00  0.00     0.202 C 
BRANCH  37  38
ATOM     38  C   UNL A   1      38.590  27.988  29.979  1.00  0.00     0.261 C 
BRANCH  38  39
ATOM     39  O   UNL A   1      39.007  27.815  31.527  1.00  0.00    -0.460 OA
BRANCH  39  40
ATOM     40  C   UNL A   1      38.353  28.422  32.555  1.00  0.00     0.338 C 
ATOM     41  O   UNL A   1      37.468  27.965  33.255  1.00  0.00    -0.246 OA
BRANCH  40  42
ATOM     42  C   UNL A   1      39.213  29.577  32.924  1.00  0.00     0.060 A 
ATOM     43  C   UNL A   1      38.668  30.876  32.926  1.00  0.00     0.016 A 
ATOM     44  C   UNL A   1      40.510  29.359  33.377  1.00  0.00     0.016 A 
ATOM     45  C   UNL A   1      39.425  31.964  33.362  1.00  0.00     0.010 A 
ATOM     46  C   UNL A   1      41.288  30.452  33.754  1.00  0.00     0.010 A 
ATOM     47  C   UNL A   1      40.761  31.760  33.704  1.00  0.00    -0.014 A 
BRANCH  47  48
ATOM     48  C   UNL A   1      41.722  32.883  33.649  1.00  0.00     0.031 A 
ATOM     49  C   UNL A   1      41.905  33.652  34.924  1.00  0.00     0.074 A 
ATOM     50  C   UNL A   1      42.324  33.273  32.513  1.00  0.00     0.049 A 
ATOM     51  N   UNL A   1      42.464  34.812  35.115  1.00  0.00    -0.248 NA
ATOM     52  C   UNL A   1      41.373  33.026  36.151  1.00  0.00     0.031 C 
ATOM     53  C   UNL A   1      42.305  32.550  31.250  1.00  0.00     0.029 A 
ATOM     54  N   UNL A   1      43.009  34.427  32.226  1.00  0.00    -0.354 N 
ATOM     55  C   UNL A   1      42.308  35.078  36.468  1.00  0.00     0.074 A 
ATOM     56  C   UNL A   1      41.608  33.961  37.056  1.00  0.00     0.031 C 
ATOM     57  C   UNL A   1      42.823  33.330  30.286  1.00  0.00     0.029 A 
ATOM     58  C   UNL A   1      43.220  34.604  30.876  1.00  0.00     0.049 A 
ATOM     59  H   UNL A   1      43.317  35.063  32.913  1.00  0.00     0.167 HD
ATOM     60  C   UNL A   1      42.715  36.165  37.156  1.00  0.00     0.034 A 
ATOM     61  C   UNL A   1      43.644  35.689  30.199  1.00  0.00     0.034 A 
ATOM     62  C   UNL A   1      43.412  37.263  36.553  1.00  0.00     0.049 A 
ATOM     63  C   UNL A   1      44.036  36.916  30.979  1.00  0.00     0.074 A 
ATOM     64  C   UNL A   1      43.921  38.392  37.165  1.00  0.00     0.029 A 
ATOM     65  N   UNL A   1      43.667  37.384  35.197  1.00  0.00    -0.354 N 
ATOM     66  N   UNL A   1      43.978  37.123  32.273  1.00  0.00    -0.248 NA
ATOM     67  C   UNL A   1      44.598  38.043  30.219  1.00  0.00     0.031 C 
ATOM     68  C   UNL A   1      44.430  39.227  36.169  1.00  0.00     0.029 A 
ATOM     69  C   UNL A   1      44.305  38.583  34.947  1.00  0.00     0.049 A 
ATOM     70  H   UNL A   1      43.429  36.716  34.513  1.00  0.00     0.167 HD
ATOM     71  C   UNL A   1      44.551  38.370  32.487  1.00  0.00     0.074 A 
ATOM     72  C   UNL A   1      44.950  38.875  31.190  1.00  0.00     0.031 C 
ATOM     73  C   UNL A   1      44.738  39.038  33.652  1.00  0.00     0.034 A 
BRANCH  60  74
ATOM     74  C   UNL A   1      42.403  36.233  38.621  1.00  0.00     0.023 A 
ATOM     75  C   UNL A   1      43.390  35.917  39.576  1.00  0.00     0.012 A 
ATOM     76  C   UNL A   1      41.143  36.693  39.049  1.00  0.00     0.148 A 
ATOM     77  C   UNL A   1      43.121  36.044  40.937  1.00  0.00     0.002 A 
ATOM     78  C   UNL A   1      40.901  36.868  40.403  1.00  0.00     0.091 A 
ATOM     79  F   UNL A   1      40.212  36.955  38.121  1.00  0.00    -0.205 F 
ATOM     80  C   UNL A   1      41.883  36.535  41.350  1.00  0.00     0.022 A 
BRANCH  78  81
ATOM     81  S   UNL A   1      39.373  37.575  41.026  1.00  0.00     0.127 S 
ATOM     82  O   UNL A   1      38.425  36.487  40.786  1.00  0.00    -0.237 OA
ATOM     83  O   UNL A   1      39.697  37.803  42.433  1.00  0.00    -0.237 OA
ATOM     84  O   UNL A   1      39.136  38.783  40.247  1.00  0.00    -0.744 OA
ENDBRANCH  78  81
ENDBRANCH  60  74
BRANCH  61  85
ATOM     85  C   UNL A   1      43.728  35.671  28.711  1.00  0.00     0.023 A 
ATOM     86  C   UNL A   1      42.722  36.290  27.944  1.00  0.00     0.012 A 
ATOM     87  C   UNL A   1      44.789  35.021  28.050  1.00  0.00     0.148 A 
ATOM     88  C   UNL A   1      42.739  36.214  26.551  1.00  0.00     0.002 A 
ATOM     89  C   UNL A   1      44.832  34.997  26.662  1.00  0.00     0.091 A 
ATOM     90  F   UNL A   1      45.737  34.432  28.795  1.00  0.00    -0.205 F 
ATOM     91  C   UNL A   1      43.796  35.572  25.910  1.00  0.00     0.022 A 
BRANCH  89  92
ATOM     92  S   UNL A   1      46.217  34.303  25.752  1.00  0.00     0.127 S 
ATOM     93  O   UNL A   1      47.355  34.956  26.392  1.00  0.00    -0.237 OA
ATOM     94  O   UNL A   1      46.082  32.875  26.040  1.00  0.00    -0.237 OA
ATOM     95  O   UNL A   1      45.989  34.654  24.355  1.00  0.00    -0.744 OA
ENDBRANCH  89  92
ENDBRANCH  61  85
BRANCH  73  96
ATOM     96  C   UNL A   1      45.473  40.348  33.605  1.00  0.00     0.023 A 
ATOM     97  C   UNL A   1      44.768  41.561  33.487  1.00  0.00     0.012 A 
ATOM     98  C   UNL A   1      46.871  40.369  33.787  1.00  0.00     0.148 A 
ATOM     99  C   UNL A   1      45.450  42.776  33.523  1.00  0.00     0.002 A 
ATOM    100  C   UNL A   1      47.534  41.584  33.884  1.00  0.00     0.091 A 
ATOM    101  F   UNL A   1      47.519  39.200  33.884  1.00  0.00    -0.205 F 
ATOM    102  C   UNL A   1      46.828  42.788  33.737  1.00  0.00     0.022 A 
BRANCH 100 103
ATOM    103  S   UNL A   1      49.284  41.697  34.264  1.00  0.00     0.127 S 
ATOM    104  O   UNL A   1      49.428  40.674  35.300  1.00  0.00    -0.237 OA
ATOM    105  O   UNL A   1      49.899  41.356  32.981  1.00  0.00    -0.237 OA
ATOM    106  O   UNL A   1      49.518  43.064  34.708  1.00  0.00    -0.744 OA
ENDBRANCH 100 103
ENDBRANCH  73  96
ENDBRANCH  47  48
ENDBRANCH  40  42
ENDBRANCH  39  40
ENDBRANCH  38  39
ENDBRANCH  37  38
ENDBRANCH  36  37
ENDBRANCH  35  36
ENDBRANCH  34  35
ENDBRANCH  33  34
ENDBRANCH   1  33
TORSDOF 28
ENDMDL
