MODEL 1
REMARK VINA RESULT:      -9.2      0.000      0.000
REMARK SMILES Cn1cc(S(=O)(=O)N[C@@H]2C=C[C@@H](C(=O)OCCOCCOCCOCCOC(=O)c3ccc(-c4c5nc(c(-c6cccc(S(=O)(=O)[O-])c6F)c6ccc([nH]6)c(-c6cccc(S(=O)(=O)[O-])c6F)c6nc(c(-c7cccc(S(=O)(=O)[O-])c7F)c7ccc4[nH]7)C=C6)C=C5)cc3)C2)cc1C(N)=O
REMARK SMILES IDX 20 1 19 2 18 3 17 4 16 5 15 6 13 7 14 8 12 9 9 10 10 11
REMARK SMILES IDX 93 12 11 13 8 14 5 16 6 17 7 18 4 19 1 20 2 21 3 22 95 23
REMARK SMILES IDX 94 24 96 25 97 26 98 27 21 30 22 31 23 32 24 33 25 34 26 35
REMARK SMILES IDX 27 36 28 37 29 38 30 39 31 40 92 41 32 42 91 43 33 44 34 45
REMARK SMILES IDX 35 46 85 47 36 48 90 49 84 50 86 51 37 52 89 53 83 54 82 55
REMARK SMILES IDX 38 57 70 58 50 59 69 60 51 61 54 62 68 63 87 64 52 65 53 66
REMARK SMILES IDX 67 68 88 69 55 70 39 71 40 72 48 73 41 74 43 75 49 76 42 77
REMARK SMILES IDX 44 78 45 79 46 80 47 81 71 82 72 83 80 84 73 85 75 86 81 87
REMARK SMILES IDX 74 88 76 89 77 90 78 91 79 92 56 93 57 94 65 95 58 96 60 97
REMARK SMILES IDX 66 98 59 99 61 100 62 101 63 102 64 103
REMARK H PARENT 8 15 97 28 97 29 86 56 54 67
REMARK Flexibility Score: inf
ROOT
ATOM      1  C   UNL A   1      35.443  21.901  26.150  1.00  0.00     0.188 C 
ENDROOT
BRANCH   1   2
ATOM      2  C   UNL A   1      34.253  21.433  27.002  1.00  0.00     0.188 C 
BRANCH   2   3
ATOM      3  O   UNL A   1      33.009  21.141  26.380  1.00  0.00    -0.376 OA
BRANCH   3   4
ATOM      4  C   UNL A   1      32.863  19.932  25.634  1.00  0.00     0.202 C 
BRANCH   4   5
ATOM      5  C   UNL A   1      32.738  20.009  24.108  1.00  0.00     0.261 C 
BRANCH   5   6
ATOM      6  O   UNL A   1      33.225  21.242  23.543  1.00  0.00    -0.463 OA
BRANCH   6   7
ATOM      7  C   UNL A   1      32.351  21.948  22.792  1.00  0.00     0.312 C 
ATOM      8  O   UNL A   1      31.617  21.464  21.931  1.00  0.00    -0.252 OA
BRANCH   7   9
ATOM      9  C   UNL A   1      32.366  23.445  23.048  1.00  0.00     0.123 C 
ATOM     10  C   UNL A   1      33.411  25.466  23.906  1.00  0.00     0.093 C 
ATOM     11  C   UNL A   1      33.710  25.257  22.459  1.00  0.00    -0.011 C 
ATOM     12  C   UNL A   1      33.017  24.029  24.307  1.00  0.00     0.043 C 
ATOM     13  C   UNL A   1      33.138  24.147  21.974  1.00  0.00    -0.015 C 
BRANCH  10  14
ATOM     14  N   UNL A   1      32.223  26.319  24.132  1.00  0.00    -0.204 NA
ATOM     15  H   UNL A   1      31.737  26.388  23.238  1.00  0.00     0.142 HD
BRANCH  14  16
ATOM     16  S   UNL A   1      32.402  27.892  24.706  1.00  0.00     0.242 S 
ATOM     17  O   UNL A   1      33.510  28.511  24.021  1.00  0.00    -0.207 OA
ATOM     18  O   UNL A   1      32.339  27.806  26.150  1.00  0.00    -0.207 OA
BRANCH  16  19
ATOM     19  C   UNL A   1      31.002  28.801  24.278  1.00  0.00     0.100 A 
ATOM     20  C   UNL A   1      29.097  31.834  23.840  1.00  0.00     0.150 C 
ATOM     21  N   UNL A   1      29.613  30.481  23.854  1.00  0.00    -0.345 N 
ATOM     22  C   UNL A   1      30.769  30.136  24.515  1.00  0.00     0.107 A 
ATOM     23  C   UNL A   1      29.109  29.388  23.165  1.00  0.00     0.107 A 
ATOM     24  C   UNL A   1      29.907  28.308  23.530  1.00  0.00     0.055 A 
BRANCH  23  25
ATOM     25  C   UNL A   1      27.996  29.407  22.238  1.00  0.00     0.265 C 
ATOM     26  N   UNL A   1      26.873  28.756  22.665  1.00  0.00    -0.364 N 
ATOM     27  O   UNL A   1      28.011  29.921  21.125  1.00  0.00    -0.268 OA
ATOM     28  H   UNL A   1      26.854  28.341  23.558  1.00  0.00     0.160 HD
ATOM     29  H   UNL A   1      26.083  28.702  22.081  1.00  0.00     0.160 HD
ENDBRANCH  23  25
ENDBRANCH  16  19
ENDBRANCH  14  16
ENDBRANCH  10  14
ENDBRANCH   7   9
ENDBRANCH   6   7
ENDBRANCH   5   6
ENDBRANCH   4   5
ENDBRANCH   3   4
ENDBRANCH   2   3
ENDBRANCH   1   2
BRANCH   1  30
ATOM     30  O   UNL A   1      36.046  20.881  25.382  1.00  0.00    -0.377 OA
BRANCH  30  31
ATOM     31  C   UNL A   1      37.415  21.070  25.031  1.00  0.00     0.188 C 
BRANCH  31  32
ATOM     32  C   UNL A   1      38.188  22.164  25.789  1.00  0.00     0.188 C 
BRANCH  32  33
ATOM     33  O   UNL A   1      39.604  21.969  25.757  1.00  0.00    -0.376 OA
BRANCH  33  34
ATOM     34  C   UNL A   1      40.183  21.334  26.895  1.00  0.00     0.202 C 
BRANCH  34  35
ATOM     35  C   UNL A   1      41.566  20.701  26.661  1.00  0.00     0.261 C 
BRANCH  35  36
ATOM     36  O   UNL A   1      42.693  21.574  26.858  1.00  0.00    -0.460 OA
BRANCH  36  37
ATOM     37  C   UNL A   1      42.961  22.494  25.907  1.00  0.00     0.338 C 
ATOM     38  O   UNL A   1      43.183  22.290  24.728  1.00  0.00    -0.246 OA
BRANCH  37  39
ATOM     39  C   UNL A   1      42.742  23.831  26.496  1.00  0.00     0.060 A 
ATOM     40  C   UNL A   1      42.426  24.895  25.643  1.00  0.00     0.016 A 
ATOM     41  C   UNL A   1      42.863  24.035  27.873  1.00  0.00     0.016 A 
ATOM     42  C   UNL A   1      42.277  26.182  26.161  1.00  0.00     0.010 A 
ATOM     43  C   UNL A   1      42.730  25.327  28.387  1.00  0.00     0.010 A 
ATOM     44  C   UNL A   1      42.474  26.410  27.528  1.00  0.00    -0.014 A 
BRANCH  44  45
ATOM     45  C   UNL A   1      42.610  27.794  28.041  1.00  0.00     0.031 A 
ATOM     46  C   UNL A   1      43.992  28.381  28.145  1.00  0.00     0.074 A 
ATOM     47  C   UNL A   1      41.540  28.502  28.441  1.00  0.00     0.049 A 
ATOM     48  N   UNL A   1      44.365  29.542  28.613  1.00  0.00    -0.248 NA
ATOM     49  C   UNL A   1      45.101  27.541  27.661  1.00  0.00     0.031 C 
ATOM     50  C   UNL A   1      40.154  28.043  28.390  1.00  0.00     0.029 A 
ATOM     51  N   UNL A   1      41.462  29.754  29.000  1.00  0.00    -0.354 N 
ATOM     52  C   UNL A   1      45.749  29.565  28.502  1.00  0.00     0.074 A 
ATOM     53  C   UNL A   1      46.153  28.299  27.931  1.00  0.00     0.031 C 
ATOM     54  C   UNL A   1      39.364  28.987  28.933  1.00  0.00     0.029 A 
ATOM     55  C   UNL A   1      40.190  30.105  29.387  1.00  0.00     0.049 A 
ATOM     56  H   UNL A   1      42.243  30.344  29.112  1.00  0.00     0.167 HD
ATOM     57  C   UNL A   1      46.609  30.558  28.829  1.00  0.00     0.034 A 
ATOM     58  C   UNL A   1      39.752  31.193  30.052  1.00  0.00     0.034 A 
ATOM     59  C   UNL A   1      46.210  31.820  29.384  1.00  0.00     0.049 A 
ATOM     60  C   UNL A   1      40.735  32.269  30.441  1.00  0.00     0.074 A 
ATOM     61  C   UNL A   1      47.002  32.909  29.701  1.00  0.00     0.029 A 
ATOM     62  N   UNL A   1      44.909  32.157  29.722  1.00  0.00    -0.354 N 
ATOM     63  N   UNL A   1      42.023  32.337  30.201  1.00  0.00    -0.248 NA
ATOM     64  C   UNL A   1      40.201  33.431  31.168  1.00  0.00     0.031 C 
ATOM     65  C   UNL A   1      46.182  33.898  30.251  1.00  0.00     0.029 A 
ATOM     66  C   UNL A   1      44.877  33.432  30.260  1.00  0.00     0.049 A 
ATOM     67  H   UNL A   1      44.125  31.576  29.598  1.00  0.00     0.167 HD
ATOM     68  C   UNL A   1      42.445  33.559  30.717  1.00  0.00     0.074 A 
ATOM     69  C   UNL A   1      41.272  34.207  31.267  1.00  0.00     0.031 C 
ATOM     70  C   UNL A   1      43.693  34.089  30.749  1.00  0.00     0.034 A 
BRANCH  57  71
ATOM     71  C   UNL A   1      48.070  30.324  28.563  1.00  0.00     0.023 A 
ATOM     72  C   UNL A   1      48.599  30.627  27.292  1.00  0.00     0.012 A 
ATOM     73  C   UNL A   1      48.926  29.851  29.577  1.00  0.00     0.148 A 
ATOM     74  C   UNL A   1      49.954  30.440  27.027  1.00  0.00     0.002 A 
ATOM     75  C   UNL A   1      50.282  29.701  29.314  1.00  0.00     0.091 A 
ATOM     76  F   UNL A   1      48.395  29.540  30.768  1.00  0.00    -0.205 F 
ATOM     77  C   UNL A   1      50.796  29.986  28.038  1.00  0.00     0.022 A 
BRANCH  75  78
ATOM     78  S   UNL A   1      51.455  29.184  30.572  1.00  0.00     0.127 S 
ATOM     79  O   UNL A   1      51.302  30.242  31.570  1.00  0.00    -0.237 OA
ATOM     80  O   UNL A   1      50.921  27.884  30.977  1.00  0.00    -0.237 OA
ATOM     81  O   UNL A   1      52.751  29.128  29.910  1.00  0.00    -0.744 OA
ENDBRANCH  75  78
ENDBRANCH  57  71
BRANCH  58  82
ATOM     82  C   UNL A   1      38.304  31.339  30.370  1.00  0.00     0.023 A 
ATOM     83  C   UNL A   1      37.785  30.744  31.537  1.00  0.00     0.012 A 
ATOM     84  C   UNL A   1      37.440  32.073  29.532  1.00  0.00     0.148 A 
ATOM     85  C   UNL A   1      36.430  30.853  31.850  1.00  0.00     0.002 A 
ATOM     86  C   UNL A   1      36.102  32.223  29.878  1.00  0.00     0.091 A 
ATOM     87  F   UNL A   1      37.946  32.613  28.415  1.00  0.00    -0.205 F 
ATOM     88  C   UNL A   1      35.591  31.601  31.027  1.00  0.00     0.022 A 
BRANCH  86  89
ATOM     89  S   UNL A   1      34.982  33.275  28.947  1.00  0.00     0.127 S 
ATOM     90  O   UNL A   1      33.778  33.234  29.772  1.00  0.00    -0.237 OA
ATOM     91  O   UNL A   1      35.691  34.554  28.952  1.00  0.00    -0.237 OA
ATOM     92  O   UNL A   1      34.874  32.659  27.631  1.00  0.00    -0.744 OA
ENDBRANCH  86  89
ENDBRANCH  58  82
BRANCH  70  93
ATOM     93  C   UNL A   1      43.867  35.449  31.373  1.00  0.00     0.023 A 
ATOM     94  C   UNL A   1      44.168  35.552  32.745  1.00  0.00     0.012 A 
ATOM     95  C   UNL A   1      43.835  36.614  30.581  1.00  0.00     0.148 A 
ATOM     96  C   UNL A   1      44.414  36.796  33.325  1.00  0.00     0.002 A 
ATOM     97  C   UNL A   1      44.126  37.846  31.157  1.00  0.00     0.091 A 
ATOM     98  F   UNL A   1      43.531  36.497  29.281  1.00  0.00    -0.205 F 
ATOM     99  C   UNL A   1      44.406  37.940  32.529  1.00  0.00     0.022 A 
BRANCH  97 100
ATOM    100  S   UNL A   1      44.231  39.359  30.192  1.00  0.00     0.127 S 
ATOM    101  O   UNL A   1      45.441  39.126  29.404  1.00  0.00    -0.237 OA
ATOM    102  O   UNL A   1      42.986  39.326  29.423  1.00  0.00    -0.237 OA
ATOM    103  O   UNL A   1      44.314  40.445  31.159  1.00  0.00    -0.744 OA
ENDBRANCH  97 100
ENDBRANCH  70  93
ENDBRANCH  44  45
ENDBRANCH  37  39
ENDBRANCH  36  37
ENDBRANCH  35  36
ENDBRANCH  34  35
ENDBRANCH  33  34
ENDBRANCH  32  33
ENDBRANCH  31  32
ENDBRANCH  30  31
ENDBRANCH   1  30
TORSDOF 27
ENDMDL
MODEL 2
REMARK VINA RESULT:      -8.6      2.023      7.828
REMARK SMILES Cn1cc(S(=O)(=O)N[C@@H]2C=C[C@@H](C(=O)OCCOCCOCCOCCOC(=O)c3ccc(-c4c5nc(c(-c6cccc(S(=O)(=O)[O-])c6F)c6ccc([nH]6)c(-c6cccc(S(=O)(=O)[O-])c6F)c6nc(c(-c7cccc(S(=O)(=O)[O-])c7F)c7ccc4[nH]7)C=C6)C=C5)cc3)C2)cc1C(N)=O
REMARK SMILES IDX 20 1 19 2 18 3 17 4 16 5 15 6 13 7 14 8 12 9 9 10 10 11
REMARK SMILES IDX 93 12 11 13 8 14 5 16 6 17 7 18 4 19 1 20 2 21 3 22 95 23
REMARK SMILES IDX 94 24 96 25 97 26 98 27 21 30 22 31 23 32 24 33 25 34 26 35
REMARK SMILES IDX 27 36 28 37 29 38 30 39 31 40 92 41 32 42 91 43 33 44 34 45
REMARK SMILES IDX 35 46 85 47 36 48 90 49 84 50 86 51 37 52 89 53 83 54 82 55
REMARK SMILES IDX 38 57 70 58 50 59 69 60 51 61 54 62 68 63 87 64 52 65 53 66
REMARK SMILES IDX 67 68 88 69 55 70 39 71 40 72 48 73 41 74 43 75 49 76 42 77
REMARK SMILES IDX 44 78 45 79 46 80 47 81 71 82 72 83 80 84 73 85 75 86 81 87
REMARK SMILES IDX 74 88 76 89 77 90 78 91 79 92 56 93 57 94 65 95 58 96 60 97
REMARK SMILES IDX 66 98 59 99 61 100 62 101 63 102 64 103
REMARK H PARENT 8 15 97 28 97 29 86 56 54 67
REMARK Flexibility Score: inf
ROOT
ATOM      1  C   UNL A   1      37.370  22.054  25.728  1.00  0.00     0.188 C 
ENDROOT
BRANCH   1   2
ATOM      2  C   UNL A   1      36.764  23.344  26.298  1.00  0.00     0.188 C 
BRANCH   2   3
ATOM      3  O   UNL A   1      35.358  23.442  26.486  1.00  0.00    -0.376 OA
BRANCH   3   4
ATOM      4  C   UNL A   1      34.716  22.593  27.437  1.00  0.00     0.202 C 
BRANCH   4   5
ATOM      5  C   UNL A   1      33.585  21.670  26.968  1.00  0.00     0.261 C 
BRANCH   5   6
ATOM      6  O   UNL A   1      33.721  21.228  25.603  1.00  0.00    -0.463 OA
BRANCH   6   7
ATOM      7  C   UNL A   1      32.590  21.197  24.863  1.00  0.00     0.312 C 
ATOM      8  O   UNL A   1      31.784  20.268  24.854  1.00  0.00    -0.252 OA
BRANCH   7   9
ATOM      9  C   UNL A   1      32.392  22.406  23.966  1.00  0.00     0.123 C 
ATOM     10  C   UNL A   1      33.240  24.289  22.682  1.00  0.00     0.093 C 
ATOM     11  C   UNL A   1      33.070  23.072  21.836  1.00  0.00    -0.011 C 
ATOM     12  C   UNL A   1      33.299  23.637  24.079  1.00  0.00     0.043 C 
ATOM     13  C   UNL A   1      32.602  22.027  22.532  1.00  0.00    -0.015 C 
BRANCH  10  14
ATOM     14  N   UNL A   1      32.053  25.172  22.667  1.00  0.00    -0.204 NA
ATOM     15  H   UNL A   1      31.459  24.851  21.903  1.00  0.00     0.142 HD
BRANCH  14  16
ATOM     16  S   UNL A   1      32.233  26.835  22.474  1.00  0.00     0.242 S 
ATOM     17  O   UNL A   1      31.062  27.353  21.810  1.00  0.00    -0.207 OA
ATOM     18  O   UNL A   1      33.568  27.042  21.953  1.00  0.00    -0.207 OA
BRANCH  16  19
ATOM     19  C   UNL A   1      32.271  27.573  24.030  1.00  0.00     0.100 A 
ATOM     20  C   UNL A   1      31.378  27.876  27.513  1.00  0.00     0.150 C 
ATOM     21  N   UNL A   1      31.954  27.985  26.190  1.00  0.00    -0.345 N 
ATOM     22  C   UNL A   1      31.465  27.289  25.109  1.00  0.00     0.107 A 
ATOM     23  C   UNL A   1      33.089  28.697  25.829  1.00  0.00     0.107 A 
ATOM     24  C   UNL A   1      33.215  28.538  24.452  1.00  0.00     0.055 A 
BRANCH  23  25
ATOM     25  C   UNL A   1      33.961  29.421  26.731  1.00  0.00     0.265 C 
ATOM     26  N   UNL A   1      33.337  30.331  27.536  1.00  0.00    -0.364 N 
ATOM     27  O   UNL A   1      35.180  29.295  26.790  1.00  0.00    -0.268 OA
ATOM     28  H   UNL A   1      32.360  30.436  27.495  1.00  0.00     0.160 HD
ATOM     29  H   UNL A   1      33.865  30.881  28.158  1.00  0.00     0.160 HD
ENDBRANCH  23  25
ENDBRANCH  16  19
ENDBRANCH  14  16
ENDBRANCH  10  14
ENDBRANCH   7   9
ENDBRANCH   6   7
ENDBRANCH   5   6
ENDBRANCH   4   5
ENDBRANCH   3   4
ENDBRANCH   2   3
ENDBRANCH   1   2
BRANCH   1  30
ATOM     30  O   UNL A   1      38.739  22.150  25.395  1.00  0.00    -0.377 OA
BRANCH  30  31
ATOM     31  C   UNL A   1      39.621  21.240  26.048  1.00  0.00     0.188 C 
BRANCH  31  32
ATOM     32  C   UNL A   1      40.444  21.787  27.228  1.00  0.00     0.188 C 
BRANCH  32  33
ATOM     33  O   UNL A   1      41.522  20.925  27.601  1.00  0.00    -0.376 OA
BRANCH  33  34
ATOM     34  C   UNL A   1      42.065  20.104  26.569  1.00  0.00     0.202 C 
BRANCH  34  35
ATOM     35  C   UNL A   1      43.311  20.670  25.867  1.00  0.00     0.261 C 
BRANCH  35  36
ATOM     36  O   UNL A   1      43.662  22.023  26.215  1.00  0.00    -0.460 OA
BRANCH  36  37
ATOM     37  C   UNL A   1      43.424  22.996  25.311  1.00  0.00     0.338 C 
ATOM     38  O   UNL A   1      43.201  22.857  24.122  1.00  0.00    -0.246 OA
BRANCH  37  39
ATOM     39  C   UNL A   1      43.275  24.269  26.044  1.00  0.00     0.060 A 
ATOM     40  C   UNL A   1      43.053  25.442  25.312  1.00  0.00     0.016 A 
ATOM     41  C   UNL A   1      43.370  24.308  27.438  1.00  0.00     0.016 A 
ATOM     42  C   UNL A   1      42.973  26.670  25.971  1.00  0.00     0.010 A 
ATOM     43  C   UNL A   1      43.307  25.539  28.094  1.00  0.00     0.010 A 
ATOM     44  C   UNL A   1      43.146  26.727  27.360  1.00  0.00    -0.014 A 
BRANCH  44  45
ATOM     45  C   UNL A   1      43.357  28.031  28.031  1.00  0.00     0.031 A 
ATOM     46  C   UNL A   1      42.156  28.747  28.587  1.00  0.00     0.074 A 
ATOM     47  C   UNL A   1      44.578  28.589  28.114  1.00  0.00     0.049 A 
ATOM     48  N   UNL A   1      42.083  29.917  29.163  1.00  0.00    -0.248 NA
ATOM     49  C   UNL A   1      40.863  28.049  28.472  1.00  0.00     0.031 C 
ATOM     50  C   UNL A   1      45.815  27.995  27.613  1.00  0.00     0.029 A 
ATOM     51  N   UNL A   1      44.967  29.801  28.627  1.00  0.00    -0.354 N 
ATOM     52  C   UNL A   1      40.739  30.108  29.459  1.00  0.00     0.074 A 
ATOM     53  C   UNL A   1      40.029  28.937  28.991  1.00  0.00     0.031 C 
ATOM     54  C   UNL A   1      46.823  28.863  27.810  1.00  0.00     0.029 A 
ATOM     55  C   UNL A   1      46.299  30.078  28.431  1.00  0.00     0.049 A 
ATOM     56  H   UNL A   1      44.351  30.413  29.091  1.00  0.00     0.167 HD
ATOM     57  C   UNL A   1      40.148  31.155  30.079  1.00  0.00     0.034 A 
ATOM     58  C   UNL A   1      47.005  31.196  28.701  1.00  0.00     0.034 A 
ATOM     59  C   UNL A   1      40.851  32.312  30.555  1.00  0.00     0.049 A 
ATOM     60  C   UNL A   1      46.316  32.366  29.359  1.00  0.00     0.074 A 
ATOM     61  C   UNL A   1      40.348  33.402  31.243  1.00  0.00     0.029 A 
ATOM     62  N   UNL A   1      42.207  32.539  30.379  1.00  0.00    -0.354 N 
ATOM     63  N   UNL A   1      45.071  32.473  29.759  1.00  0.00    -0.248 NA
ATOM     64  C   UNL A   1      47.133  33.559  29.625  1.00  0.00     0.031 C 
ATOM     65  C   UNL A   1      41.397  34.299  31.464  1.00  0.00     0.029 A 
ATOM     66  C   UNL A   1      42.557  33.759  30.929  1.00  0.00     0.049 A 
ATOM     67  H   UNL A   1      42.828  31.923  29.928  1.00  0.00     0.167 HD
ATOM     68  C   UNL A   1      44.966  33.727  30.353  1.00  0.00     0.074 A 
ATOM     69  C   UNL A   1      46.278  34.336  30.277  1.00  0.00     0.031 C 
ATOM     70  C   UNL A   1      43.879  34.328  30.898  1.00  0.00     0.034 A 
BRANCH  57  71
ATOM     71  C   UNL A   1      38.664  31.078  30.306  1.00  0.00     0.023 A 
ATOM     72  C   UNL A   1      38.159  30.204  31.290  1.00  0.00     0.012 A 
ATOM     73  C   UNL A   1      37.776  31.898  29.584  1.00  0.00     0.148 A 
ATOM     74  C   UNL A   1      36.788  30.129  31.534  1.00  0.00     0.002 A 
ATOM     75  C   UNL A   1      36.415  31.844  29.858  1.00  0.00     0.091 A 
ATOM     76  F   UNL A   1      38.276  32.699  28.632  1.00  0.00    -0.205 F 
ATOM     77  C   UNL A   1      35.919  30.955  30.826  1.00  0.00     0.022 A 
BRANCH  75  78
ATOM     78  S   UNL A   1      35.224  32.914  29.045  1.00  0.00     0.127 S 
ATOM     79  O   UNL A   1      35.659  34.236  29.495  1.00  0.00    -0.237 OA
ATOM     80  O   UNL A   1      35.478  32.640  27.630  1.00  0.00    -0.237 OA
ATOM     81  O   UNL A   1      33.915  32.489  29.519  1.00  0.00    -0.744 OA
ENDBRANCH  75  78
ENDBRANCH  57  71
BRANCH  58  82
ATOM     82  C   UNL A   1      48.458  31.256  28.378  1.00  0.00     0.023 A 
ATOM     83  C   UNL A   1      48.874  31.804  27.149  1.00  0.00     0.012 A 
ATOM     84  C   UNL A   1      49.430  30.787  29.284  1.00  0.00     0.148 A 
ATOM     85  C   UNL A   1      50.227  31.859  26.815  1.00  0.00     0.002 A 
ATOM     86  C   UNL A   1      50.780  30.894  28.969  1.00  0.00     0.091 A 
ATOM     87  F   UNL A   1      49.015  30.249  30.439  1.00  0.00    -0.205 F 
ATOM     88  C   UNL A   1      51.180  31.414  27.729  1.00  0.00     0.022 A 
BRANCH  86  89
ATOM     89  S   UNL A   1      52.075  30.467  30.138  1.00  0.00     0.127 S 
ATOM     90  O   UNL A   1      51.827  31.417  31.219  1.00  0.00    -0.237 OA
ATOM     91  O   UNL A   1      51.753  29.075  30.454  1.00  0.00    -0.237 OA
ATOM     92  O   UNL A   1      53.326  30.640  29.413  1.00  0.00    -0.744 OA
ENDBRANCH  86  89
ENDBRANCH  58  82
BRANCH  70  93
ATOM     93  C   UNL A   1      44.051  35.705  31.482  1.00  0.00     0.023 A 
ATOM     94  C   UNL A   1      43.953  36.834  30.644  1.00  0.00     0.012 A 
ATOM     95  C   UNL A   1      44.206  35.885  32.871  1.00  0.00     0.148 A 
ATOM     96  C   UNL A   1      44.028  38.120  31.178  1.00  0.00     0.002 A 
ATOM     97  C   UNL A   1      44.235  37.170  33.401  1.00  0.00     0.091 A 
ATOM     98  F   UNL A   1      44.314  34.798  33.649  1.00  0.00    -0.205 F 
ATOM     99  C   UNL A   1      44.155  38.288  32.555  1.00  0.00     0.022 A 
BRANCH  97 100
ATOM    100  S   UNL A   1      44.300  37.482  35.169  1.00  0.00     0.127 S 
ATOM    101  O   UNL A   1      45.663  37.064  35.496  1.00  0.00    -0.237 OA
ATOM    102  O   UNL A   1      44.071  38.926  35.240  1.00  0.00    -0.237 OA
ATOM    103  O   UNL A   1      43.240  36.674  35.758  1.00  0.00    -0.744 OA
ENDBRANCH  97 100
ENDBRANCH  70  93
ENDBRANCH  44  45
ENDBRANCH  37  39
ENDBRANCH  36  37
ENDBRANCH  35  36
ENDBRANCH  34  35
ENDBRANCH  33  34
ENDBRANCH  32  33
ENDBRANCH  31  32
ENDBRANCH  30  31
ENDBRANCH   1  30
TORSDOF 27
ENDMDL
MODEL 3
REMARK VINA RESULT:      -8.6      3.048      4.587
REMARK SMILES Cn1cc(S(=O)(=O)N[C@@H]2C=C[C@@H](C(=O)OCCOCCOCCOCCOC(=O)c3ccc(-c4c5nc(c(-c6cccc(S(=O)(=O)[O-])c6F)c6ccc([nH]6)c(-c6cccc(S(=O)(=O)[O-])c6F)c6nc(c(-c7cccc(S(=O)(=O)[O-])c7F)c7ccc4[nH]7)C=C6)C=C5)cc3)C2)cc1C(N)=O
REMARK SMILES IDX 20 1 19 2 18 3 17 4 16 5 15 6 13 7 14 8 12 9 9 10 10 11
REMARK SMILES IDX 93 12 11 13 8 14 5 16 6 17 7 18 4 19 1 20 2 21 3 22 95 23
REMARK SMILES IDX 94 24 96 25 97 26 98 27 21 30 22 31 23 32 24 33 25 34 26 35
REMARK SMILES IDX 27 36 28 37 29 38 30 39 31 40 92 41 32 42 91 43 33 44 34 45
REMARK SMILES IDX 35 46 85 47 36 48 90 49 84 50 86 51 37 52 89 53 83 54 82 55
REMARK SMILES IDX 38 57 70 58 50 59 69 60 51 61 54 62 68 63 87 64 52 65 53 66
REMARK SMILES IDX 67 68 88 69 55 70 39 71 40 72 48 73 41 74 43 75 49 76 42 77
REMARK SMILES IDX 44 78 45 79 46 80 47 81 71 82 72 83 80 84 73 85 75 86 81 87
REMARK SMILES IDX 74 88 76 89 77 90 78 91 79 92 56 93 57 94 65 95 58 96 60 97
REMARK SMILES IDX 66 98 59 99 61 100 62 101 63 102 64 103
REMARK H PARENT 8 15 97 28 97 29 86 56 54 67
REMARK Flexibility Score: inf
ROOT
ATOM      1  C   UNL A   1      36.741  22.483  23.966  1.00  0.00     0.188 C 
ENDROOT
BRANCH   1   2
ATOM      2  C   UNL A   1      35.528  21.816  24.632  1.00  0.00     0.188 C 
BRANCH   2   3
ATOM      3  O   UNL A   1      34.283  21.768  23.948  1.00  0.00    -0.376 OA
BRANCH   3   4
ATOM      4  C   UNL A   1      33.193  21.048  24.524  1.00  0.00     0.202 C 
BRANCH   4   5
ATOM      5  C   UNL A   1      32.401  21.689  25.670  1.00  0.00     0.261 C 
BRANCH   5   6
ATOM      6  O   UNL A   1      32.373  23.129  25.628  1.00  0.00    -0.463 OA
BRANCH   6   7
ATOM      7  C   UNL A   1      31.664  23.747  26.598  1.00  0.00     0.312 C 
ATOM      8  O   UNL A   1      31.261  23.204  27.626  1.00  0.00    -0.252 OA
BRANCH   7   9
ATOM      9  C   UNL A   1      31.335  25.201  26.308  1.00  0.00     0.123 C 
ATOM     10  C   UNL A   1      31.147  27.100  24.801  1.00  0.00     0.093 C 
ATOM     11  C   UNL A   1      29.855  26.368  24.934  1.00  0.00    -0.011 C 
ATOM     12  C   UNL A   1      32.126  26.003  25.267  1.00  0.00     0.043 C 
ATOM     13  C   UNL A   1      29.944  25.319  25.763  1.00  0.00    -0.015 C 
BRANCH  10  14
ATOM     14  N   UNL A   1      31.273  28.225  25.754  1.00  0.00    -0.204 NA
ATOM     15  H   UNL A   1      30.326  28.485  26.026  1.00  0.00     0.142 HD
BRANCH  14  16
ATOM     16  S   UNL A   1      32.052  29.646  25.296  1.00  0.00     0.242 S 
ATOM     17  O   UNL A   1      31.091  30.721  25.298  1.00  0.00    -0.207 OA
ATOM     18  O   UNL A   1      32.838  29.318  24.126  1.00  0.00    -0.207 OA
BRANCH  16  19
ATOM     19  C   UNL A   1      33.226  30.046  26.492  1.00  0.00     0.100 A 
ATOM     20  C   UNL A   1      36.463  29.846  28.073  1.00  0.00     0.150 C 
ATOM     21  N   UNL A   1      35.121  30.177  27.643  1.00  0.00    -0.345 N 
ATOM     22  C   UNL A   1      34.435  29.427  26.715  1.00  0.00     0.107 A 
ATOM     23  C   UNL A   1      34.380  31.293  28.001  1.00  0.00     0.107 A 
ATOM     24  C   UNL A   1      33.146  31.146  27.376  1.00  0.00     0.055 A 
BRANCH  23  25
ATOM     25  C   UNL A   1      34.840  32.387  28.833  1.00  0.00     0.265 C 
ATOM     26  N   UNL A   1      34.441  32.331  30.138  1.00  0.00    -0.364 N 
ATOM     27  O   UNL A   1      35.509  33.338  28.444  1.00  0.00    -0.268 OA
ATOM     28  H   UNL A   1      33.904  31.570  30.457  1.00  0.00     0.160 HD
ATOM     29  H   UNL A   1      34.691  33.051  30.761  1.00  0.00     0.160 HD
ENDBRANCH  23  25
ENDBRANCH  16  19
ENDBRANCH  14  16
ENDBRANCH  10  14
ENDBRANCH   7   9
ENDBRANCH   6   7
ENDBRANCH   5   6
ENDBRANCH   4   5
ENDBRANCH   3   4
ENDBRANCH   2   3
ENDBRANCH   1   2
BRANCH   1  30
ATOM     30  O   UNL A   1      37.242  23.608  24.658  1.00  0.00    -0.377 OA
BRANCH  30  31
ATOM     31  C   UNL A   1      37.549  23.423  26.038  1.00  0.00     0.188 C 
BRANCH  31  32
ATOM     32  C   UNL A   1      39.033  23.491  26.441  1.00  0.00     0.188 C 
BRANCH  32  33
ATOM     33  O   UNL A   1      39.535  22.244  26.927  1.00  0.00    -0.376 OA
BRANCH  33  34
ATOM     34  C   UNL A   1      39.312  21.104  26.101  1.00  0.00     0.202 C 
BRANCH  34  35
ATOM     35  C   UNL A   1      40.308  19.948  26.294  1.00  0.00     0.261 C 
BRANCH  35  36
ATOM     36  O   UNL A   1      41.410  19.912  25.369  1.00  0.00    -0.460 OA
BRANCH  36  37
ATOM     37  C   UNL A   1      42.660  20.049  25.859  1.00  0.00     0.338 C 
ATOM     38  O   UNL A   1      43.558  19.228  25.823  1.00  0.00    -0.246 OA
BRANCH  37  39
ATOM     39  C   UNL A   1      42.831  21.455  26.279  1.00  0.00     0.060 A 
ATOM     40  C   UNL A   1      42.705  22.462  25.314  1.00  0.00     0.016 A 
ATOM     41  C   UNL A   1      43.127  21.775  27.606  1.00  0.00     0.016 A 
ATOM     42  C   UNL A   1      42.925  23.794  25.666  1.00  0.00     0.010 A 
ATOM     43  C   UNL A   1      43.364  23.107  27.952  1.00  0.00     0.010 A 
ATOM     44  C   UNL A   1      43.301  24.116  26.976  1.00  0.00    -0.014 A 
BRANCH  44  45
ATOM     45  C   UNL A   1      43.819  25.468  27.292  1.00  0.00     0.031 A 
ATOM     46  C   UNL A   1      45.155  25.867  26.726  1.00  0.00     0.074 A 
ATOM     47  C   UNL A   1      43.141  26.311  28.090  1.00  0.00     0.049 A 
ATOM     48  N   UNL A   1      45.835  26.968  26.907  1.00  0.00    -0.248 NA
ATOM     49  C   UNL A   1      45.813  24.890  25.842  1.00  0.00     0.031 C 
ATOM     50  C   UNL A   1      41.841  26.039  28.698  1.00  0.00     0.029 A 
ATOM     51  N   UNL A   1      43.476  27.560  28.551  1.00  0.00    -0.354 N 
ATOM     52  C   UNL A   1      47.008  26.808  26.181  1.00  0.00     0.074 A 
ATOM     53  C   UNL A   1      46.955  25.501  25.564  1.00  0.00     0.031 C 
ATOM     54  C   UNL A   1      41.504  27.076  29.484  1.00  0.00     0.029 A 
ATOM     55  C   UNL A   1      42.572  28.074  29.450  1.00  0.00     0.049 A 
ATOM     56  H   UNL A   1      44.286  28.041  28.265  1.00  0.00     0.167 HD
ATOM     57  C   UNL A   1      48.034  27.678  26.027  1.00  0.00     0.034 A 
ATOM     58  C   UNL A   1      42.618  29.208  30.179  1.00  0.00     0.034 A 
ATOM     59  C   UNL A   1      48.086  28.980  26.629  1.00  0.00     0.049 A 
ATOM     60  C   UNL A   1      43.791  30.144  30.018  1.00  0.00     0.074 A 
ATOM     61  C   UNL A   1      49.058  29.953  26.491  1.00  0.00     0.029 A 
ATOM     62  N   UNL A   1      47.132  29.484  27.498  1.00  0.00    -0.354 N 
ATOM     63  N   UNL A   1      44.826  30.042  29.220  1.00  0.00    -0.248 NA
ATOM     64  C   UNL A   1      43.789  31.364  30.841  1.00  0.00     0.031 C 
ATOM     65  C   UNL A   1      48.703  31.041  27.294  1.00  0.00     0.029 A 
ATOM     66  C   UNL A   1      47.500  30.750  27.919  1.00  0.00     0.049 A 
ATOM     67  H   UNL A   1      46.315  29.012  27.776  1.00  0.00     0.167 HD
ATOM     68  C   UNL A   1      45.579  31.196  29.418  1.00  0.00     0.074 A 
ATOM     69  C   UNL A   1      44.871  31.992  30.400  1.00  0.00     0.031 C 
ATOM     70  C   UNL A   1      46.757  31.557  28.852  1.00  0.00     0.034 A 
BRANCH  57  71
ATOM     71  C   UNL A   1      49.174  27.254  25.144  1.00  0.00     0.023 A 
ATOM     72  C   UNL A   1      49.094  27.480  23.755  1.00  0.00     0.012 A 
ATOM     73  C   UNL A   1      50.338  26.677  25.687  1.00  0.00     0.148 A 
ATOM     74  C   UNL A   1      50.146  27.116  22.916  1.00  0.00     0.002 A 
ATOM     75  C   UNL A   1      51.398  26.350  24.848  1.00  0.00     0.091 A 
ATOM     76  F   UNL A   1      50.380  26.443  27.006  1.00  0.00    -0.205 F 
ATOM     77  C   UNL A   1      51.300  26.560  23.463  1.00  0.00     0.022 A 
BRANCH  75  78
ATOM     78  S   UNL A   1      52.948  25.690  25.468  1.00  0.00     0.127 S 
ATOM     79  O   UNL A   1      53.381  26.754  26.373  1.00  0.00    -0.237 OA
ATOM     80  O   UNL A   1      52.517  24.461  26.135  1.00  0.00    -0.237 OA
ATOM     81  O   UNL A   1      53.789  25.481  24.298  1.00  0.00    -0.744 OA
ENDBRANCH  75  78
ENDBRANCH  57  71
BRANCH  58  82
ATOM     82  C   UNL A   1      41.502  29.544  31.108  1.00  0.00     0.023 A 
ATOM     83  C   UNL A   1      41.535  29.065  32.432  1.00  0.00     0.012 A 
ATOM     84  C   UNL A   1      40.418  30.342  30.693  1.00  0.00     0.148 A 
ATOM     85  C   UNL A   1      40.496  29.352  33.319  1.00  0.00     0.002 A 
ATOM     86  C   UNL A   1      39.413  30.668  31.596  1.00  0.00     0.091 A 
ATOM     87  F   UNL A   1      40.392  30.769  29.423  1.00  0.00    -0.205 F 
ATOM     88  C   UNL A   1      39.441  30.162  32.904  1.00  0.00     0.022 A 
BRANCH  86  89
ATOM     89  S   UNL A   1      38.087  31.809  31.185  1.00  0.00     0.127 S 
ATOM     90  O   UNL A   1      38.405  32.151  29.801  1.00  0.00    -0.237 OA
ATOM     91  O   UNL A   1      36.900  30.971  31.357  1.00  0.00    -0.237 OA
ATOM     92  O   UNL A   1      38.195  32.895  32.150  1.00  0.00    -0.744 OA
ENDBRANCH  86  89
ENDBRANCH  58  82
BRANCH  70  93
ATOM     93  C   UNL A   1      47.356  32.880  29.250  1.00  0.00     0.023 A 
ATOM     94  C   UNL A   1      48.322  32.926  30.275  1.00  0.00     0.012 A 
ATOM     95  C   UNL A   1      47.041  34.057  28.542  1.00  0.00     0.148 A 
ATOM     96  C   UNL A   1      48.949  34.127  30.604  1.00  0.00     0.002 A 
ATOM     97  C   UNL A   1      47.703  35.241  28.845  1.00  0.00     0.091 A 
ATOM     98  F   UNL A   1      46.108  33.995  27.581  1.00  0.00    -0.205 F 
ATOM     99  C   UNL A   1      48.650  35.280  29.881  1.00  0.00     0.022 A 
BRANCH  97 100
ATOM    100  S   UNL A   1      47.452  36.752  27.905  1.00  0.00     0.127 S 
ATOM    101  O   UNL A   1      46.285  36.408  27.093  1.00  0.00    -0.237 OA
ATOM    102  O   UNL A   1      47.194  37.735  28.958  1.00  0.00    -0.237 OA
ATOM    103  O   UNL A   1      48.686  36.973  27.164  1.00  0.00    -0.744 OA
ENDBRANCH  97 100
ENDBRANCH  70  93
ENDBRANCH  44  45
ENDBRANCH  37  39
ENDBRANCH  36  37
ENDBRANCH  35  36
ENDBRANCH  34  35
ENDBRANCH  33  34
ENDBRANCH  32  33
ENDBRANCH  31  32
ENDBRANCH  30  31
ENDBRANCH   1  30
TORSDOF 27
ENDMDL
