MODEL 1
REMARK VINA RESULT:      -9.0      0.000      0.000
REMARK SMILES Nc1ccc([C@H]([NH3+])C(=O)OCCOCCOCCOCCOC(=O)c2ccc(-c3c4nc(c(-c5cccc(S(=O)(=O)[O-])c5F)c5ccc([nH]5)c(-c5cccc(S(=O)(=O)[O-])c5F)c5nc(c(-c6cccc(S(=O)(=O)[O-])c6F)c6ccc3[nH]6)C=C5)C=C4)cc2)cc1C(F)(F)F
REMARK SMILES IDX 17 1 16 2 15 3 14 4 13 5 12 6 11 7 10 8 8 9 9 10 6 11 5 12
REMARK SMILES IDX 2 13 3 14 89 15 4 16 88 17 1 18 90 21 91 22 92 23 93 24 7 25
REMARK SMILES IDX 18 29 19 30 20 31 21 32 22 33 23 34 24 35 25 36 26 37 87 38
REMARK SMILES IDX 27 39 86 40 28 41 29 42 30 43 80 44 31 45 85 46 79 47 81 48
REMARK SMILES IDX 32 49 84 50 78 51 77 52 33 54 65 55 45 56 64 57 46 58 49 59
REMARK SMILES IDX 63 60 82 61 47 62 48 63 62 65 83 66 50 67 34 68 35 69 43 70
REMARK SMILES IDX 36 71 38 72 44 73 37 74 39 75 40 76 41 77 42 78 66 79 67 80
REMARK SMILES IDX 75 81 68 82 70 83 76 84 69 85 71 86 72 87 73 88 74 89 51 90
REMARK SMILES IDX 52 91 60 92 53 93 55 94 61 95 54 96 56 97 57 98 58 99 59 100
REMARK H PARENT 1 19 1 20 7 26 7 27 7 28 81 53 49 64
REMARK Flexibility Score: inf
ROOT
ATOM      1  C   UNL A   1      33.640  21.595  26.806  1.00  0.00     0.188 C 
ENDROOT
BRANCH   1   2
ATOM      2  O   UNL A   1      32.755  22.678  26.552  1.00  0.00    -0.377 OA
BRANCH   2   3
ATOM      3  C   UNL A   1      31.523  22.631  27.238  1.00  0.00     0.188 C 
BRANCH   3   4
ATOM      4  C   UNL A   1      30.298  22.993  26.380  1.00  0.00     0.188 C 
BRANCH   4   5
ATOM      5  O   UNL A   1      30.301  24.109  25.495  1.00  0.00    -0.376 OA
BRANCH   5   6
ATOM      6  C   UNL A   1      30.713  23.991  24.140  1.00  0.00     0.202 C 
BRANCH   6   7
ATOM      7  C   UNL A   1      31.659  25.007  23.483  1.00  0.00     0.261 C 
BRANCH   7   8
ATOM      8  O   UNL A   1      32.955  25.133  24.076  1.00  0.00    -0.459 OA
BRANCH   8   9
ATOM      9  C   UNL A   1      33.082  26.129  24.992  1.00  0.00     0.369 C 
ATOM     10  O   UNL A   1      32.774  26.028  26.177  1.00  0.00    -0.245 OA
BRANCH   9  11
ATOM     11  C   UNL A   1      33.589  27.447  24.370  1.00  0.00     0.323 C 
BRANCH  11  12
ATOM     12  C   UNL A   1      33.568  28.533  25.405  1.00  0.00     0.021 A 
ATOM     13  C   UNL A   1      33.593  30.655  27.246  1.00  0.00     0.044 A 
ATOM     14  C   UNL A   1      32.471  30.402  26.441  1.00  0.00     0.026 A 
ATOM     15  C   UNL A   1      34.719  29.829  27.129  1.00  0.00     0.079 A 
ATOM     16  C   UNL A   1      32.451  29.348  25.535  1.00  0.00     0.013 A 
ATOM     17  C   UNL A   1      34.684  28.758  26.225  1.00  0.00     0.025 A 
BRANCH  13  18
ATOM     18  N   UNL A   1      33.583  31.791  28.040  1.00  0.00    -0.398 N 
ATOM     19  H   UNL A   1      34.243  31.891  28.764  1.00  0.00     0.156 HD
ATOM     20  H   UNL A   1      32.917  32.497  27.880  1.00  0.00     0.156 HD
ENDBRANCH  13  18
BRANCH  15  21
ATOM     21  C   UNL A   1      36.001  30.020  27.904  1.00  0.00     0.418 C 
ATOM     22  F   UNL A   1      36.370  31.329  27.954  1.00  0.00    -0.166 F 
ATOM     23  F   UNL A   1      35.872  29.613  29.198  1.00  0.00    -0.166 F 
ATOM     24  F   UNL A   1      37.069  29.341  27.398  1.00  0.00    -0.166 F 
ENDBRANCH  15  21
ENDBRANCH  11  12
BRANCH  11  25
ATOM     25  N   UNL A   1      32.883  27.905  23.163  1.00  0.00    -0.342 N 
ATOM     26  H   UNL A   1      33.560  28.087  22.421  1.00  0.00     0.345 HD
ATOM     27  H   UNL A   1      32.370  28.761  23.373  1.00  0.00     0.345 HD
ATOM     28  H   UNL A   1      32.231  27.183  22.856  1.00  0.00     0.345 HD
ENDBRANCH  11  25
ENDBRANCH   9  11
ENDBRANCH   8   9
ENDBRANCH   7   8
ENDBRANCH   6   7
ENDBRANCH   5   6
ENDBRANCH   4   5
ENDBRANCH   3   4
ENDBRANCH   2   3
ENDBRANCH   1   2
BRANCH   1  29
ATOM     29  C   UNL A   1      33.719  20.476  25.741  1.00  0.00     0.188 C 
BRANCH  29  30
ATOM     30  O   UNL A   1      34.878  20.512  24.918  1.00  0.00    -0.376 OA
BRANCH  30  31
ATOM     31  C   UNL A   1      36.072  21.097  25.418  1.00  0.00     0.202 C 
BRANCH  31  32
ATOM     32  C   UNL A   1      37.425  20.472  25.036  1.00  0.00     0.261 C 
BRANCH  32  33
ATOM     33  O   UNL A   1      38.575  21.325  25.117  1.00  0.00    -0.460 OA
BRANCH  33  34
ATOM     34  C   UNL A   1      39.446  21.110  26.124  1.00  0.00     0.338 C 
ATOM     35  O   UNL A   1      39.986  20.053  26.411  1.00  0.00    -0.246 OA
BRANCH  34  36
ATOM     36  C   UNL A   1      39.810  22.423  26.695  1.00  0.00     0.060 A 
ATOM     37  C   UNL A   1      39.070  23.552  26.317  1.00  0.00     0.016 A 
ATOM     38  C   UNL A   1      40.863  22.540  27.605  1.00  0.00     0.016 A 
ATOM     39  C   UNL A   1      39.412  24.809  26.811  1.00  0.00     0.010 A 
ATOM     40  C   UNL A   1      41.221  23.805  28.079  1.00  0.00     0.010 A 
ATOM     41  C   UNL A   1      40.523  24.948  27.650  1.00  0.00    -0.014 A 
BRANCH  41  42
ATOM     42  C   UNL A   1      41.086  26.296  27.898  1.00  0.00     0.031 A 
ATOM     43  C   UNL A   1      42.424  26.626  27.295  1.00  0.00     0.074 A 
ATOM     44  C   UNL A   1      40.427  27.209  28.632  1.00  0.00     0.049 A 
ATOM     45  N   UNL A   1      43.140  27.713  27.407  1.00  0.00    -0.248 NA
ATOM     46  C   UNL A   1      43.040  25.584  26.455  1.00  0.00     0.031 C 
ATOM     47  C   UNL A   1      39.119  27.015  29.250  1.00  0.00     0.029 A 
ATOM     48  N   UNL A   1      40.793  28.480  29.003  1.00  0.00    -0.354 N 
ATOM     49  C   UNL A   1      44.303  27.475  26.686  1.00  0.00     0.074 A 
ATOM     50  C   UNL A   1      44.203  26.138  26.147  1.00  0.00     0.031 C 
ATOM     51  C   UNL A   1      38.804  28.116  29.955  1.00  0.00     0.029 A 
ATOM     52  C   UNL A   1      39.901  29.077  29.861  1.00  0.00     0.049 A 
ATOM     53  H   UNL A   1      41.614  28.919  28.686  1.00  0.00     0.167 HD
ATOM     54  C   UNL A   1      45.358  28.298  26.483  1.00  0.00     0.034 A 
ATOM     55  C   UNL A   1      39.980  30.252  30.518  1.00  0.00     0.034 A 
ATOM     56  C   UNL A   1      45.451  29.630  27.014  1.00  0.00     0.049 A 
ATOM     57  C   UNL A   1      41.181  31.138  30.306  1.00  0.00     0.074 A 
ATOM     58  C   UNL A   1      46.457  30.561  26.827  1.00  0.00     0.029 A 
ATOM     59  N   UNL A   1      44.514  30.214  27.852  1.00  0.00    -0.354 N 
ATOM     60  N   UNL A   1      42.226  30.944  29.538  1.00  0.00    -0.248 NA
ATOM     61  C   UNL A   1      41.200  32.419  31.029  1.00  0.00     0.031 C 
ATOM     62  C   UNL A   1      46.149  31.692  27.590  1.00  0.00     0.029 A 
ATOM     63  C   UNL A   1      44.926  31.487  28.207  1.00  0.00     0.049 A 
ATOM     64  H   UNL A   1      43.677  29.787  28.150  1.00  0.00     0.167 HD
ATOM     65  C   UNL A   1      43.004  32.092  29.651  1.00  0.00     0.074 A 
ATOM     66  C   UNL A   1      42.301  32.983  30.552  1.00  0.00     0.031 C 
ATOM     67  C   UNL A   1      44.193  32.382  29.066  1.00  0.00     0.034 A 
BRANCH  54  68
ATOM     68  C   UNL A   1      46.500  27.776  25.652  1.00  0.00     0.023 A 
ATOM     69  C   UNL A   1      46.486  27.937  24.251  1.00  0.00     0.012 A 
ATOM     70  C   UNL A   1      47.610  27.162  26.265  1.00  0.00     0.148 A 
ATOM     71  C   UNL A   1      47.539  27.460  23.471  1.00  0.00     0.002 A 
ATOM     72  C   UNL A   1      48.678  26.735  25.487  1.00  0.00     0.091 A 
ATOM     73  F   UNL A   1      47.593  26.996  27.595  1.00  0.00    -0.205 F 
ATOM     74  C   UNL A   1      48.639  26.869  24.090  1.00  0.00     0.022 A 
BRANCH  72  75
ATOM     75  S   UNL A   1      50.173  26.038  26.196  1.00  0.00     0.127 S 
ATOM     76  O   UNL A   1      50.603  27.111  27.091  1.00  0.00    -0.237 OA
ATOM     77  O   UNL A   1      49.664  24.846  26.874  1.00  0.00    -0.237 OA
ATOM     78  O   UNL A   1      51.062  25.768  25.075  1.00  0.00    -0.744 OA
ENDBRANCH  72  75
ENDBRANCH  54  68
BRANCH  55  79
ATOM     79  C   UNL A   1      38.877  30.671  31.430  1.00  0.00     0.023 A 
ATOM     80  C   UNL A   1      38.824  30.162  32.742  1.00  0.00     0.012 A 
ATOM     81  C   UNL A   1      37.886  31.575  31.003  1.00  0.00     0.148 A 
ATOM     82  C   UNL A   1      37.786  30.522  33.603  1.00  0.00     0.002 A 
ATOM     83  C   UNL A   1      36.887  31.973  31.882  1.00  0.00     0.091 A 
ATOM     84  F   UNL A   1      37.948  32.036  29.745  1.00  0.00    -0.205 F 
ATOM     85  C   UNL A   1      36.824  31.435  33.177  1.00  0.00     0.022 A 
BRANCH  83  86
ATOM     86  S   UNL A   1      35.674  33.230  31.462  1.00  0.00     0.127 S 
ATOM     87  O   UNL A   1      34.912  33.337  32.704  1.00  0.00    -0.237 OA
ATOM     88  O   UNL A   1      36.528  34.379  31.163  1.00  0.00    -0.237 OA
ATOM     89  O   UNL A   1      34.942  32.705  30.318  1.00  0.00    -0.744 OA
ENDBRANCH  83  86
ENDBRANCH  55  79
BRANCH  67  90
ATOM     90  C   UNL A   1      44.796  33.740  29.327  1.00  0.00     0.023 A 
ATOM     91  C   UNL A   1      45.601  33.954  30.463  1.00  0.00     0.012 A 
ATOM     92  C   UNL A   1      44.629  34.783  28.393  1.00  0.00     0.148 A 
ATOM     93  C   UNL A   1      46.199  35.195  30.684  1.00  0.00     0.002 A 
ATOM     94  C   UNL A   1      45.273  35.997  28.590  1.00  0.00     0.091 A 
ATOM     95  F   UNL A   1      43.849  34.564  27.324  1.00  0.00    -0.205 F 
ATOM     96  C   UNL A   1      46.047  36.211  29.743  1.00  0.00     0.022 A 
BRANCH  94  97
ATOM     97  S   UNL A   1      45.217  37.327  27.384  1.00  0.00     0.127 S 
ATOM     98  O   UNL A   1      45.913  38.401  28.091  1.00  0.00    -0.237 OA
ATOM     99  O   UNL A   1      45.959  36.755  26.260  1.00  0.00    -0.237 OA
ATOM    100  O   UNL A   1      43.806  37.570  27.117  1.00  0.00    -0.744 OA
ENDBRANCH  94  97
ENDBRANCH  67  90
ENDBRANCH  41  42
ENDBRANCH  34  36
ENDBRANCH  33  34
ENDBRANCH  32  33
ENDBRANCH  31  32
ENDBRANCH  30  31
ENDBRANCH  29  30
ENDBRANCH   1  29
TORSDOF 27
ENDMDL
MODEL 2
REMARK VINA RESULT:      -9.0      2.378      2.918
REMARK SMILES Nc1ccc([C@H]([NH3+])C(=O)OCCOCCOCCOCCOC(=O)c2ccc(-c3c4nc(c(-c5cccc(S(=O)(=O)[O-])c5F)c5ccc([nH]5)c(-c5cccc(S(=O)(=O)[O-])c5F)c5nc(c(-c6cccc(S(=O)(=O)[O-])c6F)c6ccc3[nH]6)C=C5)C=C4)cc2)cc1C(F)(F)F
REMARK SMILES IDX 17 1 16 2 15 3 14 4 13 5 12 6 11 7 10 8 8 9 9 10 6 11 5 12
REMARK SMILES IDX 2 13 3 14 89 15 4 16 88 17 1 18 90 21 91 22 92 23 93 24 7 25
REMARK SMILES IDX 18 29 19 30 20 31 21 32 22 33 23 34 24 35 25 36 26 37 87 38
REMARK SMILES IDX 27 39 86 40 28 41 29 42 30 43 80 44 31 45 85 46 79 47 81 48
REMARK SMILES IDX 32 49 84 50 78 51 77 52 33 54 65 55 45 56 64 57 46 58 49 59
REMARK SMILES IDX 63 60 82 61 47 62 48 63 62 65 83 66 50 67 34 68 35 69 43 70
REMARK SMILES IDX 36 71 38 72 44 73 37 74 39 75 40 76 41 77 42 78 66 79 67 80
REMARK SMILES IDX 75 81 68 82 70 83 76 84 69 85 71 86 72 87 73 88 74 89 51 90
REMARK SMILES IDX 52 91 60 92 53 93 55 94 61 95 54 96 56 97 57 98 58 99 59 100
REMARK H PARENT 1 19 1 20 7 26 7 27 7 28 81 53 49 64
REMARK Flexibility Score: inf
ROOT
ATOM      1  C   UNL A   1      35.245  21.484  24.683  1.00  0.00     0.188 C 
ENDROOT
BRANCH   1   2
ATOM      2  O   UNL A   1      34.339  22.285  23.936  1.00  0.00    -0.377 OA
BRANCH   2   3
ATOM      3  C   UNL A   1      32.996  21.851  23.940  1.00  0.00     0.188 C 
BRANCH   3   4
ATOM      4  C   UNL A   1      32.019  22.787  23.208  1.00  0.00     0.188 C 
BRANCH   4   5
ATOM      5  O   UNL A   1      31.538  23.989  23.802  1.00  0.00    -0.376 OA
BRANCH   5   6
ATOM      6  C   UNL A   1      32.131  25.251  23.530  1.00  0.00     0.202 C 
BRANCH   6   7
ATOM      7  C   UNL A   1      33.464  25.680  24.161  1.00  0.00     0.261 C 
BRANCH   7   8
ATOM      8  O   UNL A   1      33.514  27.012  24.678  1.00  0.00    -0.459 OA
BRANCH   8   9
ATOM      9  C   UNL A   1      33.005  27.171  25.929  1.00  0.00     0.369 C 
ATOM     10  O   UNL A   1      32.456  26.282  26.575  1.00  0.00    -0.245 OA
BRANCH   9  11
ATOM     11  C   UNL A   1      33.119  28.624  26.436  1.00  0.00     0.323 C 
BRANCH  11  12
ATOM     12  C   UNL A   1      32.123  29.487  25.719  1.00  0.00     0.021 A 
ATOM     13  C   UNL A   1      30.153  31.036  24.448  1.00  0.00     0.044 A 
ATOM     14  C   UNL A   1      30.810  31.496  25.601  1.00  0.00     0.026 A 
ATOM     15  C   UNL A   1      30.491  29.782  23.922  1.00  0.00     0.079 A 
ATOM     16  C   UNL A   1      31.792  30.737  26.228  1.00  0.00     0.013 A 
ATOM     17  C   UNL A   1      31.494  29.030  24.551  1.00  0.00     0.025 A 
BRANCH  13  18
ATOM     18  N   UNL A   1      29.108  31.796  23.948  1.00  0.00    -0.398 N 
ATOM     19  H   UNL A   1      28.276  31.888  24.467  1.00  0.00     0.156 HD
ATOM     20  H   UNL A   1      29.197  32.242  23.076  1.00  0.00     0.156 HD
ENDBRANCH  13  18
BRANCH  15  21
ATOM     21  C   UNL A   1      29.832  29.157  22.716  1.00  0.00     0.418 C 
ATOM     22  F   UNL A   1      30.320  27.913  22.464  1.00  0.00    -0.166 F 
ATOM     23  F   UNL A   1      28.489  29.008  22.898  1.00  0.00    -0.166 F 
ATOM     24  F   UNL A   1      29.982  29.867  21.563  1.00  0.00    -0.166 F 
ENDBRANCH  15  21
ENDBRANCH  11  12
BRANCH  11  25
ATOM     25  N   UNL A   1      34.454  29.236  26.348  1.00  0.00    -0.342 N 
ATOM     26  H   UNL A   1      34.543  29.963  27.058  1.00  0.00     0.345 HD
ATOM     27  H   UNL A   1      34.580  29.647  25.423  1.00  0.00     0.345 HD
ATOM     28  H   UNL A   1      35.167  28.523  26.503  1.00  0.00     0.345 HD
ENDBRANCH  11  25
ENDBRANCH   9  11
ENDBRANCH   8   9
ENDBRANCH   7   8
ENDBRANCH   6   7
ENDBRANCH   5   6
ENDBRANCH   4   5
ENDBRANCH   3   4
ENDBRANCH   2   3
ENDBRANCH   1   2
BRANCH   1  29
ATOM     29  C   UNL A   1      36.747  21.843  24.601  1.00  0.00     0.188 C 
BRANCH  29  30
ATOM     30  O   UNL A   1      37.594  21.087  25.458  1.00  0.00    -0.376 OA
BRANCH  30  31
ATOM     31  C   UNL A   1      38.092  19.833  25.016  1.00  0.00     0.202 C 
BRANCH  31  32
ATOM     32  C   UNL A   1      39.272  19.193  25.769  1.00  0.00     0.261 C 
BRANCH  32  33
ATOM     33  O   UNL A   1      40.582  19.672  25.440  1.00  0.00    -0.460 OA
BRANCH  33  34
ATOM     34  C   UNL A   1      41.467  19.822  26.447  1.00  0.00     0.338 C 
ATOM     35  O   UNL A   1      42.241  18.981  26.873  1.00  0.00    -0.246 OA
BRANCH  34  36
ATOM     36  C   UNL A   1      41.496  21.254  26.813  1.00  0.00     0.060 A 
ATOM     37  C   UNL A   1      41.240  22.210  25.819  1.00  0.00     0.016 A 
ATOM     38  C   UNL A   1      41.760  21.652  28.125  1.00  0.00     0.016 A 
ATOM     39  C   UNL A   1      41.295  23.567  26.125  1.00  0.00     0.010 A 
ATOM     40  C   UNL A   1      41.841  23.015  28.424  1.00  0.00     0.010 A 
ATOM     41  C   UNL A   1      41.650  23.976  27.416  1.00  0.00    -0.014 A 
BRANCH  41  42
ATOM     42  C   UNL A   1      42.038  25.386  27.653  1.00  0.00     0.031 A 
ATOM     43  C   UNL A   1      43.417  25.821  27.237  1.00  0.00     0.074 A 
ATOM     44  C   UNL A   1      41.190  26.263  28.217  1.00  0.00     0.049 A 
ATOM     45  N   UNL A   1      44.001  26.980  27.382  1.00  0.00    -0.248 NA
ATOM     46  C   UNL A   1      44.251  24.806  26.571  1.00  0.00     0.031 C 
ATOM     47  C   UNL A   1      39.825  25.967  28.644  1.00  0.00     0.029 A 
ATOM     48  N   UNL A   1      41.373  27.582  28.553  1.00  0.00    -0.354 N 
ATOM     49  C   UNL A   1      45.280  26.826  26.861  1.00  0.00     0.074 A 
ATOM     50  C   UNL A   1      45.391  25.459  26.404  1.00  0.00     0.031 C 
ATOM     51  C   UNL A   1      39.302  27.065  29.218  1.00  0.00     0.029 A 
ATOM     52  C   UNL A   1      40.306  28.129  29.225  1.00  0.00     0.049 A 
ATOM     53  H   UNL A   1      42.188  28.087  28.333  1.00  0.00     0.167 HD
ATOM     54  C   UNL A   1      46.271  27.742  26.764  1.00  0.00     0.034 A 
ATOM     55  C   UNL A   1      40.170  29.338  29.805  1.00  0.00     0.034 A 
ATOM     56  C   UNL A   1      46.154  29.102  27.211  1.00  0.00     0.049 A 
ATOM     57  C   UNL A   1      41.301  30.331  29.717  1.00  0.00     0.074 A 
ATOM     58  C   UNL A   1      47.085  30.121  27.115  1.00  0.00     0.029 A 
ATOM     59  N   UNL A   1      45.047  29.630  27.858  1.00  0.00    -0.354 N 
ATOM     60  N   UNL A   1      42.466  30.206  29.129  1.00  0.00    -0.248 NA
ATOM     61  C   UNL A   1      41.086  31.643  30.346  1.00  0.00     0.031 C 
ATOM     62  C   UNL A   1      46.557  31.253  27.745  1.00  0.00     0.029 A 
ATOM     63  C   UNL A   1      45.277  30.955  28.185  1.00  0.00     0.049 A 
ATOM     64  H   UNL A   1      44.219  29.135  28.055  1.00  0.00     0.167 HD
ATOM     65  C   UNL A   1      43.106  31.433  29.280  1.00  0.00     0.074 A 
ATOM     66  C   UNL A   1      42.190  32.292  30.003  1.00  0.00     0.031 C 
ATOM     67  C   UNL A   1      44.338  31.813  28.862  1.00  0.00     0.034 A 
BRANCH  54  68
ATOM     68  C   UNL A   1      47.573  27.298  26.150  1.00  0.00     0.023 A 
ATOM     69  C   UNL A   1      48.537  26.637  26.938  1.00  0.00     0.012 A 
ATOM     70  C   UNL A   1      47.822  27.500  24.778  1.00  0.00     0.148 A 
ATOM     71  C   UNL A   1      49.744  26.219  26.379  1.00  0.00     0.002 A 
ATOM     72  C   UNL A   1      49.005  27.035  24.217  1.00  0.00     0.091 A 
ATOM     73  F   UNL A   1      46.904  28.152  24.052  1.00  0.00    -0.205 F 
ATOM     74  C   UNL A   1      49.973  26.408  25.018  1.00  0.00     0.022 A 
BRANCH  72  75
ATOM     75  S   UNL A   1      49.356  27.157  22.461  1.00  0.00     0.127 S 
ATOM     76  O   UNL A   1      48.826  28.483  22.146  1.00  0.00    -0.237 OA
ATOM     77  O   UNL A   1      50.816  27.062  22.434  1.00  0.00    -0.237 OA
ATOM     78  O   UNL A   1      48.662  26.043  21.832  1.00  0.00    -0.744 OA
ENDBRANCH  72  75
ENDBRANCH  54  68
BRANCH  55  79
ATOM     79  C   UNL A   1      38.904  29.687  30.511  1.00  0.00     0.023 A 
ATOM     80  C   UNL A   1      38.679  29.213  31.818  1.00  0.00     0.012 A 
ATOM     81  C   UNL A   1      37.927  30.492  29.894  1.00  0.00     0.148 A 
ATOM     82  C   UNL A   1      37.490  29.509  32.486  1.00  0.00     0.002 A 
ATOM     83  C   UNL A   1      36.770  30.829  30.586  1.00  0.00     0.091 A 
ATOM     84  F   UNL A   1      38.156  30.920  28.645  1.00  0.00    -0.205 F 
ATOM     85  C   UNL A   1      36.541  30.324  31.875  1.00  0.00     0.022 A 
BRANCH  83  86
ATOM     86  S   UNL A   1      35.546  31.966  29.925  1.00  0.00     0.127 S 
ATOM     87  O   UNL A   1      34.784  32.314  31.122  1.00  0.00    -0.237 OA
ATOM     88  O   UNL A   1      36.391  33.039  29.399  1.00  0.00    -0.237 OA
ATOM     89  O   UNL A   1      34.818  31.217  28.911  1.00  0.00    -0.744 OA
ENDBRANCH  83  86
ENDBRANCH  55  79
BRANCH  67  90
ATOM     90  C   UNL A   1      44.763  33.237  29.118  1.00  0.00     0.023 A 
ATOM     91  C   UNL A   1      45.428  33.577  30.312  1.00  0.00     0.012 A 
ATOM     92  C   UNL A   1      44.574  34.225  28.129  1.00  0.00     0.148 A 
ATOM     93  C   UNL A   1      45.864  34.884  30.533  1.00  0.00     0.002 A 
ATOM     94  C   UNL A   1      45.060  35.509  28.332  1.00  0.00     0.091 A 
ATOM     95  F   UNL A   1      43.927  33.885  27.004  1.00  0.00    -0.205 F 
ATOM     96  C   UNL A   1      45.693  35.845  29.539  1.00  0.00     0.022 A 
BRANCH  94  97
ATOM     97  S   UNL A   1      44.975  36.784  27.070  1.00  0.00     0.127 S 
ATOM     98  O   UNL A   1      45.496  37.948  27.785  1.00  0.00    -0.237 OA
ATOM     99  O   UNL A   1      45.865  36.255  26.036  1.00  0.00    -0.237 OA
ATOM    100  O   UNL A   1      43.575  36.870  26.677  1.00  0.00    -0.744 OA
ENDBRANCH  94  97
ENDBRANCH  67  90
ENDBRANCH  41  42
ENDBRANCH  34  36
ENDBRANCH  33  34
ENDBRANCH  32  33
ENDBRANCH  31  32
ENDBRANCH  30  31
ENDBRANCH  29  30
ENDBRANCH   1  29
TORSDOF 27
ENDMDL
MODEL 3
REMARK VINA RESULT:      -9.0      2.310      3.039
REMARK SMILES Nc1ccc([C@H]([NH3+])C(=O)OCCOCCOCCOCCOC(=O)c2ccc(-c3c4nc(c(-c5cccc(S(=O)(=O)[O-])c5F)c5ccc([nH]5)c(-c5cccc(S(=O)(=O)[O-])c5F)c5nc(c(-c6cccc(S(=O)(=O)[O-])c6F)c6ccc3[nH]6)C=C5)C=C4)cc2)cc1C(F)(F)F
REMARK SMILES IDX 17 1 16 2 15 3 14 4 13 5 12 6 11 7 10 8 8 9 9 10 6 11 5 12
REMARK SMILES IDX 2 13 3 14 89 15 4 16 88 17 1 18 90 21 91 22 92 23 93 24 7 25
REMARK SMILES IDX 18 29 19 30 20 31 21 32 22 33 23 34 24 35 25 36 26 37 87 38
REMARK SMILES IDX 27 39 86 40 28 41 29 42 30 43 80 44 31 45 85 46 79 47 81 48
REMARK SMILES IDX 32 49 84 50 78 51 77 52 33 54 65 55 45 56 64 57 46 58 49 59
REMARK SMILES IDX 63 60 82 61 47 62 48 63 62 65 83 66 50 67 34 68 35 69 43 70
REMARK SMILES IDX 36 71 38 72 44 73 37 74 39 75 40 76 41 77 42 78 66 79 67 80
REMARK SMILES IDX 75 81 68 82 70 83 76 84 69 85 71 86 72 87 73 88 74 89 51 90
REMARK SMILES IDX 52 91 60 92 53 93 55 94 61 95 54 96 56 97 57 98 58 99 59 100
REMARK H PARENT 1 19 1 20 7 26 7 27 7 28 81 53 49 64
REMARK Flexibility Score: inf
ROOT
ATOM      1  C   UNL A   1      35.328  21.582  24.646  1.00  0.00     0.188 C 
ENDROOT
BRANCH   1   2
ATOM      2  O   UNL A   1      34.394  22.145  23.735  1.00  0.00    -0.377 OA
BRANCH   2   3
ATOM      3  C   UNL A   1      33.073  21.659  23.840  1.00  0.00     0.188 C 
BRANCH   3   4
ATOM      4  C   UNL A   1      32.063  22.345  22.905  1.00  0.00     0.188 C 
BRANCH   4   5
ATOM      5  O   UNL A   1      31.655  23.697  23.095  1.00  0.00    -0.376 OA
BRANCH   5   6
ATOM      6  C   UNL A   1      32.254  24.770  22.383  1.00  0.00     0.202 C 
BRANCH   6   7
ATOM      7  C   UNL A   1      33.698  25.221  22.647  1.00  0.00     0.261 C 
BRANCH   7   8
ATOM      8  O   UNL A   1      33.853  26.368  23.487  1.00  0.00    -0.459 OA
BRANCH   8   9
ATOM      9  C   UNL A   1      33.956  26.106  24.817  1.00  0.00     0.369 C 
ATOM     10  O   UNL A   1      34.609  25.184  25.297  1.00  0.00    -0.245 OA
BRANCH   9  11
ATOM     11  C   UNL A   1      33.092  27.053  25.677  1.00  0.00     0.323 C 
BRANCH  11  12
ATOM     12  C   UNL A   1      31.657  26.953  25.250  1.00  0.00     0.021 A 
ATOM     13  C   UNL A   1      29.014  26.697  24.330  1.00  0.00     0.044 A 
ATOM     14  C   UNL A   1      29.573  25.758  25.211  1.00  0.00     0.026 A 
ATOM     15  C   UNL A   1      29.791  27.784  23.906  1.00  0.00     0.079 A 
ATOM     16  C   UNL A   1      30.877  25.884  25.676  1.00  0.00     0.013 A 
ATOM     17  C   UNL A   1      31.100  27.913  24.393  1.00  0.00     0.025 A 
BRANCH  13  18
ATOM     18  N   UNL A   1      27.752  26.442  23.821  1.00  0.00    -0.398 N 
ATOM     19  H   UNL A   1      27.019  26.189  24.428  1.00  0.00     0.156 HD
ATOM     20  H   UNL A   1      27.587  26.514  22.853  1.00  0.00     0.156 HD
ENDBRANCH  13  18
BRANCH  15  21
ATOM     21  C   UNL A   1      29.324  28.837  22.930  1.00  0.00     0.418 C 
ATOM     22  F   UNL A   1      28.209  28.442  22.258  1.00  0.00    -0.166 F 
ATOM     23  F   UNL A   1      28.994  29.998  23.563  1.00  0.00    -0.166 F 
ATOM     24  F   UNL A   1      30.244  29.170  21.981  1.00  0.00    -0.166 F 
ENDBRANCH  15  21
ENDBRANCH  11  12
BRANCH  11  25
ATOM     25  N   UNL A   1      33.502  28.466  25.693  1.00  0.00    -0.342 N 
ATOM     26  H   UNL A   1      33.406  28.838  26.638  1.00  0.00     0.345 HD
ATOM     27  H   UNL A   1      32.911  28.999  25.056  1.00  0.00     0.345 HD
ATOM     28  H   UNL A   1      34.476  28.541  25.397  1.00  0.00     0.345 HD
ENDBRANCH  11  25
ENDBRANCH   9  11
ENDBRANCH   8   9
ENDBRANCH   7   8
ENDBRANCH   6   7
ENDBRANCH   5   6
ENDBRANCH   4   5
ENDBRANCH   3   4
ENDBRANCH   2   3
ENDBRANCH   1   2
BRANCH   1  29
ATOM     29  C   UNL A   1      36.826  21.884  24.406  1.00  0.00     0.188 C 
BRANCH  29  30
ATOM     30  O   UNL A   1      37.723  21.202  25.273  1.00  0.00    -0.376 OA
BRANCH  30  31
ATOM     31  C   UNL A   1      38.114  19.871  24.965  1.00  0.00     0.202 C 
BRANCH  31  32
ATOM     32  C   UNL A   1      39.244  19.218  25.782  1.00  0.00     0.261 C 
BRANCH  32  33
ATOM     33  O   UNL A   1      40.577  19.675  25.519  1.00  0.00    -0.460 OA
BRANCH  33  34
ATOM     34  C   UNL A   1      41.397  19.860  26.573  1.00  0.00     0.338 C 
ATOM     35  O   UNL A   1      42.135  19.030  27.080  1.00  0.00    -0.246 OA
BRANCH  34  36
ATOM     36  C   UNL A   1      41.416  21.304  26.883  1.00  0.00     0.060 A 
ATOM     37  C   UNL A   1      41.377  22.222  25.824  1.00  0.00     0.016 A 
ATOM     38  C   UNL A   1      41.460  21.752  28.205  1.00  0.00     0.016 A 
ATOM     39  C   UNL A   1      41.430  23.590  26.083  1.00  0.00     0.010 A 
ATOM     40  C   UNL A   1      41.539  23.123  28.462  1.00  0.00     0.010 A 
ATOM     41  C   UNL A   1      41.567  24.044  27.400  1.00  0.00    -0.014 A 
BRANCH  41  42
ATOM     42  C   UNL A   1      41.961  25.451  27.648  1.00  0.00     0.031 A 
ATOM     43  C   UNL A   1      43.356  25.872  27.275  1.00  0.00     0.074 A 
ATOM     44  C   UNL A   1      41.106  26.336  28.186  1.00  0.00     0.049 A 
ATOM     45  N   UNL A   1      43.947  27.025  27.437  1.00  0.00    -0.248 NA
ATOM     46  C   UNL A   1      44.201  24.848  26.634  1.00  0.00     0.031 C 
ATOM     47  C   UNL A   1      39.725  26.054  28.572  1.00  0.00     0.029 A 
ATOM     48  N   UNL A   1      41.290  27.654  28.527  1.00  0.00    -0.354 N 
ATOM     49  C   UNL A   1      45.240  26.859  26.955  1.00  0.00     0.074 A 
ATOM     50  C   UNL A   1      45.351  25.491  26.502  1.00  0.00     0.031 C 
ATOM     51  C   UNL A   1      39.196  27.157  29.129  1.00  0.00     0.029 A 
ATOM     52  C   UNL A   1      40.209  28.211  29.166  1.00  0.00     0.049 A 
ATOM     53  H   UNL A   1      42.117  28.151  28.332  1.00  0.00     0.167 HD
ATOM     54  C   UNL A   1      46.242  27.765  26.887  1.00  0.00     0.034 A 
ATOM     55  C   UNL A   1      40.067  29.422  29.742  1.00  0.00     0.034 A 
ATOM     56  C   UNL A   1      46.125  29.126  27.331  1.00  0.00     0.049 A 
ATOM     57  C   UNL A   1      41.210  30.403  29.687  1.00  0.00     0.074 A 
ATOM     58  C   UNL A   1      47.068  30.136  27.263  1.00  0.00     0.029 A 
ATOM     59  N   UNL A   1      45.004  29.665  27.943  1.00  0.00    -0.354 N 
ATOM     60  N   UNL A   1      42.392  30.267  29.135  1.00  0.00    -0.248 NA
ATOM     61  C   UNL A   1      40.989  31.718  30.310  1.00  0.00     0.031 C 
ATOM     62  C   UNL A   1      46.532  31.273  27.876  1.00  0.00     0.029 A 
ATOM     63  C   UNL A   1      45.237  30.988  28.277  1.00  0.00     0.049 A 
ATOM     64  H   UNL A   1      44.165  29.178  28.115  1.00  0.00     0.167 HD
ATOM     65  C   UNL A   1      43.038  31.487  29.305  1.00  0.00     0.074 A 
ATOM     66  C   UNL A   1      42.110  32.356  30.000  1.00  0.00     0.031 C 
ATOM     67  C   UNL A   1      44.286  31.856  28.925  1.00  0.00     0.034 A 
BRANCH  54  68
ATOM     68  C   UNL A   1      47.557  27.308  26.313  1.00  0.00     0.023 A 
ATOM     69  C   UNL A   1      47.794  27.400  24.926  1.00  0.00     0.012 A 
ATOM     70  C   UNL A   1      48.577  26.825  27.157  1.00  0.00     0.148 A 
ATOM     71  C   UNL A   1      49.009  26.983  24.384  1.00  0.00     0.002 A 
ATOM     72  C   UNL A   1      49.803  26.459  26.616  1.00  0.00     0.091 A 
ATOM     73  F   UNL A   1      48.324  26.722  28.469  1.00  0.00    -0.205 F 
ATOM     74  C   UNL A   1      50.016  26.523  25.229  1.00  0.00     0.022 A 
BRANCH  72  75
ATOM     75  S   UNL A   1      51.189  25.933  27.629  1.00  0.00     0.127 S 
ATOM     76  O   UNL A   1      50.701  24.661  28.158  1.00  0.00    -0.237 OA
ATOM     77  O   UNL A   1      52.261  25.811  26.641  1.00  0.00    -0.237 OA
ATOM     78  O   UNL A   1      51.388  26.984  28.617  1.00  0.00    -0.744 OA
ENDBRANCH  72  75
ENDBRANCH  54  68
BRANCH  55  79
ATOM     79  C   UNL A   1      38.784  29.784  30.409  1.00  0.00     0.023 A 
ATOM     80  C   UNL A   1      38.525  29.333  31.718  1.00  0.00     0.012 A 
ATOM     81  C   UNL A   1      37.824  30.577  29.753  1.00  0.00     0.148 A 
ATOM     82  C   UNL A   1      37.320  29.641  32.350  1.00  0.00     0.002 A 
ATOM     83  C   UNL A   1      36.650  30.927  30.409  1.00  0.00     0.091 A 
ATOM     84  F   UNL A   1      38.084  30.983  28.502  1.00  0.00    -0.205 F 
ATOM     85  C   UNL A   1      36.387  30.445  31.701  1.00  0.00     0.022 A 
BRANCH  83  86
ATOM     86  S   UNL A   1      35.443  32.051  29.697  1.00  0.00     0.127 S 
ATOM     87  O   UNL A   1      34.881  31.243  28.618  1.00  0.00    -0.237 OA
ATOM     88  O   UNL A   1      34.545  32.278  30.829  1.00  0.00    -0.237 OA
ATOM     89  O   UNL A   1      36.196  33.225  29.277  1.00  0.00    -0.744 OA
ENDBRANCH  83  86
ENDBRANCH  55  79
BRANCH  67  90
ATOM     90  C   UNL A   1      44.717  33.276  29.193  1.00  0.00     0.023 A 
ATOM     91  C   UNL A   1      45.378  33.604  30.393  1.00  0.00     0.012 A 
ATOM     92  C   UNL A   1      44.537  34.271  28.211  1.00  0.00     0.148 A 
ATOM     93  C   UNL A   1      45.819  34.907  30.626  1.00  0.00     0.002 A 
ATOM     94  C   UNL A   1      45.029  35.552  28.425  1.00  0.00     0.091 A 
ATOM     95  F   UNL A   1      43.894  33.943  27.080  1.00  0.00    -0.205 F 
ATOM     96  C   UNL A   1      45.658  35.876  29.638  1.00  0.00     0.022 A 
BRANCH  94  97
ATOM     97  S   UNL A   1      44.956  36.836  27.172  1.00  0.00     0.127 S 
ATOM     98  O   UNL A   1      45.552  37.972  27.873  1.00  0.00    -0.237 OA
ATOM     99  O   UNL A   1      45.787  36.275  26.106  1.00  0.00    -0.237 OA
ATOM    100  O   UNL A   1      43.549  36.985  26.828  1.00  0.00    -0.744 OA
ENDBRANCH  94  97
ENDBRANCH  67  90
ENDBRANCH  41  42
ENDBRANCH  34  36
ENDBRANCH  33  34
ENDBRANCH  32  33
ENDBRANCH  31  32
ENDBRANCH  30  31
ENDBRANCH  29  30
ENDBRANCH   1  29
TORSDOF 27
ENDMDL
