MODEL 1
REMARK VINA RESULT:      -9.5      0.000      0.000
REMARK SMILES Cc1ccccc1NC(=S)NN1C(=O)CS[C@H]1c1ccccc1C(=O)OCCOCCOCCOCCOC(=O)c1ccc(-c2c3nc(c(-c4cccc(S(=O)(=O)[O-])c4F)c4ccc([nH]4)c(-c4cccc(S(=O)(=O)[O-])c4F)c4nc(c(-c5cccc(S(=O)(=O)[O-])c5F)c5ccc2[nH]5)C=C4)C=C3)cc1
REMARK SMILES IDX 31 1 30 2 29 3 28 4 27 5 26 6 24 7 25 8 23 9 18 10 19 11
REMARK SMILES IDX 20 12 22 13 21 14 17 15 12 16 13 17 14 18 15 19 16 20 11 21
REMARK SMILES IDX 9 23 10 24 8 25 7 27 1 28 2 29 3 30 4 31 6 32 5 33 32 34
REMARK SMILES IDX 33 35 34 36 35 37 36 38 37 39 38 40 39 41 40 42 41 43 42 44
REMARK SMILES IDX 103 45 43 46 102 47 44 48 45 49 46 50 96 51 47 52 101 53
REMARK SMILES IDX 95 54 97 55 48 56 100 57 94 58 93 59 49 61 81 62 61 63 80 64
REMARK SMILES IDX 62 65 65 66 79 67 98 68 63 69 64 70 78 72 99 73 66 74 50 75
REMARK SMILES IDX 51 76 59 77 52 78 54 79 60 80 53 81 55 82 56 83 57 84 58 85
REMARK SMILES IDX 82 86 83 87 91 88 84 89 86 90 92 91 85 92 87 93 88 94 89 95
REMARK SMILES IDX 90 96 67 97 68 98 76 99 69 100 71 101 77 102 70 103 72 104
REMARK SMILES IDX 73 105 74 106 75 107
REMARK H PARENT 11 22 8 26 97 60 65 71
REMARK Flexibility Score: inf
ROOT
ATOM      1  C   UNL A   1      40.643  28.572  30.505  1.00  0.00     0.188 C 
ENDROOT
BRANCH   1   2
ATOM      2  C   UNL A   1      40.459  27.465  29.458  1.00  0.00     0.188 C 
BRANCH   2   3
ATOM      3  O   UNL A   1      40.920  28.059  28.231  1.00  0.00    -0.376 OA
BRANCH   3   4
ATOM      4  C   UNL A   1      41.894  29.126  28.358  1.00  0.00     0.202 C 
BRANCH   4   5
ATOM      5  C   UNL A   1      43.461  28.938  27.549  1.00  0.00     0.261 C 
BRANCH   5   6
ATOM      6  O   UNL A   1      43.966  27.904  26.105  1.00  0.00    -0.460 OA
BRANCH   6   7
ATOM      7  C   UNL A   1      44.993  26.864  25.602  1.00  0.00     0.338 C 
ATOM      8  O   UNL A   1      45.897  27.248  24.850  1.00  0.00    -0.246 OA
BRANCH   7   9
ATOM      9  C   UNL A   1      44.890  25.182  25.630  1.00  0.00     0.066 A 
ATOM     10  C   UNL A   1      44.640  24.558  26.872  1.00  0.00     0.001 A 
ATOM     11  C   UNL A   1      44.686  23.177  27.162  1.00  0.00     0.008 A 
ATOM     12  C   UNL A   1      45.211  22.340  26.217  1.00  0.00     0.000 A 
ATOM     13  C   UNL A   1      45.310  24.271  24.651  1.00  0.00     0.016 A 
ATOM     14  C   UNL A   1      45.536  22.888  24.975  1.00  0.00     0.001 A 
BRANCH  10  15
ATOM     15  C   UNL A   1      44.744  25.424  28.029  1.00  0.00     0.197 C 
ATOM     16  N   UNL A   1      43.455  25.499  28.675  1.00  0.00    -0.236 N 
ATOM     17  C   UNL A   1      43.870  25.806  30.055  1.00  0.00     0.252 C 
ATOM     18  O   UNL A   1      43.633  26.887  30.614  1.00  0.00    -0.272 OA
ATOM     19  C   UNL A   1      45.045  24.949  30.538  1.00  0.00     0.174 C 
ATOM     20  S   UNL A   1      46.119  24.943  29.111  1.00  0.00    -0.120 SA
BRANCH  16  21
ATOM     21  N   UNL A   1      42.055  24.521  27.938  1.00  0.00    -0.270 N 
ATOM     22  H   UNL A   1      41.914  23.718  28.489  1.00  0.00     0.191 HD
BRANCH  21  23
ATOM     23  C   UNL A   1      40.939  24.498  26.676  1.00  0.00     0.189 C 
ATOM     24  S   UNL A   1      41.230  25.914  25.713  1.00  0.00    -0.039 S 
BRANCH  23  25
ATOM     25  N   UNL A   1      39.532  23.736  26.434  1.00  0.00    -0.331 N 
ATOM     26  H   UNL A   1      39.516  23.291  27.312  1.00  0.00     0.169 HD
BRANCH  25  27
ATOM     27  C   UNL A   1      37.983  23.046  25.868  1.00  0.00     0.043 A 
ATOM     28  C   UNL A   1      37.989  20.408  24.938  1.00  0.00     0.046 C 
ATOM     29  C   UNL A   1      37.415  21.751  25.356  1.00  0.00    -0.028 A 
ATOM     30  C   UNL A   1      35.989  21.562  24.893  1.00  0.00     0.005 A 
ATOM     31  C   UNL A   1      35.032  22.519  24.882  1.00  0.00     0.000 A 
ATOM     32  C   UNL A   1      36.879  23.828  25.788  1.00  0.00     0.026 A 
ATOM     33  C   UNL A   1      35.507  23.687  25.329  1.00  0.00     0.002 A 
ENDBRANCH  25  27
ENDBRANCH  23  25
ENDBRANCH  21  23
ENDBRANCH  16  21
ENDBRANCH  10  15
ENDBRANCH   7   9
ENDBRANCH   6   7
ENDBRANCH   5   6
ENDBRANCH   4   5
ENDBRANCH   3   4
ENDBRANCH   2   3
ENDBRANCH   1   2
BRANCH   1  34
ATOM     34  O   UNL A   1      39.475  28.956  31.245  1.00  0.00    -0.377 OA
BRANCH  34  35
ATOM     35  C   UNL A   1      38.610  29.876  30.583  1.00  0.00     0.188 C 
BRANCH  35  36
ATOM     36  C   UNL A   1      37.353  29.160  30.097  1.00  0.00     0.188 C 
BRANCH  36  37
ATOM     37  O   UNL A   1      37.387  28.906  28.694  1.00  0.00    -0.376 OA
BRANCH  37  38
ATOM     38  C   UNL A   1      37.003  30.023  27.888  1.00  0.00     0.202 C 
BRANCH  38  39
ATOM     39  C   UNL A   1      35.513  30.000  27.505  1.00  0.00     0.261 C 
BRANCH  39  40
ATOM     40  O   UNL A   1      35.041  31.348  27.332  1.00  0.00    -0.460 OA
BRANCH  40  41
ATOM     41  C   UNL A   1      34.034  31.698  28.171  1.00  0.00     0.338 C 
ATOM     42  O   UNL A   1      32.841  31.554  27.927  1.00  0.00    -0.246 OA
BRANCH  41  43
ATOM     43  C   UNL A   1      34.578  32.482  29.308  1.00  0.00     0.060 A 
ATOM     44  C   UNL A   1      34.909  33.825  29.107  1.00  0.00     0.016 A 
ATOM     45  C   UNL A   1      35.032  31.808  30.449  1.00  0.00     0.016 A 
ATOM     46  C   UNL A   1      35.812  34.435  29.970  1.00  0.00     0.010 A 
ATOM     47  C   UNL A   1      36.039  32.363  31.212  1.00  0.00     0.010 A 
ATOM     48  C   UNL A   1      36.469  33.661  30.947  1.00  0.00    -0.014 A 
BRANCH  48  49
ATOM     49  C   UNL A   1      37.686  34.170  31.625  1.00  0.00     0.031 A 
ATOM     50  C   UNL A   1      37.532  34.178  33.242  1.00  0.00     0.074 A 
ATOM     51  C   UNL A   1      38.717  34.444  30.726  1.00  0.00     0.049 A 
ATOM     52  N   UNL A   1      38.449  34.222  34.165  1.00  0.00    -0.248 NA
ATOM     53  C   UNL A   1      36.247  34.071  33.947  1.00  0.00     0.031 C 
ATOM     54  C   UNL A   1      38.876  33.821  29.385  1.00  0.00     0.029 A 
ATOM     55  N   UNL A   1      39.919  35.140  30.768  1.00  0.00    -0.354 N 
ATOM     56  C   UNL A   1      38.031  34.177  35.484  1.00  0.00     0.074 A 
ATOM     57  C   UNL A   1      36.594  34.069  35.254  1.00  0.00     0.031 C 
ATOM     58  C   UNL A   1      40.149  33.957  28.941  1.00  0.00     0.029 A 
ATOM     59  C   UNL A   1      40.930  34.838  29.831  1.00  0.00     0.049 A 
ATOM     60  H   UNL A   1      40.064  35.837  31.447  1.00  0.00     0.167 HD
ATOM     61  C   UNL A   1      38.928  34.190  36.569  1.00  0.00     0.034 A 
ATOM     62  C   UNL A   1      42.278  35.244  29.668  1.00  0.00     0.034 A 
ATOM     63  C   UNL A   1      40.504  34.417  36.341  1.00  0.00     0.049 A 
ATOM     64  C   UNL A   1      43.494  35.590  30.893  1.00  0.00     0.074 A 
ATOM     65  C   UNL A   1      41.591  33.610  36.695  1.00  0.00     0.029 A 
ATOM     66  N   UNL A   1      41.219  35.529  35.744  1.00  0.00    -0.354 N 
ATOM     67  N   UNL A   1      43.641  34.987  32.090  1.00  0.00    -0.248 NA
ATOM     68  C   UNL A   1      44.451  36.715  30.911  1.00  0.00     0.031 C 
ATOM     69  C   UNL A   1      42.797  34.064  36.081  1.00  0.00     0.029 A 
ATOM     70  C   UNL A   1      42.566  35.156  35.255  1.00  0.00     0.049 A 
ATOM     71  H   UNL A   1      40.847  36.438  35.670  1.00  0.00     0.167 HD
ATOM     72  C   UNL A   1      44.037  35.922  33.119  1.00  0.00     0.074 A 
ATOM     73  C   UNL A   1      44.774  36.853  32.232  1.00  0.00     0.031 C 
ATOM     74  C   UNL A   1      43.584  36.082  34.495  1.00  0.00     0.034 A 
BRANCH  61  75
ATOM     75  C   UNL A   1      38.501  33.487  37.933  1.00  0.00     0.023 A 
ATOM     76  C   UNL A   1      37.779  32.274  37.847  1.00  0.00     0.012 A 
ATOM     77  C   UNL A   1      38.559  34.015  39.250  1.00  0.00     0.148 A 
ATOM     78  C   UNL A   1      36.954  31.789  38.877  1.00  0.00     0.002 A 
ATOM     79  C   UNL A   1      37.778  33.509  40.304  1.00  0.00     0.091 A 
ATOM     80  F   UNL A   1      39.424  34.975  39.555  1.00  0.00    -0.205 F 
ATOM     81  C   UNL A   1      36.918  32.435  40.099  1.00  0.00     0.022 A 
BRANCH  79  82
ATOM     82  S   UNL A   1      37.834  34.184  41.980  1.00  0.00     0.127 S 
ATOM     83  O   UNL A   1      37.684  35.620  41.746  1.00  0.00    -0.237 OA
ATOM     84  O   UNL A   1      36.675  33.547  42.607  1.00  0.00    -0.237 OA
ATOM     85  O   UNL A   1      39.121  33.792  42.545  1.00  0.00    -0.744 OA
ENDBRANCH  79  82
ENDBRANCH  61  75
BRANCH  62  86
ATOM     86  C   UNL A   1      42.262  35.817  28.223  1.00  0.00     0.023 A 
ATOM     87  C   UNL A   1      41.952  37.190  28.065  1.00  0.00     0.012 A 
ATOM     88  C   UNL A   1      43.342  35.308  27.428  1.00  0.00     0.148 A 
ATOM     89  C   UNL A   1      42.844  38.052  27.380  1.00  0.00     0.002 A 
ATOM     90  C   UNL A   1      44.301  36.184  26.901  1.00  0.00     0.091 A 
ATOM     91  F   UNL A   1      43.579  33.989  27.467  1.00  0.00    -0.205 F 
ATOM     92  C   UNL A   1      44.056  37.562  26.878  1.00  0.00     0.022 A 
BRANCH  90  93
ATOM     93  S   UNL A   1      46.019  35.611  26.691  1.00  0.00     0.127 S 
ATOM     94  O   UNL A   1      46.705  36.849  26.338  1.00  0.00    -0.237 OA
ATOM     95  O   UNL A   1      46.360  35.076  28.012  1.00  0.00    -0.237 OA
ATOM     96  O   UNL A   1      45.951  34.596  25.645  1.00  0.00    -0.744 OA
ENDBRANCH  90  93
ENDBRANCH  62  86
BRANCH  74  97
ATOM     97  C   UNL A   1      44.025  37.253  35.450  1.00  0.00     0.023 A 
ATOM     98  C   UNL A   1      44.730  37.057  36.648  1.00  0.00     0.012 A 
ATOM     99  C   UNL A   1      43.883  38.628  35.049  1.00  0.00     0.148 A 
ATOM    100  C   UNL A   1      45.233  38.139  37.403  1.00  0.00     0.002 A 
ATOM    101  C   UNL A   1      44.491  39.683  35.731  1.00  0.00     0.091 A 
ATOM    102  F   UNL A   1      43.088  38.961  34.025  1.00  0.00    -0.205 F 
ATOM    103  C   UNL A   1      45.148  39.446  36.930  1.00  0.00     0.022 A 
BRANCH 101 104
ATOM    104  S   UNL A   1      44.557  41.342  35.013  1.00  0.00     0.127 S 
ATOM    105  O   UNL A   1      44.555  41.064  33.579  1.00  0.00    -0.237 OA
ATOM    106  O   UNL A   1      43.324  41.955  35.512  1.00  0.00    -0.237 OA
ATOM    107  O   UNL A   1      45.771  41.944  35.551  1.00  0.00    -0.744 OA
ENDBRANCH 101 104
ENDBRANCH  74  97
ENDBRANCH  48  49
ENDBRANCH  41  43
ENDBRANCH  40  41
ENDBRANCH  39  40
ENDBRANCH  38  39
ENDBRANCH  37  38
ENDBRANCH  36  37
ENDBRANCH  35  36
ENDBRANCH  34  35
ENDBRANCH   1  34
TORSDOF 28
ENDMDL
MODEL 2
REMARK VINA RESULT:      -9.2      4.138     10.683
REMARK SMILES Cc1ccccc1NC(=S)NN1C(=O)CS[C@H]1c1ccccc1C(=O)OCCOCCOCCOCCOC(=O)c1ccc(-c2c3nc(c(-c4cccc(S(=O)(=O)[O-])c4F)c4ccc([nH]4)c(-c4cccc(S(=O)(=O)[O-])c4F)c4nc(c(-c5cccc(S(=O)(=O)[O-])c5F)c5ccc2[nH]5)C=C4)C=C3)cc1
REMARK SMILES IDX 31 1 30 2 29 3 28 4 27 5 26 6 24 7 25 8 23 9 18 10 19 11
REMARK SMILES IDX 20 12 22 13 21 14 17 15 12 16 13 17 14 18 15 19 16 20 11 21
REMARK SMILES IDX 9 23 10 24 8 25 7 27 1 28 2 29 3 30 4 31 6 32 5 33 32 34
REMARK SMILES IDX 33 35 34 36 35 37 36 38 37 39 38 40 39 41 40 42 41 43 42 44
REMARK SMILES IDX 103 45 43 46 102 47 44 48 45 49 46 50 96 51 47 52 101 53
REMARK SMILES IDX 95 54 97 55 48 56 100 57 94 58 93 59 49 61 81 62 61 63 80 64
REMARK SMILES IDX 62 65 65 66 79 67 98 68 63 69 64 70 78 72 99 73 66 74 50 75
REMARK SMILES IDX 51 76 59 77 52 78 54 79 60 80 53 81 55 82 56 83 57 84 58 85
REMARK SMILES IDX 82 86 83 87 91 88 84 89 86 90 92 91 85 92 87 93 88 94 89 95
REMARK SMILES IDX 90 96 67 97 68 98 76 99 69 100 71 101 77 102 70 103 72 104
REMARK SMILES IDX 73 105 74 106 75 107
REMARK H PARENT 11 22 8 26 97 60 65 71
REMARK Flexibility Score: inf
ROOT
ATOM      1  C   UNL A   1      37.390  34.095  33.536  1.00  0.00     0.188 C 
ENDROOT
BRANCH   1   2
ATOM      2  C   UNL A   1      37.573  32.842  34.402  1.00  0.00     0.188 C 
BRANCH   2   3
ATOM      3  O   UNL A   1      38.987  32.797  34.665  1.00  0.00    -0.376 OA
BRANCH   3   4
ATOM      4  C   UNL A   1      39.411  31.948  35.761  1.00  0.00     0.202 C 
BRANCH   4   5
ATOM      5  C   UNL A   1      39.991  30.314  35.388  1.00  0.00     0.261 C 
BRANCH   5   6
ATOM      6  O   UNL A   1      40.913  29.088  36.415  1.00  0.00    -0.460 OA
BRANCH   6   7
ATOM      7  C   UNL A   1      41.748  27.788  36.373  1.00  0.00     0.338 C 
ATOM      8  O   UNL A   1      41.159  26.708  36.498  1.00  0.00    -0.246 OA
BRANCH   7   9
ATOM      9  C   UNL A   1      43.416  27.601  36.532  1.00  0.00     0.066 A 
ATOM     10  C   UNL A   1      44.164  27.338  35.364  1.00  0.00     0.001 A 
ATOM     11  C   UNL A   1      45.526  26.977  35.282  1.00  0.00     0.008 A 
ATOM     12  C   UNL A   1      46.174  26.650  36.439  1.00  0.00     0.000 A 
ATOM     13  C   UNL A   1      44.154  27.371  37.700  1.00  0.00     0.016 A 
ATOM     14  C   UNL A   1      45.486  26.831  37.641  1.00  0.00     0.001 A 
BRANCH  10  15
ATOM     15  C   UNL A   1      43.379  27.014  34.190  1.00  0.00     0.197 C 
ATOM     16  N   UNL A   1      43.154  28.221  33.429  1.00  0.00    -0.236 N 
ATOM     17  C   UNL A   1      42.977  27.653  32.082  1.00  0.00     0.252 C 
ATOM     18  O   UNL A   1      41.902  27.684  31.465  1.00  0.00    -0.272 OA
ATOM     19  C   UNL A   1      44.015  26.579  31.736  1.00  0.00     0.174 C 
ATOM     20  S   UNL A   1      44.102  25.639  33.251  1.00  0.00    -0.120 SA
BRANCH  16  21
ATOM     21  N   UNL A   1      43.886  29.804  34.075  1.00  0.00    -0.270 N 
ATOM     22  H   UNL A   1      43.174  30.481  34.114  1.00  0.00     0.191 HD
BRANCH  21  23
ATOM     23  C   UNL A   1      45.317  30.510  34.618  1.00  0.00     0.189 C 
ATOM     24  S   UNL A   1      45.030  31.055  36.243  1.00  0.00    -0.039 S 
BRANCH  23  25
ATOM     25  N   UNL A   1      46.631  31.098  33.880  1.00  0.00    -0.331 N 
ATOM     26  H   UNL A   1      47.059  30.222  33.743  1.00  0.00     0.169 HD
BRANCH  25  27
ATOM     27  C   UNL A   1      47.936  32.046  33.110  1.00  0.00     0.043 A 
ATOM     28  C   UNL A   1      49.859  30.656  31.627  1.00  0.00     0.046 C 
ATOM     29  C   UNL A   1      49.124  31.853  32.207  1.00  0.00    -0.028 A 
ATOM     30  C   UNL A   1      50.083  32.949  31.804  1.00  0.00     0.005 A 
ATOM     31  C   UNL A   1      50.005  34.243  32.189  1.00  0.00     0.000 A 
ATOM     32  C   UNL A   1      48.043  33.375  33.347  1.00  0.00     0.026 A 
ATOM     33  C   UNL A   1      48.960  34.448  32.998  1.00  0.00     0.002 A 
ENDBRANCH  25  27
ENDBRANCH  23  25
ENDBRANCH  21  23
ENDBRANCH  16  21
ENDBRANCH  10  15
ENDBRANCH   7   9
ENDBRANCH   6   7
ENDBRANCH   5   6
ENDBRANCH   4   5
ENDBRANCH   3   4
ENDBRANCH   2   3
ENDBRANCH   1   2
BRANCH   1  34
ATOM     34  O   UNL A   1      36.494  35.097  34.038  1.00  0.00    -0.377 OA
BRANCH  34  35
ATOM     35  C   UNL A   1      35.221  34.616  34.466  1.00  0.00     0.188 C 
BRANCH  35  36
ATOM     36  C   UNL A   1      34.193  34.782  33.351  1.00  0.00     0.188 C 
BRANCH  36  37
ATOM     37  O   UNL A   1      33.636  36.095  33.324  1.00  0.00    -0.376 OA
BRANCH  37  38
ATOM     38  C   UNL A   1      33.532  36.659  32.015  1.00  0.00     0.202 C 
BRANCH  38  39
ATOM     39  C   UNL A   1      33.038  35.649  30.964  1.00  0.00     0.261 C 
BRANCH  39  40
ATOM     40  O   UNL A   1      34.157  35.155  30.208  1.00  0.00    -0.460 OA
BRANCH  40  41
ATOM     41  C   UNL A   1      33.863  34.109  29.395  1.00  0.00     0.338 C 
ATOM     42  O   UNL A   1      32.820  33.990  28.762  1.00  0.00    -0.246 OA
BRANCH  41  43
ATOM     43  C   UNL A   1      34.876  33.038  29.570  1.00  0.00     0.060 A 
ATOM     44  C   UNL A   1      35.535  32.922  30.796  1.00  0.00     0.016 A 
ATOM     45  C   UNL A   1      35.371  32.375  28.439  1.00  0.00     0.016 A 
ATOM     46  C   UNL A   1      36.760  32.267  30.847  1.00  0.00     0.010 A 
ATOM     47  C   UNL A   1      36.653  31.861  28.458  1.00  0.00     0.010 A 
ATOM     48  C   UNL A   1      37.372  31.849  29.650  1.00  0.00    -0.014 A 
BRANCH  48  49
ATOM     49  C   UNL A   1      38.812  31.495  29.618  1.00  0.00     0.031 A 
ATOM     50  C   UNL A   1      39.053  29.920  29.296  1.00  0.00     0.074 A 
ATOM     51  C   UNL A   1      39.635  32.609  29.785  1.00  0.00     0.049 A 
ATOM     52  N   UNL A   1      40.119  29.314  28.862  1.00  0.00    -0.248 NA
ATOM     53  C   UNL A   1      38.010  28.890  29.402  1.00  0.00     0.031 C 
ATOM     54  C   UNL A   1      39.255  34.012  29.469  1.00  0.00     0.029 A 
ATOM     55  N   UNL A   1      40.976  32.825  30.078  1.00  0.00    -0.354 N 
ATOM     56  C   UNL A   1      40.031  27.951  28.635  1.00  0.00     0.074 A 
ATOM     57  C   UNL A   1      38.631  27.759  28.999  1.00  0.00     0.031 C 
ATOM     58  C   UNL A   1      40.358  34.788  29.334  1.00  0.00     0.029 A 
ATOM     59  C   UNL A   1      41.576  34.052  29.724  1.00  0.00     0.049 A 
ATOM     60  H   UNL A   1      41.503  32.127  30.528  1.00  0.00     0.167 HD
ATOM     61  C   UNL A   1      41.107  27.189  28.140  1.00  0.00     0.034 A 
ATOM     62  C   UNL A   1      42.904  34.546  29.752  1.00  0.00     0.034 A 
ATOM     63  C   UNL A   1      42.567  27.837  27.953  1.00  0.00     0.049 A 
ATOM     64  C   UNL A   1      44.416  33.698  29.444  1.00  0.00     0.074 A 
ATOM     65  C   UNL A   1      43.367  27.940  26.809  1.00  0.00     0.029 A 
ATOM     66  N   UNL A   1      43.456  28.453  28.919  1.00  0.00    -0.354 N 
ATOM     67  N   UNL A   1      44.625  32.698  28.565  1.00  0.00    -0.248 NA
ATOM     68  C   UNL A   1      45.674  33.804  30.212  1.00  0.00     0.031 C 
ATOM     69  C   UNL A   1      44.476  28.812  27.027  1.00  0.00     0.029 A 
ATOM     70  C   UNL A   1      44.442  29.366  28.300  1.00  0.00     0.049 A 
ATOM     71  H   UNL A   1      43.407  28.283  29.888  1.00  0.00     0.167 HD
ATOM     72  C   UNL A   1      45.544  31.709  29.084  1.00  0.00     0.074 A 
ATOM     73  C   UNL A   1      46.323  32.631  29.943  1.00  0.00     0.031 C 
ATOM     74  C   UNL A   1      45.507  30.252  29.044  1.00  0.00     0.034 A 
BRANCH  61  75
ATOM     75  C   UNL A   1      40.798  25.875  27.294  1.00  0.00     0.023 A 
ATOM     76  C   UNL A   1      39.473  25.687  26.836  1.00  0.00     0.012 A 
ATOM     77  C   UNL A   1      41.627  24.737  27.103  1.00  0.00     0.148 A 
ATOM     78  C   UNL A   1      38.940  24.430  26.503  1.00  0.00     0.002 A 
ATOM     79  C   UNL A   1      41.116  23.485  26.722  1.00  0.00     0.091 A 
ATOM     80  F   UNL A   1      42.946  24.838  27.208  1.00  0.00    -0.205 F 
ATOM     81  C   UNL A   1      39.755  23.313  26.489  1.00  0.00     0.022 A 
BRANCH  79  82
ATOM     82  S   UNL A   1      42.160  22.027  26.490  1.00  0.00     0.127 S 
ATOM     83  O   UNL A   1      42.785  21.875  27.804  1.00  0.00    -0.237 OA
ATOM     84  O   UNL A   1      41.177  20.993  26.162  1.00  0.00    -0.237 OA
ATOM     85  O   UNL A   1      43.089  22.346  25.411  1.00  0.00    -0.744 OA
ENDBRANCH  79  82
ENDBRANCH  61  75
BRANCH  62  86
ATOM     86  C   UNL A   1      42.746  35.824  30.624  1.00  0.00     0.023 A 
ATOM     87  C   UNL A   1      43.011  35.710  32.010  1.00  0.00     0.012 A 
ATOM     88  C   UNL A   1      43.258  36.992  29.967  1.00  0.00     0.148 A 
ATOM     89  C   UNL A   1      43.964  36.556  32.629  1.00  0.00     0.002 A 
ATOM     90  C   UNL A   1      44.318  37.711  30.536  1.00  0.00     0.091 A 
ATOM     91  F   UNL A   1      42.921  37.186  28.683  1.00  0.00    -0.205 F 
ATOM     92  C   UNL A   1      44.677  37.494  31.871  1.00  0.00     0.022 A 
BRANCH  90  93
ATOM     93  S   UNL A   1      45.512  38.559  29.450  1.00  0.00     0.127 S 
ATOM     94  O   UNL A   1      45.876  37.495  28.521  1.00  0.00    -0.237 OA
ATOM     95  O   UNL A   1      44.722  39.644  28.862  1.00  0.00    -0.237 OA
ATOM     96  O   UNL A   1      46.570  39.019  30.343  1.00  0.00    -0.744 OA
ENDBRANCH  90  93
ENDBRANCH  62  86
BRANCH  74  97
ATOM     97  C   UNL A   1      46.529  29.313  29.787  1.00  0.00     0.023 A 
ATOM     98  C   UNL A   1      46.458  29.013  31.155  1.00  0.00     0.012 A 
ATOM     99  C   UNL A   1      47.505  28.555  29.049  1.00  0.00     0.148 A 
ATOM    100  C   UNL A   1      47.304  28.054  31.754  1.00  0.00     0.002 A 
ATOM    101  C   UNL A   1      48.248  27.520  29.620  1.00  0.00     0.091 A 
ATOM    102  F   UNL A   1      47.793  28.864  27.780  1.00  0.00    -0.205 F 
ATOM    103  C   UNL A   1      48.172  27.282  30.985  1.00  0.00     0.022 A 
BRANCH 101 104
ATOM    104  S   UNL A   1      49.214  26.388  28.591  1.00  0.00     0.127 S 
ATOM    105  O   UNL A   1      49.640  25.375  29.553  1.00  0.00    -0.237 OA
ATOM    106  O   UNL A   1      48.225  25.919  27.617  1.00  0.00    -0.237 OA
ATOM    107  O   UNL A   1      50.269  27.208  28.007  1.00  0.00    -0.744 OA
ENDBRANCH 101 104
ENDBRANCH  74  97
ENDBRANCH  48  49
ENDBRANCH  41  43
ENDBRANCH  40  41
ENDBRANCH  39  40
ENDBRANCH  38  39
ENDBRANCH  37  38
ENDBRANCH  36  37
ENDBRANCH  35  36
ENDBRANCH  34  35
ENDBRANCH   1  34
TORSDOF 28
ENDMDL
MODEL 3
REMARK VINA RESULT:      -8.6      6.111     14.032
REMARK SMILES Cc1ccccc1NC(=S)NN1C(=O)CS[C@H]1c1ccccc1C(=O)OCCOCCOCCOCCOC(=O)c1ccc(-c2c3nc(c(-c4cccc(S(=O)(=O)[O-])c4F)c4ccc([nH]4)c(-c4cccc(S(=O)(=O)[O-])c4F)c4nc(c(-c5cccc(S(=O)(=O)[O-])c5F)c5ccc2[nH]5)C=C4)C=C3)cc1
REMARK SMILES IDX 31 1 30 2 29 3 28 4 27 5 26 6 24 7 25 8 23 9 18 10 19 11
REMARK SMILES IDX 20 12 22 13 21 14 17 15 12 16 13 17 14 18 15 19 16 20 11 21
REMARK SMILES IDX 9 23 10 24 8 25 7 27 1 28 2 29 3 30 4 31 6 32 5 33 32 34
REMARK SMILES IDX 33 35 34 36 35 37 36 38 37 39 38 40 39 41 40 42 41 43 42 44
REMARK SMILES IDX 103 45 43 46 102 47 44 48 45 49 46 50 96 51 47 52 101 53
REMARK SMILES IDX 95 54 97 55 48 56 100 57 94 58 93 59 49 61 81 62 61 63 80 64
REMARK SMILES IDX 62 65 65 66 79 67 98 68 63 69 64 70 78 72 99 73 66 74 50 75
REMARK SMILES IDX 51 76 59 77 52 78 54 79 60 80 53 81 55 82 56 83 57 84 58 85
REMARK SMILES IDX 82 86 83 87 91 88 84 89 86 90 92 91 85 92 87 93 88 94 89 95
REMARK SMILES IDX 90 96 67 97 68 98 76 99 69 100 71 101 77 102 70 103 72 104
REMARK SMILES IDX 73 105 74 106 75 107
REMARK H PARENT 11 22 8 26 97 60 65 71
REMARK Flexibility Score: inf
ROOT
ATOM      1  C   UNL A   1      38.228  33.535  32.824  1.00  0.00     0.188 C 
ENDROOT
BRANCH   1   2
ATOM      2  C   UNL A   1      37.012  33.276  33.724  1.00  0.00     0.188 C 
BRANCH   2   3
ATOM      3  O   UNL A   1      37.134  34.255  34.772  1.00  0.00    -0.376 OA
BRANCH   3   4
ATOM      4  C   UNL A   1      37.243  33.741  36.124  1.00  0.00     0.202 C 
BRANCH   4   5
ATOM      5  C   UNL A   1      38.781  33.016  36.628  1.00  0.00     0.261 C 
BRANCH   5   6
ATOM      6  O   UNL A   1      39.380  31.271  36.565  1.00  0.00    -0.460 OA
BRANCH   6   7
ATOM      7  C   UNL A   1      39.871  30.143  35.629  1.00  0.00     0.338 C 
ATOM      8  O   UNL A   1      40.575  29.247  36.108  1.00  0.00    -0.246 OA
BRANCH   7   9
ATOM      9  C   UNL A   1      39.894  30.108  33.944  1.00  0.00     0.066 A 
ATOM     10  C   UNL A   1      40.990  30.710  33.287  1.00  0.00     0.001 A 
ATOM     11  C   UNL A   1      41.133  30.951  31.904  1.00  0.00     0.008 A 
ATOM     12  C   UNL A   1      40.038  30.775  31.105  1.00  0.00     0.000 A 
ATOM     13  C   UNL A   1      38.836  29.830  33.069  1.00  0.00     0.016 A 
ATOM     14  C   UNL A   1      38.891  30.232  31.689  1.00  0.00     0.001 A 
BRANCH  10  15
ATOM     15  C   UNL A   1      41.853  31.508  34.134  1.00  0.00     0.197 C 
ATOM     16  N   UNL A   1      42.931  30.678  34.618  1.00  0.00    -0.236 N 
ATOM     17  C   UNL A   1      43.966  31.700  34.850  1.00  0.00     0.252 C 
ATOM     18  O   UNL A   1      44.386  32.003  35.977  1.00  0.00    -0.272 OA
ATOM     19  C   UNL A   1      44.085  32.712  33.704  1.00  0.00     0.174 C 
ATOM     20  S   UNL A   1      42.373  33.042  33.315  1.00  0.00    -0.120 SA
BRANCH  16  21
ATOM     21  N   UNL A   1      42.974  28.902  34.070  1.00  0.00    -0.270 N 
ATOM     22  H   UNL A   1      42.986  28.331  34.871  1.00  0.00     0.191 HD
BRANCH  21  23
ATOM     23  C   UNL A   1      43.000  27.905  32.710  1.00  0.00     0.189 C 
ATOM     24  S   UNL A   1      44.340  26.816  32.905  1.00  0.00    -0.039 S 
BRANCH  23  25
ATOM     25  N   UNL A   1      42.365  28.012  31.226  1.00  0.00    -0.331 N 
ATOM     26  H   UNL A   1      41.427  27.973  31.525  1.00  0.00     0.169 HD
BRANCH  25  27
ATOM     27  C   UNL A   1      41.981  28.143  29.486  1.00  0.00     0.043 A 
ATOM     28  C   UNL A   1      42.475  30.589  28.220  1.00  0.00     0.046 C 
ATOM     29  C   UNL A   1      42.089  29.126  28.351  1.00  0.00    -0.028 A 
ATOM     30  C   UNL A   1      41.567  28.884  26.954  1.00  0.00     0.005 A 
ATOM     31  C   UNL A   1      40.943  27.760  26.531  1.00  0.00     0.000 A 
ATOM     32  C   UNL A   1      41.362  27.122  28.847  1.00  0.00     0.026 A 
ATOM     33  C   UNL A   1      40.828  26.866  27.519  1.00  0.00     0.002 A 
ENDBRANCH  25  27
ENDBRANCH  23  25
ENDBRANCH  21  23
ENDBRANCH  16  21
ENDBRANCH  10  15
ENDBRANCH   7   9
ENDBRANCH   6   7
ENDBRANCH   5   6
ENDBRANCH   4   5
ENDBRANCH   3   4
ENDBRANCH   2   3
ENDBRANCH   1   2
BRANCH   1  34
ATOM     34  O   UNL A   1      38.068  34.525  31.798  1.00  0.00    -0.377 OA
BRANCH  34  35
ATOM     35  C   UNL A   1      37.547  34.041  30.561  1.00  0.00     0.188 C 
BRANCH  35  36
ATOM     36  C   UNL A   1      38.596  34.168  29.461  1.00  0.00     0.188 C 
BRANCH  36  37
ATOM     37  O   UNL A   1      39.773  34.834  29.915  1.00  0.00    -0.376 OA
BRANCH  37  38
ATOM     38  C   UNL A   1      40.962  34.044  29.829  1.00  0.00     0.202 C 
BRANCH  38  39
ATOM     39  C   UNL A   1      42.246  34.874  30.003  1.00  0.00     0.261 C 
BRANCH  39  40
ATOM     40  O   UNL A   1      42.484  35.647  28.814  1.00  0.00    -0.460 OA
BRANCH  40  41
ATOM     41  C   UNL A   1      43.439  36.602  28.951  1.00  0.00     0.338 C 
ATOM     42  O   UNL A   1      43.278  37.671  29.530  1.00  0.00    -0.246 OA
BRANCH  41  43
ATOM     43  C   UNL A   1      44.612  36.263  28.107  1.00  0.00     0.060 A 
ATOM     44  C   UNL A   1      44.401  35.845  26.790  1.00  0.00     0.016 A 
ATOM     45  C   UNL A   1      45.860  36.072  28.715  1.00  0.00     0.016 A 
ATOM     46  C   UNL A   1      45.389  35.108  26.148  1.00  0.00     0.010 A 
ATOM     47  C   UNL A   1      46.775  35.215  28.136  1.00  0.00     0.010 A 
ATOM     48  C   UNL A   1      46.523  34.690  26.872  1.00  0.00    -0.014 A 
BRANCH  48  49
ATOM     49  C   UNL A   1      47.399  33.613  26.351  1.00  0.00     0.031 A 
ATOM     50  C   UNL A   1      48.751  34.197  25.665  1.00  0.00     0.074 A 
ATOM     51  C   UNL A   1      46.907  32.341  26.647  1.00  0.00     0.049 A 
ATOM     52  N   UNL A   1      49.880  33.600  25.411  1.00  0.00    -0.248 NA
ATOM     53  C   UNL A   1      48.926  35.596  25.253  1.00  0.00     0.031 C 
ATOM     54  C   UNL A   1      45.997  32.014  27.776  1.00  0.00     0.029 A 
ATOM     55  N   UNL A   1      47.164  31.046  26.215  1.00  0.00    -0.354 N 
ATOM     56  C   UNL A   1      50.891  34.359  24.846  1.00  0.00     0.074 A 
ATOM     57  C   UNL A   1      50.195  35.641  24.787  1.00  0.00     0.031 C 
ATOM     58  C   UNL A   1      46.035  30.688  28.054  1.00  0.00     0.029 A 
ATOM     59  C   UNL A   1      46.817  29.955  27.039  1.00  0.00     0.049 A 
ATOM     60  H   UNL A   1      47.586  30.891  25.339  1.00  0.00     0.167 HD
ATOM     61  C   UNL A   1      52.164  33.835  24.551  1.00  0.00     0.034 A 
ATOM     62  C   UNL A   1      47.042  28.557  26.974  1.00  0.00     0.034 A 
ATOM     63  C   UNL A   1      52.473  32.265  24.713  1.00  0.00     0.049 A 
ATOM     64  C   UNL A   1      48.448  27.681  26.379  1.00  0.00     0.074 A 
ATOM     65  C   UNL A   1      53.442  31.612  25.483  1.00  0.00     0.029 A 
ATOM     66  N   UNL A   1      51.859  31.113  24.080  1.00  0.00    -0.354 N 
ATOM     67  N   UNL A   1      49.739  28.058  26.463  1.00  0.00    -0.248 NA
ATOM     68  C   UNL A   1      48.455  26.473  25.527  1.00  0.00     0.031 C 
ATOM     69  C   UNL A   1      53.206  30.205  25.533  1.00  0.00     0.029 A 
ATOM     70  C   UNL A   1      52.050  29.861  24.845  1.00  0.00     0.049 A 
ATOM     71  H   UNL A   1      51.366  31.160  23.229  1.00  0.00     0.167 HD
ATOM     72  C   UNL A   1      50.483  27.698  25.276  1.00  0.00     0.074 A 
ATOM     73  C   UNL A   1      49.682  26.502  24.926  1.00  0.00     0.031 C 
ATOM     74  C   UNL A   1      51.465  28.443  24.497  1.00  0.00     0.034 A 
BRANCH  61  75
ATOM     75  C   UNL A   1      53.422  34.812  24.557  1.00  0.00     0.023 A 
ATOM     76  C   UNL A   1      53.699  35.531  23.371  1.00  0.00     0.012 A 
ATOM     77  C   UNL A   1      54.449  34.916  25.532  1.00  0.00     0.148 A 
ATOM     78  C   UNL A   1      54.969  36.046  23.057  1.00  0.00     0.002 A 
ATOM     79  C   UNL A   1      55.708  35.474  25.248  1.00  0.00     0.091 A 
ATOM     80  F   UNL A   1      54.227  34.551  26.789  1.00  0.00    -0.205 F 
ATOM     81  C   UNL A   1      55.993  35.977  23.984  1.00  0.00     0.022 A 
BRANCH  79  82
ATOM     82  S   UNL A   1      57.028  35.598  26.478  1.00  0.00     0.127 S 
ATOM     83  O   UNL A   1      58.112  36.217  25.715  1.00  0.00    -0.237 OA
ATOM     84  O   UNL A   1      56.425  36.468  27.489  1.00  0.00    -0.237 OA
ATOM     85  O   UNL A   1      57.304  34.240  26.932  1.00  0.00    -0.744 OA
ENDBRANCH  79  82
ENDBRANCH  61  75
BRANCH  62  86
ATOM     86  C   UNL A   1      45.591  28.001  27.040  1.00  0.00     0.023 A 
ATOM     87  C   UNL A   1      44.815  28.053  25.857  1.00  0.00     0.012 A 
ATOM     88  C   UNL A   1      45.511  26.793  27.809  1.00  0.00     0.148 A 
ATOM     89  C   UNL A   1      44.229  26.873  25.334  1.00  0.00     0.002 A 
ATOM     90  C   UNL A   1      45.079  25.604  27.206  1.00  0.00     0.091 A 
ATOM     91  F   UNL A   1      46.139  26.762  28.993  1.00  0.00    -0.205 F 
ATOM     92  C   UNL A   1      44.437  25.640  25.963  1.00  0.00     0.022 A 
BRANCH  90  93
ATOM     93  S   UNL A   1      45.751  24.011  27.783  1.00  0.00     0.127 S 
ATOM     94  O   UNL A   1      45.201  23.925  29.131  1.00  0.00    -0.237 OA
ATOM     95  O   UNL A   1      45.195  23.046  26.830  1.00  0.00    -0.237 OA
ATOM     96  O   UNL A   1      47.200  24.158  27.691  1.00  0.00    -0.744 OA
ENDBRANCH  90  93
ENDBRANCH  62  86
BRANCH  74  97
ATOM     97  C   UNL A   1      52.085  27.952  23.136  1.00  0.00     0.023 A 
ATOM     98  C   UNL A   1      53.435  27.608  22.975  1.00  0.00     0.012 A 
ATOM     99  C   UNL A   1      51.244  27.654  22.007  1.00  0.00     0.148 A 
ATOM    100  C   UNL A   1      53.922  27.035  21.780  1.00  0.00     0.002 A 
ATOM    101  C   UNL A   1      51.705  26.972  20.879  1.00  0.00     0.091 A 
ATOM    102  F   UNL A   1      49.980  28.088  21.963  1.00  0.00    -0.205 F 
ATOM    103  C   UNL A   1      53.056  26.683  20.748  1.00  0.00     0.022 A 
BRANCH 101 104
ATOM    104  S   UNL A   1      50.552  26.335  19.639  1.00  0.00     0.127 S 
ATOM    105  O   UNL A   1      50.669  27.320  18.567  1.00  0.00    -0.237 OA
ATOM    106  O   UNL A   1      51.121  25.023  19.318  1.00  0.00    -0.237 OA
ATOM    107  O   UNL A   1      49.262  26.266  20.314  1.00  0.00    -0.744 OA
ENDBRANCH 101 104
ENDBRANCH  74  97
ENDBRANCH  48  49
ENDBRANCH  41  43
ENDBRANCH  40  41
ENDBRANCH  39  40
ENDBRANCH  38  39
ENDBRANCH  37  38
ENDBRANCH  36  37
ENDBRANCH  35  36
ENDBRANCH  34  35
ENDBRANCH   1  34
TORSDOF 28
ENDMDL
