MODEL 1
REMARK VINA RESULT:     -10.7      0.000      0.000
REMARK SMILES O=C(OCCOCCOCCOCCOC(=O)c1ccc(-c2c3nc(c(-c4cccc(S(=O)(=O)[O-])c4F)c4ccc([nH]4)c(-c4cccc(S(=O)(=O)[O-])c4F)c4nc(c(-c5cccc(S(=O)(=O)[O-])c5F)c5ccc2[nH]5)C=C4)C=C3)cc1)C1=Cc2cc(OC(F)(F)F)ccc2O[C@@H]1C(F)(F)F
REMARK SMILES IDX 10 1 9 2 8 3 7 4 6 5 5 6 4 7 3 8 2 9 1 10 81 11 82 12 95 13
REMARK SMILES IDX 83 14 94 15 84 16 93 17 85 18 92 19 91 20 96 21 97 22 98 23
REMARK SMILES IDX 99 24 86 25 87 26 88 27 89 28 90 29 11 30 12 31 13 32 14 33
REMARK SMILES IDX 15 34 16 35 17 36 18 37 19 38 80 39 20 40 79 41 21 42 22 43
REMARK SMILES IDX 23 44 73 45 24 46 78 47 72 48 74 49 25 50 77 51 71 52 70 53
REMARK SMILES IDX 26 55 58 56 38 57 57 58 39 59 42 60 56 61 75 62 40 63 41 64
REMARK SMILES IDX 55 66 76 67 43 68 27 69 28 70 36 71 29 72 31 73 37 74 30 75
REMARK SMILES IDX 32 76 33 77 34 78 35 79 59 80 60 81 68 82 61 83 63 84 69 85
REMARK SMILES IDX 62 86 64 87 65 88 66 89 67 90 44 91 45 92 53 93 46 94 48 95
REMARK SMILES IDX 54 96 47 97 49 98 50 99 51 100 52 101
REMARK H PARENT 74 54 42 65
REMARK Flexibility Score: inf
ROOT
ATOM      1  C   UNL A   1      33.005  26.930  25.017  1.00  0.00     0.188 C 
ENDROOT
BRANCH   1   2
ATOM      2  O   UNL A   1      32.441  26.369  26.179  1.00  0.00    -0.377 OA
BRANCH   2   3
ATOM      3  C   UNL A   1      31.057  26.610  26.251  1.00  0.00     0.188 C 
BRANCH   3   4
ATOM      4  C   UNL A   1      30.190  25.748  25.319  1.00  0.00     0.188 C 
BRANCH   4   5
ATOM      5  O   UNL A   1      30.593  24.462  24.719  1.00  0.00    -0.376 OA
BRANCH   5   6
ATOM      6  C   UNL A   1      31.058  24.021  23.167  1.00  0.00     0.202 C 
BRANCH   6   7
ATOM      7  C   UNL A   1      32.164  22.219  22.619  1.00  0.00     0.261 C 
BRANCH   7   8
ATOM      8  O   UNL A   1      33.247  21.547  23.436  1.00  0.00    -0.460 OA
BRANCH   8   9
ATOM      9  C   UNL A   1      34.293  22.353  23.642  1.00  0.00     0.338 C 
ATOM     10  O   UNL A   1      34.903  23.009  22.833  1.00  0.00    -0.246 OA
BRANCH   9  11
ATOM     11  C   UNL A   1      34.706  21.806  24.927  1.00  0.00     0.087 C 
ATOM     12  C   UNL A   1      36.065  21.263  24.938  1.00  0.00     0.027 C 
ATOM     13  C   UNL A   1      34.153  23.377  25.880  1.00  0.00     0.316 C 
ATOM     14  C   UNL A   1      37.487  22.095  25.648  1.00  0.00     0.021 A 
ATOM     15  O   UNL A   1      35.695  24.382  26.540  1.00  0.00    -0.475 OA
ATOM     16  C   UNL A   1      38.717  21.510  25.545  1.00  0.00     0.058 A 
ATOM     17  C   UNL A   1      37.381  23.663  26.356  1.00  0.00     0.128 A 
ATOM     18  C   UNL A   1      39.810  22.238  26.060  1.00  0.00     0.130 A 
ATOM     19  C   UNL A   1      38.490  24.318  26.825  1.00  0.00     0.051 A 
ATOM     20  C   UNL A   1      39.699  23.561  26.667  1.00  0.00     0.050 A 
BRANCH  13  21
ATOM     21  C   UNL A   1      32.925  22.540  26.672  1.00  0.00     0.430 C 
ATOM     22  F   UNL A   1      33.214  21.355  27.239  1.00  0.00    -0.167 F 
ATOM     23  F   UNL A   1      32.548  23.323  27.733  1.00  0.00    -0.167 F 
ATOM     24  F   UNL A   1      31.779  22.380  25.962  1.00  0.00    -0.167 F 
ENDBRANCH  13  21
BRANCH  18  25
ATOM     25  O   UNL A   1      40.970  21.518  25.885  1.00  0.00    -0.406 OA
BRANCH  25  26
ATOM     26  C   UNL A   1      41.341  20.517  26.811  1.00  0.00     0.573 C 
ATOM     27  F   UNL A   1      42.674  20.497  26.991  1.00  0.00    -0.132 F 
ATOM     28  F   UNL A   1      40.712  20.697  27.988  1.00  0.00    -0.132 F 
ATOM     29  F   UNL A   1      40.961  19.321  26.306  1.00  0.00    -0.132 F 
ENDBRANCH  25  26
ENDBRANCH  18  25
ENDBRANCH   9  11
ENDBRANCH   8   9
ENDBRANCH   7   8
ENDBRANCH   6   7
ENDBRANCH   5   6
ENDBRANCH   4   5
ENDBRANCH   3   4
ENDBRANCH   2   3
ENDBRANCH   1   2
BRANCH   1  30
ATOM     30  C   UNL A   1      32.179  28.022  24.323  1.00  0.00     0.188 C 
BRANCH  30  31
ATOM     31  O   UNL A   1      32.344  29.410  24.566  1.00  0.00    -0.376 OA
BRANCH  31  32
ATOM     32  C   UNL A   1      31.549  30.107  25.505  1.00  0.00     0.202 C 
BRANCH  32  33
ATOM     33  C   UNL A   1      32.031  30.390  26.933  1.00  0.00     0.261 C 
BRANCH  33  34
ATOM     34  O   UNL A   1      33.431  30.230  27.178  1.00  0.00    -0.460 OA
BRANCH  34  35
ATOM     35  C   UNL A   1      34.072  31.348  27.579  1.00  0.00     0.338 C 
ATOM     36  O   UNL A   1      33.599  32.468  27.673  1.00  0.00    -0.246 OA
BRANCH  35  37
ATOM     37  C   UNL A   1      35.414  30.988  28.086  1.00  0.00     0.060 A 
ATOM     38  C   UNL A   1      35.586  29.702  28.620  1.00  0.00     0.016 A 
ATOM     39  C   UNL A   1      36.481  31.888  28.053  1.00  0.00     0.016 A 
ATOM     40  C   UNL A   1      36.803  29.325  29.171  1.00  0.00     0.010 A 
ATOM     41  C   UNL A   1      37.690  31.529  28.654  1.00  0.00     0.010 A 
ATOM     42  C   UNL A   1      37.830  30.267  29.261  1.00  0.00    -0.014 A 
BRANCH  42  43
ATOM     43  C   UNL A   1      38.929  30.014  30.218  1.00  0.00     0.031 A 
ATOM     44  C   UNL A   1      39.973  29.002  29.837  1.00  0.00     0.074 A 
ATOM     45  C   UNL A   1      39.025  30.700  31.368  1.00  0.00     0.049 A 
ATOM     46  N   UNL A   1      41.003  28.578  30.519  1.00  0.00    -0.248 NA
ATOM     47  C   UNL A   1      39.836  28.381  28.506  1.00  0.00     0.031 C 
ATOM     48  C   UNL A   1      38.096  31.735  31.816  1.00  0.00     0.029 A 
ATOM     49  N   UNL A   1      39.944  30.604  32.381  1.00  0.00    -0.354 N 
ATOM     50  C   UNL A   1      41.606  27.611  29.725  1.00  0.00     0.074 A 
ATOM     51  C   UNL A   1      40.830  27.508  28.510  1.00  0.00     0.031 C 
ATOM     52  C   UNL A   1      38.472  32.156  33.036  1.00  0.00     0.029 A 
ATOM     53  C   UNL A   1      39.641  31.390  33.466  1.00  0.00     0.049 A 
ATOM     54  H   UNL A   1      40.742  30.030  32.335  1.00  0.00     0.167 HD
ATOM     55  C   UNL A   1      42.711  26.875  29.986  1.00  0.00     0.034 A 
ATOM     56  C   UNL A   1      40.217  31.447  34.682  1.00  0.00     0.034 A 
ATOM     57  C   UNL A   1      43.478  26.989  31.195  1.00  0.00     0.049 A 
ATOM     58  C   UNL A   1      41.414  30.580  34.969  1.00  0.00     0.074 A 
ATOM     59  C   UNL A   1      44.638  26.320  31.541  1.00  0.00     0.029 A 
ATOM     60  N   UNL A   1      43.148  27.802  32.268  1.00  0.00    -0.354 N 
ATOM     61  N   UNL A   1      42.025  29.726  34.182  1.00  0.00    -0.248 NA
ATOM     62  C   UNL A   1      42.021  30.705  36.302  1.00  0.00     0.031 C 
ATOM     63  C   UNL A   1      44.972  26.679  32.849  1.00  0.00     0.029 A 
ATOM     64  C   UNL A   1      44.066  27.630  33.289  1.00  0.00     0.049 A 
ATOM     65  H   UNL A   1      42.374  28.410  32.299  1.00  0.00     0.167 HD
ATOM     66  C   UNL A   1      43.110  29.245  34.908  1.00  0.00     0.074 A 
ATOM     67  C   UNL A   1      43.081  29.916  36.191  1.00  0.00     0.031 C 
ATOM     68  C   UNL A   1      44.044  28.331  34.547  1.00  0.00     0.034 A 
BRANCH  55  69
ATOM     69  C   UNL A   1      43.141  25.862  28.958  1.00  0.00     0.023 A 
ATOM     70  C   UNL A   1      42.674  24.534  29.023  1.00  0.00     0.012 A 
ATOM     71  C   UNL A   1      43.972  26.251  27.889  1.00  0.00     0.148 A 
ATOM     72  C   UNL A   1      43.056  23.600  28.060  1.00  0.00     0.002 A 
ATOM     73  C   UNL A   1      44.305  25.330  26.905  1.00  0.00     0.091 A 
ATOM     74  F   UNL A   1      44.424  27.512  27.858  1.00  0.00    -0.205 F 
ATOM     75  C   UNL A   1      43.860  24.002  26.995  1.00  0.00     0.022 A 
BRANCH  73  76
ATOM     76  S   UNL A   1      45.265  25.770  25.453  1.00  0.00     0.127 S 
ATOM     77  O   UNL A   1      44.732  27.095  25.138  1.00  0.00    -0.237 OA
ATOM     78  O   UNL A   1      46.630  25.771  25.980  1.00  0.00    -0.237 OA
ATOM     79  O   UNL A   1      44.993  24.741  24.459  1.00  0.00    -0.744 OA
ENDBRANCH  73  76
ENDBRANCH  55  69
BRANCH  56  80
ATOM     80  C   UNL A   1      39.659  32.349  35.729  1.00  0.00     0.023 A 
ATOM     81  C   UNL A   1      38.704  31.863  36.642  1.00  0.00     0.012 A 
ATOM     82  C   UNL A   1      40.078  33.690  35.818  1.00  0.00     0.148 A 
ATOM     83  C   UNL A   1      38.149  32.708  37.604  1.00  0.00     0.002 A 
ATOM     84  C   UNL A   1      39.567  34.509  36.816  1.00  0.00     0.091 A 
ATOM     85  F   UNL A   1      40.981  34.133  34.932  1.00  0.00    -0.205 F 
ATOM     86  C   UNL A   1      38.587  34.026  37.697  1.00  0.00     0.022 A 
BRANCH  84  87
ATOM     87  S   UNL A   1      40.163  36.180  37.089  1.00  0.00     0.127 S 
ATOM     88  O   UNL A   1      41.596  35.960  37.264  1.00  0.00    -0.237 OA
ATOM     89  O   UNL A   1      39.787  36.836  35.837  1.00  0.00    -0.237 OA
ATOM     90  O   UNL A   1      39.454  36.669  38.263  1.00  0.00    -0.744 OA
ENDBRANCH  84  87
ENDBRANCH  56  80
BRANCH  68  91
ATOM     91  C   UNL A   1      45.159  28.045  35.521  1.00  0.00     0.023 A 
ATOM     92  C   UNL A   1      46.349  28.799  35.492  1.00  0.00     0.012 A 
ATOM     93  C   UNL A   1      44.989  27.060  36.515  1.00  0.00     0.148 A 
ATOM     94  C   UNL A   1      47.370  28.544  36.407  1.00  0.00     0.002 A 
ATOM     95  C   UNL A   1      45.985  26.852  37.460  1.00  0.00     0.091 A 
ATOM     96  F   UNL A   1      43.854  26.345  36.520  1.00  0.00    -0.205 F 
ATOM     97  C   UNL A   1      47.184  27.581  37.397  1.00  0.00     0.022 A 
BRANCH  95  98
ATOM     98  S   UNL A   1      45.793  25.705  38.828  1.00  0.00     0.127 S 
ATOM     99  O   UNL A   1      46.043  24.421  38.175  1.00  0.00    -0.237 OA
ATOM    100  O   UNL A   1      46.848  26.140  39.744  1.00  0.00    -0.237 OA
ATOM    101  O   UNL A   1      44.438  25.893  39.328  1.00  0.00    -0.744 OA
ENDBRANCH  95  98
ENDBRANCH  68  91
ENDBRANCH  42  43
ENDBRANCH  35  37
ENDBRANCH  34  35
ENDBRANCH  33  34
ENDBRANCH  32  33
ENDBRANCH  31  32
ENDBRANCH  30  31
ENDBRANCH   1  30
TORSDOF 26
ENDMDL
MODEL 2
REMARK VINA RESULT:      -8.8      4.647      9.466
REMARK SMILES O=C(OCCOCCOCCOCCOC(=O)c1ccc(-c2c3nc(c(-c4cccc(S(=O)(=O)[O-])c4F)c4ccc([nH]4)c(-c4cccc(S(=O)(=O)[O-])c4F)c4nc(c(-c5cccc(S(=O)(=O)[O-])c5F)c5ccc2[nH]5)C=C4)C=C3)cc1)C1=Cc2cc(OC(F)(F)F)ccc2O[C@@H]1C(F)(F)F
REMARK SMILES IDX 10 1 9 2 8 3 7 4 6 5 5 6 4 7 3 8 2 9 1 10 81 11 82 12 95 13
REMARK SMILES IDX 83 14 94 15 84 16 93 17 85 18 92 19 91 20 96 21 97 22 98 23
REMARK SMILES IDX 99 24 86 25 87 26 88 27 89 28 90 29 11 30 12 31 13 32 14 33
REMARK SMILES IDX 15 34 16 35 17 36 18 37 19 38 80 39 20 40 79 41 21 42 22 43
REMARK SMILES IDX 23 44 73 45 24 46 78 47 72 48 74 49 25 50 77 51 71 52 70 53
REMARK SMILES IDX 26 55 58 56 38 57 57 58 39 59 42 60 56 61 75 62 40 63 41 64
REMARK SMILES IDX 55 66 76 67 43 68 27 69 28 70 36 71 29 72 31 73 37 74 30 75
REMARK SMILES IDX 32 76 33 77 34 78 35 79 59 80 60 81 68 82 61 83 63 84 69 85
REMARK SMILES IDX 62 86 64 87 65 88 66 89 67 90 44 91 45 92 53 93 46 94 48 95
REMARK SMILES IDX 54 96 47 97 49 98 50 99 51 100 52 101
REMARK H PARENT 74 54 42 65
REMARK Flexibility Score: inf
ROOT
ATOM      1  C   UNL A   1      33.929  35.119  29.723  1.00  0.00     0.188 C 
ENDROOT
BRANCH   1   2
ATOM      2  O   UNL A   1      33.842  33.932  30.474  1.00  0.00    -0.377 OA
BRANCH   2   3
ATOM      3  C   UNL A   1      34.601  32.898  29.897  1.00  0.00     0.188 C 
BRANCH   3   4
ATOM      4  C   UNL A   1      35.256  31.927  30.892  1.00  0.00     0.188 C 
BRANCH   4   5
ATOM      5  O   UNL A   1      36.214  30.859  30.546  1.00  0.00    -0.376 OA
BRANCH   5   6
ATOM      6  C   UNL A   1      36.365  29.847  29.215  1.00  0.00     0.202 C 
BRANCH   6   7
ATOM      7  C   UNL A   1      34.978  29.718  27.533  1.00  0.00     0.261 C 
BRANCH   7   8
ATOM      8  O   UNL A   1      34.592  28.462  26.783  1.00  0.00    -0.460 OA
BRANCH   8   9
ATOM      9  C   UNL A   1      33.270  28.264  26.781  1.00  0.00     0.338 C 
ATOM     10  O   UNL A   1      32.501  28.340  27.708  1.00  0.00    -0.246 OA
BRANCH   9  11
ATOM     11  C   UNL A   1      33.192  27.502  25.543  1.00  0.00     0.087 C 
ATOM     12  C   UNL A   1      33.843  26.192  25.603  1.00  0.00     0.027 C 
ATOM     13  C   UNL A   1      31.297  27.770  25.388  1.00  0.00     0.316 C 
ATOM     14  C   UNL A   1      32.975  24.632  25.775  1.00  0.00     0.021 A 
ATOM     15  O   UNL A   1      30.320  26.109  25.716  1.00  0.00    -0.475 OA
ATOM     16  C   UNL A   1      33.700  23.478  25.877  1.00  0.00     0.058 A 
ATOM     17  C   UNL A   1      31.262  24.540  25.934  1.00  0.00     0.128 A 
ATOM     18  C   UNL A   1      32.970  22.287  26.079  1.00  0.00     0.130 A 
ATOM     19  C   UNL A   1      30.619  23.347  26.142  1.00  0.00     0.051 A 
ATOM     20  C   UNL A   1      31.517  22.229  26.199  1.00  0.00     0.050 A 
BRANCH  13  21
ATOM     21  C   UNL A   1      31.483  28.720  24.010  1.00  0.00     0.430 C 
ATOM     22  F   UNL A   1      32.682  29.281  23.770  1.00  0.00    -0.167 F 
ATOM     23  F   UNL A   1      31.297  27.884  22.938  1.00  0.00    -0.167 F 
ATOM     24  F   UNL A   1      30.544  29.684  23.837  1.00  0.00    -0.167 F 
ENDBRANCH  13  21
BRANCH  18  25
ATOM     25  O   UNL A   1      33.837  21.221  26.157  1.00  0.00    -0.406 OA
BRANCH  25  26
ATOM     26  C   UNL A   1      34.033  20.372  25.045  1.00  0.00     0.573 C 
ATOM     27  F   UNL A   1      33.469  20.888  23.938  1.00  0.00    -0.132 F 
ATOM     28  F   UNL A   1      35.345  20.147  24.840  1.00  0.00    -0.132 F 
ATOM     29  F   UNL A   1      33.437  19.188  25.315  1.00  0.00    -0.132 F 
ENDBRANCH  25  26
ENDBRANCH  18  25
ENDBRANCH   9  11
ENDBRANCH   8   9
ENDBRANCH   7   8
ENDBRANCH   6   7
ENDBRANCH   5   6
ENDBRANCH   4   5
ENDBRANCH   3   4
ENDBRANCH   2   3
ENDBRANCH   1   2
BRANCH   1  30
ATOM     30  C   UNL A   1      32.854  36.179  30.004  1.00  0.00     0.188 C 
BRANCH  30  31
ATOM     31  O   UNL A   1      32.939  37.130  31.054  1.00  0.00    -0.376 OA
BRANCH  31  32
ATOM     32  C   UNL A   1      32.719  36.776  32.406  1.00  0.00     0.202 C 
BRANCH  32  33
ATOM     33  C   UNL A   1      33.868  36.652  33.416  1.00  0.00     0.261 C 
BRANCH  33  34
ATOM     34  O   UNL A   1      35.067  36.035  32.943  1.00  0.00    -0.460 OA
BRANCH  34  35
ATOM     35  C   UNL A   1      35.523  35.016  33.703  1.00  0.00     0.338 C 
ATOM     36  O   UNL A   1      34.997  34.560  34.705  1.00  0.00    -0.246 OA
BRANCH  35  37
ATOM     37  C   UNL A   1      36.679  34.383  33.034  1.00  0.00     0.060 A 
ATOM     38  C   UNL A   1      37.310  33.315  33.692  1.00  0.00     0.016 A 
ATOM     39  C   UNL A   1      37.149  34.826  31.797  1.00  0.00     0.016 A 
ATOM     40  C   UNL A   1      38.439  32.721  33.147  1.00  0.00     0.010 A 
ATOM     41  C   UNL A   1      38.316  34.264  31.273  1.00  0.00     0.010 A 
ATOM     42  C   UNL A   1      38.990  33.249  31.977  1.00  0.00    -0.014 A 
BRANCH  42  43
ATOM     43  C   UNL A   1      40.394  32.919  31.654  1.00  0.00     0.031 A 
ATOM     44  C   UNL A   1      41.475  33.739  32.302  1.00  0.00     0.074 A 
ATOM     45  C   UNL A   1      40.702  31.888  30.851  1.00  0.00     0.049 A 
ATOM     46  N   UNL A   1      42.770  33.671  32.147  1.00  0.00    -0.248 NA
ATOM     47  C   UNL A   1      41.036  34.778  33.251  1.00  0.00     0.031 C 
ATOM     48  C   UNL A   1      39.737  30.999  30.208  1.00  0.00     0.029 A 
ATOM     49  N   UNL A   1      41.923  31.435  30.422  1.00  0.00    -0.354 N 
ATOM     50  C   UNL A   1      43.296  34.685  32.938  1.00  0.00     0.074 A 
ATOM     51  C   UNL A   1      42.184  35.355  33.572  1.00  0.00     0.031 C 
ATOM     52  C   UNL A   1      40.403  30.126  29.433  1.00  0.00     0.029 A 
ATOM     53  C   UNL A   1      41.833  30.423  29.497  1.00  0.00     0.049 A 
ATOM     54  H   UNL A   1      42.779  31.798  30.746  1.00  0.00     0.167 HD
ATOM     55  C   UNL A   1      44.592  35.025  33.120  1.00  0.00     0.034 A 
ATOM     56  C   UNL A   1      42.794  29.840  28.755  1.00  0.00     0.034 A 
ATOM     57  C   UNL A   1      45.691  34.350  32.488  1.00  0.00     0.049 A 
ATOM     58  C   UNL A   1      44.225  30.272  28.935  1.00  0.00     0.074 A 
ATOM     59  C   UNL A   1      47.045  34.589  32.638  1.00  0.00     0.029 A 
ATOM     60  N   UNL A   1      45.564  33.324  31.566  1.00  0.00    -0.354 N 
ATOM     61  N   UNL A   1      44.720  31.178  29.745  1.00  0.00    -0.248 NA
ATOM     62  C   UNL A   1      45.236  29.581  28.122  1.00  0.00     0.031 C 
ATOM     63  C   UNL A   1      47.733  33.753  31.755  1.00  0.00     0.029 A 
ATOM     64  C   UNL A   1      46.814  32.938  31.115  1.00  0.00     0.049 A 
ATOM     65  H   UNL A   1      44.710  32.929  31.274  1.00  0.00     0.167 HD
ATOM     66  C   UNL A   1      46.099  31.136  29.570  1.00  0.00     0.074 A 
ATOM     67  C   UNL A   1      46.362  30.104  28.589  1.00  0.00     0.031 C 
ATOM     68  C   UNL A   1      47.061  31.884  30.165  1.00  0.00     0.034 A 
BRANCH  55  69
ATOM     69  C   UNL A   1      44.892  36.198  34.016  1.00  0.00     0.023 A 
ATOM     70  C   UNL A   1      44.966  37.502  33.488  1.00  0.00     0.012 A 
ATOM     71  C   UNL A   1      45.048  36.004  35.403  1.00  0.00     0.148 A 
ATOM     72  C   UNL A   1      45.225  38.591  34.321  1.00  0.00     0.002 A 
ATOM     73  C   UNL A   1      45.252  37.098  36.234  1.00  0.00     0.091 A 
ATOM     74  F   UNL A   1      44.998  34.753  35.882  1.00  0.00    -0.205 F 
ATOM     75  C   UNL A   1      45.354  38.390  35.693  1.00  0.00     0.022 A 
BRANCH  73  76
ATOM     76  S   UNL A   1      45.348  36.952  38.020  1.00  0.00     0.127 S 
ATOM     77  O   UNL A   1      44.693  35.664  38.246  1.00  0.00    -0.237 OA
ATOM     78  O   UNL A   1      46.793  36.949  38.248  1.00  0.00    -0.237 OA
ATOM     79  O   UNL A   1      44.645  38.108  38.560  1.00  0.00    -0.744 OA
ENDBRANCH  73  76
ENDBRANCH  55  69
BRANCH  56  80
ATOM     80  C   UNL A   1      42.433  28.792  27.759  1.00  0.00     0.023 A 
ATOM     81  C   UNL A   1      42.219  29.143  26.413  1.00  0.00     0.012 A 
ATOM     82  C   UNL A   1      42.303  27.446  28.150  1.00  0.00     0.148 A 
ATOM     83  C   UNL A   1      41.846  28.176  25.479  1.00  0.00     0.002 A 
ATOM     84  C   UNL A   1      41.991  26.479  27.203  1.00  0.00     0.091 A 
ATOM     85  F   UNL A   1      42.502  27.137  29.439  1.00  0.00    -0.205 F 
ATOM     86  C   UNL A   1      41.742  26.844  25.872  1.00  0.00     0.022 A 
BRANCH  84  87
ATOM     87  S   UNL A   1      41.959  24.727  27.592  1.00  0.00     0.127 S 
ATOM     88  O   UNL A   1      40.592  24.554  28.077  1.00  0.00    -0.237 OA
ATOM     89  O   UNL A   1      42.232  24.128  26.286  1.00  0.00    -0.237 OA
ATOM     90  O   UNL A   1      43.008  24.519  28.582  1.00  0.00    -0.744 OA
ENDBRANCH  84  87
ENDBRANCH  56  80
BRANCH  68  91
ATOM     91  C   UNL A   1      48.498  31.575  29.829  1.00  0.00     0.023 A 
ATOM     92  C   UNL A   1      49.166  32.282  28.810  1.00  0.00     0.012 A 
ATOM     93  C   UNL A   1      49.206  30.615  30.582  1.00  0.00     0.148 A 
ATOM     94  C   UNL A   1      50.501  32.006  28.516  1.00  0.00     0.002 A 
ATOM     95  C   UNL A   1      50.551  30.388  30.323  1.00  0.00     0.091 A 
ATOM     96  F   UNL A   1      48.550  29.945  31.541  1.00  0.00    -0.205 F 
ATOM     97  C   UNL A   1      51.196  31.070  29.279  1.00  0.00     0.022 A 
BRANCH  95  98
ATOM     98  S   UNL A   1      51.549  29.275  31.317  1.00  0.00     0.127 S 
ATOM     99  O   UNL A   1      52.802  29.248  30.564  1.00  0.00    -0.237 OA
ATOM    100  O   UNL A   1      51.620  29.984  32.595  1.00  0.00    -0.237 OA
ATOM    101  O   UNL A   1      50.826  28.012  31.363  1.00  0.00    -0.744 OA
ENDBRANCH  95  98
ENDBRANCH  68  91
ENDBRANCH  42  43
ENDBRANCH  35  37
ENDBRANCH  34  35
ENDBRANCH  33  34
ENDBRANCH  32  33
ENDBRANCH  31  32
ENDBRANCH  30  31
ENDBRANCH   1  30
TORSDOF 26
ENDMDL
MODEL 3
REMARK VINA RESULT:      -8.5      4.352     10.130
REMARK SMILES O=C(OCCOCCOCCOCCOC(=O)c1ccc(-c2c3nc(c(-c4cccc(S(=O)(=O)[O-])c4F)c4ccc([nH]4)c(-c4cccc(S(=O)(=O)[O-])c4F)c4nc(c(-c5cccc(S(=O)(=O)[O-])c5F)c5ccc2[nH]5)C=C4)C=C3)cc1)C1=Cc2cc(OC(F)(F)F)ccc2O[C@@H]1C(F)(F)F
REMARK SMILES IDX 10 1 9 2 8 3 7 4 6 5 5 6 4 7 3 8 2 9 1 10 81 11 82 12 95 13
REMARK SMILES IDX 83 14 94 15 84 16 93 17 85 18 92 19 91 20 96 21 97 22 98 23
REMARK SMILES IDX 99 24 86 25 87 26 88 27 89 28 90 29 11 30 12 31 13 32 14 33
REMARK SMILES IDX 15 34 16 35 17 36 18 37 19 38 80 39 20 40 79 41 21 42 22 43
REMARK SMILES IDX 23 44 73 45 24 46 78 47 72 48 74 49 25 50 77 51 71 52 70 53
REMARK SMILES IDX 26 55 58 56 38 57 57 58 39 59 42 60 56 61 75 62 40 63 41 64
REMARK SMILES IDX 55 66 76 67 43 68 27 69 28 70 36 71 29 72 31 73 37 74 30 75
REMARK SMILES IDX 32 76 33 77 34 78 35 79 59 80 60 81 68 82 61 83 63 84 69 85
REMARK SMILES IDX 62 86 64 87 65 88 66 89 67 90 44 91 45 92 53 93 46 94 48 95
REMARK SMILES IDX 54 96 47 97 49 98 50 99 51 100 52 101
REMARK H PARENT 74 54 42 65
REMARK Flexibility Score: inf
ROOT
ATOM      1  C   UNL A   1      33.468  35.350  28.433  1.00  0.00     0.188 C 
ENDROOT
BRANCH   1   2
ATOM      2  O   UNL A   1      33.709  34.150  29.128  1.00  0.00    -0.377 OA
BRANCH   2   3
ATOM      3  C   UNL A   1      34.821  33.464  28.606  1.00  0.00     0.188 C 
BRANCH   3   4
ATOM      4  C   UNL A   1      35.651  32.677  29.633  1.00  0.00     0.188 C 
BRANCH   4   5
ATOM      5  O   UNL A   1      36.471  31.486  29.341  1.00  0.00    -0.376 OA
BRANCH   5   6
ATOM      6  C   UNL A   1      36.136  30.023  28.587  1.00  0.00     0.202 C 
BRANCH   6   7
ATOM      7  C   UNL A   1      34.280  29.500  27.563  1.00  0.00     0.261 C 
BRANCH   7   8
ATOM      8  O   UNL A   1      33.834  28.109  27.168  1.00  0.00    -0.460 OA
BRANCH   8   9
ATOM      9  C   UNL A   1      32.534  28.066  26.860  1.00  0.00     0.338 C 
ATOM     10  O   UNL A   1      31.594  27.921  27.602  1.00  0.00    -0.246 OA
BRANCH   9  11
ATOM     11  C   UNL A   1      32.682  27.759  25.444  1.00  0.00     0.087 C 
ATOM     12  C   UNL A   1      33.609  26.662  25.163  1.00  0.00     0.027 C 
ATOM     13  C   UNL A   1      30.785  27.681  25.166  1.00  0.00     0.316 C 
ATOM     14  C   UNL A   1      33.109  24.993  24.735  1.00  0.00     0.021 A 
ATOM     15  O   UNL A   1      30.194  25.846  24.841  1.00  0.00    -0.475 OA
ATOM     16  C   UNL A   1      34.070  24.040  24.551  1.00  0.00     0.058 A 
ATOM     17  C   UNL A   1      31.455  24.515  24.660  1.00  0.00     0.128 A 
ATOM     18  C   UNL A   1      33.620  22.730  24.283  1.00  0.00     0.130 A 
ATOM     19  C   UNL A   1      31.090  23.217  24.407  1.00  0.00     0.051 A 
ATOM     20  C   UNL A   1      32.214  22.347  24.211  1.00  0.00     0.050 A 
BRANCH  13  21
ATOM     21  C   UNL A   1      30.810  29.051  24.188  1.00  0.00     0.430 C 
ATOM     22  F   UNL A   1      31.593  29.049  23.094  1.00  0.00    -0.167 F 
ATOM     23  F   UNL A   1      29.544  29.182  23.677  1.00  0.00    -0.167 F 
ATOM     24  F   UNL A   1      31.022  30.225  24.835  1.00  0.00    -0.167 F 
ENDBRANCH  13  21
BRANCH  18  25
ATOM     25  O   UNL A   1      34.701  21.893  24.119  1.00  0.00    -0.406 OA
BRANCH  25  26
ATOM     26  C   UNL A   1      34.950  20.851  25.039  1.00  0.00     0.573 C 
ATOM     27  F   UNL A   1      36.257  20.536  25.070  1.00  0.00    -0.132 F 
ATOM     28  F   UNL A   1      34.521  21.187  26.271  1.00  0.00    -0.132 F 
ATOM     29  F   UNL A   1      34.258  19.762  24.632  1.00  0.00    -0.132 F 
ENDBRANCH  25  26
ENDBRANCH  18  25
ENDBRANCH   9  11
ENDBRANCH   8   9
ENDBRANCH   7   8
ENDBRANCH   6   7
ENDBRANCH   5   6
ENDBRANCH   4   5
ENDBRANCH   3   4
ENDBRANCH   2   3
ENDBRANCH   1   2
BRANCH   1  30
ATOM     30  C   UNL A   1      32.568  36.373  29.139  1.00  0.00     0.188 C 
BRANCH  30  31
ATOM     31  O   UNL A   1      32.922  37.040  30.341  1.00  0.00    -0.376 OA
BRANCH  31  32
ATOM     32  C   UNL A   1      32.797  36.422  31.607  1.00  0.00     0.202 C 
BRANCH  32  33
ATOM     33  C   UNL A   1      33.994  36.238  32.549  1.00  0.00     0.261 C 
BRANCH  33  34
ATOM     34  O   UNL A   1      34.904  35.185  32.224  1.00  0.00    -0.460 OA
BRANCH  34  35
ATOM     35  C   UNL A   1      34.881  34.129  33.066  1.00  0.00     0.338 C 
ATOM     36  O   UNL A   1      34.111  33.184  33.032  1.00  0.00    -0.246 OA
BRANCH  35  37
ATOM     37  C   UNL A   1      36.068  34.178  33.945  1.00  0.00     0.060 A 
ATOM     38  C   UNL A   1      37.293  34.551  33.369  1.00  0.00     0.016 A 
ATOM     39  C   UNL A   1      35.996  33.855  35.302  1.00  0.00     0.016 A 
ATOM     40  C   UNL A   1      38.456  34.553  34.126  1.00  0.00     0.010 A 
ATOM     41  C   UNL A   1      37.174  33.806  36.052  1.00  0.00     0.010 A 
ATOM     42  C   UNL A   1      38.410  34.103  35.447  1.00  0.00    -0.014 A 
BRANCH  42  43
ATOM     43  C   UNL A   1      39.676  33.692  36.090  1.00  0.00     0.031 A 
ATOM     44  C   UNL A   1      40.320  34.653  37.050  1.00  0.00     0.074 A 
ATOM     45  C   UNL A   1      40.211  32.480  35.869  1.00  0.00     0.049 A 
ATOM     46  N   UNL A   1      41.446  34.541  37.703  1.00  0.00    -0.248 NA
ATOM     47  C   UNL A   1      39.598  35.913  37.307  1.00  0.00     0.031 C 
ATOM     48  C   UNL A   1      39.647  31.453  34.995  1.00  0.00     0.029 A 
ATOM     49  N   UNL A   1      41.369  31.923  36.348  1.00  0.00    -0.354 N 
ATOM     50  C   UNL A   1      41.590  35.730  38.407  1.00  0.00     0.074 A 
ATOM     51  C   UNL A   1      40.441  36.551  38.104  1.00  0.00     0.031 C 
ATOM     52  C   UNL A   1      40.482  30.400  34.970  1.00  0.00     0.029 A 
ATOM     53  C   UNL A   1      41.653  30.699  35.794  1.00  0.00     0.049 A 
ATOM     54  H   UNL A   1      41.938  32.357  37.023  1.00  0.00     0.167 HD
ATOM     55  C   UNL A   1      42.593  36.102  39.235  1.00  0.00     0.034 A 
ATOM     56  C   UNL A   1      42.755  29.932  35.905  1.00  0.00     0.034 A 
ATOM     57  C   UNL A   1      43.730  35.277  39.533  1.00  0.00     0.049 A 
ATOM     58  C   UNL A   1      43.883  30.392  36.791  1.00  0.00     0.074 A 
ATOM     59  C   UNL A   1      44.782  35.542  40.392  1.00  0.00     0.029 A 
ATOM     60  N   UNL A   1      43.980  34.039  38.962  1.00  0.00    -0.354 N 
ATOM     61  N   UNL A   1      43.974  31.482  37.515  1.00  0.00    -0.248 NA
ATOM     62  C   UNL A   1      45.047  29.503  36.899  1.00  0.00     0.031 C 
ATOM     63  C   UNL A   1      45.701  34.495  40.288  1.00  0.00     0.029 A 
ATOM     64  C   UNL A   1      45.184  33.540  39.427  1.00  0.00     0.049 A 
ATOM     65  H   UNL A   1      43.389  33.583  38.320  1.00  0.00     0.167 HD
ATOM     66  C   UNL A   1      45.184  31.389  38.196  1.00  0.00     0.074 A 
ATOM     67  C   UNL A   1      45.781  30.128  37.809  1.00  0.00     0.031 C 
ATOM     68  C   UNL A   1      45.749  32.267  39.060  1.00  0.00     0.034 A 
BRANCH  55  69
ATOM     69  C   UNL A   1      42.522  37.473  39.854  1.00  0.00     0.023 A 
ATOM     70  C   UNL A   1      43.181  38.565  39.255  1.00  0.00     0.012 A 
ATOM     71  C   UNL A   1      41.747  37.684  41.011  1.00  0.00     0.148 A 
ATOM     72  C   UNL A   1      43.099  39.839  39.818  1.00  0.00     0.002 A 
ATOM     73  C   UNL A   1      41.625  38.964  41.536  1.00  0.00     0.091 A 
ATOM     74  F   UNL A   1      41.146  36.629  41.579  1.00  0.00    -0.205 F 
ATOM     75  C   UNL A   1      42.311  40.040  40.949  1.00  0.00     0.022 A 
BRANCH  73  76
ATOM     76  S   UNL A   1      40.570  39.339  42.938  1.00  0.00     0.127 S 
ATOM     77  O   UNL A   1      41.221  40.528  43.488  1.00  0.00    -0.237 OA
ATOM     78  O   UNL A   1      39.282  39.593  42.291  1.00  0.00    -0.237 OA
ATOM     79  O   UNL A   1      40.602  38.163  43.797  1.00  0.00    -0.744 OA
ENDBRANCH  73  76
ENDBRANCH  55  69
BRANCH  56  80
ATOM     80  C   UNL A   1      42.853  28.655  35.145  1.00  0.00     0.023 A 
ATOM     81  C   UNL A   1      43.355  28.654  33.830  1.00  0.00     0.012 A 
ATOM     82  C   UNL A   1      42.449  27.439  35.730  1.00  0.00     0.148 A 
ATOM     83  C   UNL A   1      43.418  27.469  33.097  1.00  0.00     0.002 A 
ATOM     84  C   UNL A   1      42.572  26.255  35.016  1.00  0.00     0.091 A 
ATOM     85  F   UNL A   1      41.966  27.466  36.979  1.00  0.00    -0.205 F 
ATOM     86  C   UNL A   1      43.037  26.269  33.692  1.00  0.00     0.022 A 
BRANCH  84  87
ATOM     87  S   UNL A   1      42.224  24.652  35.744  1.00  0.00     0.127 S 
ATOM     88  O   UNL A   1      40.769  24.690  35.868  1.00  0.00    -0.237 OA
ATOM     89  O   UNL A   1      42.734  23.743  34.718  1.00  0.00    -0.237 OA
ATOM     90  O   UNL A   1      42.960  24.617  37.000  1.00  0.00    -0.744 OA
ENDBRANCH  84  87
ENDBRANCH  56  80
BRANCH  68  91
ATOM     91  C   UNL A   1      47.052  31.873  39.708  1.00  0.00     0.023 A 
ATOM     92  C   UNL A   1      47.064  31.135  40.908  1.00  0.00     0.012 A 
ATOM     93  C   UNL A   1      48.274  32.185  39.078  1.00  0.00     0.148 A 
ATOM     94  C   UNL A   1      48.271  30.756  41.494  1.00  0.00     0.002 A 
ATOM     95  C   UNL A   1      49.470  31.753  39.635  1.00  0.00     0.091 A 
ATOM     96  F   UNL A   1      48.244  32.898  37.942  1.00  0.00    -0.205 F 
ATOM     97  C   UNL A   1      49.472  31.053  40.853  1.00  0.00     0.022 A 
BRANCH  95  98
ATOM     98  S   UNL A   1      51.056  32.004  38.831  1.00  0.00     0.127 S 
ATOM     99  O   UNL A   1      51.880  30.983  39.475  1.00  0.00    -0.237 OA
ATOM    100  O   UNL A   1      50.734  31.733  37.428  1.00  0.00    -0.237 OA
ATOM    101  O   UNL A   1      51.440  33.380  39.111  1.00  0.00    -0.744 OA
ENDBRANCH  95  98
ENDBRANCH  68  91
ENDBRANCH  42  43
ENDBRANCH  35  37
ENDBRANCH  34  35
ENDBRANCH  33  34
ENDBRANCH  32  33
ENDBRANCH  31  32
ENDBRANCH  30  31
ENDBRANCH   1  30
TORSDOF 26
ENDMDL
