MODEL 1
REMARK VINA RESULT:      -9.5      0.000      0.000
REMARK SMILES O=C(OCCOCCOCCOCCOC(=O)[C@@H]1[C@H](C(=O)Nc2ccccc2OC(F)F)[C@@H]2C=C[C@H]1C2)c1ccc(-c2c3nc(c(-c4cccc(S(=O)(=O)[O-])c4F)c4ccc([nH]4)c(-c4cccc(S(=O)(=O)[O-])c4F)c4nc(c(-c5cccc(S(=O)(=O)[O-])c5F)c5ccc2[nH]5)C=C4)C=C3)cc1
REMARK SMILES IDX 10 1 9 2 8 3 7 4 6 5 5 6 4 7 3 8 2 9 1 10 38 11 39 12 100 13
REMARK SMILES IDX 40 14 99 15 41 16 42 17 43 18 93 19 44 20 98 21 92 22 94 23
REMARK SMILES IDX 45 24 97 25 91 26 90 27 46 29 78 30 58 31 77 32 59 33 62 34
REMARK SMILES IDX 76 35 95 36 60 37 61 38 75 40 96 41 63 42 47 43 48 44 56 45
REMARK SMILES IDX 49 46 51 47 57 48 50 49 52 50 53 51 54 52 55 53 79 54 80 55
REMARK SMILES IDX 88 56 81 57 83 58 89 59 82 60 84 61 85 62 86 63 87 64 64 65
REMARK SMILES IDX 65 66 73 67 66 68 68 69 74 70 67 71 69 72 70 73 71 74 72 75
REMARK SMILES IDX 11 76 12 77 13 78 14 79 15 80 16 81 17 82 18 83 19 84 36 85
REMARK SMILES IDX 33 86 35 87 37 88 34 89 20 90 21 91 22 92 23 94 24 95 28 96
REMARK SMILES IDX 25 97 27 98 26 99 29 100 30 101 31 102 32 103
REMARK H PARENT 94 28 62 39 22 93
REMARK Flexibility Score: inf
ROOT
ATOM      1  C   UNL A   1      39.142  23.029  26.307  1.00  0.00     0.188 C 
ENDROOT
BRANCH   1   2
ATOM      2  O   UNL A   1      39.464  21.643  26.168  1.00  0.00    -0.377 OA
BRANCH   2   3
ATOM      3  C   UNL A   1      40.682  21.262  26.821  1.00  0.00     0.188 C 
BRANCH   3   4
ATOM      4  C   UNL A   1      40.834  19.748  26.750  1.00  0.00     0.188 C 
BRANCH   4   5
ATOM      5  O   UNL A   1      42.163  19.468  27.162  1.00  0.00    -0.376 OA
BRANCH   5   6
ATOM      6  C   UNL A   1      42.638  18.150  27.021  1.00  0.00     0.202 C 
BRANCH   6   7
ATOM      7  C   UNL A   1      43.794  18.103  26.030  1.00  0.00     0.261 C 
BRANCH   7   8
ATOM      8  O   UNL A   1      43.530  18.966  24.908  1.00  0.00    -0.460 OA
BRANCH   8   9
ATOM      9  C   UNL A   1      44.246  20.005  24.416  1.00  0.00     0.338 C 
ATOM     10  O   UNL A   1      44.990  19.771  23.462  1.00  0.00    -0.246 OA
BRANCH   9  11
ATOM     11  C   UNL A   1      44.249  21.408  24.961  1.00  0.00     0.060 A 
ATOM     12  C   UNL A   1      43.972  22.572  24.242  1.00  0.00     0.016 A 
ATOM     13  C   UNL A   1      44.460  21.544  26.346  1.00  0.00     0.016 A 
ATOM     14  C   UNL A   1      43.878  23.812  24.854  1.00  0.00     0.010 A 
ATOM     15  C   UNL A   1      44.416  22.797  26.972  1.00  0.00     0.010 A 
ATOM     16  C   UNL A   1      44.139  23.936  26.213  1.00  0.00    -0.014 A 
BRANCH  16  17
ATOM     17  C   UNL A   1      44.361  25.305  26.704  1.00  0.00     0.031 A 
ATOM     18  C   UNL A   1      45.727  25.889  26.497  1.00  0.00     0.074 A 
ATOM     19  C   UNL A   1      43.322  26.054  27.111  1.00  0.00     0.049 A 
ATOM     20  N   UNL A   1      46.169  27.082  26.779  1.00  0.00    -0.248 NA
ATOM     21  C   UNL A   1      46.724  25.016  25.847  1.00  0.00     0.031 C 
ATOM     22  C   UNL A   1      41.933  25.596  27.195  1.00  0.00     0.029 A 
ATOM     23  N   UNL A   1      43.267  27.364  27.503  1.00  0.00    -0.354 N 
ATOM     24  C   UNL A   1      47.498  27.092  26.372  1.00  0.00     0.074 A 
ATOM     25  C   UNL A   1      47.793  25.795  25.815  1.00  0.00     0.031 C 
ATOM     26  C   UNL A   1      41.164  26.608  27.629  1.00  0.00     0.029 A 
ATOM     27  C   UNL A   1      42.012  27.764  27.900  1.00  0.00     0.049 A 
ATOM     28  H   UNL A   1      44.049  27.962  27.499  1.00  0.00     0.167 HD
ATOM     29  C   UNL A   1      48.390  28.103  26.459  1.00  0.00     0.034 A 
ATOM     30  C   UNL A   1      41.620  28.924  28.459  1.00  0.00     0.034 A 
ATOM     31  C   UNL A   1      48.067  29.381  27.025  1.00  0.00     0.049 A 
ATOM     32  C   UNL A   1      42.661  30.000  28.637  1.00  0.00     0.074 A 
ATOM     33  C   UNL A   1      48.896  30.462  27.249  1.00  0.00     0.029 A 
ATOM     34  N   UNL A   1      46.801  29.740  27.467  1.00  0.00    -0.354 N 
ATOM     35  N   UNL A   1      43.921  30.000  28.265  1.00  0.00    -0.248 NA
ATOM     36  C   UNL A   1      42.228  31.242  29.288  1.00  0.00     0.031 C 
ATOM     37  C   UNL A   1      48.134  31.466  27.856  1.00  0.00     0.029 A 
ATOM     38  C   UNL A   1      46.822  31.026  27.968  1.00  0.00     0.049 A 
ATOM     39  H   UNL A   1      46.004  29.163  27.427  1.00  0.00     0.167 HD
ATOM     40  C   UNL A   1      44.425  31.245  28.616  1.00  0.00     0.074 A 
ATOM     41  C   UNL A   1      43.320  31.987  29.195  1.00  0.00     0.031 C 
ATOM     42  C   UNL A   1      45.684  31.734  28.497  1.00  0.00     0.034 A 
BRANCH  29  43
ATOM     43  C   UNL A   1      49.787  27.832  25.976  1.00  0.00     0.023 A 
ATOM     44  C   UNL A   1      50.831  27.624  26.901  1.00  0.00     0.012 A 
ATOM     45  C   UNL A   1      50.069  27.803  24.597  1.00  0.00     0.148 A 
ATOM     46  C   UNL A   1      52.139  27.424  26.459  1.00  0.00     0.002 A 
ATOM     47  C   UNL A   1      51.365  27.561  24.164  1.00  0.00     0.091 A 
ATOM     48  F   UNL A   1      49.066  28.035  23.738  1.00  0.00    -0.205 F 
ATOM     49  C   UNL A   1      52.404  27.384  25.092  1.00  0.00     0.022 A 
BRANCH  47  50
ATOM     50  S   UNL A   1      51.805  27.435  22.428  1.00  0.00     0.127 S 
ATOM     51  O   UNL A   1      50.597  26.849  21.856  1.00  0.00    -0.237 OA
ATOM     52  O   UNL A   1      52.041  28.830  22.073  1.00  0.00    -0.237 OA
ATOM     53  O   UNL A   1      52.989  26.578  22.374  1.00  0.00    -0.744 OA
ENDBRANCH  47  50
ENDBRANCH  29  43
BRANCH  30  54
ATOM     54  C   UNL A   1      40.215  29.114  28.928  1.00  0.00     0.023 A 
ATOM     55  C   UNL A   1      39.193  29.434  28.014  1.00  0.00     0.012 A 
ATOM     56  C   UNL A   1      39.893  29.008  30.297  1.00  0.00     0.148 A 
ATOM     57  C   UNL A   1      37.894  29.692  28.458  1.00  0.00     0.002 A 
ATOM     58  C   UNL A   1      38.585  29.203  30.725  1.00  0.00     0.091 A 
ATOM     59  F   UNL A   1      40.878  28.728  31.164  1.00  0.00    -0.205 F 
ATOM     60  C   UNL A   1      37.587  29.569  29.811  1.00  0.00     0.022 A 
BRANCH  58  61
ATOM     61  S   UNL A   1      38.085  28.939  32.431  1.00  0.00     0.127 S 
ATOM     62  O   UNL A   1      38.370  27.519  32.610  1.00  0.00    -0.237 OA
ATOM     63  O   UNL A   1      38.979  29.844  33.153  1.00  0.00    -0.237 OA
ATOM     64  O   UNL A   1      36.679  29.318  32.490  1.00  0.00    -0.744 OA
ENDBRANCH  58  61
ENDBRANCH  30  54
BRANCH  42  65
ATOM     65  C   UNL A   1      45.917  33.143  28.970  1.00  0.00     0.023 A 
ATOM     66  C   UNL A   1      46.569  33.376  30.195  1.00  0.00     0.012 A 
ATOM     67  C   UNL A   1      45.542  34.233  28.161  1.00  0.00     0.148 A 
ATOM     68  C   UNL A   1      46.807  34.677  30.631  1.00  0.00     0.002 A 
ATOM     69  C   UNL A   1      45.838  35.524  28.572  1.00  0.00     0.091 A 
ATOM     70  F   UNL A   1      44.907  33.985  27.005  1.00  0.00    -0.205 F 
ATOM     71  C   UNL A   1      46.454  35.749  29.814  1.00  0.00     0.022 A 
BRANCH  69  72
ATOM     72  S   UNL A   1      45.520  36.953  27.534  1.00  0.00     0.127 S 
ATOM     73  O   UNL A   1      46.232  38.008  28.254  1.00  0.00    -0.237 OA
ATOM     74  O   UNL A   1      46.135  36.556  26.267  1.00  0.00    -0.237 OA
ATOM     75  O   UNL A   1      44.072  37.097  27.482  1.00  0.00    -0.744 OA
ENDBRANCH  69  72
ENDBRANCH  42  65
ENDBRANCH  16  17
ENDBRANCH   9  11
ENDBRANCH   8   9
ENDBRANCH   7   8
ENDBRANCH   6   7
ENDBRANCH   5   6
ENDBRANCH   4   5
ENDBRANCH   3   4
ENDBRANCH   2   3
ENDBRANCH   1   2
BRANCH   1  76
ATOM     76  C   UNL A   1      37.649  23.326  26.204  1.00  0.00     0.188 C 
BRANCH  76  77
ATOM     77  O   UNL A   1      37.217  23.716  24.912  1.00  0.00    -0.376 OA
BRANCH  77  78
ATOM     78  C   UNL A   1      36.932  22.673  23.978  1.00  0.00     0.202 C 
BRANCH  78  79
ATOM     79  C   UNL A   1      35.662  22.769  23.102  1.00  0.00     0.261 C 
BRANCH  79  80
ATOM     80  O   UNL A   1      34.910  24.024  23.198  1.00  0.00    -0.463 OA
BRANCH  80  81
ATOM     81  C   UNL A   1      33.603  24.032  22.842  1.00  0.00     0.310 C 
ATOM     82  O   UNL A   1      33.279  24.135  21.656  1.00  0.00    -0.252 OA
BRANCH  81  83
ATOM     83  C   UNL A   1      32.493  23.869  23.943  1.00  0.00     0.119 C 
ATOM     84  C   UNL A   1      31.041  24.497  24.177  1.00  0.00     0.100 C 
ATOM     85  C   UNL A   1      32.768  23.101  25.282  1.00  0.00     0.027 C 
ATOM     86  C   UNL A   1      30.648  23.845  25.553  1.00  0.00     0.025 C 
ATOM     87  C   UNL A   1      32.733  23.991  26.501  1.00  0.00    -0.027 C 
ATOM     88  C   UNL A   1      31.360  22.480  25.505  1.00  0.00     0.017 C 
ATOM     89  C   UNL A   1      31.475  24.431  26.663  1.00  0.00    -0.027 C 
BRANCH  84  90
ATOM     90  C   UNL A   1      30.262  25.852  24.017  1.00  0.00     0.229 C 
ATOM     91  O   UNL A   1      29.125  25.783  23.510  1.00  0.00    -0.274 OA
ATOM     92  N   UNL A   1      30.532  27.082  24.549  1.00  0.00    -0.323 N 
ATOM     93  H   UNL A   1      29.773  27.710  24.530  1.00  0.00     0.170 HD
BRANCH  92  94
ATOM     94  C   UNL A   1      31.693  27.599  25.112  1.00  0.00     0.084 A 
ATOM     95  C   UNL A   1      31.696  28.188  26.378  1.00  0.00     0.030 A 
ATOM     96  C   UNL A   1      32.876  27.485  24.448  1.00  0.00     0.149 A 
ATOM     97  C   UNL A   1      32.898  28.277  27.090  1.00  0.00     0.002 A 
ATOM     98  C   UNL A   1      34.021  27.360  25.204  1.00  0.00     0.049 A 
ATOM     99  C   UNL A   1      34.047  27.732  26.541  1.00  0.00     0.004 A 
BRANCH  96 100
ATOM    100  O   UNL A   1      32.998  27.436  23.110  1.00  0.00    -0.433 OA
BRANCH 100 101
ATOM    101  C   UNL A   1      33.447  28.579  22.381  1.00  0.00     0.542 C 
ATOM    102  F   UNL A   1      33.028  29.688  23.040  1.00  0.00    -0.167 F 
ATOM    103  F   UNL A   1      34.792  28.636  22.260  1.00  0.00    -0.167 F 
ENDBRANCH 100 101
ENDBRANCH  96 100
ENDBRANCH  92  94
ENDBRANCH  84  90
ENDBRANCH  81  83
ENDBRANCH  80  81
ENDBRANCH  79  80
ENDBRANCH  78  79
ENDBRANCH  77  78
ENDBRANCH  76  77
ENDBRANCH   1  76
TORSDOF 27
ENDMDL
MODEL 2
REMARK VINA RESULT:      -9.2      4.485      5.813
REMARK SMILES O=C(OCCOCCOCCOCCOC(=O)[C@@H]1[C@H](C(=O)Nc2ccccc2OC(F)F)[C@@H]2C=C[C@H]1C2)c1ccc(-c2c3nc(c(-c4cccc(S(=O)(=O)[O-])c4F)c4ccc([nH]4)c(-c4cccc(S(=O)(=O)[O-])c4F)c4nc(c(-c5cccc(S(=O)(=O)[O-])c5F)c5ccc2[nH]5)C=C4)C=C3)cc1
REMARK SMILES IDX 10 1 9 2 8 3 7 4 6 5 5 6 4 7 3 8 2 9 1 10 38 11 39 12 100 13
REMARK SMILES IDX 40 14 99 15 41 16 42 17 43 18 93 19 44 20 98 21 92 22 94 23
REMARK SMILES IDX 45 24 97 25 91 26 90 27 46 29 78 30 58 31 77 32 59 33 62 34
REMARK SMILES IDX 76 35 95 36 60 37 61 38 75 40 96 41 63 42 47 43 48 44 56 45
REMARK SMILES IDX 49 46 51 47 57 48 50 49 52 50 53 51 54 52 55 53 79 54 80 55
REMARK SMILES IDX 88 56 81 57 83 58 89 59 82 60 84 61 85 62 86 63 87 64 64 65
REMARK SMILES IDX 65 66 73 67 66 68 68 69 74 70 67 71 69 72 70 73 71 74 72 75
REMARK SMILES IDX 11 76 12 77 13 78 14 79 15 80 16 81 17 82 18 83 19 84 36 85
REMARK SMILES IDX 33 86 35 87 37 88 34 89 20 90 21 91 22 92 23 94 24 95 28 96
REMARK SMILES IDX 25 97 27 98 26 99 29 100 30 101 31 102 32 103
REMARK H PARENT 94 28 62 39 22 93
REMARK Flexibility Score: inf
ROOT
ATOM      1  C   UNL A   1      40.077  22.977  26.400  1.00  0.00     0.188 C 
ENDROOT
BRANCH   1   2
ATOM      2  O   UNL A   1      39.985  21.577  26.129  1.00  0.00    -0.377 OA
BRANCH   2   3
ATOM      3  C   UNL A   1      40.752  20.761  27.024  1.00  0.00     0.188 C 
BRANCH   3   4
ATOM      4  C   UNL A   1      41.349  19.593  26.248  1.00  0.00     0.188 C 
BRANCH   4   5
ATOM      5  O   UNL A   1      42.757  19.723  26.366  1.00  0.00    -0.376 OA
BRANCH   5   6
ATOM      6  C   UNL A   1      43.566  19.082  25.408  1.00  0.00     0.202 C 
BRANCH   6   7
ATOM      7  C   UNL A   1      44.525  20.078  24.768  1.00  0.00     0.261 C 
BRANCH   7   8
ATOM      8  O   UNL A   1      43.837  21.300  24.443  1.00  0.00    -0.460 OA
BRANCH   8   9
ATOM      9  C   UNL A   1      44.285  22.579  24.431  1.00  0.00     0.338 C 
ATOM     10  O   UNL A   1      44.923  22.939  23.440  1.00  0.00    -0.246 OA
BRANCH   9  11
ATOM     11  C   UNL A   1      44.111  23.582  25.539  1.00  0.00     0.060 A 
ATOM     12  C   UNL A   1      44.227  24.969  25.421  1.00  0.00     0.016 A 
ATOM     13  C   UNL A   1      43.704  23.076  26.788  1.00  0.00     0.016 A 
ATOM     14  C   UNL A   1      43.931  25.825  26.470  1.00  0.00     0.010 A 
ATOM     15  C   UNL A   1      43.448  23.926  27.872  1.00  0.00     0.010 A 
ATOM     16  C   UNL A   1      43.579  25.307  27.710  1.00  0.00    -0.014 A 
BRANCH  16  17
ATOM     17  C   UNL A   1      43.625  26.249  28.839  1.00  0.00     0.031 A 
ATOM     18  C   UNL A   1      44.955  26.452  29.502  1.00  0.00     0.074 A 
ATOM     19  C   UNL A   1      42.572  27.043  29.101  1.00  0.00     0.049 A 
ATOM     20  N   UNL A   1      45.283  27.259  30.471  1.00  0.00    -0.248 NA
ATOM     21  C   UNL A   1      46.082  25.657  28.975  1.00  0.00     0.031 C 
ATOM     22  C   UNL A   1      41.290  27.005  28.391  1.00  0.00     0.029 A 
ATOM     23  N   UNL A   1      42.421  28.051  30.013  1.00  0.00    -0.354 N 
ATOM     24  C   UNL A   1      46.639  27.048  30.689  1.00  0.00     0.074 A 
ATOM     25  C   UNL A   1      47.080  26.046  29.750  1.00  0.00     0.031 C 
ATOM     26  C   UNL A   1      40.477  27.941  28.909  1.00  0.00     0.029 A 
ATOM     27  C   UNL A   1      41.162  28.604  30.014  1.00  0.00     0.049 A 
ATOM     28  H   UNL A   1      43.144  28.353  30.609  1.00  0.00     0.167 HD
ATOM     29  C   UNL A   1      47.441  27.644  31.597  1.00  0.00     0.034 A 
ATOM     30  C   UNL A   1      40.626  29.513  30.849  1.00  0.00     0.034 A 
ATOM     31  C   UNL A   1      46.970  28.633  32.524  1.00  0.00     0.049 A 
ATOM     32  C   UNL A   1      41.518  30.088  31.920  1.00  0.00     0.074 A 
ATOM     33  C   UNL A   1      47.656  29.255  33.548  1.00  0.00     0.029 A 
ATOM     34  N   UNL A   1      45.676  29.136  32.535  1.00  0.00    -0.354 N 
ATOM     35  N   UNL A   1      42.796  29.873  32.133  1.00  0.00    -0.248 NA
ATOM     36  C   UNL A   1      40.907  31.044  32.851  1.00  0.00     0.031 C 
ATOM     37  C   UNL A   1      46.764  30.114  34.200  1.00  0.00     0.029 A 
ATOM     38  C   UNL A   1      45.537  30.060  33.552  1.00  0.00     0.049 A 
ATOM     39  H   UNL A   1      44.963  28.874  31.909  1.00  0.00     0.167 HD
ATOM     40  C   UNL A   1      43.148  30.682  33.206  1.00  0.00     0.074 A 
ATOM     41  C   UNL A   1      41.954  31.420  33.572  1.00  0.00     0.031 C 
ATOM     42  C   UNL A   1      44.336  30.797  33.850  1.00  0.00     0.034 A 
BRANCH  29  43
ATOM     43  C   UNL A   1      48.876  27.197  31.649  1.00  0.00     0.023 A 
ATOM     44  C   UNL A   1      49.870  27.918  30.958  1.00  0.00     0.012 A 
ATOM     45  C   UNL A   1      49.234  26.044  32.372  1.00  0.00     0.148 A 
ATOM     46  C   UNL A   1      51.194  27.478  30.960  1.00  0.00     0.002 A 
ATOM     47  C   UNL A   1      50.560  25.636  32.405  1.00  0.00     0.091 A 
ATOM     48  F   UNL A   1      48.266  25.357  32.996  1.00  0.00    -0.205 F 
ATOM     49  C   UNL A   1      51.540  26.343  31.689  1.00  0.00     0.022 A 
BRANCH  47  50
ATOM     50  S   UNL A   1      51.122  24.221  33.357  1.00  0.00     0.127 S 
ATOM     51  O   UNL A   1      50.345  24.360  34.585  1.00  0.00    -0.237 OA
ATOM     52  O   UNL A   1      50.730  23.105  32.503  1.00  0.00    -0.237 OA
ATOM     53  O   UNL A   1      52.565  24.393  33.521  1.00  0.00    -0.744 OA
ENDBRANCH  47  50
ENDBRANCH  29  43
BRANCH  30  54
ATOM     54  C   UNL A   1      39.186  29.897  30.746  1.00  0.00     0.023 A 
ATOM     55  C   UNL A   1      38.179  29.015  31.180  1.00  0.00     0.012 A 
ATOM     56  C   UNL A   1      38.810  31.135  30.184  1.00  0.00     0.148 A 
ATOM     57  C   UNL A   1      36.829  29.335  31.012  1.00  0.00     0.002 A 
ATOM     58  C   UNL A   1      37.467  31.475  30.077  1.00  0.00     0.091 A 
ATOM     59  F   UNL A   1      39.776  31.957  29.749  1.00  0.00    -0.205 F 
ATOM     60  C   UNL A   1      36.473  30.568  30.469  1.00  0.00     0.022 A 
BRANCH  58  61
ATOM     61  S   UNL A   1      36.930  33.092  29.506  1.00  0.00     0.127 S 
ATOM     62  O   UNL A   1      36.775  32.867  28.072  1.00  0.00    -0.237 OA
ATOM     63  O   UNL A   1      35.679  33.275  30.242  1.00  0.00    -0.237 OA
ATOM     64  O   UNL A   1      37.989  34.016  29.894  1.00  0.00    -0.744 OA
ENDBRANCH  58  61
ENDBRANCH  30  54
BRANCH  42  65
ATOM     65  C   UNL A   1      44.403  31.779  34.987  1.00  0.00     0.023 A 
ATOM     66  C   UNL A   1      44.750  33.121  34.739  1.00  0.00     0.012 A 
ATOM     67  C   UNL A   1      44.056  31.378  36.291  1.00  0.00     0.148 A 
ATOM     68  C   UNL A   1      44.793  34.042  35.784  1.00  0.00     0.002 A 
ATOM     69  C   UNL A   1      44.042  32.314  37.315  1.00  0.00     0.091 A 
ATOM     70  F   UNL A   1      43.746  30.090  36.505  1.00  0.00    -0.205 F 
ATOM     71  C   UNL A   1      44.427  33.642  37.067  1.00  0.00     0.022 A 
BRANCH  69  72
ATOM     72  S   UNL A   1      43.477  31.912  38.970  1.00  0.00     0.127 S 
ATOM     73  O   UNL A   1      43.779  33.144  39.696  1.00  0.00    -0.237 OA
ATOM     74  O   UNL A   1      42.051  31.662  38.756  1.00  0.00    -0.237 OA
ATOM     75  O   UNL A   1      44.239  30.740  39.380  1.00  0.00    -0.744 OA
ENDBRANCH  69  72
ENDBRANCH  42  65
ENDBRANCH  16  17
ENDBRANCH   9  11
ENDBRANCH   8   9
ENDBRANCH   7   8
ENDBRANCH   6   7
ENDBRANCH   5   6
ENDBRANCH   4   5
ENDBRANCH   3   4
ENDBRANCH   2   3
ENDBRANCH   1   2
BRANCH   1  76
ATOM     76  C   UNL A   1      38.755  23.610  26.820  1.00  0.00     0.188 C 
BRANCH  76  77
ATOM     77  O   UNL A   1      37.913  23.981  25.742  1.00  0.00    -0.376 OA
BRANCH  77  78
ATOM     78  C   UNL A   1      36.856  23.082  25.402  1.00  0.00     0.202 C 
BRANCH  78  79
ATOM     79  C   UNL A   1      35.690  23.585  24.522  1.00  0.00     0.261 C 
BRANCH  79  80
ATOM     80  O   UNL A   1      35.148  24.902  24.867  1.00  0.00    -0.463 OA
BRANCH  80  81
ATOM     81  C   UNL A   1      34.361  25.542  23.968  1.00  0.00     0.310 C 
ATOM     82  O   UNL A   1      34.194  25.075  22.839  1.00  0.00    -0.252 OA
BRANCH  81  83
ATOM     83  C   UNL A   1      33.623  26.868  24.381  1.00  0.00     0.119 C 
ATOM     84  C   UNL A   1      32.730  27.316  25.629  1.00  0.00     0.100 C 
ATOM     85  C   UNL A   1      33.463  28.066  23.381  1.00  0.00     0.027 C 
ATOM     86  C   UNL A   1      32.338  28.780  25.210  1.00  0.00     0.025 C 
ATOM     87  C   UNL A   1      32.031  28.325  22.981  1.00  0.00    -0.027 C 
ATOM     88  C   UNL A   1      33.556  29.244  24.390  1.00  0.00     0.017 C 
ATOM     89  C   UNL A   1      31.363  28.750  24.065  1.00  0.00    -0.027 C 
BRANCH  84  90
ATOM     90  C   UNL A   1      31.633  26.756  26.603  1.00  0.00     0.229 C 
ATOM     91  O   UNL A   1      31.396  27.432  27.623  1.00  0.00    -0.274 OA
ATOM     92  N   UNL A   1      30.723  25.753  26.408  1.00  0.00    -0.323 N 
ATOM     93  H   UNL A   1      29.973  25.754  27.047  1.00  0.00     0.170 HD
BRANCH  92  94
ATOM     94  C   UNL A   1      30.676  24.733  25.466  1.00  0.00     0.084 A 
ATOM     95  C   UNL A   1      30.060  24.908  24.224  1.00  0.00     0.030 A 
ATOM     96  C   UNL A   1      31.291  23.545  25.721  1.00  0.00     0.149 A 
ATOM     97  C   UNL A   1      30.412  24.070  23.160  1.00  0.00     0.002 A 
ATOM     98  C   UNL A   1      31.813  22.855  24.649  1.00  0.00     0.049 A 
ATOM     99  C   UNL A   1      31.401  23.119  23.351  1.00  0.00     0.004 A 
BRANCH  96 100
ATOM    100  O   UNL A   1      31.467  23.027  26.949  1.00  0.00    -0.433 OA
BRANCH 100 101
ATOM    101  C   UNL A   1      32.755  22.573  27.365  1.00  0.00     0.542 C 
ATOM    102  F   UNL A   1      33.624  23.607  27.243  1.00  0.00    -0.167 F 
ATOM    103  F   UNL A   1      32.778  22.145  28.647  1.00  0.00    -0.167 F 
ENDBRANCH 100 101
ENDBRANCH  96 100
ENDBRANCH  92  94
ENDBRANCH  84  90
ENDBRANCH  81  83
ENDBRANCH  80  81
ENDBRANCH  79  80
ENDBRANCH  78  79
ENDBRANCH  77  78
ENDBRANCH  76  77
ENDBRANCH   1  76
TORSDOF 27
ENDMDL
MODEL 3
REMARK VINA RESULT:      -8.9      4.849     11.060
REMARK SMILES O=C(OCCOCCOCCOCCOC(=O)[C@@H]1[C@H](C(=O)Nc2ccccc2OC(F)F)[C@@H]2C=C[C@H]1C2)c1ccc(-c2c3nc(c(-c4cccc(S(=O)(=O)[O-])c4F)c4ccc([nH]4)c(-c4cccc(S(=O)(=O)[O-])c4F)c4nc(c(-c5cccc(S(=O)(=O)[O-])c5F)c5ccc2[nH]5)C=C4)C=C3)cc1
REMARK SMILES IDX 10 1 9 2 8 3 7 4 6 5 5 6 4 7 3 8 2 9 1 10 38 11 39 12 100 13
REMARK SMILES IDX 40 14 99 15 41 16 42 17 43 18 93 19 44 20 98 21 92 22 94 23
REMARK SMILES IDX 45 24 97 25 91 26 90 27 46 29 78 30 58 31 77 32 59 33 62 34
REMARK SMILES IDX 76 35 95 36 60 37 61 38 75 40 96 41 63 42 47 43 48 44 56 45
REMARK SMILES IDX 49 46 51 47 57 48 50 49 52 50 53 51 54 52 55 53 79 54 80 55
REMARK SMILES IDX 88 56 81 57 83 58 89 59 82 60 84 61 85 62 86 63 87 64 64 65
REMARK SMILES IDX 65 66 73 67 66 68 68 69 74 70 67 71 69 72 70 73 71 74 72 75
REMARK SMILES IDX 11 76 12 77 13 78 14 79 15 80 16 81 17 82 18 83 19 84 36 85
REMARK SMILES IDX 33 86 35 87 37 88 34 89 20 90 21 91 22 92 23 94 24 95 28 96
REMARK SMILES IDX 25 97 27 98 26 99 29 100 30 101 31 102 32 103
REMARK H PARENT 94 28 62 39 22 93
REMARK Flexibility Score: inf
ROOT
ATOM      1  C   UNL A   1      36.012  31.669  29.467  1.00  0.00     0.188 C 
ENDROOT
BRANCH   1   2
ATOM      2  O   UNL A   1      36.572  32.973  29.637  1.00  0.00    -0.377 OA
BRANCH   2   3
ATOM      3  C   UNL A   1      35.610  33.978  29.981  1.00  0.00     0.188 C 
BRANCH   3   4
ATOM      4  C   UNL A   1      34.360  33.304  30.534  1.00  0.00     0.188 C 
BRANCH   4   5
ATOM      5  O   UNL A   1      33.841  34.186  31.516  1.00  0.00    -0.376 OA
BRANCH   5   6
ATOM      6  C   UNL A   1      34.385  35.482  31.599  1.00  0.00     0.202 C 
BRANCH   6   7
ATOM      7  C   UNL A   1      34.540  35.902  33.056  1.00  0.00     0.261 C 
BRANCH   7   8
ATOM      8  O   UNL A   1      35.737  35.335  33.618  1.00  0.00    -0.460 OA
BRANCH   8   9
ATOM      9  C   UNL A   1      36.027  34.053  33.947  1.00  0.00     0.338 C 
ATOM     10  O   UNL A   1      35.186  33.440  34.606  1.00  0.00    -0.246 OA
BRANCH   9  11
ATOM     11  C   UNL A   1      37.304  33.328  33.618  1.00  0.00     0.060 A 
ATOM     12  C   UNL A   1      38.595  33.733  33.965  1.00  0.00     0.016 A 
ATOM     13  C   UNL A   1      37.173  32.079  32.981  1.00  0.00     0.016 A 
ATOM     14  C   UNL A   1      39.706  32.940  33.725  1.00  0.00     0.010 A 
ATOM     15  C   UNL A   1      38.292  31.288  32.688  1.00  0.00     0.010 A 
ATOM     16  C   UNL A   1      39.565  31.734  33.051  1.00  0.00    -0.014 A 
BRANCH  16  17
ATOM     17  C   UNL A   1      40.805  31.134  32.535  1.00  0.00     0.031 A 
ATOM     18  C   UNL A   1      41.510  31.872  31.435  1.00  0.00     0.074 A 
ATOM     19  C   UNL A   1      41.377  30.102  33.179  1.00  0.00     0.049 A 
ATOM     20  N   UNL A   1      42.640  31.598  30.846  1.00  0.00    -0.248 NA
ATOM     21  C   UNL A   1      40.868  33.112  30.957  1.00  0.00     0.031 C 
ATOM     22  C   UNL A   1      40.819  29.429  34.355  1.00  0.00     0.029 A 
ATOM     23  N   UNL A   1      42.563  29.459  32.954  1.00  0.00    -0.354 N 
ATOM     24  C   UNL A   1      42.826  32.609  29.911  1.00  0.00     0.074 A 
ATOM     25  C   UNL A   1      41.705  33.509  30.013  1.00  0.00     0.031 C 
ATOM     26  C   UNL A   1      41.659  28.453  34.738  1.00  0.00     0.029 A 
ATOM     27  C   UNL A   1      42.782  28.403  33.808  1.00  0.00     0.049 A 
ATOM     28  H   UNL A   1      43.198  29.727  32.251  1.00  0.00     0.167 HD
ATOM     29  C   UNL A   1      43.851  32.766  29.045  1.00  0.00     0.034 A 
ATOM     30  C   UNL A   1      43.764  27.482  33.797  1.00  0.00     0.034 A 
ATOM     31  C   UNL A   1      44.951  31.848  28.964  1.00  0.00     0.049 A 
ATOM     32  C   UNL A   1      44.842  27.624  32.753  1.00  0.00     0.074 A 
ATOM     33  C   UNL A   1      46.010  31.843  28.078  1.00  0.00     0.029 A 
ATOM     34  N   UNL A   1      45.120  30.758  29.806  1.00  0.00    -0.354 N 
ATOM     35  N   UNL A   1      45.007  28.573  31.859  1.00  0.00    -0.248 NA
ATOM     36  C   UNL A   1      45.881  26.588  32.724  1.00  0.00     0.031 C 
ATOM     37  C   UNL A   1      46.805  30.729  28.368  1.00  0.00     0.029 A 
ATOM     38  C   UNL A   1      46.265  30.067  29.462  1.00  0.00     0.049 A 
ATOM     39  H   UNL A   1      44.514  30.514  30.543  1.00  0.00     0.167 HD
ATOM     40  C   UNL A   1      46.177  28.262  31.179  1.00  0.00     0.074 A 
ATOM     41  C   UNL A   1      46.699  27.054  31.792  1.00  0.00     0.031 C 
ATOM     42  C   UNL A   1      46.763  28.892  30.131  1.00  0.00     0.034 A 
BRANCH  29  43
ATOM     43  C   UNL A   1      43.786  33.937  28.105  1.00  0.00     0.023 A 
ATOM     44  C   UNL A   1      43.419  33.748  26.758  1.00  0.00     0.012 A 
ATOM     45  C   UNL A   1      44.109  35.230  28.559  1.00  0.00     0.148 A 
ATOM     46  C   UNL A   1      43.408  34.823  25.869  1.00  0.00     0.002 A 
ATOM     47  C   UNL A   1      44.053  36.302  27.680  1.00  0.00     0.091 A 
ATOM     48  F   UNL A   1      44.486  35.381  29.838  1.00  0.00    -0.205 F 
ATOM     49  C   UNL A   1      43.717  36.100  26.332  1.00  0.00     0.022 A 
BRANCH  47  50
ATOM     50  S   UNL A   1      44.379  37.995  28.184  1.00  0.00     0.127 S 
ATOM     51  O   UNL A   1      45.640  37.853  28.905  1.00  0.00    -0.237 OA
ATOM     52  O   UNL A   1      44.478  38.680  26.901  1.00  0.00    -0.237 OA
ATOM     53  O   UNL A   1      43.241  38.395  29.010  1.00  0.00    -0.744 OA
ENDBRANCH  47  50
ENDBRANCH  29  43
BRANCH  30  54
ATOM     54  C   UNL A   1      43.753  26.336  34.754  1.00  0.00     0.023 A 
ATOM     55  C   UNL A   1      43.185  25.102  34.385  1.00  0.00     0.012 A 
ATOM     56  C   UNL A   1      44.284  26.478  36.054  1.00  0.00     0.148 A 
ATOM     57  C   UNL A   1      43.100  24.052  35.304  1.00  0.00     0.002 A 
ATOM     58  C   UNL A   1      44.254  25.410  36.942  1.00  0.00     0.091 A 
ATOM     59  F   UNL A   1      44.799  27.666  36.404  1.00  0.00    -0.205 F 
ATOM     60  C   UNL A   1      43.641  24.203  36.579  1.00  0.00     0.022 A 
BRANCH  58  61
ATOM     61  S   UNL A   1      45.041  25.483  38.556  1.00  0.00     0.127 S 
ATOM     62  O   UNL A   1      44.149  26.381  39.284  1.00  0.00    -0.237 OA
ATOM     63  O   UNL A   1      44.992  24.084  38.981  1.00  0.00    -0.237 OA
ATOM     64  O   UNL A   1      46.388  25.985  38.312  1.00  0.00    -0.744 OA
ENDBRANCH  58  61
ENDBRANCH  30  54
BRANCH  42  65
ATOM     65  C   UNL A   1      48.047  28.305  29.613  1.00  0.00     0.023 A 
ATOM     66  C   UNL A   1      49.278  28.709  30.164  1.00  0.00     0.012 A 
ATOM     67  C   UNL A   1      48.021  27.304  28.624  1.00  0.00     0.148 A 
ATOM     68  C   UNL A   1      50.471  28.155  29.706  1.00  0.00     0.002 A 
ATOM     69  C   UNL A   1      49.207  26.713  28.216  1.00  0.00     0.091 A 
ATOM     70  F   UNL A   1      46.836  26.949  28.103  1.00  0.00    -0.205 F 
ATOM     71  C   UNL A   1      50.435  27.149  28.742  1.00  0.00     0.022 A 
BRANCH  69  72
ATOM     72  S   UNL A   1      49.243  25.337  27.065  1.00  0.00     0.127 S 
ATOM     73  O   UNL A   1      49.036  26.012  25.786  1.00  0.00    -0.237 OA
ATOM     74  O   UNL A   1      50.592  24.804  27.264  1.00  0.00    -0.237 OA
ATOM     75  O   UNL A   1      48.173  24.439  27.481  1.00  0.00    -0.744 OA
ENDBRANCH  69  72
ENDBRANCH  42  65
ENDBRANCH  16  17
ENDBRANCH   9  11
ENDBRANCH   8   9
ENDBRANCH   7   8
ENDBRANCH   6   7
ENDBRANCH   5   6
ENDBRANCH   4   5
ENDBRANCH   3   4
ENDBRANCH   2   3
ENDBRANCH   1   2
BRANCH   1  76
ATOM     76  C   UNL A   1      36.967  30.669  28.823  1.00  0.00     0.188 C 
BRANCH  76  77
ATOM     77  O   UNL A   1      36.978  29.391  29.435  1.00  0.00    -0.376 OA
BRANCH  77  78
ATOM     78  C   UNL A   1      38.100  28.549  29.164  1.00  0.00     0.202 C 
BRANCH  78  79
ATOM     79  C   UNL A   1      39.259  28.482  30.185  1.00  0.00     0.261 C 
BRANCH  79  80
ATOM     80  O   UNL A   1      40.536  29.051  29.744  1.00  0.00    -0.463 OA
BRANCH  80  81
ATOM     81  C   UNL A   1      41.573  28.215  29.493  1.00  0.00     0.310 C 
ATOM     82  O   UNL A   1      42.139  27.626  30.418  1.00  0.00    -0.252 OA
BRANCH  81  83
ATOM     83  C   UNL A   1      42.031  27.963  28.011  1.00  0.00     0.119 C 
ATOM     84  C   UNL A   1      42.293  26.660  27.121  1.00  0.00     0.100 C 
ATOM     85  C   UNL A   1      42.575  29.125  27.109  1.00  0.00     0.027 C 
ATOM     86  C   UNL A   1      42.793  27.307  25.778  1.00  0.00     0.025 C 
ATOM     87  C   UNL A   1      44.035  28.974  26.753  1.00  0.00    -0.027 C 
ATOM     88  C   UNL A   1      42.032  28.645  25.734  1.00  0.00     0.017 C 
ATOM     89  C   UNL A   1      44.164  27.897  25.962  1.00  0.00    -0.027 C 
BRANCH  84  90
ATOM     90  C   UNL A   1      42.882  25.209  27.235  1.00  0.00     0.229 C 
ATOM     91  O   UNL A   1      44.121  25.118  27.339  1.00  0.00    -0.274 OA
ATOM     92  N   UNL A   1      42.241  24.022  27.465  1.00  0.00    -0.323 N 
ATOM     93  H   UNL A   1      42.833  23.290  27.756  1.00  0.00     0.170 HD
BRANCH  92  94
ATOM     94  C   UNL A   1      40.900  23.673  27.358  1.00  0.00     0.084 A 
ATOM     95  C   UNL A   1      39.895  24.639  27.276  1.00  0.00     0.030 A 
ATOM     96  C   UNL A   1      40.547  22.361  27.274  1.00  0.00     0.149 A 
ATOM     97  C   UNL A   1      38.655  24.293  26.726  1.00  0.00     0.002 A 
ATOM     98  C   UNL A   1      39.426  22.050  26.535  1.00  0.00     0.049 A 
ATOM     99  C   UNL A   1      38.473  23.012  26.230  1.00  0.00     0.004 A 
BRANCH  96 100
ATOM    100  O   UNL A   1      41.243  21.347  27.817  1.00  0.00    -0.433 OA
BRANCH 100 101
ATOM    101  C   UNL A   1      41.798  20.325  26.990  1.00  0.00     0.542 C 
ATOM    102  F   UNL A   1      42.996  20.763  26.528  1.00  0.00    -0.167 F 
ATOM    103  F   UNL A   1      41.993  19.159  27.646  1.00  0.00    -0.167 F 
ENDBRANCH 100 101
ENDBRANCH  96 100
ENDBRANCH  92  94
ENDBRANCH  84  90
ENDBRANCH  81  83
ENDBRANCH  80  81
ENDBRANCH  79  80
ENDBRANCH  78  79
ENDBRANCH  77  78
ENDBRANCH  76  77
ENDBRANCH   1  76
TORSDOF 27
ENDMDL
