MODEL 1
REMARK VINA RESULT:      -9.6      0.000      0.000
REMARK SMILES O=C(OCCOCCOCCOCCOC(=O)c1cc(-c2ccc(F)c(C(F)(F)F)c2)cnc1O)c1ccc(-c2c3nc(c(-c4cccc(S(=O)(=O)[O-])c4F)c4ccc([nH]4)c(-c4cccc(S(=O)(=O)[O-])c4F)c4nc(c(-c5cccc(S(=O)(=O)[O-])c5F)c5ccc2[nH]5)C=C4)C=C3)cc1
REMARK SMILES IDX 8 1 7 2 6 3 5 4 4 5 3 6 2 7 1 8 36 9 37 10 98 11 38 12 97 13
REMARK SMILES IDX 39 14 40 15 41 16 91 17 42 18 96 19 90 20 92 21 43 22 95 23
REMARK SMILES IDX 89 24 88 25 44 27 76 28 56 29 75 30 57 31 60 32 74 33 93 34
REMARK SMILES IDX 58 35 59 36 73 38 94 39 61 40 45 41 46 42 54 43 47 44 49 45
REMARK SMILES IDX 55 46 48 47 50 48 51 49 52 50 53 51 77 52 78 53 86 54 79 55
REMARK SMILES IDX 81 56 87 57 80 58 82 59 83 60 84 61 85 62 62 63 63 64 71 65
REMARK SMILES IDX 64 66 66 67 72 68 65 69 67 70 68 71 69 72 70 73 9 74 10 75
REMARK SMILES IDX 11 76 12 77 13 78 14 79 15 80 16 81 17 82 18 83 19 84 34 85
REMARK SMILES IDX 20 86 33 87 32 88 35 89 21 91 22 92 31 93 23 94 26 95 24 96
REMARK SMILES IDX 25 97 27 98 28 99 29 100 30 101
REMARK H PARENT 92 26 60 37 35 90
REMARK Flexibility Score: inf
ROOT
ATOM      1  C   UNL A   1      35.248  32.782  28.617  1.00  0.00     0.188 C 
ENDROOT
BRANCH   1   2
ATOM      2  C   UNL A   1      34.946  34.209  28.195  1.00  0.00     0.188 C 
BRANCH   2   3
ATOM      3  O   UNL A   1      33.678  34.758  28.525  1.00  0.00    -0.376 OA
BRANCH   3   4
ATOM      4  C   UNL A   1      33.448  36.140  28.724  1.00  0.00     0.202 C 
BRANCH   4   5
ATOM      5  C   UNL A   1      32.531  36.646  29.841  1.00  0.00     0.261 C 
BRANCH   5   6
ATOM      6  O   UNL A   1      33.041  36.535  31.171  1.00  0.00    -0.460 OA
BRANCH   6   7
ATOM      7  C   UNL A   1      32.829  35.387  31.870  1.00  0.00     0.338 C 
ATOM      8  O   UNL A   1      31.817  35.201  32.529  1.00  0.00    -0.246 OA
BRANCH   7   9
ATOM      9  C   UNL A   1      34.069  34.610  32.108  1.00  0.00     0.060 A 
ATOM     10  C   UNL A   1      35.288  35.200  31.745  1.00  0.00     0.016 A 
ATOM     11  C   UNL A   1      34.038  33.299  32.584  1.00  0.00     0.016 A 
ATOM     12  C   UNL A   1      36.469  34.460  31.810  1.00  0.00     0.010 A 
ATOM     13  C   UNL A   1      35.201  32.534  32.574  1.00  0.00     0.010 A 
ATOM     14  C   UNL A   1      36.430  33.122  32.228  1.00  0.00    -0.014 A 
BRANCH  14  15
ATOM     15  C   UNL A   1      37.661  32.446  32.688  1.00  0.00     0.031 A 
ATOM     16  C   UNL A   1      38.379  32.791  33.953  1.00  0.00     0.074 A 
ATOM     17  C   UNL A   1      38.163  31.541  31.825  1.00  0.00     0.049 A 
ATOM     18  N   UNL A   1      39.433  32.206  34.461  1.00  0.00    -0.248 NA
ATOM     19  C   UNL A   1      37.874  33.918  34.753  1.00  0.00     0.031 C 
ATOM     20  C   UNL A   1      37.559  31.201  30.529  1.00  0.00     0.029 A 
ATOM     21  N   UNL A   1      39.306  30.793  31.861  1.00  0.00    -0.354 N 
ATOM     22  C   UNL A   1      39.711  32.871  35.649  1.00  0.00     0.074 A 
ATOM     23  C   UNL A   1      38.727  33.926  35.776  1.00  0.00     0.031 C 
ATOM     24  C   UNL A   1      38.377  30.382  29.861  1.00  0.00     0.029 A 
ATOM     25  C   UNL A   1      39.530  30.093  30.701  1.00  0.00     0.049 A 
ATOM     26  H   UNL A   1      39.908  30.760  32.640  1.00  0.00     0.167 HD
ATOM     27  C   UNL A   1      40.687  32.589  36.545  1.00  0.00     0.034 A 
ATOM     28  C   UNL A   1      40.542  29.283  30.350  1.00  0.00     0.034 A 
ATOM     29  C   UNL A   1      41.654  31.532  36.372  1.00  0.00     0.049 A 
ATOM     30  C   UNL A   1      41.578  28.962  31.374  1.00  0.00     0.074 A 
ATOM     31  C   UNL A   1      42.617  31.097  37.266  1.00  0.00     0.029 A 
ATOM     32  N   UNL A   1      41.797  30.764  35.227  1.00  0.00    -0.354 N 
ATOM     33  N   UNL A   1      41.702  29.451  32.583  1.00  0.00    -0.248 NA
ATOM     34  C   UNL A   1      42.568  27.937  31.028  1.00  0.00     0.031 C 
ATOM     35  C   UNL A   1      43.351  30.077  36.657  1.00  0.00     0.029 A 
ATOM     36  C   UNL A   1      42.838  29.866  35.387  1.00  0.00     0.049 A 
ATOM     37  H   UNL A   1      41.240  30.845  34.419  1.00  0.00     0.167 HD
ATOM     38  C   UNL A   1      42.762  28.772  33.159  1.00  0.00     0.074 A 
ATOM     39  C   UNL A   1      43.247  27.833  32.165  1.00  0.00     0.031 C 
ATOM     40  C   UNL A   1      43.284  28.918  34.399  1.00  0.00     0.034 A 
BRANCH  27  41
ATOM     41  C   UNL A   1      40.728  33.335  37.854  1.00  0.00     0.023 A 
ATOM     42  C   UNL A   1      39.999  32.812  38.941  1.00  0.00     0.012 A 
ATOM     43  C   UNL A   1      41.636  34.392  38.074  1.00  0.00     0.148 A 
ATOM     44  C   UNL A   1      40.178  33.319  40.228  1.00  0.00     0.002 A 
ATOM     45  C   UNL A   1      41.825  34.878  39.365  1.00  0.00     0.091 A 
ATOM     46  F   UNL A   1      42.326  34.867  37.028  1.00  0.00    -0.205 F 
ATOM     47  C   UNL A   1      41.098  34.342  40.441  1.00  0.00     0.022 A 
BRANCH  45  48
ATOM     48  S   UNL A   1      43.033  36.146  39.771  1.00  0.00     0.127 S 
ATOM     49  O   UNL A   1      44.264  35.564  39.235  1.00  0.00    -0.237 OA
ATOM     50  O   UNL A   1      42.531  37.299  39.027  1.00  0.00    -0.237 OA
ATOM     51  O   UNL A   1      43.002  36.285  41.221  1.00  0.00    -0.744 OA
ENDBRANCH  45  48
ENDBRANCH  27  41
BRANCH  28  52
ATOM     52  C   UNL A   1      40.494  28.639  29.014  1.00  0.00     0.023 A 
ATOM     53  C   UNL A   1      41.020  29.329  27.907  1.00  0.00     0.012 A 
ATOM     54  C   UNL A   1      40.100  27.294  28.876  1.00  0.00     0.148 A 
ATOM     55  C   UNL A   1      41.150  28.689  26.675  1.00  0.00     0.002 A 
ATOM     56  C   UNL A   1      40.265  26.653  27.653  1.00  0.00     0.091 A 
ATOM     57  F   UNL A   1      39.621  26.658  29.954  1.00  0.00    -0.205 F 
ATOM     58  C   UNL A   1      40.783  27.352  26.551  1.00  0.00     0.022 A 
BRANCH  56  59
ATOM     59  S   UNL A   1      39.941  24.900  27.433  1.00  0.00     0.127 S 
ATOM     60  O   UNL A   1      40.885  24.303  28.376  1.00  0.00    -0.237 OA
ATOM     61  O   UNL A   1      38.534  24.799  27.822  1.00  0.00    -0.237 OA
ATOM     62  O   UNL A   1      40.196  24.624  26.026  1.00  0.00    -0.744 OA
ENDBRANCH  56  59
ENDBRANCH  28  52
BRANCH  40  63
ATOM     63  C   UNL A   1      44.450  28.051  34.770  1.00  0.00     0.023 A 
ATOM     64  C   UNL A   1      45.755  28.548  34.593  1.00  0.00     0.012 A 
ATOM     65  C   UNL A   1      44.250  26.818  35.418  1.00  0.00     0.148 A 
ATOM     66  C   UNL A   1      46.851  27.826  35.060  1.00  0.00     0.002 A 
ATOM     67  C   UNL A   1      45.345  26.120  35.910  1.00  0.00     0.091 A 
ATOM     68  F   UNL A   1      42.993  26.373  35.567  1.00  0.00    -0.205 F 
ATOM     69  C   UNL A   1      46.646  26.620  35.728  1.00  0.00     0.022 A 
BRANCH  67  70
ATOM     70  S   UNL A   1      45.184  24.594  36.843  1.00  0.00     0.127 S 
ATOM     71  O   UNL A   1      44.792  23.648  35.800  1.00  0.00    -0.237 OA
ATOM     72  O   UNL A   1      46.539  24.407  37.359  1.00  0.00    -0.237 OA
ATOM     73  O   UNL A   1      44.169  24.843  37.858  1.00  0.00    -0.744 OA
ENDBRANCH  67  70
ENDBRANCH  40  63
ENDBRANCH  14  15
ENDBRANCH   7   9
ENDBRANCH   6   7
ENDBRANCH   5   6
ENDBRANCH   4   5
ENDBRANCH   3   4
ENDBRANCH   2   3
ENDBRANCH   1   2
BRANCH   1  74
ATOM     74  O   UNL A   1      34.998  31.822  27.603  1.00  0.00    -0.377 OA
BRANCH  74  75
ATOM     75  C   UNL A   1      34.168  30.747  27.996  1.00  0.00     0.188 C 
BRANCH  75  76
ATOM     76  C   UNL A   1      34.110  29.523  27.055  1.00  0.00     0.188 C 
BRANCH  76  77
ATOM     77  O   UNL A   1      33.173  28.473  27.233  1.00  0.00    -0.376 OA
BRANCH  77  78
ATOM     78  C   UNL A   1      31.898  28.522  26.627  1.00  0.00     0.202 C 
BRANCH  78  79
ATOM     79  C   UNL A   1      31.831  28.793  25.117  1.00  0.00     0.261 C 
BRANCH  79  80
ATOM     80  O   UNL A   1      30.678  28.251  24.445  1.00  0.00    -0.459 OA
BRANCH  80  81
ATOM     81  C   UNL A   1      30.543  26.894  24.475  1.00  0.00     0.343 C 
ATOM     82  O   UNL A   1      29.633  26.254  24.950  1.00  0.00    -0.246 OA
BRANCH  81  83
ATOM     83  C   UNL A   1      31.615  26.303  23.646  1.00  0.00     0.122 A 
ATOM     84  C   UNL A   1      32.428  25.304  24.208  1.00  0.00     0.031 A 
ATOM     85  C   UNL A   1      31.763  26.589  22.296  1.00  0.00     0.225 A 
ATOM     86  C   UNL A   1      33.315  24.585  23.399  1.00  0.00     0.001 A 
ATOM     87  N   UNL A   1      32.674  25.984  21.508  1.00  0.00    -0.221 NA
ATOM     88  C   UNL A   1      33.414  24.998  22.070  1.00  0.00     0.124 A 
BRANCH  85  89
ATOM     89  O   UNL A   1      30.960  27.466  21.626  1.00  0.00    -0.493 OA
ATOM     90  H   UNL A   1      30.029  27.400  21.699  1.00  0.00     0.295 HD
ENDBRANCH  85  89
BRANCH  86  91
ATOM     91  C   UNL A   1      34.060  23.417  23.882  1.00  0.00    -0.016 A 
ATOM     92  C   UNL A   1      35.450  23.463  24.051  1.00  0.00     0.012 A 
ATOM     93  C   UNL A   1      33.394  22.201  24.147  1.00  0.00     0.025 A 
ATOM     94  C   UNL A   1      36.158  22.321  24.436  1.00  0.00     0.040 A 
ATOM     95  C   UNL A   1      34.097  21.050  24.546  1.00  0.00     0.092 A 
ATOM     96  C   UNL A   1      35.481  21.128  24.668  1.00  0.00     0.135 A 
ATOM     97  F   UNL A   1      36.187  20.039  25.000  1.00  0.00    -0.206 F 
BRANCH  95  98
ATOM     98  C   UNL A   1      33.413  19.740  24.797  1.00  0.00     0.419 C 
ATOM     99  F   UNL A   1      33.305  19.453  26.124  1.00  0.00    -0.166 F 
ATOM    100  F   UNL A   1      32.152  19.675  24.288  1.00  0.00    -0.166 F 
ATOM    101  F   UNL A   1      34.081  18.682  24.249  1.00  0.00    -0.166 F 
ENDBRANCH  95  98
ENDBRANCH  86  91
ENDBRANCH  81  83
ENDBRANCH  80  81
ENDBRANCH  79  80
ENDBRANCH  78  79
ENDBRANCH  77  78
ENDBRANCH  76  77
ENDBRANCH  75  76
ENDBRANCH  74  75
ENDBRANCH   1  74
TORSDOF 26
ENDMDL
MODEL 2
REMARK VINA RESULT:      -9.4      1.912      2.409
REMARK SMILES O=C(OCCOCCOCCOCCOC(=O)c1cc(-c2ccc(F)c(C(F)(F)F)c2)cnc1O)c1ccc(-c2c3nc(c(-c4cccc(S(=O)(=O)[O-])c4F)c4ccc([nH]4)c(-c4cccc(S(=O)(=O)[O-])c4F)c4nc(c(-c5cccc(S(=O)(=O)[O-])c5F)c5ccc2[nH]5)C=C4)C=C3)cc1
REMARK SMILES IDX 8 1 7 2 6 3 5 4 4 5 3 6 2 7 1 8 36 9 37 10 98 11 38 12 97 13
REMARK SMILES IDX 39 14 40 15 41 16 91 17 42 18 96 19 90 20 92 21 43 22 95 23
REMARK SMILES IDX 89 24 88 25 44 27 76 28 56 29 75 30 57 31 60 32 74 33 93 34
REMARK SMILES IDX 58 35 59 36 73 38 94 39 61 40 45 41 46 42 54 43 47 44 49 45
REMARK SMILES IDX 55 46 48 47 50 48 51 49 52 50 53 51 77 52 78 53 86 54 79 55
REMARK SMILES IDX 81 56 87 57 80 58 82 59 83 60 84 61 85 62 62 63 63 64 71 65
REMARK SMILES IDX 64 66 66 67 72 68 65 69 67 70 68 71 69 72 70 73 9 74 10 75
REMARK SMILES IDX 11 76 12 77 13 78 14 79 15 80 16 81 17 82 18 83 19 84 34 85
REMARK SMILES IDX 20 86 33 87 32 88 35 89 21 91 22 92 31 93 23 94 26 95 24 96
REMARK SMILES IDX 25 97 27 98 28 99 29 100 30 101
REMARK H PARENT 92 26 60 37 35 90
REMARK Flexibility Score: inf
ROOT
ATOM      1  C   UNL A   1      35.025  29.859  27.366  1.00  0.00     0.188 C 
ENDROOT
BRANCH   1   2
ATOM      2  C   UNL A   1      35.376  31.212  27.958  1.00  0.00     0.188 C 
BRANCH   2   3
ATOM      3  O   UNL A   1      34.319  32.061  28.380  1.00  0.00    -0.376 OA
BRANCH   3   4
ATOM      4  C   UNL A   1      34.021  33.307  27.776  1.00  0.00     0.202 C 
BRANCH   4   5
ATOM      5  C   UNL A   1      32.907  34.209  28.311  1.00  0.00     0.261 C 
BRANCH   5   6
ATOM      6  O   UNL A   1      33.311  35.231  29.225  1.00  0.00    -0.460 OA
BRANCH   6   7
ATOM      7  C   UNL A   1      33.318  34.963  30.560  1.00  0.00     0.338 C 
ATOM      8  O   UNL A   1      32.617  35.576  31.352  1.00  0.00    -0.246 OA
BRANCH   7   9
ATOM      9  C   UNL A   1      34.517  34.210  30.998  1.00  0.00     0.060 A 
ATOM     10  C   UNL A   1      35.757  34.587  30.462  1.00  0.00     0.016 A 
ATOM     11  C   UNL A   1      34.424  33.098  31.836  1.00  0.00     0.016 A 
ATOM     12  C   UNL A   1      36.894  33.821  30.725  1.00  0.00     0.010 A 
ATOM     13  C   UNL A   1      35.539  32.288  32.035  1.00  0.00     0.010 A 
ATOM     14  C   UNL A   1      36.789  32.668  31.516  1.00  0.00    -0.014 A 
BRANCH  14  15
ATOM     15  C   UNL A   1      37.992  32.075  32.138  1.00  0.00     0.031 A 
ATOM     16  C   UNL A   1      38.648  32.616  33.367  1.00  0.00     0.074 A 
ATOM     17  C   UNL A   1      38.531  31.047  31.453  1.00  0.00     0.049 A 
ATOM     18  N   UNL A   1      39.672  32.121  34.013  1.00  0.00    -0.248 NA
ATOM     19  C   UNL A   1      38.110  33.853  33.954  1.00  0.00     0.031 C 
ATOM     20  C   UNL A   1      37.990  30.507  30.197  1.00  0.00     0.029 A 
ATOM     21  N   UNL A   1      39.666  30.318  31.663  1.00  0.00    -0.354 N 
ATOM     22  C   UNL A   1      39.894  32.964  35.094  1.00  0.00     0.074 A 
ATOM     23  C   UNL A   1      38.911  34.024  35.004  1.00  0.00     0.031 C 
ATOM     24  C   UNL A   1      38.836  29.596  29.708  1.00  0.00     0.029 A 
ATOM     25  C   UNL A   1      39.944  29.445  30.640  1.00  0.00     0.049 A 
ATOM     26  H   UNL A   1      40.228  30.408  32.466  1.00  0.00     0.167 HD
ATOM     27  C   UNL A   1      40.823  32.829  36.071  1.00  0.00     0.034 A 
ATOM     28  C   UNL A   1      40.968  28.592  30.471  1.00  0.00     0.034 A 
ATOM     29  C   UNL A   1      41.791  31.760  36.114  1.00  0.00     0.049 A 
ATOM     30  C   UNL A   1      41.950  28.438  31.583  1.00  0.00     0.074 A 
ATOM     31  C   UNL A   1      42.706  31.473  37.112  1.00  0.00     0.029 A 
ATOM     32  N   UNL A   1      41.986  30.822  35.112  1.00  0.00    -0.354 N 
ATOM     33  N   UNL A   1      42.016  29.111  32.705  1.00  0.00    -0.248 NA
ATOM     34  C   UNL A   1      42.950  27.374  31.451  1.00  0.00     0.031 C 
ATOM     35  C   UNL A   1      43.464  30.371  36.708  1.00  0.00     0.029 A 
ATOM     36  C   UNL A   1      43.013  29.963  35.463  1.00  0.00     0.049 A 
ATOM     37  H   UNL A   1      41.471  30.774  34.275  1.00  0.00     0.167 HD
ATOM     38  C   UNL A   1      43.042  28.533  33.432  1.00  0.00     0.074 A 
ATOM     39  C   UNL A   1      43.571  27.451  32.623  1.00  0.00     0.031 C 
ATOM     40  C   UNL A   1      43.503  28.873  34.659  1.00  0.00     0.034 A 
BRANCH  27  41
ATOM     41  C   UNL A   1      40.802  33.771  37.247  1.00  0.00     0.023 A 
ATOM     42  C   UNL A   1      41.458  35.012  37.117  1.00  0.00     0.012 A 
ATOM     43  C   UNL A   1      39.973  33.541  38.363  1.00  0.00     0.148 A 
ATOM     44  C   UNL A   1      41.283  36.013  38.072  1.00  0.00     0.002 A 
ATOM     45  C   UNL A   1      39.785  34.553  39.301  1.00  0.00     0.091 A 
ATOM     46  F   UNL A   1      39.350  32.358  38.461  1.00  0.00    -0.205 F 
ATOM     47  C   UNL A   1      40.439  35.788  39.155  1.00  0.00     0.022 A 
BRANCH  45  48
ATOM     48  S   UNL A   1      38.666  34.403  40.700  1.00  0.00     0.127 S 
ATOM     49  O   UNL A   1      38.133  35.762  40.799  1.00  0.00    -0.237 OA
ATOM     50  O   UNL A   1      37.708  33.407  40.223  1.00  0.00    -0.237 OA
ATOM     51  O   UNL A   1      39.484  33.981  41.829  1.00  0.00    -0.744 OA
ENDBRANCH  45  48
ENDBRANCH  27  41
BRANCH  28  52
ATOM     52  C   UNL A   1      40.983  27.747  29.251  1.00  0.00     0.023 A 
ATOM     53  C   UNL A   1      40.017  26.733  29.114  1.00  0.00     0.012 A 
ATOM     54  C   UNL A   1      41.825  28.061  28.166  1.00  0.00     0.148 A 
ATOM     55  C   UNL A   1      39.892  26.039  27.911  1.00  0.00     0.002 A 
ATOM     56  C   UNL A   1      41.670  27.387  26.960  1.00  0.00     0.091 A 
ATOM     57  F   UNL A   1      42.721  29.045  28.323  1.00  0.00    -0.205 F 
ATOM     58  C   UNL A   1      40.709  26.372  26.834  1.00  0.00     0.022 A 
BRANCH  56  59
ATOM     59  S   UNL A   1      42.589  27.834  25.482  1.00  0.00     0.127 S 
ATOM     60  O   UNL A   1      42.381  26.659  24.638  1.00  0.00    -0.237 OA
ATOM     61  O   UNL A   1      41.887  29.040  25.042  1.00  0.00    -0.237 OA
ATOM     62  O   UNL A   1      43.958  28.062  25.921  1.00  0.00    -0.744 OA
ENDBRANCH  56  59
ENDBRANCH  28  52
BRANCH  40  63
ATOM     63  C   UNL A   1      44.644  28.078  35.219  1.00  0.00     0.023 A 
ATOM     64  C   UNL A   1      45.959  28.547  35.037  1.00  0.00     0.012 A 
ATOM     65  C   UNL A   1      44.406  26.957  36.036  1.00  0.00     0.148 A 
ATOM     66  C   UNL A   1      47.026  27.909  35.666  1.00  0.00     0.002 A 
ATOM     67  C   UNL A   1      45.470  26.346  36.685  1.00  0.00     0.091 A 
ATOM     68  F   UNL A   1      43.141  26.534  36.184  1.00  0.00    -0.205 F 
ATOM     69  C   UNL A   1      46.781  26.819  36.498  1.00  0.00     0.022 A 
BRANCH  67  70
ATOM     70  S   UNL A   1      45.254  24.980  37.831  1.00  0.00     0.127 S 
ATOM     71  O   UNL A   1      45.076  23.852  36.917  1.00  0.00    -0.237 OA
ATOM     72  O   UNL A   1      46.524  24.985  38.555  1.00  0.00    -0.237 OA
ATOM     73  O   UNL A   1      44.085  25.307  38.637  1.00  0.00    -0.744 OA
ENDBRANCH  67  70
ENDBRANCH  40  63
ENDBRANCH  14  15
ENDBRANCH   7   9
ENDBRANCH   6   7
ENDBRANCH   5   6
ENDBRANCH   4   5
ENDBRANCH   3   4
ENDBRANCH   2   3
ENDBRANCH   1   2
BRANCH   1  74
ATOM     74  O   UNL A   1      33.821  29.859  26.615  1.00  0.00    -0.377 OA
BRANCH  74  75
ATOM     75  C   UNL A   1      32.692  29.359  27.303  1.00  0.00     0.188 C 
BRANCH  75  76
ATOM     76  C   UNL A   1      31.776  28.382  26.534  1.00  0.00     0.188 C 
BRANCH  76  77
ATOM     77  O   UNL A   1      31.136  28.740  25.319  1.00  0.00    -0.376 OA
BRANCH  77  78
ATOM     78  C   UNL A   1      31.863  29.316  24.253  1.00  0.00     0.202 C 
BRANCH  78  79
ATOM     79  C   UNL A   1      32.509  28.370  23.232  1.00  0.00     0.261 C 
BRANCH  79  80
ATOM     80  O   UNL A   1      31.592  27.710  22.338  1.00  0.00    -0.459 OA
BRANCH  80  81
ATOM     81  C   UNL A   1      31.012  26.565  22.803  1.00  0.00     0.343 C 
ATOM     82  O   UNL A   1      29.896  26.432  23.249  1.00  0.00    -0.246 OA
BRANCH  81  83
ATOM     83  C   UNL A   1      31.911  25.433  22.494  1.00  0.00     0.122 A 
ATOM     84  C   UNL A   1      32.040  24.399  23.438  1.00  0.00     0.031 A 
ATOM     85  C   UNL A   1      32.523  25.276  21.258  1.00  0.00     0.225 A 
ATOM     86  C   UNL A   1      32.719  23.223  23.100  1.00  0.00     0.001 A 
ATOM     87  N   UNL A   1      33.266  24.199  20.934  1.00  0.00    -0.221 NA
ATOM     88  C   UNL A   1      33.337  23.203  21.849  1.00  0.00     0.124 A 
BRANCH  85  89
ATOM     89  O   UNL A   1      32.381  26.168  20.236  1.00  0.00    -0.493 OA
ATOM     90  H   UNL A   1      32.080  27.037  20.410  1.00  0.00     0.295 HD
ENDBRANCH  85  89
BRANCH  86  91
ATOM     91  C   UNL A   1      32.738  22.041  23.969  1.00  0.00    -0.016 A 
ATOM     92  C   UNL A   1      32.883  22.164  25.357  1.00  0.00     0.012 A 
ATOM     93  C   UNL A   1      32.654  20.745  23.418  1.00  0.00     0.025 A 
ATOM     94  C   UNL A   1      32.979  21.029  26.166  1.00  0.00     0.040 A 
ATOM     95  C   UNL A   1      32.738  19.596  24.226  1.00  0.00     0.092 A 
ATOM     96  C   UNL A   1      32.917  19.761  25.595  1.00  0.00     0.135 A 
ATOM     97  F   UNL A   1      33.048  18.689  26.388  1.00  0.00    -0.206 F 
BRANCH  95  98
ATOM     98  C   UNL A   1      32.686  18.211  23.656  1.00  0.00     0.419 C 
ATOM     99  F   UNL A   1      32.140  18.178  22.408  1.00  0.00    -0.166 F 
ATOM    100  F   UNL A   1      33.906  17.614  23.554  1.00  0.00    -0.166 F 
ATOM    101  F   UNL A   1      31.927  17.359  24.406  1.00  0.00    -0.166 F 
ENDBRANCH  95  98
ENDBRANCH  86  91
ENDBRANCH  81  83
ENDBRANCH  80  81
ENDBRANCH  79  80
ENDBRANCH  78  79
ENDBRANCH  77  78
ENDBRANCH  76  77
ENDBRANCH  75  76
ENDBRANCH  74  75
ENDBRANCH   1  74
TORSDOF 26
ENDMDL
MODEL 3
REMARK VINA RESULT:      -9.0      4.631     12.194
REMARK SMILES O=C(OCCOCCOCCOCCOC(=O)c1cc(-c2ccc(F)c(C(F)(F)F)c2)cnc1O)c1ccc(-c2c3nc(c(-c4cccc(S(=O)(=O)[O-])c4F)c4ccc([nH]4)c(-c4cccc(S(=O)(=O)[O-])c4F)c4nc(c(-c5cccc(S(=O)(=O)[O-])c5F)c5ccc2[nH]5)C=C4)C=C3)cc1
REMARK SMILES IDX 8 1 7 2 6 3 5 4 4 5 3 6 2 7 1 8 36 9 37 10 98 11 38 12 97 13
REMARK SMILES IDX 39 14 40 15 41 16 91 17 42 18 96 19 90 20 92 21 43 22 95 23
REMARK SMILES IDX 89 24 88 25 44 27 76 28 56 29 75 30 57 31 60 32 74 33 93 34
REMARK SMILES IDX 58 35 59 36 73 38 94 39 61 40 45 41 46 42 54 43 47 44 49 45
REMARK SMILES IDX 55 46 48 47 50 48 51 49 52 50 53 51 77 52 78 53 86 54 79 55
REMARK SMILES IDX 81 56 87 57 80 58 82 59 83 60 84 61 85 62 62 63 63 64 71 65
REMARK SMILES IDX 64 66 66 67 72 68 65 69 67 70 68 71 69 72 70 73 9 74 10 75
REMARK SMILES IDX 11 76 12 77 13 78 14 79 15 80 16 81 17 82 18 83 19 84 34 85
REMARK SMILES IDX 20 86 33 87 32 88 35 89 21 91 22 92 31 93 23 94 26 95 24 96
REMARK SMILES IDX 25 97 27 98 28 99 29 100 30 101
REMARK H PARENT 92 26 60 37 35 90
REMARK Flexibility Score: inf
ROOT
ATOM      1  C   UNL A   1      39.681  30.518  43.890  1.00  0.00     0.188 C 
ENDROOT
BRANCH   1   2
ATOM      2  C   UNL A   1      38.520  29.937  43.102  1.00  0.00     0.188 C 
BRANCH   2   3
ATOM      3  O   UNL A   1      37.347  30.723  42.948  1.00  0.00    -0.376 OA
BRANCH   3   4
ATOM      4  C   UNL A   1      37.242  31.812  42.049  1.00  0.00     0.202 C 
BRANCH   4   5
ATOM      5  C   UNL A   1      36.223  31.812  40.907  1.00  0.00     0.261 C 
BRANCH   5   6
ATOM      6  O   UNL A   1      36.396  32.821  39.910  1.00  0.00    -0.460 OA
BRANCH   6   7
ATOM      7  C   UNL A   1      37.652  33.121  39.480  1.00  0.00     0.338 C 
ATOM      8  O   UNL A   1      38.300  34.045  39.949  1.00  0.00    -0.246 OA
BRANCH   7   9
ATOM      9  C   UNL A   1      37.971  32.538  38.155  1.00  0.00     0.060 A 
ATOM     10  C   UNL A   1      38.403  33.410  37.145  1.00  0.00     0.016 A 
ATOM     11  C   UNL A   1      37.761  31.188  37.873  1.00  0.00     0.016 A 
ATOM     12  C   UNL A   1      38.575  32.940  35.843  1.00  0.00     0.010 A 
ATOM     13  C   UNL A   1      37.855  30.733  36.560  1.00  0.00     0.010 A 
ATOM     14  C   UNL A   1      38.302  31.597  35.545  1.00  0.00    -0.014 A 
BRANCH  14  15
ATOM     15  C   UNL A   1      38.843  30.978  34.316  1.00  0.00     0.031 A 
ATOM     16  C   UNL A   1      38.088  30.883  33.029  1.00  0.00     0.074 A 
ATOM     17  C   UNL A   1      40.053  30.404  34.460  1.00  0.00     0.049 A 
ATOM     18  N   UNL A   1      38.511  30.408  31.886  1.00  0.00    -0.248 NA
ATOM     19  C   UNL A   1      36.699  31.367  33.002  1.00  0.00     0.031 C 
ATOM     20  C   UNL A   1      40.825  30.389  35.712  1.00  0.00     0.029 A 
ATOM     21  N   UNL A   1      40.818  29.678  33.593  1.00  0.00    -0.354 N 
ATOM     22  C   UNL A   1      37.458  30.554  30.992  1.00  0.00     0.074 A 
ATOM     23  C   UNL A   1      36.359  31.139  31.734  1.00  0.00     0.031 C 
ATOM     24  C   UNL A   1      41.906  29.619  35.553  1.00  0.00     0.029 A 
ATOM     25  C   UNL A   1      41.936  29.137  34.181  1.00  0.00     0.049 A 
ATOM     26  H   UNL A   1      40.592  29.554  32.643  1.00  0.00     0.167 HD
ATOM     27  C   UNL A   1      37.443  30.244  29.674  1.00  0.00     0.034 A 
ATOM     28  C   UNL A   1      42.900  28.354  33.671  1.00  0.00     0.034 A 
ATOM     29  C   UNL A   1      38.560  29.652  28.977  1.00  0.00     0.049 A 
ATOM     30  C   UNL A   1      42.876  28.065  32.207  1.00  0.00     0.074 A 
ATOM     31  C   UNL A   1      38.686  29.395  27.623  1.00  0.00     0.029 A 
ATOM     32  N   UNL A   1      39.726  29.206  29.578  1.00  0.00    -0.354 N 
ATOM     33  N   UNL A   1      41.962  28.398  31.330  1.00  0.00    -0.248 NA
ATOM     34  C   UNL A   1      44.034  27.363  31.644  1.00  0.00     0.031 C 
ATOM     35  C   UNL A   1      39.921  28.780  27.407  1.00  0.00     0.029 A 
ATOM     36  C   UNL A   1      40.572  28.665  28.625  1.00  0.00     0.049 A 
ATOM     37  H   UNL A   1      39.924  29.264  30.541  1.00  0.00     0.167 HD
ATOM     38  C   UNL A   1      42.445  27.978  30.103  1.00  0.00     0.074 A 
ATOM     39  C   UNL A   1      43.737  27.365  30.350  1.00  0.00     0.031 C 
ATOM     40  C   UNL A   1      41.866  28.090  28.885  1.00  0.00     0.034 A 
BRANCH  27  41
ATOM     41  C   UNL A   1      36.248  30.621  28.838  1.00  0.00     0.023 A 
ATOM     42  C   UNL A   1      35.482  29.585  28.265  1.00  0.00     0.012 A 
ATOM     43  C   UNL A   1      35.758  31.943  28.803  1.00  0.00     0.148 A 
ATOM     44  C   UNL A   1      34.245  29.854  27.680  1.00  0.00     0.002 A 
ATOM     45  C   UNL A   1      34.513  32.201  28.236  1.00  0.00     0.091 A 
ATOM     46  F   UNL A   1      36.497  32.911  29.362  1.00  0.00    -0.205 F 
ATOM     47  C   UNL A   1      33.756  31.157  27.676  1.00  0.00     0.022 A 
BRANCH  45  48
ATOM     48  S   UNL A   1      33.749  33.828  28.236  1.00  0.00     0.127 S 
ATOM     49  O   UNL A   1      32.489  33.563  27.540  1.00  0.00    -0.237 OA
ATOM     50  O   UNL A   1      33.607  34.101  29.666  1.00  0.00    -0.237 OA
ATOM     51  O   UNL A   1      34.668  34.707  27.528  1.00  0.00    -0.744 OA
ENDBRANCH  45  48
ENDBRANCH  27  41
BRANCH  28  52
ATOM     52  C   UNL A   1      44.012  27.940  34.562  1.00  0.00     0.023 A 
ATOM     53  C   UNL A   1      44.985  28.891  34.923  1.00  0.00     0.012 A 
ATOM     54  C   UNL A   1      44.005  26.678  35.187  1.00  0.00     0.148 A 
ATOM     55  C   UNL A   1      45.940  28.588  35.891  1.00  0.00     0.002 A 
ATOM     56  C   UNL A   1      44.940  26.396  36.176  1.00  0.00     0.091 A 
ATOM     57  F   UNL A   1      43.053  25.801  34.835  1.00  0.00    -0.205 F 
ATOM     58  C   UNL A   1      45.912  27.347  36.524  1.00  0.00     0.022 A 
BRANCH  56  59
ATOM     59  S   UNL A   1      44.901  24.876  37.134  1.00  0.00     0.127 S 
ATOM     60  O   UNL A   1      43.815  25.146  38.073  1.00  0.00    -0.237 OA
ATOM     61  O   UNL A   1      44.595  23.879  36.109  1.00  0.00    -0.237 OA
ATOM     62  O   UNL A   1      46.226  24.746  37.723  1.00  0.00    -0.744 OA
ENDBRANCH  56  59
ENDBRANCH  28  52
BRANCH  40  63
ATOM     63  C   UNL A   1      42.611  27.537  27.707  1.00  0.00     0.023 A 
ATOM     64  C   UNL A   1      43.471  28.383  26.982  1.00  0.00     0.012 A 
ATOM     65  C   UNL A   1      42.567  26.161  27.411  1.00  0.00     0.148 A 
ATOM     66  C   UNL A   1      44.283  27.865  25.976  1.00  0.00     0.002 A 
ATOM     67  C   UNL A   1      43.402  25.647  26.429  1.00  0.00     0.091 A 
ATOM     68  F   UNL A   1      41.733  25.384  28.119  1.00  0.00    -0.205 F 
ATOM     69  C   UNL A   1      44.258  26.498  25.708  1.00  0.00     0.022 A 
BRANCH  67  70
ATOM     70  S   UNL A   1      43.496  23.893  26.056  1.00  0.00     0.127 S 
ATOM     71  O   UNL A   1      44.809  23.543  26.596  1.00  0.00    -0.237 OA
ATOM     72  O   UNL A   1      42.363  23.359  26.812  1.00  0.00    -0.237 OA
ATOM     73  O   UNL A   1      43.377  23.778  24.608  1.00  0.00    -0.744 OA
ENDBRANCH  67  70
ENDBRANCH  40  63
ENDBRANCH  14  15
ENDBRANCH   7   9
ENDBRANCH   6   7
ENDBRANCH   5   6
ENDBRANCH   4   5
ENDBRANCH   3   4
ENDBRANCH   2   3
ENDBRANCH   1   2
BRANCH   1  74
ATOM     74  O   UNL A   1      40.594  31.262  43.099  1.00  0.00    -0.377 OA
BRANCH  74  75
ATOM     75  C   UNL A   1      41.886  30.699  42.996  1.00  0.00     0.188 C 
BRANCH  75  76
ATOM     76  C   UNL A   1      42.874  31.381  42.024  1.00  0.00     0.188 C 
BRANCH  76  77
ATOM     77  O   UNL A   1      42.605  31.515  40.638  1.00  0.00    -0.376 OA
BRANCH  77  78
ATOM     78  C   UNL A   1      41.576  32.364  40.173  1.00  0.00     0.202 C 
BRANCH  78  79
ATOM     79  C   UNL A   1      41.716  32.955  38.763  1.00  0.00     0.261 C 
BRANCH  79  80
ATOM     80  O   UNL A   1      42.396  34.223  38.692  1.00  0.00    -0.459 OA
BRANCH  80  81
ATOM     81  C   UNL A   1      43.031  34.504  37.518  1.00  0.00     0.343 C 
ATOM     82  O   UNL A   1      44.147  34.174  37.185  1.00  0.00    -0.246 OA
BRANCH  81  83
ATOM     83  C   UNL A   1      42.055  35.130  36.601  1.00  0.00     0.122 A 
ATOM     84  C   UNL A   1      41.945  34.631  35.292  1.00  0.00     0.031 A 
ATOM     85  C   UNL A   1      41.146  36.093  37.016  1.00  0.00     0.225 A 
ATOM     86  C   UNL A   1      40.901  35.060  34.464  1.00  0.00     0.001 A 
ATOM     87  N   UNL A   1      40.189  36.600  36.214  1.00  0.00    -0.221 NA
ATOM     88  C   UNL A   1      40.083  36.069  34.973  1.00  0.00     0.124 A 
BRANCH  85  89
ATOM     89  O   UNL A   1      41.098  36.573  38.293  1.00  0.00    -0.493 OA
ATOM     90  H   UNL A   1      40.353  36.398  38.832  1.00  0.00     0.295 HD
ENDBRANCH  85  89
BRANCH  86  91
ATOM     91  C   UNL A   1      40.624  34.453  33.157  1.00  0.00    -0.016 A 
ATOM     92  C   UNL A   1      39.348  34.518  32.584  1.00  0.00     0.012 A 
ATOM     93  C   UNL A   1      41.632  33.748  32.466  1.00  0.00     0.025 A 
ATOM     94  C   UNL A   1      39.076  33.868  31.377  1.00  0.00     0.040 A 
ATOM     95  C   UNL A   1      41.370  33.100  31.245  1.00  0.00     0.092 A 
ATOM     96  C   UNL A   1      40.081  33.159  30.727  1.00  0.00     0.135 A 
ATOM     97  F   UNL A   1      39.785  32.515  29.590  1.00  0.00    -0.206 F 
BRANCH  95  98
ATOM     98  C   UNL A   1      42.418  32.316  30.514  1.00  0.00     0.419 C 
ATOM     99  F   UNL A   1      43.388  33.110  29.980  1.00  0.00    -0.166 F 
ATOM    100  F   UNL A   1      43.059  31.401  31.291  1.00  0.00    -0.166 F 
ATOM    101  F   UNL A   1      41.910  31.608  29.462  1.00  0.00    -0.166 F 
ENDBRANCH  95  98
ENDBRANCH  86  91
ENDBRANCH  81  83
ENDBRANCH  80  81
ENDBRANCH  79  80
ENDBRANCH  78  79
ENDBRANCH  77  78
ENDBRANCH  76  77
ENDBRANCH  75  76
ENDBRANCH  74  75
ENDBRANCH   1  74
TORSDOF 26
ENDMDL
