MODEL 1
REMARK VINA RESULT:      -7.5      0.000      0.000
REMARK SMILES CCCN(C(=O)Cc1c(C(=O)OCCOCCOCCOCCOC(=O)c2ccc(-c3c4nc(c(-c5cccc(S(=O)(=O)[O-])c5F)c5ccc([nH]5)c(-c5cccc(S(=O)(=O)[O-])c5F)c5nc(c(-c6cccc(S(=O)(=O)[O-])c6F)c6ccc3[nH]6)C=C5)C=C4)cc2)c(C)cn1CC)c1cccc(Cl)c1
REMARK SMILES IDX 17 1 16 2 15 3 14 4 13 5 12 6 10 7 11 8 9 9 8 10 93 11 90 12
REMARK SMILES IDX 92 13 91 14 7 15 5 16 6 17 4 18 3 19 2 20 1 21 96 22 97 23
REMARK SMILES IDX 102 24 98 25 100 26 99 27 101 28 94 29 95 30 18 31 19 32
REMARK SMILES IDX 20 33 21 34 22 35 23 36 24 37 25 38 26 39 27 40 28 41 89 42
REMARK SMILES IDX 29 43 88 44 30 45 31 46 32 47 82 48 33 49 87 50 81 51 83 52
REMARK SMILES IDX 34 53 86 54 80 55 79 56 35 58 67 59 47 60 66 61 48 62 51 63
REMARK SMILES IDX 65 64 84 65 49 66 50 67 64 69 85 70 52 71 36 72 37 73 45 74
REMARK SMILES IDX 38 75 40 76 46 77 39 78 41 79 42 80 43 81 44 82 68 83 69 84
REMARK SMILES IDX 77 85 70 86 72 87 78 88 71 89 73 90 74 91 75 92 76 93 53 94
REMARK SMILES IDX 54 95 62 96 55 97 57 98 63 99 56 100 58 101 59 102 60 103
REMARK SMILES IDX 61 104
REMARK H PARENT 83 57 51 68
REMARK Flexibility Score: inf
ROOT
ATOM      1  C   UNL A   1      39.201  29.455  28.144  1.00  0.00     0.188 C 
ENDROOT
BRANCH   1   2
ATOM      2  C   UNL A   1      37.914  30.249  28.428  1.00  0.00     0.188 C 
BRANCH   2   3
ATOM      3  O   UNL A   1      36.808  29.992  27.583  1.00  0.00    -0.376 OA
BRANCH   3   4
ATOM      4  C   UNL A   1      35.590  29.463  28.065  1.00  0.00     0.202 C 
BRANCH   4   5
ATOM      5  C   UNL A   1      34.270  29.674  27.286  1.00  0.00     0.261 C 
BRANCH   5   6
ATOM      6  O   UNL A   1      33.630  28.527  26.702  1.00  0.00    -0.460 OA
BRANCH   6   7
ATOM      7  C   UNL A   1      32.277  28.514  26.799  1.00  0.00     0.340 C 
ATOM      8  O   UNL A   1      31.712  28.223  27.823  1.00  0.00    -0.246 OA
BRANCH   7   9
ATOM      9  C   UNL A   1      31.552  29.010  25.645  1.00  0.00     0.084 A 
ATOM     10  C   UNL A   1      31.170  28.250  24.521  1.00  0.00     0.042 A 
ATOM     11  N   UNL A   1      30.379  29.103  23.756  1.00  0.00    -0.350 N 
ATOM     12  C   UNL A   1      31.147  30.364  25.434  1.00  0.00    -0.019 A 
ATOM     13  C   UNL A   1      30.444  30.379  24.255  1.00  0.00     0.090 A 
ATOM     14  C   UNL A   1      31.441  31.531  26.312  1.00  0.00     0.047 C 
BRANCH  10  15
ATOM     15  C   UNL A   1      31.498  26.828  24.048  1.00  0.00     0.155 C 
BRANCH  15  16
ATOM     16  C   UNL A   1      32.961  26.405  23.911  1.00  0.00     0.232 C 
ATOM     17  O   UNL A   1      33.763  27.329  23.711  1.00  0.00    -0.274 OA
BRANCH  16  18
ATOM     18  N   UNL A   1      33.343  25.042  24.048  1.00  0.00    -0.312 N 
BRANCH  18  19
ATOM     19  C   UNL A   1      33.974  24.240  22.961  1.00  0.00     0.125 C 
BRANCH  19  20
ATOM     20  C   UNL A   1      33.185  23.203  22.117  1.00  0.00     0.019 C 
ATOM     21  C   UNL A   1      32.674  21.933  22.809  1.00  0.00     0.006 C 
ENDBRANCH  19  20
ENDBRANCH  18  19
BRANCH  18  22
ATOM     22  C   UNL A   1      33.084  24.361  25.317  1.00  0.00     0.045 A 
ATOM     23  C   UNL A   1      34.113  23.847  26.126  1.00  0.00     0.026 A 
ATOM     24  C   UNL A   1      31.774  24.103  25.743  1.00  0.00     0.046 A 
ATOM     25  C   UNL A   1      33.851  23.016  27.226  1.00  0.00     0.004 A 
ATOM     26  C   UNL A   1      31.510  23.224  26.803  1.00  0.00     0.043 A 
ATOM     27  C   UNL A   1      32.545  22.668  27.541  1.00  0.00     0.020 A 
ATOM     28  Cl  UNL A   1      29.883  22.766  27.139  1.00  0.00    -0.084 Cl
ENDBRANCH  18  22
ENDBRANCH  16  18
ENDBRANCH  15  16
ENDBRANCH  10  15
BRANCH  11  29
ATOM     29  C   UNL A   1      29.506  28.763  22.639  1.00  0.00     0.118 C 
ATOM     30  C   UNL A   1      28.025  28.987  22.886  1.00  0.00     0.027 C 
ENDBRANCH  11  29
ENDBRANCH   7   9
ENDBRANCH   6   7
ENDBRANCH   5   6
ENDBRANCH   4   5
ENDBRANCH   3   4
ENDBRANCH   2   3
ENDBRANCH   1   2
BRANCH   1  31
ATOM     31  O   UNL A   1      39.122  28.176  27.540  1.00  0.00    -0.377 OA
BRANCH  31  32
ATOM     32  C   UNL A   1      39.373  27.048  28.345  1.00  0.00     0.188 C 
BRANCH  32  33
ATOM     33  C   UNL A   1      39.902  27.319  29.771  1.00  0.00     0.188 C 
BRANCH  33  34
ATOM     34  O   UNL A   1      39.092  27.646  30.891  1.00  0.00    -0.376 OA
BRANCH  34  35
ATOM     35  C   UNL A   1      39.472  28.265  32.111  1.00  0.00     0.202 C 
BRANCH  35  36
ATOM     36  C   UNL A   1      38.915  29.559  32.697  1.00  0.00     0.261 C 
BRANCH  36  37
ATOM     37  O   UNL A   1      39.896  30.474  33.084  1.00  0.00    -0.460 OA
BRANCH  37  38
ATOM     38  C   UNL A   1      39.931  31.557  32.295  1.00  0.00     0.338 C 
ATOM     39  O   UNL A   1      39.026  32.337  32.055  1.00  0.00    -0.246 OA
BRANCH  38  40
ATOM     40  C   UNL A   1      41.282  31.657  31.753  1.00  0.00     0.060 A 
ATOM     41  C   UNL A   1      41.453  31.133  30.477  1.00  0.00     0.016 A 
ATOM     42  C   UNL A   1      42.350  32.009  32.599  1.00  0.00     0.016 A 
ATOM     43  C   UNL A   1      42.659  30.557  30.228  1.00  0.00     0.010 A 
ATOM     44  C   UNL A   1      43.560  31.447  32.345  1.00  0.00     0.010 A 
ATOM     45  C   UNL A   1      43.609  30.595  31.254  1.00  0.00    -0.014 A 
BRANCH  45  46
ATOM     46  C   UNL A   1      44.615  29.575  31.219  1.00  0.00     0.031 A 
ATOM     47  C   UNL A   1      44.415  28.617  32.301  1.00  0.00     0.074 A 
ATOM     48  C   UNL A   1      45.582  29.619  30.284  1.00  0.00     0.049 A 
ATOM     49  N   UNL A   1      45.039  28.577  33.429  1.00  0.00    -0.248 NA
ATOM     50  C   UNL A   1      43.189  27.808  32.248  1.00  0.00     0.031 C 
ATOM     51  C   UNL A   1      45.604  30.430  29.056  1.00  0.00     0.029 A 
ATOM     52  N   UNL A   1      46.683  28.839  30.158  1.00  0.00    -0.354 N 
ATOM     53  C   UNL A   1      44.471  27.491  34.077  1.00  0.00     0.074 A 
ATOM     54  C   UNL A   1      43.184  27.286  33.475  1.00  0.00     0.031 C 
ATOM     55  C   UNL A   1      46.500  29.897  28.196  1.00  0.00     0.029 A 
ATOM     56  C   UNL A   1      47.201  28.821  28.870  1.00  0.00     0.049 A 
ATOM     57  H   UNL A   1      47.077  28.335  30.906  1.00  0.00     0.167 HD
ATOM     58  C   UNL A   1      45.281  26.607  34.715  1.00  0.00     0.034 A 
ATOM     59  C   UNL A   1      48.061  27.896  28.385  1.00  0.00     0.034 A 
ATOM     60  C   UNL A   1      46.585  27.180  34.952  1.00  0.00     0.049 A 
ATOM     61  C   UNL A   1      48.725  27.260  29.547  1.00  0.00     0.074 A 
ATOM     62  C   UNL A   1      47.103  28.180  35.745  1.00  0.00     0.029 A 
ATOM     63  N   UNL A   1      47.493  26.931  33.953  1.00  0.00    -0.354 N 
ATOM     64  N   UNL A   1      49.522  27.900  30.359  1.00  0.00    -0.248 NA
ATOM     65  C   UNL A   1      48.214  25.990  30.053  1.00  0.00     0.031 C 
ATOM     66  C   UNL A   1      48.276  28.642  35.078  1.00  0.00     0.029 A 
ATOM     67  C   UNL A   1      48.459  27.899  33.911  1.00  0.00     0.049 A 
ATOM     68  H   UNL A   1      47.453  26.157  33.345  1.00  0.00     0.167 HD
ATOM     69  C   UNL A   1      49.248  27.356  31.605  1.00  0.00     0.074 A 
ATOM     70  C   UNL A   1      48.596  26.083  31.331  1.00  0.00     0.031 C 
ATOM     71  C   UNL A   1      49.269  28.130  32.729  1.00  0.00     0.034 A 
BRANCH  58  72
ATOM     72  C   UNL A   1      45.107  25.103  34.643  1.00  0.00     0.023 A 
ATOM     73  C   UNL A   1      44.009  24.637  33.891  1.00  0.00     0.012 A 
ATOM     74  C   UNL A   1      45.747  24.160  35.485  1.00  0.00     0.148 A 
ATOM     75  C   UNL A   1      43.540  23.325  34.014  1.00  0.00     0.002 A 
ATOM     76  C   UNL A   1      45.327  22.839  35.548  1.00  0.00     0.091 A 
ATOM     77  F   UNL A   1      46.685  24.544  36.350  1.00  0.00    -0.205 F 
ATOM     78  C   UNL A   1      44.202  22.423  34.839  1.00  0.00     0.022 A 
BRANCH  76  79
ATOM     79  S   UNL A   1      46.171  21.638  36.586  1.00  0.00     0.127 S 
ATOM     80  O   UNL A   1      45.948  22.197  37.916  1.00  0.00    -0.237 OA
ATOM     81  O   UNL A   1      45.425  20.415  36.291  1.00  0.00    -0.237 OA
ATOM     82  O   UNL A   1      47.554  21.617  36.123  1.00  0.00    -0.744 OA
ENDBRANCH  76  79
ENDBRANCH  58  72
BRANCH  59  83
ATOM     83  C   UNL A   1      48.123  27.331  27.019  1.00  0.00     0.023 A 
ATOM     84  C   UNL A   1      49.215  27.646  26.188  1.00  0.00     0.012 A 
ATOM     85  C   UNL A   1      47.257  26.285  26.621  1.00  0.00     0.148 A 
ATOM     86  C   UNL A   1      49.457  26.921  25.016  1.00  0.00     0.002 A 
ATOM     87  C   UNL A   1      47.495  25.576  25.449  1.00  0.00     0.091 A 
ATOM     88  F   UNL A   1      46.255  25.931  27.436  1.00  0.00    -0.205 F 
ATOM     89  C   UNL A   1      48.604  25.881  24.650  1.00  0.00     0.022 A 
BRANCH  87  90
ATOM     90  S   UNL A   1      46.447  24.213  24.916  1.00  0.00     0.127 S 
ATOM     91  O   UNL A   1      45.151  24.876  24.763  1.00  0.00    -0.237 OA
ATOM     92  O   UNL A   1      47.083  23.817  23.661  1.00  0.00    -0.237 OA
ATOM     93  O   UNL A   1      46.494  23.227  25.986  1.00  0.00    -0.744 OA
ENDBRANCH  87  90
ENDBRANCH  59  83
BRANCH  71  94
ATOM     94  C   UNL A   1      50.046  29.416  32.674  1.00  0.00     0.023 A 
ATOM     95  C   UNL A   1      49.469  30.645  32.299  1.00  0.00     0.012 A 
ATOM     96  C   UNL A   1      51.373  29.398  33.140  1.00  0.00     0.148 A 
ATOM     97  C   UNL A   1      50.209  31.829  32.372  1.00  0.00     0.002 A 
ATOM     98  C   UNL A   1      52.088  30.582  33.255  1.00  0.00     0.091 A 
ATOM     99  F   UNL A   1      51.905  28.216  33.487  1.00  0.00    -0.205 F 
ATOM    100  C   UNL A   1      51.513  31.800  32.862  1.00  0.00     0.022 A 
BRANCH  98 101
ATOM    101  S   UNL A   1      53.722  30.617  33.995  1.00  0.00     0.127 S 
ATOM    102  O   UNL A   1      54.053  32.040  33.939  1.00  0.00    -0.237 OA
ATOM    103  O   UNL A   1      53.469  30.100  35.341  1.00  0.00    -0.237 OA
ATOM    104  O   UNL A   1      54.552  29.746  33.173  1.00  0.00    -0.744 OA
ENDBRANCH  98 101
ENDBRANCH  71  94
ENDBRANCH  45  46
ENDBRANCH  38  40
ENDBRANCH  37  38
ENDBRANCH  36  37
ENDBRANCH  35  36
ENDBRANCH  34  35
ENDBRANCH  33  34
ENDBRANCH  32  33
ENDBRANCH  31  32
ENDBRANCH   1  31
TORSDOF 30
ENDMDL
MODEL 2
REMARK VINA RESULT:      -7.4     10.051     14.732
REMARK SMILES CCCN(C(=O)Cc1c(C(=O)OCCOCCOCCOCCOC(=O)c2ccc(-c3c4nc(c(-c5cccc(S(=O)(=O)[O-])c5F)c5ccc([nH]5)c(-c5cccc(S(=O)(=O)[O-])c5F)c5nc(c(-c6cccc(S(=O)(=O)[O-])c6F)c6ccc3[nH]6)C=C5)C=C4)cc2)c(C)cn1CC)c1cccc(Cl)c1
REMARK SMILES IDX 17 1 16 2 15 3 14 4 13 5 12 6 10 7 11 8 9 9 8 10 93 11 90 12
REMARK SMILES IDX 92 13 91 14 7 15 5 16 6 17 4 18 3 19 2 20 1 21 96 22 97 23
REMARK SMILES IDX 102 24 98 25 100 26 99 27 101 28 94 29 95 30 18 31 19 32
REMARK SMILES IDX 20 33 21 34 22 35 23 36 24 37 25 38 26 39 27 40 28 41 89 42
REMARK SMILES IDX 29 43 88 44 30 45 31 46 32 47 82 48 33 49 87 50 81 51 83 52
REMARK SMILES IDX 34 53 86 54 80 55 79 56 35 58 67 59 47 60 66 61 48 62 51 63
REMARK SMILES IDX 65 64 84 65 49 66 50 67 64 69 85 70 52 71 36 72 37 73 45 74
REMARK SMILES IDX 38 75 40 76 46 77 39 78 41 79 42 80 43 81 44 82 68 83 69 84
REMARK SMILES IDX 77 85 70 86 72 87 78 88 71 89 73 90 74 91 75 92 76 93 53 94
REMARK SMILES IDX 54 95 62 96 55 97 57 98 63 99 56 100 58 101 59 102 60 103
REMARK SMILES IDX 61 104
REMARK H PARENT 83 57 51 68
REMARK Flexibility Score: inf
ROOT
ATOM      1  C   UNL A   1      44.779  38.252  27.219  1.00  0.00     0.188 C 
ENDROOT
BRANCH   1   2
ATOM      2  C   UNL A   1      45.898  38.958  26.432  1.00  0.00     0.188 C 
BRANCH   2   3
ATOM      3  O   UNL A   1      45.541  40.139  25.739  1.00  0.00    -0.376 OA
BRANCH   3   4
ATOM      4  C   UNL A   1      46.343  40.692  24.716  1.00  0.00     0.202 C 
BRANCH   4   5
ATOM      5  C   UNL A   1      46.044  42.098  24.147  1.00  0.00     0.261 C 
BRANCH   5   6
ATOM      6  O   UNL A   1      45.484  42.197  22.826  1.00  0.00    -0.460 OA
BRANCH   6   7
ATOM      7  C   UNL A   1      45.055  43.435  22.476  1.00  0.00     0.340 C 
ATOM      8  O   UNL A   1      45.662  44.432  22.779  1.00  0.00    -0.246 OA
BRANCH   7   9
ATOM      9  C   UNL A   1      43.904  43.484  21.595  1.00  0.00     0.084 A 
ATOM     10  C   UNL A   1      43.932  43.765  20.215  1.00  0.00     0.042 A 
ATOM     11  N   UNL A   1      42.630  43.553  19.772  1.00  0.00    -0.350 N 
ATOM     12  C   UNL A   1      42.543  43.299  21.991  1.00  0.00    -0.019 A 
ATOM     13  C   UNL A   1      41.793  43.366  20.843  1.00  0.00     0.090 A 
ATOM     14  C   UNL A   1      42.037  43.091  23.377  1.00  0.00     0.047 C 
BRANCH  10  15
ATOM     15  C   UNL A   1      45.028  44.261  19.261  1.00  0.00     0.155 C 
BRANCH  15  16
ATOM     16  C   UNL A   1      45.387  45.747  19.244  1.00  0.00     0.232 C 
ATOM     17  O   UNL A   1      45.214  46.346  20.315  1.00  0.00    -0.274 OA
BRANCH  16  18
ATOM     18  N   UNL A   1      45.919  46.355  18.074  1.00  0.00    -0.312 N 
BRANCH  18  19
ATOM     19  C   UNL A   1      45.160  47.306  17.211  1.00  0.00     0.125 C 
BRANCH  19  20
ATOM     20  C   UNL A   1      43.682  47.070  16.799  1.00  0.00     0.019 C 
ATOM     21  C   UNL A   1      42.578  47.755  17.614  1.00  0.00     0.006 C 
ENDBRANCH  19  20
ENDBRANCH  18  19
BRANCH  18  22
ATOM     22  C   UNL A   1      47.282  46.020  17.661  1.00  0.00     0.045 A 
ATOM     23  C   UNL A   1      47.678  45.981  16.312  1.00  0.00     0.026 A 
ATOM     24  C   UNL A   1      48.243  45.624  18.600  1.00  0.00     0.046 A 
ATOM     25  C   UNL A   1      48.918  45.457  15.915  1.00  0.00     0.004 A 
ATOM     26  C   UNL A   1      49.456  45.043  18.204  1.00  0.00     0.043 A 
ATOM     27  C   UNL A   1      49.794  44.946  16.862  1.00  0.00     0.020 A 
ATOM     28  Cl  UNL A   1      50.502  44.368  19.396  1.00  0.00    -0.084 Cl
ENDBRANCH  18  22
ENDBRANCH  16  18
ENDBRANCH  15  16
ENDBRANCH  10  15
BRANCH  11  29
ATOM     29  C   UNL A   1      42.151  43.434  18.400  1.00  0.00     0.118 C 
ATOM     30  C   UNL A   1      40.987  44.340  18.041  1.00  0.00     0.027 C 
ENDBRANCH  11  29
ENDBRANCH   7   9
ENDBRANCH   6   7
ENDBRANCH   5   6
ENDBRANCH   4   5
ENDBRANCH   3   4
ENDBRANCH   2   3
ENDBRANCH   1   2
BRANCH   1  31
ATOM     31  O   UNL A   1      43.548  37.957  26.582  1.00  0.00    -0.377 OA
BRANCH  31  32
ATOM     32  C   UNL A   1      43.002  36.672  26.760  1.00  0.00     0.188 C 
BRANCH  32  33
ATOM     33  C   UNL A   1      42.473  36.335  28.173  1.00  0.00     0.188 C 
BRANCH  33  34
ATOM     34  O   UNL A   1      41.454  35.386  28.455  1.00  0.00    -0.376 OA
BRANCH  34  35
ATOM     35  C   UNL A   1      40.600  35.310  29.586  1.00  0.00     0.202 C 
BRANCH  35  36
ATOM     36  C   UNL A   1      39.452  34.329  29.807  1.00  0.00     0.261 C 
BRANCH  36  37
ATOM     37  O   UNL A   1      38.696  34.592  30.951  1.00  0.00    -0.460 OA
BRANCH  37  38
ATOM     38  C   UNL A   1      37.641  33.772  31.070  1.00  0.00     0.338 C 
ATOM     39  O   UNL A   1      36.477  34.006  30.799  1.00  0.00    -0.246 OA
BRANCH  38  40
ATOM     40  C   UNL A   1      38.136  32.503  31.593  1.00  0.00     0.060 A 
ATOM     41  C   UNL A   1      38.889  32.590  32.759  1.00  0.00     0.016 A 
ATOM     42  C   UNL A   1      38.067  31.344  30.797  1.00  0.00     0.016 A 
ATOM     43  C   UNL A   1      39.900  31.690  32.882  1.00  0.00     0.010 A 
ATOM     44  C   UNL A   1      39.069  30.436  30.928  1.00  0.00     0.010 A 
ATOM     45  C   UNL A   1      40.046  30.748  31.857  1.00  0.00    -0.014 A 
BRANCH  45  46
ATOM     46  C   UNL A   1      41.355  30.188  31.700  1.00  0.00     0.031 A 
ATOM     47  C   UNL A   1      42.203  31.075  30.910  1.00  0.00     0.074 A 
ATOM     48  C   UNL A   1      41.637  28.983  32.228  1.00  0.00     0.049 A 
ATOM     49  N   UNL A   1      42.485  30.966  29.657  1.00  0.00    -0.248 NA
ATOM     50  C   UNL A   1      42.523  32.381  31.502  1.00  0.00     0.031 C 
ATOM     51  C   UNL A   1      40.860  28.245  33.237  1.00  0.00     0.029 A 
ATOM     52  N   UNL A   1      42.753  28.228  32.086  1.00  0.00    -0.354 N 
ATOM     53  C   UNL A   1      43.313  32.052  29.414  1.00  0.00     0.074 A 
ATOM     54  C   UNL A   1      43.036  33.012  30.445  1.00  0.00     0.031 C 
ATOM     55  C   UNL A   1      41.657  27.314  33.808  1.00  0.00     0.029 A 
ATOM     56  C   UNL A   1      42.927  27.302  33.105  1.00  0.00     0.049 A 
ATOM     57  H   UNL A   1      43.381  28.327  31.333  1.00  0.00     0.167 HD
ATOM     58  C   UNL A   1      44.440  31.870  28.678  1.00  0.00     0.034 A 
ATOM     59  C   UNL A   1      44.086  26.670  33.400  1.00  0.00     0.034 A 
ATOM     60  C   UNL A   1      44.371  30.639  27.925  1.00  0.00     0.049 A 
ATOM     61  C   UNL A   1      44.941  26.731  32.191  1.00  0.00     0.074 A 
ATOM     62  C   UNL A   1      43.637  30.164  26.861  1.00  0.00     0.029 A 
ATOM     63  N   UNL A   1      44.904  29.556  28.578  1.00  0.00    -0.354 N 
ATOM     64  N   UNL A   1      44.641  26.135  31.068  1.00  0.00    -0.248 NA
ATOM     65  C   UNL A   1      45.957  27.773  32.088  1.00  0.00     0.031 C 
ATOM     66  C   UNL A   1      43.606  28.746  27.008  1.00  0.00     0.029 A 
ATOM     67  C   UNL A   1      44.341  28.389  28.139  1.00  0.00     0.049 A 
ATOM     68  H   UNL A   1      45.601  29.612  29.272  1.00  0.00     0.167 HD
ATOM     69  C   UNL A   1      45.079  27.014  30.089  1.00  0.00     0.074 A 
ATOM     70  C   UNL A   1      46.033  27.888  30.759  1.00  0.00     0.031 C 
ATOM     71  C   UNL A   1      44.388  27.167  28.923  1.00  0.00     0.034 A 
BRANCH  58  72
ATOM     72  C   UNL A   1      45.783  32.477  29.032  1.00  0.00     0.023 A 
ATOM     73  C   UNL A   1      46.561  31.769  29.971  1.00  0.00     0.012 A 
ATOM     74  C   UNL A   1      46.185  33.806  28.746  1.00  0.00     0.148 A 
ATOM     75  C   UNL A   1      47.640  32.367  30.628  1.00  0.00     0.002 A 
ATOM     76  C   UNL A   1      47.301  34.371  29.345  1.00  0.00     0.091 A 
ATOM     77  F   UNL A   1      45.422  34.603  28.000  1.00  0.00    -0.205 F 
ATOM     78  C   UNL A   1      48.015  33.668  30.313  1.00  0.00     0.022 A 
BRANCH  76  79
ATOM     79  S   UNL A   1      47.830  36.043  28.945  1.00  0.00     0.127 S 
ATOM     80  O   UNL A   1      46.728  36.833  29.486  1.00  0.00    -0.237 OA
ATOM     81  O   UNL A   1      49.089  36.141  29.684  1.00  0.00    -0.237 OA
ATOM     82  O   UNL A   1      47.989  36.072  27.495  1.00  0.00    -0.744 OA
ENDBRANCH  76  79
ENDBRANCH  58  72
BRANCH  59  83
ATOM     83  C   UNL A   1      44.606  26.286  34.731  1.00  0.00     0.023 A 
ATOM     84  C   UNL A   1      44.399  27.141  35.829  1.00  0.00     0.012 A 
ATOM     85  C   UNL A   1      45.073  24.974  34.981  1.00  0.00     0.148 A 
ATOM     86  C   UNL A   1      44.618  26.694  37.137  1.00  0.00     0.002 A 
ATOM     87  C   UNL A   1      45.301  24.539  36.281  1.00  0.00     0.091 A 
ATOM     88  F   UNL A   1      45.210  24.129  33.951  1.00  0.00    -0.205 F 
ATOM     89  C   UNL A   1      45.059  25.392  37.365  1.00  0.00     0.022 A 
BRANCH  87  90
ATOM     90  S   UNL A   1      45.859  22.870  36.658  1.00  0.00     0.127 S 
ATOM     91  O   UNL A   1      47.248  22.909  36.197  1.00  0.00    -0.237 OA
ATOM     92  O   UNL A   1      45.699  22.818  38.109  1.00  0.00    -0.237 OA
ATOM     93  O   UNL A   1      44.999  21.976  35.895  1.00  0.00    -0.744 OA
ENDBRANCH  87  90
ENDBRANCH  59  83
BRANCH  71  94
ATOM     94  C   UNL A   1      43.460  26.058  28.513  1.00  0.00     0.023 A 
ATOM     95  C   UNL A   1      42.081  26.065  28.803  1.00  0.00     0.012 A 
ATOM     96  C   UNL A   1      43.981  25.037  27.698  1.00  0.00     0.148 A 
ATOM     97  C   UNL A   1      41.244  25.063  28.303  1.00  0.00     0.002 A 
ATOM     98  C   UNL A   1      43.139  24.071  27.166  1.00  0.00     0.091 A 
ATOM     99  F   UNL A   1      45.297  25.046  27.439  1.00  0.00    -0.205 F 
ATOM    100  C   UNL A   1      41.770  24.074  27.474  1.00  0.00     0.022 A 
BRANCH  98 101
ATOM    101  S   UNL A   1      43.741  22.852  25.995  1.00  0.00     0.127 S 
ATOM    102  O   UNL A   1      43.258  21.602  26.579  1.00  0.00    -0.237 OA
ATOM    103  O   UNL A   1      43.071  23.248  24.755  1.00  0.00    -0.237 OA
ATOM    104  O   UNL A   1      45.190  23.011  25.961  1.00  0.00    -0.744 OA
ENDBRANCH  98 101
ENDBRANCH  71  94
ENDBRANCH  45  46
ENDBRANCH  38  40
ENDBRANCH  37  38
ENDBRANCH  36  37
ENDBRANCH  35  36
ENDBRANCH  34  35
ENDBRANCH  33  34
ENDBRANCH  32  33
ENDBRANCH  31  32
ENDBRANCH   1  31
TORSDOF 30
ENDMDL
MODEL 3
REMARK VINA RESULT:      -7.4      6.909      9.863
REMARK SMILES CCCN(C(=O)Cc1c(C(=O)OCCOCCOCCOCCOC(=O)c2ccc(-c3c4nc(c(-c5cccc(S(=O)(=O)[O-])c5F)c5ccc([nH]5)c(-c5cccc(S(=O)(=O)[O-])c5F)c5nc(c(-c6cccc(S(=O)(=O)[O-])c6F)c6ccc3[nH]6)C=C5)C=C4)cc2)c(C)cn1CC)c1cccc(Cl)c1
REMARK SMILES IDX 17 1 16 2 15 3 14 4 13 5 12 6 10 7 11 8 9 9 8 10 93 11 90 12
REMARK SMILES IDX 92 13 91 14 7 15 5 16 6 17 4 18 3 19 2 20 1 21 96 22 97 23
REMARK SMILES IDX 102 24 98 25 100 26 99 27 101 28 94 29 95 30 18 31 19 32
REMARK SMILES IDX 20 33 21 34 22 35 23 36 24 37 25 38 26 39 27 40 28 41 89 42
REMARK SMILES IDX 29 43 88 44 30 45 31 46 32 47 82 48 33 49 87 50 81 51 83 52
REMARK SMILES IDX 34 53 86 54 80 55 79 56 35 58 67 59 47 60 66 61 48 62 51 63
REMARK SMILES IDX 65 64 84 65 49 66 50 67 64 69 85 70 52 71 36 72 37 73 45 74
REMARK SMILES IDX 38 75 40 76 46 77 39 78 41 79 42 80 43 81 44 82 68 83 69 84
REMARK SMILES IDX 77 85 70 86 72 87 78 88 71 89 73 90 74 91 75 92 76 93 53 94
REMARK SMILES IDX 54 95 62 96 55 97 57 98 63 99 56 100 58 101 59 102 60 103
REMARK SMILES IDX 61 104
REMARK H PARENT 83 57 51 68
REMARK Flexibility Score: inf
ROOT
ATOM      1  C   UNL A   1      39.172  29.534  28.385  1.00  0.00     0.188 C 
ENDROOT
BRANCH   1   2
ATOM      2  C   UNL A   1      37.834  30.279  28.540  1.00  0.00     0.188 C 
BRANCH   2   3
ATOM      3  O   UNL A   1      36.794  29.912  27.652  1.00  0.00    -0.376 OA
BRANCH   3   4
ATOM      4  C   UNL A   1      35.513  29.522  28.102  1.00  0.00     0.202 C 
BRANCH   4   5
ATOM      5  C   UNL A   1      34.257  29.774  27.236  1.00  0.00     0.261 C 
BRANCH   5   6
ATOM      6  O   UNL A   1      33.667  28.659  26.546  1.00  0.00    -0.460 OA
BRANCH   6   7
ATOM      7  C   UNL A   1      32.321  28.554  26.674  1.00  0.00     0.340 C 
ATOM      8  O   UNL A   1      31.801  28.177  27.694  1.00  0.00    -0.246 OA
BRANCH   7   9
ATOM      9  C   UNL A   1      31.536  29.059  25.562  1.00  0.00     0.084 A 
ATOM     10  C   UNL A   1      31.118  28.314  24.442  1.00  0.00     0.042 A 
ATOM     11  N   UNL A   1      30.278  29.166  23.729  1.00  0.00    -0.350 N 
ATOM     12  C   UNL A   1      31.097  30.408  25.398  1.00  0.00    -0.019 A 
ATOM     13  C   UNL A   1      30.342  30.433  24.251  1.00  0.00     0.090 A 
ATOM     14  C   UNL A   1      31.410  31.564  26.285  1.00  0.00     0.047 C 
BRANCH  10  15
ATOM     15  C   UNL A   1      31.450  26.907  23.926  1.00  0.00     0.155 C 
BRANCH  15  16
ATOM     16  C   UNL A   1      32.914  26.481  23.808  1.00  0.00     0.232 C 
ATOM     17  O   UNL A   1      33.721  27.403  23.620  1.00  0.00    -0.274 OA
BRANCH  16  18
ATOM     18  N   UNL A   1      33.290  25.118  23.951  1.00  0.00    -0.312 N 
BRANCH  18  19
ATOM     19  C   UNL A   1      33.909  24.306  22.863  1.00  0.00     0.125 C 
BRANCH  19  20
ATOM     20  C   UNL A   1      33.705  22.771  22.740  1.00  0.00     0.019 C 
ATOM     21  C   UNL A   1      32.273  22.224  22.717  1.00  0.00     0.006 C 
ENDBRANCH  19  20
ENDBRANCH  18  19
BRANCH  18  22
ATOM     22  C   UNL A   1      33.039  24.445  25.226  1.00  0.00     0.045 A 
ATOM     23  C   UNL A   1      34.073  23.946  26.037  1.00  0.00     0.026 A 
ATOM     24  C   UNL A   1      31.731  24.180  25.655  1.00  0.00     0.046 A 
ATOM     25  C   UNL A   1      33.819  23.121  27.144  1.00  0.00     0.004 A 
ATOM     26  C   UNL A   1      31.476  23.308  26.722  1.00  0.00     0.043 A 
ATOM     27  C   UNL A   1      32.516  22.766  27.464  1.00  0.00     0.020 A 
ATOM     28  Cl  UNL A   1      29.853  22.840  27.065  1.00  0.00    -0.084 Cl
ENDBRANCH  18  22
ENDBRANCH  16  18
ENDBRANCH  15  16
ENDBRANCH  10  15
BRANCH  11  29
ATOM     29  C   UNL A   1      29.363  28.832  22.646  1.00  0.00     0.118 C 
ATOM     30  C   UNL A   1      28.890  30.010  21.813  1.00  0.00     0.027 C 
ENDBRANCH  11  29
ENDBRANCH   7   9
ENDBRANCH   6   7
ENDBRANCH   5   6
ENDBRANCH   4   5
ENDBRANCH   3   4
ENDBRANCH   2   3
ENDBRANCH   1   2
BRANCH   1  31
ATOM     31  O   UNL A   1      39.180  28.126  28.229  1.00  0.00    -0.377 OA
BRANCH  31  32
ATOM     32  C   UNL A   1      39.397  27.335  29.373  1.00  0.00     0.188 C 
BRANCH  32  33
ATOM     33  C   UNL A   1      39.567  28.087  30.712  1.00  0.00     0.188 C 
BRANCH  33  34
ATOM     34  O   UNL A   1      38.499  28.540  31.532  1.00  0.00    -0.376 OA
BRANCH  34  35
ATOM     35  C   UNL A   1      38.487  29.613  32.461  1.00  0.00     0.202 C 
BRANCH  35  36
ATOM     36  C   UNL A   1      37.274  30.418  32.920  1.00  0.00     0.261 C 
BRANCH  36  37
ATOM     37  O   UNL A   1      37.596  31.650  33.492  1.00  0.00    -0.460 OA
BRANCH  37  38
ATOM     38  C   UNL A   1      37.906  32.578  32.575  1.00  0.00     0.338 C 
ATOM     39  O   UNL A   1      37.315  32.835  31.541  1.00  0.00    -0.246 OA
BRANCH  38  40
ATOM     40  C   UNL A   1      39.110  33.260  33.038  1.00  0.00     0.060 A 
ATOM     41  C   UNL A   1      40.223  32.446  33.222  1.00  0.00     0.016 A 
ATOM     42  C   UNL A   1      39.027  34.582  33.512  1.00  0.00     0.016 A 
ATOM     43  C   UNL A   1      41.051  32.794  34.242  1.00  0.00     0.010 A 
ATOM     44  C   UNL A   1      39.864  34.938  34.522  1.00  0.00     0.010 A 
ATOM     45  C   UNL A   1      40.729  33.950  34.961  1.00  0.00    -0.014 A 
BRANCH  45  46
ATOM     46  C   UNL A   1      41.235  34.020  36.300  1.00  0.00     0.031 A 
ATOM     47  C   UNL A   1      40.139  34.083  37.261  1.00  0.00     0.074 A 
ATOM     48  C   UNL A   1      42.563  34.049  36.515  1.00  0.00     0.049 A 
ATOM     49  N   UNL A   1      39.681  35.136  37.849  1.00  0.00    -0.248 NA
ATOM     50  C   UNL A   1      39.268  32.903  37.349  1.00  0.00     0.031 C 
ATOM     51  C   UNL A   1      43.630  33.713  35.560  1.00  0.00     0.029 A 
ATOM     52  N   UNL A   1      43.236  34.241  37.675  1.00  0.00    -0.354 N 
ATOM     53  C   UNL A   1      38.657  34.646  38.645  1.00  0.00     0.074 A 
ATOM     54  C   UNL A   1      38.257  33.394  38.067  1.00  0.00     0.031 C 
ATOM     55  C   UNL A   1      44.765  33.453  36.246  1.00  0.00     0.029 A 
ATOM     56  C   UNL A   1      44.533  33.749  37.648  1.00  0.00     0.049 A 
ATOM     57  H   UNL A   1      42.843  34.686  38.461  1.00  0.00     0.167 HD
ATOM     58  C   UNL A   1      38.552  35.082  39.927  1.00  0.00     0.034 A 
ATOM     59  C   UNL A   1      45.300  33.501  38.734  1.00  0.00     0.034 A 
ATOM     60  C   UNL A   1      39.296  36.305  40.118  1.00  0.00     0.049 A 
ATOM     61  C   UNL A   1      44.747  34.299  39.855  1.00  0.00     0.074 A 
ATOM     62  C   UNL A   1      39.189  37.612  39.697  1.00  0.00     0.029 A 
ATOM     63  N   UNL A   1      40.589  36.110  40.538  1.00  0.00    -0.354 N 
ATOM     64  N   UNL A   1      44.746  35.604  39.876  1.00  0.00    -0.248 NA
ATOM     65  C   UNL A   1      43.837  33.662  40.801  1.00  0.00     0.031 C 
ATOM     66  C   UNL A   1      40.513  38.141  39.716  1.00  0.00     0.029 A 
ATOM     67  C   UNL A   1      41.391  37.156  40.170  1.00  0.00     0.049 A 
ATOM     68  H   UNL A   1      40.899  35.320  41.038  1.00  0.00     0.167 HD
ATOM     69  C   UNL A   1      43.546  35.933  40.488  1.00  0.00     0.074 A 
ATOM     70  C   UNL A   1      43.133  34.728  41.194  1.00  0.00     0.031 C 
ATOM     71  C   UNL A   1      42.836  37.031  40.095  1.00  0.00     0.034 A 
BRANCH  58  72
ATOM     72  C   UNL A   1      38.256  34.174  41.103  1.00  0.00     0.023 A 
ATOM     73  C   UNL A   1      37.284  34.631  42.016  1.00  0.00     0.012 A 
ATOM     74  C   UNL A   1      39.059  33.083  41.522  1.00  0.00     0.148 A 
ATOM     75  C   UNL A   1      37.157  34.073  43.293  1.00  0.00     0.002 A 
ATOM     76  C   UNL A   1      38.879  32.483  42.759  1.00  0.00     0.091 A 
ATOM     77  F   UNL A   1      40.105  32.689  40.798  1.00  0.00    -0.205 F 
ATOM     78  C   UNL A   1      37.951  32.994  43.664  1.00  0.00     0.022 A 
BRANCH  76  79
ATOM     79  S   UNL A   1      39.873  31.072  43.266  1.00  0.00     0.127 S 
ATOM     80  O   UNL A   1      39.560  30.106  42.218  1.00  0.00    -0.237 OA
ATOM     81  O   UNL A   1      41.225  31.629  43.216  1.00  0.00    -0.237 OA
ATOM     82  O   UNL A   1      39.420  30.730  44.610  1.00  0.00    -0.744 OA
ENDBRANCH  76  79
ENDBRANCH  58  72
BRANCH  59  83
ATOM     83  C   UNL A   1      46.279  32.410  38.934  1.00  0.00     0.023 A 
ATOM     84  C   UNL A   1      47.603  32.725  39.294  1.00  0.00     0.012 A 
ATOM     85  C   UNL A   1      45.861  31.062  39.029  1.00  0.00     0.148 A 
ATOM     86  C   UNL A   1      48.473  31.734  39.766  1.00  0.00     0.002 A 
ATOM     87  C   UNL A   1      46.732  30.080  39.487  1.00  0.00     0.091 A 
ATOM     88  F   UNL A   1      44.585  30.761  38.755  1.00  0.00    -0.205 F 
ATOM     89  C   UNL A   1      48.036  30.415  39.870  1.00  0.00     0.022 A 
BRANCH  87  90
ATOM     90  S   UNL A   1      46.241  28.358  39.661  1.00  0.00     0.127 S 
ATOM     91  O   UNL A   1      45.958  27.986  38.274  1.00  0.00    -0.237 OA
ATOM     92  O   UNL A   1      47.447  27.755  40.222  1.00  0.00    -0.237 OA
ATOM     93  O   UNL A   1      45.073  28.359  40.532  1.00  0.00    -0.744 OA
ENDBRANCH  87  90
ENDBRANCH  59  83
BRANCH  71  94
ATOM     94  C   UNL A   1      43.577  38.115  39.364  1.00  0.00     0.023 A 
ATOM     95  C   UNL A   1      43.861  38.053  37.985  1.00  0.00     0.012 A 
ATOM     96  C   UNL A   1      43.884  39.289  40.073  1.00  0.00     0.148 A 
ATOM     97  C   UNL A   1      44.456  39.138  37.333  1.00  0.00     0.002 A 
ATOM     98  C   UNL A   1      44.431  40.380  39.412  1.00  0.00     0.091 A 
ATOM     99  F   UNL A   1      43.611  39.325  41.386  1.00  0.00    -0.205 F 
ATOM    100  C   UNL A   1      44.728  40.306  38.043  1.00  0.00     0.022 A 
BRANCH  98 101
ATOM    101  S   UNL A   1      44.685  41.947  40.249  1.00  0.00     0.127 S 
ATOM    102  O   UNL A   1      43.374  42.581  40.117  1.00  0.00    -0.237 OA
ATOM    103  O   UNL A   1      45.028  41.527  41.609  1.00  0.00    -0.237 OA
ATOM    104  O   UNL A   1      45.775  42.607  39.540  1.00  0.00    -0.744 OA
ENDBRANCH  98 101
ENDBRANCH  71  94
ENDBRANCH  45  46
ENDBRANCH  38  40
ENDBRANCH  37  38
ENDBRANCH  36  37
ENDBRANCH  35  36
ENDBRANCH  34  35
ENDBRANCH  33  34
ENDBRANCH  32  33
ENDBRANCH  31  32
ENDBRANCH   1  31
TORSDOF 30
ENDMDL
