MODEL 1
REMARK VINA RESULT:     -10.5      0.000      0.000
REMARK SMILES Cc1c(Cl)cc2c(c1C)O[C@H](C(F)(F)F)C(C(=O)OCCOCCOCCOCCOC(=O)c1ccc(-c3c4nc(c(-c5cccc(S(=O)(=O)[O-])c5F)c5ccc([nH]5)c(-c5cccc(S(=O)(=O)[O-])c5F)c5nc(c(-c6cccc(S(=O)(=O)[O-])c6F)c6ccc3[nH]6)C=C5)C=C4)cc1)=C2
REMARK SMILES IDX 26 1 25 2 24 3 23 4 22 5 21 6 20 7 19 8 17 9 18 10 16 11
REMARK SMILES IDX 1 12 2 13 3 14 8 15 4 16 5 17 7 18 9 19 6 20 10 21 97 22
REMARK SMILES IDX 11 23 12 24 13 25 14 26 15 27 27 28 28 29 29 30 30 31 31 32
REMARK SMILES IDX 32 33 33 34 34 35 35 36 96 37 36 38 95 39 37 40 38 41 39 42
REMARK SMILES IDX 89 43 40 44 94 45 88 46 90 47 41 48 93 49 87 50 86 51 42 53
REMARK SMILES IDX 74 54 54 55 73 56 55 57 58 58 72 59 91 60 56 61 57 62 71 64
REMARK SMILES IDX 92 65 59 66 43 67 44 68 52 69 45 70 47 71 53 72 46 73 48 74
REMARK SMILES IDX 49 75 50 76 51 77 75 78 76 79 84 80 77 81 79 82 85 83 78 84
REMARK SMILES IDX 80 85 81 86 82 87 83 88 60 89 61 90 69 91 62 92 64 93 70 94
REMARK SMILES IDX 63 95 65 96 66 97 67 98 68 99
REMARK H PARENT 90 52 58 63
REMARK Flexibility Score: inf
ROOT
ATOM      1  C   UNL A   1      42.908  18.767  26.253  1.00  0.00     0.188 C 
ENDROOT
BRANCH   1   2
ATOM      2  O   UNL A   1      41.659  19.187  25.704  1.00  0.00    -0.377 OA
BRANCH   2   3
ATOM      3  C   UNL A   1      40.785  19.934  26.531  1.00  0.00     0.188 C 
BRANCH   3   4
ATOM      4  C   UNL A   1      39.577  20.509  25.766  1.00  0.00     0.188 C 
BRANCH   4   5
ATOM      5  O   UNL A   1      39.317  21.872  26.056  1.00  0.00    -0.376 OA
BRANCH   5   6
ATOM      6  C   UNL A   1      38.043  22.449  25.816  1.00  0.00     0.202 C 
BRANCH   6   7
ATOM      7  C   UNL A   1      36.887  21.754  25.069  1.00  0.00     0.261 C 
BRANCH   7   8
ATOM      8  O   UNL A   1      35.827  22.576  24.585  1.00  0.00    -0.460 OA
BRANCH   8   9
ATOM      9  C   UNL A   1      34.673  21.978  24.249  1.00  0.00     0.338 C 
ATOM     10  O   UNL A   1      34.421  20.787  24.291  1.00  0.00    -0.246 OA
BRANCH   9  11
ATOM     11  C   UNL A   1      33.678  23.046  24.002  1.00  0.00     0.087 C 
ATOM     12  C   UNL A   1      30.465  28.666  23.659  1.00  0.00     0.046 C 
ATOM     13  C   UNL A   1      31.406  27.501  23.488  1.00  0.00    -0.026 A 
ATOM     14  C   UNL A   1      32.775  27.695  23.220  1.00  0.00     0.045 A 
ATOM     15  C   UNL A   1      30.932  26.176  23.672  1.00  0.00    -0.004 A 
ATOM     16  Cl  UNL A   1      33.459  29.258  22.929  1.00  0.00    -0.084 Cl
ATOM     17  C   UNL A   1      33.665  26.618  23.214  1.00  0.00     0.032 A 
ATOM     18  C   UNL A   1      31.845  25.100  23.652  1.00  0.00     0.131 A 
ATOM     19  C   UNL A   1      29.475  25.860  23.925  1.00  0.00     0.049 C 
ATOM     20  C   UNL A   1      33.210  25.329  23.483  1.00  0.00     0.019 A 
ATOM     21  O   UNL A   1      31.324  23.847  23.824  1.00  0.00    -0.475 OA
ATOM     22  C   UNL A   1      34.161  24.251  23.679  1.00  0.00     0.027 C 
ATOM     23  C   UNL A   1      32.208  22.717  24.060  1.00  0.00     0.316 C 
BRANCH  23  24
ATOM     24  C   UNL A   1      31.811  22.073  25.394  1.00  0.00     0.430 C 
ATOM     25  F   UNL A   1      32.684  22.394  26.375  1.00  0.00    -0.167 F 
ATOM     26  F   UNL A   1      30.584  22.469  25.800  1.00  0.00    -0.167 F 
ATOM     27  F   UNL A   1      31.788  20.722  25.297  1.00  0.00    -0.167 F 
ENDBRANCH  23  24
ENDBRANCH   9  11
ENDBRANCH   8   9
ENDBRANCH   7   8
ENDBRANCH   6   7
ENDBRANCH   5   6
ENDBRANCH   4   5
ENDBRANCH   3   4
ENDBRANCH   2   3
ENDBRANCH   1   2
BRANCH   1  28
ATOM     28  C   UNL A   1      44.240  18.945  25.481  1.00  0.00     0.188 C 
BRANCH  28  29
ATOM     29  O   UNL A   1      44.093  19.458  24.162  1.00  0.00    -0.376 OA
BRANCH  29  30
ATOM     30  C   UNL A   1      44.285  20.850  23.966  1.00  0.00     0.202 C 
BRANCH  30  31
ATOM     31  C   UNL A   1      44.055  21.735  25.197  1.00  0.00     0.261 C 
BRANCH  31  32
ATOM     32  O   UNL A   1      43.514  23.037  24.933  1.00  0.00    -0.460 OA
BRANCH  32  33
ATOM     33  C   UNL A   1      44.308  24.103  25.170  1.00  0.00     0.338 C 
ATOM     34  O   UNL A   1      45.354  24.380  24.609  1.00  0.00    -0.246 OA
BRANCH  33  35
ATOM     35  C   UNL A   1      43.582  24.993  26.098  1.00  0.00     0.060 A 
ATOM     36  C   UNL A   1      43.788  26.376  26.020  1.00  0.00     0.016 A 
ATOM     37  C   UNL A   1      42.681  24.458  27.022  1.00  0.00     0.016 A 
ATOM     38  C   UNL A   1      43.110  27.229  26.891  1.00  0.00     0.010 A 
ATOM     39  C   UNL A   1      42.019  25.312  27.906  1.00  0.00     0.010 A 
ATOM     40  C   UNL A   1      42.255  26.697  27.865  1.00  0.00    -0.014 A 
BRANCH  40  41
ATOM     41  C   UNL A   1      41.761  27.562  28.962  1.00  0.00     0.031 A 
ATOM     42  C   UNL A   1      42.516  27.558  30.263  1.00  0.00     0.074 A 
ATOM     43  C   UNL A   1      40.671  28.334  28.810  1.00  0.00     0.049 A 
ATOM     44  N   UNL A   1      42.267  28.212  31.366  1.00  0.00    -0.248 NA
ATOM     45  C   UNL A   1      43.715  26.704  30.327  1.00  0.00     0.031 C 
ATOM     46  C   UNL A   1      39.868  28.431  27.593  1.00  0.00     0.029 A 
ATOM     47  N   UNL A   1      40.044  29.173  29.698  1.00  0.00    -0.354 N 
ATOM     48  C   UNL A   1      43.265  27.839  32.258  1.00  0.00     0.074 A 
ATOM     49  C   UNL A   1      44.111  26.884  31.578  1.00  0.00     0.031 C 
ATOM     50  C   UNL A   1      38.842  29.272  27.817  1.00  0.00     0.029 A 
ATOM     51  C   UNL A   1      38.902  29.751  29.197  1.00  0.00     0.049 A 
ATOM     52  H   UNL A   1      40.381  29.343  30.608  1.00  0.00     0.167 HD
ATOM     53  C   UNL A   1      43.472  28.271  33.523  1.00  0.00     0.034 A 
ATOM     54  C   UNL A   1      38.002  30.563  29.792  1.00  0.00     0.034 A 
ATOM     55  C   UNL A   1      42.635  29.226  34.192  1.00  0.00     0.049 A 
ATOM     56  C   UNL A   1      38.225  30.987  31.223  1.00  0.00     0.074 A 
ATOM     57  C   UNL A   1      42.777  29.745  35.467  1.00  0.00     0.029 A 
ATOM     58  N   UNL A   1      41.495  29.799  33.651  1.00  0.00    -0.354 N 
ATOM     59  N   UNL A   1      39.228  30.707  32.021  1.00  0.00    -0.248 NA
ATOM     60  C   UNL A   1      37.210  31.862  31.828  1.00  0.00     0.031 C 
ATOM     61  C   UNL A   1      41.705  30.607  35.707  1.00  0.00     0.029 A 
ATOM     62  C   UNL A   1      40.915  30.655  34.569  1.00  0.00     0.049 A 
ATOM     63  H   UNL A   1      41.149  29.622  32.746  1.00  0.00     0.167 HD
ATOM     64  C   UNL A   1      38.984  31.397  33.204  1.00  0.00     0.074 A 
ATOM     65  C   UNL A   1      37.745  32.123  33.013  1.00  0.00     0.031 C 
ATOM     66  C   UNL A   1      39.711  31.416  34.349  1.00  0.00     0.034 A 
BRANCH  53  67
ATOM     67  C   UNL A   1      44.674  27.741  34.259  1.00  0.00     0.023 A 
ATOM     68  C   UNL A   1      45.880  28.468  34.231  1.00  0.00     0.012 A 
ATOM     69  C   UNL A   1      44.586  26.574  35.043  1.00  0.00     0.148 A 
ATOM     70  C   UNL A   1      46.989  28.032  34.956  1.00  0.00     0.002 A 
ATOM     71  C   UNL A   1      45.680  26.172  35.800  1.00  0.00     0.091 A 
ATOM     72  F   UNL A   1      43.438  25.884  35.036  1.00  0.00    -0.205 F 
ATOM     73  C   UNL A   1      46.885  26.893  35.749  1.00  0.00     0.022 A 
BRANCH  71  74
ATOM     74  S   UNL A   1      45.624  24.770  36.922  1.00  0.00     0.127 S 
ATOM     75  O   UNL A   1      44.544  25.161  37.828  1.00  0.00    -0.237 OA
ATOM     76  O   UNL A   1      45.292  23.669  36.018  1.00  0.00    -0.237 OA
ATOM     77  O   UNL A   1      46.944  24.686  37.529  1.00  0.00    -0.744 OA
ENDBRANCH  71  74
ENDBRANCH  53  67
BRANCH  54  78
ATOM     78  C   UNL A   1      36.833  31.070  29.017  1.00  0.00     0.023 A 
ATOM     79  C   UNL A   1      36.729  32.449  28.745  1.00  0.00     0.012 A 
ATOM     80  C   UNL A   1      35.847  30.197  28.517  1.00  0.00     0.148 A 
ATOM     81  C   UNL A   1      35.656  32.950  28.007  1.00  0.00     0.002 A 
ATOM     82  C   UNL A   1      34.812  30.695  27.734  1.00  0.00     0.091 A 
ATOM     83  F   UNL A   1      35.953  28.891  28.803  1.00  0.00    -0.205 F 
ATOM     84  C   UNL A   1      34.706  32.073  27.491  1.00  0.00     0.022 A 
BRANCH  82  85
ATOM     85  S   UNL A   1      33.617  29.631  26.917  1.00  0.00     0.127 S 
ATOM     86  O   UNL A   1      34.477  28.809  26.070  1.00  0.00    -0.237 OA
ATOM     87  O   UNL A   1      33.017  28.931  28.054  1.00  0.00    -0.237 OA
ATOM     88  O   UNL A   1      32.710  30.526  26.212  1.00  0.00    -0.744 OA
ENDBRANCH  82  85
ENDBRANCH  54  78
BRANCH  66  89
ATOM     89  C   UNL A   1      39.220  32.264  35.496  1.00  0.00     0.023 A 
ATOM     90  C   UNL A   1      38.407  31.688  36.493  1.00  0.00     0.012 A 
ATOM     91  C   UNL A   1      39.674  33.589  35.656  1.00  0.00     0.148 A 
ATOM     92  C   UNL A   1      38.038  32.424  37.619  1.00  0.00     0.002 A 
ATOM     93  C   UNL A   1      39.347  34.298  36.807  1.00  0.00     0.091 A 
ATOM     94  F   UNL A   1      40.437  34.123  34.691  1.00  0.00    -0.205 F 
ATOM     95  C   UNL A   1      38.520  33.720  37.783  1.00  0.00     0.022 A 
BRANCH  93  96
ATOM     96  S   UNL A   1      40.011  35.929  37.162  1.00  0.00     0.127 S 
ATOM     97  O   UNL A   1      39.738  36.640  35.913  1.00  0.00    -0.237 OA
ATOM     98  O   UNL A   1      39.193  36.355  38.298  1.00  0.00    -0.237 OA
ATOM     99  O   UNL A   1      41.422  35.734  37.469  1.00  0.00    -0.744 OA
ENDBRANCH  93  96
ENDBRANCH  66  89
ENDBRANCH  40  41
ENDBRANCH  33  35
ENDBRANCH  32  33
ENDBRANCH  31  32
ENDBRANCH  30  31
ENDBRANCH  29  30
ENDBRANCH  28  29
ENDBRANCH   1  28
TORSDOF 24
ENDMDL
MODEL 2
REMARK VINA RESULT:     -10.0      5.351     10.451
REMARK SMILES Cc1c(Cl)cc2c(c1C)O[C@H](C(F)(F)F)C(C(=O)OCCOCCOCCOCCOC(=O)c1ccc(-c3c4nc(c(-c5cccc(S(=O)(=O)[O-])c5F)c5ccc([nH]5)c(-c5cccc(S(=O)(=O)[O-])c5F)c5nc(c(-c6cccc(S(=O)(=O)[O-])c6F)c6ccc3[nH]6)C=C5)C=C4)cc1)=C2
REMARK SMILES IDX 26 1 25 2 24 3 23 4 22 5 21 6 20 7 19 8 17 9 18 10 16 11
REMARK SMILES IDX 1 12 2 13 3 14 8 15 4 16 5 17 7 18 9 19 6 20 10 21 97 22
REMARK SMILES IDX 11 23 12 24 13 25 14 26 15 27 27 28 28 29 29 30 30 31 31 32
REMARK SMILES IDX 32 33 33 34 34 35 35 36 96 37 36 38 95 39 37 40 38 41 39 42
REMARK SMILES IDX 89 43 40 44 94 45 88 46 90 47 41 48 93 49 87 50 86 51 42 53
REMARK SMILES IDX 74 54 54 55 73 56 55 57 58 58 72 59 91 60 56 61 57 62 71 64
REMARK SMILES IDX 92 65 59 66 43 67 44 68 52 69 45 70 47 71 53 72 46 73 48 74
REMARK SMILES IDX 49 75 50 76 51 77 75 78 76 79 84 80 77 81 79 82 85 83 78 84
REMARK SMILES IDX 80 85 81 86 82 87 83 88 60 89 61 90 69 91 62 92 64 93 70 94
REMARK SMILES IDX 63 95 65 96 66 97 67 98 68 99
REMARK H PARENT 90 52 58 63
REMARK Flexibility Score: inf
ROOT
ATOM      1  C   UNL A   1      43.350  19.169  25.814  1.00  0.00     0.188 C 
ENDROOT
BRANCH   1   2
ATOM      2  O   UNL A   1      44.498  18.401  26.176  1.00  0.00    -0.377 OA
BRANCH   2   3
ATOM      3  C   UNL A   1      45.462  18.133  25.173  1.00  0.00     0.188 C 
BRANCH   3   4
ATOM      4  C   UNL A   1      45.574  19.258  24.127  1.00  0.00     0.188 C 
BRANCH   4   5
ATOM      5  O   UNL A   1      46.595  20.199  24.410  1.00  0.00    -0.376 OA
BRANCH   5   6
ATOM      6  C   UNL A   1      46.290  21.519  24.831  1.00  0.00     0.202 C 
BRANCH   6   7
ATOM      7  C   UNL A   1      45.119  22.366  24.295  1.00  0.00     0.261 C 
BRANCH   7   8
ATOM      8  O   UNL A   1      45.347  23.762  24.107  1.00  0.00    -0.460 OA
BRANCH   8   9
ATOM      9  C   UNL A   1      44.686  24.618  24.903  1.00  0.00     0.338 C 
ATOM     10  O   UNL A   1      43.512  24.935  24.829  1.00  0.00    -0.246 OA
BRANCH   9  11
ATOM     11  C   UNL A   1      45.588  24.966  26.023  1.00  0.00     0.087 C 
ATOM     12  C   UNL A   1      50.596  25.522  30.102  1.00  0.00     0.046 C 
ATOM     13  C   UNL A   1      49.625  25.600  28.951  1.00  0.00    -0.026 A 
ATOM     14  C   UNL A   1      50.068  25.625  27.615  1.00  0.00     0.045 A 
ATOM     15  C   UNL A   1      48.228  25.572  29.203  1.00  0.00    -0.004 A 
ATOM     16  Cl  UNL A   1      51.743  25.710  27.187  1.00  0.00    -0.084 Cl
ATOM     17  C   UNL A   1      49.161  25.543  26.556  1.00  0.00     0.032 A 
ATOM     18  C   UNL A   1      47.327  25.500  28.119  1.00  0.00     0.131 A 
ATOM     19  C   UNL A   1      47.652  25.582  30.601  1.00  0.00     0.049 C 
ATOM     20  C   UNL A   1      47.796  25.427  26.808  1.00  0.00     0.019 A 
ATOM     21  O   UNL A   1      45.994  25.487  28.427  1.00  0.00    -0.475 OA
ATOM     22  C   UNL A   1      46.881  25.136  25.721  1.00  0.00     0.027 C 
ATOM     23  C   UNL A   1      45.013  25.172  27.401  1.00  0.00     0.316 C 
BRANCH  23  24
ATOM     24  C   UNL A   1      44.201  23.961  27.876  1.00  0.00     0.430 C 
ATOM     25  F   UNL A   1      44.781  22.799  27.498  1.00  0.00    -0.167 F 
ATOM     26  F   UNL A   1      44.079  23.931  29.222  1.00  0.00    -0.167 F 
ATOM     27  F   UNL A   1      42.950  23.977  27.358  1.00  0.00    -0.167 F 
ENDBRANCH  23  24
ENDBRANCH   9  11
ENDBRANCH   8   9
ENDBRANCH   7   8
ENDBRANCH   6   7
ENDBRANCH   5   6
ENDBRANCH   4   5
ENDBRANCH   3   4
ENDBRANCH   2   3
ENDBRANCH   1   2
BRANCH   1  28
ATOM     28  C   UNL A   1      41.986  18.979  26.524  1.00  0.00     0.188 C 
BRANCH  28  29
ATOM     29  O   UNL A   1      40.852  19.210  25.695  1.00  0.00    -0.376 OA
BRANCH  29  30
ATOM     30  C   UNL A   1      40.027  20.324  25.996  1.00  0.00     0.202 C 
BRANCH  30  31
ATOM     31  C   UNL A   1      40.732  21.685  26.036  1.00  0.00     0.261 C 
BRANCH  31  32
ATOM     32  O   UNL A   1      40.219  22.623  26.993  1.00  0.00    -0.460 OA
BRANCH  32  33
ATOM     33  C   UNL A   1      39.266  23.483  26.576  1.00  0.00     0.338 C 
ATOM     34  O   UNL A   1      38.267  23.217  25.930  1.00  0.00    -0.246 OA
BRANCH  33  35
ATOM     35  C   UNL A   1      39.541  24.786  27.215  1.00  0.00     0.060 A 
ATOM     36  C   UNL A   1      40.153  25.799  26.466  1.00  0.00     0.016 A 
ATOM     37  C   UNL A   1      39.167  25.009  28.543  1.00  0.00     0.016 A 
ATOM     38  C   UNL A   1      40.419  27.034  27.057  1.00  0.00     0.010 A 
ATOM     39  C   UNL A   1      39.454  26.238  29.138  1.00  0.00     0.010 A 
ATOM     40  C   UNL A   1      40.110  27.244  28.407  1.00  0.00    -0.014 A 
BRANCH  40  41
ATOM     41  C   UNL A   1      40.643  28.435  29.108  1.00  0.00     0.031 A 
ATOM     42  C   UNL A   1      39.661  29.451  29.625  1.00  0.00     0.074 A 
ATOM     43  C   UNL A   1      41.963  28.614  29.285  1.00  0.00     0.049 A 
ATOM     44  N   UNL A   1      39.887  30.576  30.250  1.00  0.00    -0.248 NA
ATOM     45  C   UNL A   1      38.234  29.157  29.411  1.00  0.00     0.031 C 
ATOM     46  C   UNL A   1      43.007  27.692  28.841  1.00  0.00     0.029 A 
ATOM     47  N   UNL A   1      42.651  29.645  29.874  1.00  0.00    -0.354 N 
ATOM     48  C   UNL A   1      38.636  31.131  30.490  1.00  0.00     0.074 A 
ATOM     49  C   UNL A   1      37.655  30.232  29.924  1.00  0.00     0.031 C 
ATOM     50  C   UNL A   1      44.207  28.208  29.161  1.00  0.00     0.029 A 
ATOM     51  C   UNL A   1      44.017  29.507  29.807  1.00  0.00     0.049 A 
ATOM     52  H   UNL A   1      42.207  30.412  30.304  1.00  0.00     0.167 HD
ATOM     53  C   UNL A   1      38.330  32.275  31.143  1.00  0.00     0.034 A 
ATOM     54  C   UNL A   1      45.000  30.340  30.209  1.00  0.00     0.034 A 
ATOM     55  C   UNL A   1      39.307  33.160  31.712  1.00  0.00     0.049 A 
ATOM     56  C   UNL A   1      44.633  31.638  30.887  1.00  0.00     0.074 A 
ATOM     57  C   UNL A   1      39.095  34.333  32.415  1.00  0.00     0.029 A 
ATOM     58  N   UNL A   1      40.679  32.982  31.634  1.00  0.00    -0.354 N 
ATOM     59  N   UNL A   1      43.446  32.101  31.199  1.00  0.00    -0.248 NA
ATOM     60  C   UNL A   1      45.740  32.516  31.296  1.00  0.00     0.031 C 
ATOM     61  C   UNL A   1      40.340  34.880  32.735  1.00  0.00     0.029 A 
ATOM     62  C   UNL A   1      41.328  34.029  32.265  1.00  0.00     0.049 A 
ATOM     63  H   UNL A   1      41.127  32.222  31.196  1.00  0.00     0.167 HD
ATOM     64  C   UNL A   1      43.663  33.301  31.868  1.00  0.00     0.074 A 
ATOM     65  C   UNL A   1      45.098  33.486  31.933  1.00  0.00     0.031 C 
ATOM     66  C   UNL A   1      42.757  34.176  32.371  1.00  0.00     0.034 A 
BRANCH  53  67
ATOM     67  C   UNL A   1      36.874  32.620  31.313  1.00  0.00     0.023 A 
ATOM     68  C   UNL A   1      36.269  32.470  32.577  1.00  0.00     0.012 A 
ATOM     69  C   UNL A   1      36.132  33.170  30.251  1.00  0.00     0.148 A 
ATOM     70  C   UNL A   1      34.940  32.842  32.776  1.00  0.00     0.002 A 
ATOM     71  C   UNL A   1      34.823  33.583  30.468  1.00  0.00     0.091 A 
ATOM     72  F   UNL A   1      36.719  33.282  29.051  1.00  0.00    -0.205 F 
ATOM     73  C   UNL A   1      34.222  33.409  31.727  1.00  0.00     0.022 A 
BRANCH  71  74
ATOM     74  S   UNL A   1      33.840  34.405  29.210  1.00  0.00     0.127 S 
ATOM     75  O   UNL A   1      34.763  35.440  28.745  1.00  0.00    -0.237 OA
ATOM     76  O   UNL A   1      33.603  33.324  28.253  1.00  0.00    -0.237 OA
ATOM     77  O   UNL A   1      32.648  34.896  29.886  1.00  0.00    -0.744 OA
ENDBRANCH  71  74
ENDBRANCH  53  67
BRANCH  54  78
ATOM     78  C   UNL A   1      46.427  29.948  30.028  1.00  0.00     0.023 A 
ATOM     79  C   UNL A   1      47.110  29.314  31.086  1.00  0.00     0.012 A 
ATOM     80  C   UNL A   1      47.100  30.163  28.810  1.00  0.00     0.148 A 
ATOM     81  C   UNL A   1      48.440  28.920  30.939  1.00  0.00     0.002 A 
ATOM     82  C   UNL A   1      48.407  29.716  28.651  1.00  0.00     0.091 A 
ATOM     83  F   UNL A   1      46.440  30.784  27.822  1.00  0.00    -0.205 F 
ATOM     84  C   UNL A   1      49.084  29.108  29.720  1.00  0.00     0.022 A 
BRANCH  82  85
ATOM     85  S   UNL A   1      49.273  29.794  27.079  1.00  0.00     0.127 S 
ATOM     86  O   UNL A   1      48.444  28.937  26.236  1.00  0.00    -0.237 OA
ATOM     87  O   UNL A   1      49.200  31.222  26.771  1.00  0.00    -0.237 OA
ATOM     88  O   UNL A   1      50.618  29.301  27.345  1.00  0.00    -0.744 OA
ENDBRANCH  82  85
ENDBRANCH  54  78
BRANCH  66  89
ATOM     89  C   UNL A   1      43.267  35.415  33.065  1.00  0.00     0.023 A 
ATOM     90  C   UNL A   1      43.426  36.609  32.336  1.00  0.00     0.012 A 
ATOM     91  C   UNL A   1      43.455  35.429  34.463  1.00  0.00     0.148 A 
ATOM     92  C   UNL A   1      43.786  37.792  32.983  1.00  0.00     0.002 A 
ATOM     93  C   UNL A   1      43.760  36.622  35.108  1.00  0.00     0.091 A 
ATOM     94  F   UNL A   1      43.310  34.279  35.139  1.00  0.00    -0.205 F 
ATOM     95  C   UNL A   1      43.936  37.802  34.367  1.00  0.00     0.022 A 
BRANCH  93  96
ATOM     96  S   UNL A   1      43.863  36.760  36.896  1.00  0.00     0.127 S 
ATOM     97  O   UNL A   1      45.109  36.048  37.178  1.00  0.00    -0.237 OA
ATOM     98  O   UNL A   1      43.930  38.208  37.092  1.00  0.00    -0.237 OA
ATOM     99  O   UNL A   1      42.657  36.130  37.420  1.00  0.00    -0.744 OA
ENDBRANCH  93  96
ENDBRANCH  66  89
ENDBRANCH  40  41
ENDBRANCH  33  35
ENDBRANCH  32  33
ENDBRANCH  31  32
ENDBRANCH  30  31
ENDBRANCH  29  30
ENDBRANCH  28  29
ENDBRANCH   1  28
TORSDOF 24
ENDMDL
MODEL 3
REMARK VINA RESULT:      -9.9      5.438     10.254
REMARK SMILES Cc1c(Cl)cc2c(c1C)O[C@H](C(F)(F)F)C(C(=O)OCCOCCOCCOCCOC(=O)c1ccc(-c3c4nc(c(-c5cccc(S(=O)(=O)[O-])c5F)c5ccc([nH]5)c(-c5cccc(S(=O)(=O)[O-])c5F)c5nc(c(-c6cccc(S(=O)(=O)[O-])c6F)c6ccc3[nH]6)C=C5)C=C4)cc1)=C2
REMARK SMILES IDX 26 1 25 2 24 3 23 4 22 5 21 6 20 7 19 8 17 9 18 10 16 11
REMARK SMILES IDX 1 12 2 13 3 14 8 15 4 16 5 17 7 18 9 19 6 20 10 21 97 22
REMARK SMILES IDX 11 23 12 24 13 25 14 26 15 27 27 28 28 29 29 30 30 31 31 32
REMARK SMILES IDX 32 33 33 34 34 35 35 36 96 37 36 38 95 39 37 40 38 41 39 42
REMARK SMILES IDX 89 43 40 44 94 45 88 46 90 47 41 48 93 49 87 50 86 51 42 53
REMARK SMILES IDX 74 54 54 55 73 56 55 57 58 58 72 59 91 60 56 61 57 62 71 64
REMARK SMILES IDX 92 65 59 66 43 67 44 68 52 69 45 70 47 71 53 72 46 73 48 74
REMARK SMILES IDX 49 75 50 76 51 77 75 78 76 79 84 80 77 81 79 82 85 83 78 84
REMARK SMILES IDX 80 85 81 86 82 87 83 88 60 89 61 90 69 91 62 92 64 93 70 94
REMARK SMILES IDX 63 95 65 96 66 97 67 98 68 99
REMARK H PARENT 90 52 58 63
REMARK Flexibility Score: inf
ROOT
ATOM      1  C   UNL A   1      43.446  19.173  25.673  1.00  0.00     0.188 C 
ENDROOT
BRANCH   1   2
ATOM      2  O   UNL A   1      44.558  18.351  26.030  1.00  0.00    -0.377 OA
BRANCH   2   3
ATOM      3  C   UNL A   1      45.709  18.392  25.206  1.00  0.00     0.188 C 
BRANCH   3   4
ATOM      4  C   UNL A   1      45.751  19.630  24.291  1.00  0.00     0.188 C 
BRANCH   4   5
ATOM      5  O   UNL A   1      46.559  20.681  24.793  1.00  0.00    -0.376 OA
BRANCH   5   6
ATOM      6  C   UNL A   1      45.993  21.912  25.215  1.00  0.00     0.202 C 
BRANCH   6   7
ATOM      7  C   UNL A   1      44.667  22.498  24.692  1.00  0.00     0.261 C 
BRANCH   7   8
ATOM      8  O   UNL A   1      44.651  23.880  24.340  1.00  0.00    -0.460 OA
BRANCH   8   9
ATOM      9  C   UNL A   1      43.899  24.708  25.083  1.00  0.00     0.338 C 
ATOM     10  O   UNL A   1      42.779  25.112  24.829  1.00  0.00    -0.246 OA
BRANCH   9  11
ATOM     11  C   UNL A   1      44.594  24.893  26.377  1.00  0.00     0.087 C 
ATOM     12  C   UNL A   1      46.090  25.747  32.627  1.00  0.00     0.046 C 
ATOM     13  C   UNL A   1      45.662  25.226  31.278  1.00  0.00    -0.026 A 
ATOM     14  C   UNL A   1      44.584  24.330  31.144  1.00  0.00     0.045 A 
ATOM     15  C   UNL A   1      46.302  25.699  30.102  1.00  0.00    -0.004 A 
ATOM     16  Cl  UNL A   1      43.759  23.649  32.504  1.00  0.00    -0.084 Cl
ATOM     17  C   UNL A   1      44.099  23.974  29.883  1.00  0.00     0.032 A 
ATOM     18  C   UNL A   1      45.804  25.320  28.838  1.00  0.00     0.131 A 
ATOM     19  C   UNL A   1      47.491  26.633  30.142  1.00  0.00     0.049 C 
ATOM     20  C   UNL A   1      44.675  24.510  28.732  1.00  0.00     0.019 A 
ATOM     21  O   UNL A   1      46.471  25.800  27.745  1.00  0.00    -0.475 OA
ATOM     22  C   UNL A   1      44.043  24.302  27.443  1.00  0.00     0.027 C 
ATOM     23  C   UNL A   1      45.890  25.661  26.418  1.00  0.00     0.316 C 
BRANCH  23  24
ATOM     24  C   UNL A   1      45.752  27.063  25.812  1.00  0.00     0.430 C 
ATOM     25  F   UNL A   1      44.510  27.563  26.003  1.00  0.00    -0.167 F 
ATOM     26  F   UNL A   1      46.627  27.938  26.356  1.00  0.00    -0.167 F 
ATOM     27  F   UNL A   1      45.980  27.043  24.477  1.00  0.00    -0.167 F 
ENDBRANCH  23  24
ENDBRANCH   9  11
ENDBRANCH   8   9
ENDBRANCH   7   8
ENDBRANCH   6   7
ENDBRANCH   5   6
ENDBRANCH   4   5
ENDBRANCH   3   4
ENDBRANCH   2   3
ENDBRANCH   1   2
BRANCH   1  28
ATOM     28  C   UNL A   1      42.121  19.147  26.474  1.00  0.00     0.188 C 
BRANCH  28  29
ATOM     29  O   UNL A   1      40.992  19.646  25.765  1.00  0.00    -0.376 OA
BRANCH  29  30
ATOM     30  C   UNL A   1      40.352  20.807  26.269  1.00  0.00     0.202 C 
BRANCH  30  31
ATOM     31  C   UNL A   1      41.177  22.098  26.221  1.00  0.00     0.261 C 
BRANCH  31  32
ATOM     32  O   UNL A   1      40.765  23.133  27.124  1.00  0.00    -0.460 OA
BRANCH  32  33
ATOM     33  C   UNL A   1      39.798  23.978  26.707  1.00  0.00     0.338 C 
ATOM     34  O   UNL A   1      38.867  23.721  25.964  1.00  0.00    -0.246 OA
BRANCH  33  35
ATOM     35  C   UNL A   1      39.949  25.230  27.475  1.00  0.00     0.060 A 
ATOM     36  C   UNL A   1      40.541  26.342  26.861  1.00  0.00     0.016 A 
ATOM     37  C   UNL A   1      39.480  25.309  28.789  1.00  0.00     0.016 A 
ATOM     38  C   UNL A   1      40.691  27.530  27.574  1.00  0.00     0.010 A 
ATOM     39  C   UNL A   1      39.650  26.493  29.508  1.00  0.00     0.010 A 
ATOM     40  C   UNL A   1      40.285  27.598  28.914  1.00  0.00    -0.014 A 
BRANCH  40  41
ATOM     41  C   UNL A   1      40.696  28.749  29.751  1.00  0.00     0.031 A 
ATOM     42  C   UNL A   1      39.639  29.733  30.171  1.00  0.00     0.074 A 
ATOM     43  C   UNL A   1      41.974  28.918  30.133  1.00  0.00     0.049 A 
ATOM     44  N   UNL A   1      39.759  30.822  30.883  1.00  0.00    -0.248 NA
ATOM     45  C   UNL A   1      38.262  29.450  29.730  1.00  0.00     0.031 C 
ATOM     46  C   UNL A   1      43.081  28.024  29.800  1.00  0.00     0.029 A 
ATOM     47  N   UNL A   1      42.557  29.917  30.874  1.00  0.00    -0.354 N 
ATOM     48  C   UNL A   1      38.480  31.361  30.964  1.00  0.00     0.074 A 
ATOM     49  C   UNL A   1      37.603  30.494  30.210  1.00  0.00     0.031 C 
ATOM     50  C   UNL A   1      44.215  28.523  30.323  1.00  0.00     0.029 A 
ATOM     51  C   UNL A   1      43.919  29.783  31.004  1.00  0.00     0.049 A 
ATOM     52  H   UNL A   1      42.046  30.658  31.274  1.00  0.00     0.167 HD
ATOM     53  C   UNL A   1      38.070  32.466  31.626  1.00  0.00     0.034 A 
ATOM     54  C   UNL A   1      44.822  30.594  31.594  1.00  0.00     0.034 A 
ATOM     55  C   UNL A   1      38.943  33.320  32.382  1.00  0.00     0.049 A 
ATOM     56  C   UNL A   1      44.346  31.852  32.280  1.00  0.00     0.074 A 
ATOM     57  C   UNL A   1      38.617  34.451  33.109  1.00  0.00     0.029 A 
ATOM     58  N   UNL A   1      40.313  33.148  32.501  1.00  0.00    -0.354 N 
ATOM     59  N   UNL A   1      43.121  32.295  32.436  1.00  0.00    -0.248 NA
ATOM     60  C   UNL A   1      45.372  32.707  32.897  1.00  0.00     0.031 C 
ATOM     61  C   UNL A   1      39.795  34.981  33.641  1.00  0.00     0.029 A 
ATOM     62  C   UNL A   1      40.850  34.159  33.277  1.00  0.00     0.049 A 
ATOM     63  H   UNL A   1      40.828  32.414  32.093  1.00  0.00     0.167 HD
ATOM     64  C   UNL A   1      43.226  33.456  33.195  1.00  0.00     0.074 A 
ATOM     65  C   UNL A   1      44.633  33.639  33.484  1.00  0.00     0.031 C 
ATOM     66  C   UNL A   1      42.246  34.301  33.605  1.00  0.00     0.034 A 
BRANCH  53  67
ATOM     67  C   UNL A   1      36.602  32.800  31.596  1.00  0.00     0.023 A 
ATOM     68  C   UNL A   1      35.840  32.685  32.775  1.00  0.00     0.012 A 
ATOM     69  C   UNL A   1      35.999  33.306  30.428  1.00  0.00     0.148 A 
ATOM     70  C   UNL A   1      34.494  33.047  32.789  1.00  0.00     0.002 A 
ATOM     71  C   UNL A   1      34.670  33.710  30.461  1.00  0.00     0.091 A 
ATOM     72  F   UNL A   1      36.735  33.385  29.310  1.00  0.00    -0.205 F 
ATOM     73  C   UNL A   1      33.913  33.571  31.637  1.00  0.00     0.022 A 
BRANCH  71  74
ATOM     74  S   UNL A   1      33.851  34.479  29.059  1.00  0.00     0.127 S 
ATOM     75  O   UNL A   1      33.682  33.340  28.157  1.00  0.00    -0.237 OA
ATOM     76  O   UNL A   1      32.612  34.970  29.661  1.00  0.00    -0.237 OA
ATOM     77  O   UNL A   1      34.755  35.517  28.585  1.00  0.00    -0.744 OA
ENDBRANCH  71  74
ENDBRANCH  53  67
BRANCH  54  78
ATOM     78  C   UNL A   1      46.265  30.214  31.607  1.00  0.00     0.023 A 
ATOM     79  C   UNL A   1      46.767  29.444  32.675  1.00  0.00     0.012 A 
ATOM     80  C   UNL A   1      47.130  30.576  30.557  1.00  0.00     0.148 A 
ATOM     81  C   UNL A   1      48.108  29.059  32.705  1.00  0.00     0.002 A 
ATOM     82  C   UNL A   1      48.450  30.141  30.564  1.00  0.00     0.091 A 
ATOM     83  F   UNL A   1      46.637  31.325  29.559  1.00  0.00    -0.205 F 
ATOM     84  C   UNL A   1      48.945  29.395  31.645  1.00  0.00     0.022 A 
BRANCH  82  85
ATOM     85  S   UNL A   1      49.567  30.410  29.183  1.00  0.00     0.127 S 
ATOM     86  O   UNL A   1      49.190  31.752  28.749  1.00  0.00    -0.237 OA
ATOM     87  O   UNL A   1      50.873  30.316  29.837  1.00  0.00    -0.237 OA
ATOM     88  O   UNL A   1      49.288  29.341  28.234  1.00  0.00    -0.744 OA
ENDBRANCH  82  85
ENDBRANCH  54  78
BRANCH  66  89
ATOM     89  C   UNL A   1      42.635  35.500  34.434  1.00  0.00     0.023 A 
ATOM     90  C   UNL A   1      42.716  35.384  35.835  1.00  0.00     0.012 A 
ATOM     91  C   UNL A   1      43.049  36.697  33.814  1.00  0.00     0.148 A 
ATOM     92  C   UNL A   1      43.184  36.447  36.608  1.00  0.00     0.002 A 
ATOM     93  C   UNL A   1      43.564  37.732  34.587  1.00  0.00     0.091 A 
ATOM     94  F   UNL A   1      42.952  36.793  32.480  1.00  0.00    -0.205 F 
ATOM     95  C   UNL A   1      43.622  37.612  35.984  1.00  0.00     0.022 A 
BRANCH  93  96
ATOM     96  S   UNL A   1      44.257  39.226  33.868  1.00  0.00     0.127 S 
ATOM     97  O   UNL A   1      44.225  40.146  35.004  1.00  0.00    -0.237 OA
ATOM     98  O   UNL A   1      45.596  38.788  33.475  1.00  0.00    -0.237 OA
ATOM     99  O   UNL A   1      43.384  39.582  32.756  1.00  0.00    -0.744 OA
ENDBRANCH  93  96
ENDBRANCH  66  89
ENDBRANCH  40  41
ENDBRANCH  33  35
ENDBRANCH  32  33
ENDBRANCH  31  32
ENDBRANCH  30  31
ENDBRANCH  29  30
ENDBRANCH  28  29
ENDBRANCH   1  28
TORSDOF 24
ENDMDL
