MODEL 1
REMARK VINA RESULT:      -8.6      0.000      0.000
REMARK SMILES CCOc1ccccc1-c1cc(C(=O)OCCOCCOCCOCCOC(=O)c2ccc(-c3c4nc(c(-c5cccc(S(=O)(=O)[O-])c5F)c5ccc([nH]5)c(-c5cccc(S(=O)(=O)[O-])c5F)c5nc(c(-c6cccc(S(=O)(=O)[O-])c6F)c6ccc3[nH]6)C=C5)C=C4)cc2)c2cc(C)cc(C)c2n1
REMARK SMILES IDX 21 1 20 2 19 3 18 4 17 5 16 6 15 7 13 8 14 9 12 10 10 11
REMARK SMILES IDX 11 12 101 13 100 14 93 15 98 16 94 17 97 18 99 19 95 20
REMARK SMILES IDX 96 21 9 22 4 23 5 24 6 25 8 26 7 27 3 28 2 29 1 30 22 31
REMARK SMILES IDX 23 32 24 33 25 34 26 35 27 36 28 37 29 38 30 39 31 40 92 41
REMARK SMILES IDX 32 42 91 43 33 44 34 45 35 46 85 47 36 48 90 49 84 50 86 51
REMARK SMILES IDX 37 52 89 53 83 54 82 55 38 57 70 58 50 59 69 60 51 61 54 62
REMARK SMILES IDX 68 63 87 64 52 65 53 66 67 68 88 69 55 70 39 71 40 72 48 73
REMARK SMILES IDX 41 74 43 75 49 76 42 77 44 78 45 79 46 80 47 81 71 82 72 83
REMARK SMILES IDX 80 84 73 85 75 86 81 87 74 88 76 89 77 90 78 91 79 92 56 93
REMARK SMILES IDX 57 94 65 95 58 96 60 97 66 98 59 99 61 100 62 101 63 102
REMARK SMILES IDX 64 103
REMARK H PARENT 86 56 54 67
REMARK Flexibility Score: inf
ROOT
ATOM      1  O   UNL A   1      33.918  34.307  30.878  1.00  0.00    -0.377 OA
ENDROOT
BRANCH   1   2
ATOM      2  C   UNL A   1      34.623  33.249  30.252  1.00  0.00     0.188 C 
BRANCH   2   3
ATOM      3  C   UNL A   1      34.910  33.488  28.765  1.00  0.00     0.188 C 
BRANCH   3   4
ATOM      4  O   UNL A   1      35.379  32.424  27.949  1.00  0.00    -0.376 OA
BRANCH   4   5
ATOM      5  C   UNL A   1      34.762  31.142  28.014  1.00  0.00     0.202 C 
BRANCH   5   6
ATOM      6  C   UNL A   1      33.715  30.735  26.956  1.00  0.00     0.261 C 
BRANCH   6   7
ATOM      7  O   UNL A   1      33.770  29.370  26.517  1.00  0.00    -0.460 OA
BRANCH   7   8
ATOM      8  C   UNL A   1      32.762  28.600  26.974  1.00  0.00     0.338 C 
ATOM      9  O   UNL A   1      31.828  28.972  27.667  1.00  0.00    -0.246 OA
BRANCH   8  10
ATOM     10  C   UNL A   1      32.890  27.209  26.492  1.00  0.00     0.071 A 
ATOM     11  C   UNL A   1      34.048  25.224  25.988  1.00  0.00     0.076 A 
ATOM     12  C   UNL A   1      34.119  26.564  26.314  1.00  0.00     0.045 A 
ATOM     13  N   UNL A   1      32.968  24.550  26.432  1.00  0.00    -0.247 NA
ATOM     14  C   UNL A   1      31.805  25.130  26.142  1.00  0.00     0.075 A 
ATOM     15  C   UNL A   1      31.729  26.523  26.088  1.00  0.00     0.015 A 
ATOM     16  C   UNL A   1      30.754  24.351  25.671  1.00  0.00    -0.024 A 
ATOM     17  C   UNL A   1      30.640  27.130  25.422  1.00  0.00     0.014 A 
ATOM     18  C   UNL A   1      29.736  24.955  24.920  1.00  0.00     0.009 A 
ATOM     19  C   UNL A   1      30.794  22.853  25.787  1.00  0.00     0.047 C 
ATOM     20  C   UNL A   1      29.715  26.339  24.732  1.00  0.00    -0.050 A 
ATOM     21  C   UNL A   1      28.870  26.948  23.652  1.00  0.00     0.044 C 
BRANCH  11  22
ATOM     22  C   UNL A   1      34.378  24.659  24.629  1.00  0.00     0.042 A 
ATOM     23  C   UNL A   1      33.991  25.360  23.459  1.00  0.00     0.128 A 
ATOM     24  C   UNL A   1      33.474  24.686  22.346  1.00  0.00     0.047 A 
ATOM     25  C   UNL A   1      33.472  23.298  22.316  1.00  0.00     0.004 A 
ATOM     26  C   UNL A   1      34.502  23.262  24.512  1.00  0.00     0.014 A 
ATOM     27  C   UNL A   1      34.047  22.589  23.368  1.00  0.00     0.001 A 
BRANCH  23  28
ATOM     28  O   UNL A   1      33.909  26.731  23.456  1.00  0.00    -0.493 OA
BRANCH  28  29
ATOM     29  C   UNL A   1      33.389  27.205  22.208  1.00  0.00     0.226 C 
ATOM     30  C   UNL A   1      33.802  28.644  21.947  1.00  0.00     0.049 C 
ENDBRANCH  28  29
ENDBRANCH  23  28
ENDBRANCH  11  22
ENDBRANCH   8  10
ENDBRANCH   7   8
ENDBRANCH   6   7
ENDBRANCH   5   6
ENDBRANCH   4   5
ENDBRANCH   3   4
ENDBRANCH   2   3
ENDBRANCH   1   2
BRANCH   1  31
ATOM     31  C   UNL A   1      33.938  34.269  32.292  1.00  0.00     0.188 C 
BRANCH  31  32
ATOM     32  C   UNL A   1      34.691  35.434  32.952  1.00  0.00     0.188 C 
BRANCH  32  33
ATOM     33  O   UNL A   1      36.105  35.326  32.800  1.00  0.00    -0.376 OA
BRANCH  33  34
ATOM     34  C   UNL A   1      36.737  34.174  33.334  1.00  0.00     0.202 C 
BRANCH  34  35
ATOM     35  C   UNL A   1      37.781  33.514  32.420  1.00  0.00     0.261 C 
BRANCH  35  36
ATOM     36  O   UNL A   1      37.867  32.084  32.502  1.00  0.00    -0.460 OA
BRANCH  36  37
ATOM     37  C   UNL A   1      38.273  31.561  33.679  1.00  0.00     0.338 C 
ATOM     38  O   UNL A   1      37.629  31.510  34.715  1.00  0.00    -0.246 OA
BRANCH  37  39
ATOM     39  C   UNL A   1      39.554  30.859  33.445  1.00  0.00     0.060 A 
ATOM     40  C   UNL A   1      39.546  29.458  33.406  1.00  0.00     0.016 A 
ATOM     41  C   UNL A   1      40.735  31.566  33.196  1.00  0.00     0.016 A 
ATOM     42  C   UNL A   1      40.721  28.760  33.129  1.00  0.00     0.010 A 
ATOM     43  C   UNL A   1      41.920  30.864  32.959  1.00  0.00     0.010 A 
ATOM     44  C   UNL A   1      41.922  29.457  32.952  1.00  0.00    -0.014 A 
BRANCH  44  45
ATOM     45  C   UNL A   1      43.201  28.711  32.998  1.00  0.00     0.031 A 
ATOM     46  C   UNL A   1      43.733  28.320  34.350  1.00  0.00     0.074 A 
ATOM     47  C   UNL A   1      43.865  28.367  31.880  1.00  0.00     0.049 A 
ATOM     48  N   UNL A   1      44.826  27.673  34.657  1.00  0.00    -0.248 NA
ATOM     49  C   UNL A   1      42.918  28.713  35.513  1.00  0.00     0.031 C 
ATOM     50  C   UNL A   1      43.439  28.666  30.516  1.00  0.00     0.029 A 
ATOM     51  N   UNL A   1      45.057  27.703  31.726  1.00  0.00    -0.354 N 
ATOM     52  C   UNL A   1      44.844  27.607  36.045  1.00  0.00     0.074 A 
ATOM     53  C   UNL A   1      43.659  28.283  36.522  1.00  0.00     0.031 C 
ATOM     54  C   UNL A   1      44.373  28.210  29.660  1.00  0.00     0.029 A 
ATOM     55  C   UNL A   1      45.470  27.611  30.419  1.00  0.00     0.049 A 
ATOM     56  H   UNL A   1      45.566  27.328  32.480  1.00  0.00     0.167 HD
ATOM     57  C   UNL A   1      45.761  27.025  36.852  1.00  0.00     0.034 A 
ATOM     58  C   UNL A   1      46.614  27.119  29.901  1.00  0.00     0.034 A 
ATOM     59  C   UNL A   1      46.936  26.350  36.377  1.00  0.00     0.049 A 
ATOM     60  C   UNL A   1      47.645  26.519  30.826  1.00  0.00     0.074 A 
ATOM     61  C   UNL A   1      47.906  25.695  37.113  1.00  0.00     0.029 A 
ATOM     62  N   UNL A   1      47.313  26.263  35.046  1.00  0.00    -0.354 N 
ATOM     63  N   UNL A   1      47.597  26.364  32.127  1.00  0.00    -0.248 NA
ATOM     64  C   UNL A   1      48.873  25.997  30.207  1.00  0.00     0.031 C 
ATOM     65  C   UNL A   1      48.894  25.248  36.229  1.00  0.00     0.029 A 
ATOM     66  C   UNL A   1      48.513  25.582  34.939  1.00  0.00     0.049 A 
ATOM     67  H   UNL A   1      46.803  26.631  34.288  1.00  0.00     0.167 HD
ATOM     68  C   UNL A   1      48.765  25.690  32.476  1.00  0.00     0.074 A 
ATOM     69  C   UNL A   1      49.492  25.454  31.246  1.00  0.00     0.031 C 
ATOM     70  C   UNL A   1      49.200  25.309  33.703  1.00  0.00     0.034 A 
BRANCH  57  71
ATOM     71  C   UNL A   1      45.529  27.101  38.337  1.00  0.00     0.023 A 
ATOM     72  C   UNL A   1      44.868  26.047  39.002  1.00  0.00     0.012 A 
ATOM     73  C   UNL A   1      46.003  28.198  39.079  1.00  0.00     0.148 A 
ATOM     74  C   UNL A   1      44.656  26.101  40.379  1.00  0.00     0.002 A 
ATOM     75  C   UNL A   1      45.832  28.222  40.458  1.00  0.00     0.091 A 
ATOM     76  F   UNL A   1      46.604  29.202  38.424  1.00  0.00    -0.205 F 
ATOM     77  C   UNL A   1      45.148  27.181  41.107  1.00  0.00     0.022 A 
BRANCH  75  78
ATOM     78  S   UNL A   1      46.497  29.529  41.494  1.00  0.00     0.127 S 
ATOM     79  O   UNL A   1      45.912  29.201  42.793  1.00  0.00    -0.237 OA
ATOM     80  O   UNL A   1      47.938  29.293  41.395  1.00  0.00    -0.237 OA
ATOM     81  O   UNL A   1      46.043  30.780  40.904  1.00  0.00    -0.744 OA
ENDBRANCH  75  78
ENDBRANCH  57  71
BRANCH  58  82
ATOM     82  C   UNL A   1      46.848  27.152  28.427  1.00  0.00     0.023 A 
ATOM     83  C   UNL A   1      47.407  28.302  27.836  1.00  0.00     0.012 A 
ATOM     84  C   UNL A   1      46.512  26.055  27.611  1.00  0.00     0.148 A 
ATOM     85  C   UNL A   1      47.596  28.369  26.454  1.00  0.00     0.002 A 
ATOM     86  C   UNL A   1      46.755  26.107  26.244  1.00  0.00     0.091 A 
ATOM     87  F   UNL A   1      45.964  24.977  28.192  1.00  0.00    -0.205 F 
ATOM     88  C   UNL A   1      47.280  27.271  25.660  1.00  0.00     0.022 A 
BRANCH  86  89
ATOM     89  S   UNL A   1      46.489  24.699  25.161  1.00  0.00     0.127 S 
ATOM     90  O   UNL A   1      47.438  24.968  24.083  1.00  0.00    -0.237 OA
ATOM     91  O   UNL A   1      46.847  23.580  26.034  1.00  0.00    -0.237 OA
ATOM     92  O   UNL A   1      45.083  24.747  24.788  1.00  0.00    -0.744 OA
ENDBRANCH  86  89
ENDBRANCH  58  82
BRANCH  70  93
ATOM     93  C   UNL A   1      50.499  24.548  33.786  1.00  0.00     0.023 A 
ATOM     94  C   UNL A   1      51.723  25.239  33.885  1.00  0.00     0.012 A 
ATOM     95  C   UNL A   1      50.495  23.139  33.849  1.00  0.00     0.148 A 
ATOM     96  C   UNL A   1      52.923  24.541  34.009  1.00  0.00     0.002 A 
ATOM     97  C   UNL A   1      51.689  22.452  34.029  1.00  0.00     0.091 A 
ATOM     98  F   UNL A   1      49.322  22.498  33.741  1.00  0.00    -0.205 F 
ATOM     99  C   UNL A   1      52.906  23.151  34.093  1.00  0.00     0.022 A 
BRANCH  97 100
ATOM    100  S   UNL A   1      51.754  20.671  34.251  1.00  0.00     0.127 S 
ATOM    101  O   UNL A   1      51.191  20.193  32.989  1.00  0.00    -0.237 OA
ATOM    102  O   UNL A   1      53.189  20.431  34.409  1.00  0.00    -0.237 OA
ATOM    103  O   UNL A   1      50.959  20.383  35.437  1.00  0.00    -0.744 OA
ENDBRANCH  97 100
ENDBRANCH  70  93
ENDBRANCH  44  45
ENDBRANCH  37  39
ENDBRANCH  36  37
ENDBRANCH  35  36
ENDBRANCH  34  35
ENDBRANCH  33  34
ENDBRANCH  32  33
ENDBRANCH  31  32
ENDBRANCH   1  31
TORSDOF 26
ENDMDL
MODEL 2
REMARK VINA RESULT:      -8.5      5.327      7.502
REMARK SMILES CCOc1ccccc1-c1cc(C(=O)OCCOCCOCCOCCOC(=O)c2ccc(-c3c4nc(c(-c5cccc(S(=O)(=O)[O-])c5F)c5ccc([nH]5)c(-c5cccc(S(=O)(=O)[O-])c5F)c5nc(c(-c6cccc(S(=O)(=O)[O-])c6F)c6ccc3[nH]6)C=C5)C=C4)cc2)c2cc(C)cc(C)c2n1
REMARK SMILES IDX 21 1 20 2 19 3 18 4 17 5 16 6 15 7 13 8 14 9 12 10 10 11
REMARK SMILES IDX 11 12 101 13 100 14 93 15 98 16 94 17 97 18 99 19 95 20
REMARK SMILES IDX 96 21 9 22 4 23 5 24 6 25 8 26 7 27 3 28 2 29 1 30 22 31
REMARK SMILES IDX 23 32 24 33 25 34 26 35 27 36 28 37 29 38 30 39 31 40 92 41
REMARK SMILES IDX 32 42 91 43 33 44 34 45 35 46 85 47 36 48 90 49 84 50 86 51
REMARK SMILES IDX 37 52 89 53 83 54 82 55 38 57 70 58 50 59 69 60 51 61 54 62
REMARK SMILES IDX 68 63 87 64 52 65 53 66 67 68 88 69 55 70 39 71 40 72 48 73
REMARK SMILES IDX 41 74 43 75 49 76 42 77 44 78 45 79 46 80 47 81 71 82 72 83
REMARK SMILES IDX 80 84 73 85 75 86 81 87 74 88 76 89 77 90 78 91 79 92 56 93
REMARK SMILES IDX 57 94 65 95 58 96 60 97 66 98 59 99 61 100 62 101 63 102
REMARK SMILES IDX 64 103
REMARK H PARENT 86 56 54 67
REMARK Flexibility Score: inf
ROOT
ATOM      1  O   UNL A   1      35.008  32.318  32.002  1.00  0.00    -0.377 OA
ENDROOT
BRANCH   1   2
ATOM      2  C   UNL A   1      35.426  32.834  30.750  1.00  0.00     0.188 C 
BRANCH   2   3
ATOM      3  C   UNL A   1      34.465  32.520  29.597  1.00  0.00     0.188 C 
BRANCH   3   4
ATOM      4  O   UNL A   1      34.546  31.273  28.921  1.00  0.00    -0.376 OA
BRANCH   4   5
ATOM      5  C   UNL A   1      33.977  31.120  27.625  1.00  0.00     0.202 C 
BRANCH   5   6
ATOM      6  C   UNL A   1      34.360  29.907  26.752  1.00  0.00     0.261 C 
BRANCH   6   7
ATOM      7  O   UNL A   1      33.967  28.623  27.260  1.00  0.00    -0.460 OA
BRANCH   7   8
ATOM      8  C   UNL A   1      32.642  28.383  27.191  1.00  0.00     0.338 C 
ATOM      9  O   UNL A   1      31.864  28.359  28.132  1.00  0.00    -0.246 OA
BRANCH   8  10
ATOM     10  C   UNL A   1      32.206  28.185  25.794  1.00  0.00     0.071 A 
ATOM     11  C   UNL A   1      31.167  28.804  23.775  1.00  0.00     0.076 A 
ATOM     12  C   UNL A   1      31.362  29.072  25.116  1.00  0.00     0.045 A 
ATOM     13  N   UNL A   1      32.170  28.172  23.133  1.00  0.00    -0.247 NA
ATOM     14  C   UNL A   1      32.595  27.065  23.740  1.00  0.00     0.075 A 
ATOM     15  C   UNL A   1      32.565  26.994  25.134  1.00  0.00     0.015 A 
ATOM     16  C   UNL A   1      32.839  25.924  22.984  1.00  0.00    -0.024 A 
ATOM     17  C   UNL A   1      32.641  25.731  25.763  1.00  0.00     0.014 A 
ATOM     18  C   UNL A   1      32.804  24.669  23.608  1.00  0.00     0.009 A 
ATOM     19  C   UNL A   1      32.943  26.000  21.487  1.00  0.00     0.047 C 
ATOM     20  C   UNL A   1      32.634  24.566  24.990  1.00  0.00    -0.050 A 
ATOM     21  C   UNL A   1      32.231  23.260  25.611  1.00  0.00     0.044 C 
BRANCH  11  22
ATOM     22  C   UNL A   1      29.882  28.275  23.191  1.00  0.00     0.042 A 
ATOM     23  C   UNL A   1      28.924  29.173  22.658  1.00  0.00     0.128 A 
ATOM     24  C   UNL A   1      27.554  28.995  22.885  1.00  0.00     0.047 A 
ATOM     25  C   UNL A   1      27.101  27.843  23.515  1.00  0.00     0.004 A 
ATOM     26  C   UNL A   1      29.388  27.054  23.689  1.00  0.00     0.014 A 
ATOM     27  C   UNL A   1      28.010  26.845  23.855  1.00  0.00     0.001 A 
BRANCH  23  28
ATOM     28  O   UNL A   1      29.315  30.360  22.086  1.00  0.00    -0.493 OA
BRANCH  28  29
ATOM     29  C   UNL A   1      28.526  31.446  22.584  1.00  0.00     0.226 C 
ATOM     30  C   UNL A   1      29.145  32.055  23.832  1.00  0.00     0.049 C 
ENDBRANCH  28  29
ENDBRANCH  23  28
ENDBRANCH  11  22
ENDBRANCH   8  10
ENDBRANCH   7   8
ENDBRANCH   6   7
ENDBRANCH   5   6
ENDBRANCH   4   5
ENDBRANCH   3   4
ENDBRANCH   2   3
ENDBRANCH   1   2
BRANCH   1  31
ATOM     31  C   UNL A   1      34.526  33.293  32.906  1.00  0.00     0.188 C 
BRANCH  31  32
ATOM     32  C   UNL A   1      35.558  33.779  33.934  1.00  0.00     0.188 C 
BRANCH  32  33
ATOM     33  O   UNL A   1      36.187  32.702  34.626  1.00  0.00    -0.376 OA
BRANCH  33  34
ATOM     34  C   UNL A   1      37.369  32.991  35.355  1.00  0.00     0.202 C 
BRANCH  34  35
ATOM     35  C   UNL A   1      38.682  32.570  34.676  1.00  0.00     0.261 C 
BRANCH  35  36
ATOM     36  O   UNL A   1      39.422  33.624  34.043  1.00  0.00    -0.460 OA
BRANCH  36  37
ATOM     37  C   UNL A   1      39.267  33.766  32.709  1.00  0.00     0.338 C 
ATOM     38  O   UNL A   1      38.367  34.361  32.139  1.00  0.00    -0.246 OA
BRANCH  37  39
ATOM     39  C   UNL A   1      40.496  33.264  32.055  1.00  0.00     0.060 A 
ATOM     40  C   UNL A   1      40.456  33.003  30.679  1.00  0.00     0.016 A 
ATOM     41  C   UNL A   1      41.690  33.118  32.767  1.00  0.00     0.016 A 
ATOM     42  C   UNL A   1      41.607  32.585  30.013  1.00  0.00     0.010 A 
ATOM     43  C   UNL A   1      42.834  32.661  32.106  1.00  0.00     0.010 A 
ATOM     44  C   UNL A   1      42.789  32.366  30.731  1.00  0.00    -0.014 A 
BRANCH  44  45
ATOM     45  C   UNL A   1      43.890  31.611  30.091  1.00  0.00     0.031 A 
ATOM     46  C   UNL A   1      45.042  32.399  29.527  1.00  0.00     0.074 A 
ATOM     47  C   UNL A   1      43.889  30.268  30.027  1.00  0.00     0.049 A 
ATOM     48  N   UNL A   1      46.117  31.976  28.916  1.00  0.00    -0.248 NA
ATOM     49  C   UNL A   1      44.968  33.863  29.675  1.00  0.00     0.031 C 
ATOM     50  C   UNL A   1      42.845  29.395  30.558  1.00  0.00     0.029 A 
ATOM     51  N   UNL A   1      44.798  29.406  29.464  1.00  0.00    -0.354 N 
ATOM     52  C   UNL A   1      46.832  33.121  28.582  1.00  0.00     0.074 A 
ATOM     53  C   UNL A   1      46.068  34.254  29.051  1.00  0.00     0.031 C 
ATOM     54  C   UNL A   1      43.160  28.118  30.270  1.00  0.00     0.029 A 
ATOM     55  C   UNL A   1      44.411  28.088  29.515  1.00  0.00     0.049 A 
ATOM     56  H   UNL A   1      45.646  29.704  29.062  1.00  0.00     0.167 HD
ATOM     57  C   UNL A   1      48.023  33.218  27.951  1.00  0.00     0.034 A 
ATOM     58  C   UNL A   1      44.994  26.990  28.991  1.00  0.00     0.034 A 
ATOM     59  C   UNL A   1      48.783  32.091  27.490  1.00  0.00     0.049 A 
ATOM     60  C   UNL A   1      46.299  27.131  28.248  1.00  0.00     0.074 A 
ATOM     61  C   UNL A   1      50.021  32.084  26.872  1.00  0.00     0.029 A 
ATOM     62  N   UNL A   1      48.368  30.771  27.572  1.00  0.00    -0.354 N 
ATOM     63  N   UNL A   1      47.018  28.207  28.036  1.00  0.00    -0.248 NA
ATOM     64  C   UNL A   1      46.890  25.901  27.698  1.00  0.00     0.031 C 
ATOM     65  C   UNL A   1      50.335  30.761  26.543  1.00  0.00     0.029 A 
ATOM     66  C   UNL A   1      49.316  29.941  27.000  1.00  0.00     0.049 A 
ATOM     67  H   UNL A   1      47.524  30.469  27.979  1.00  0.00     0.167 HD
ATOM     68  C   UNL A   1      48.163  27.778  27.369  1.00  0.00     0.074 A 
ATOM     69  C   UNL A   1      48.047  26.342  27.225  1.00  0.00     0.031 C 
ATOM     70  C   UNL A   1      49.211  28.508  26.909  1.00  0.00     0.034 A 
BRANCH  57  71
ATOM     71  C   UNL A   1      48.576  34.599  27.717  1.00  0.00     0.023 A 
ATOM     72  C   UNL A   1      48.105  35.374  26.638  1.00  0.00     0.012 A 
ATOM     73  C   UNL A   1      49.532  35.143  28.595  1.00  0.00     0.148 A 
ATOM     74  C   UNL A   1      48.602  36.658  26.417  1.00  0.00     0.002 A 
ATOM     75  C   UNL A   1      49.986  36.441  28.398  1.00  0.00     0.091 A 
ATOM     76  F   UNL A   1      49.987  34.379  29.599  1.00  0.00    -0.205 F 
ATOM     77  C   UNL A   1      49.532  37.195  27.303  1.00  0.00     0.022 A 
BRANCH  75  78
ATOM     78  S   UNL A   1      51.124  37.251  29.528  1.00  0.00     0.127 S 
ATOM     79  O   UNL A   1      50.511  36.958  30.822  1.00  0.00    -0.237 OA
ATOM     80  O   UNL A   1      52.373  36.535  29.268  1.00  0.00    -0.237 OA
ATOM     81  O   UNL A   1      51.137  38.656  29.147  1.00  0.00    -0.744 OA
ENDBRANCH  75  78
ENDBRANCH  57  71
BRANCH  58  82
ATOM     82  C   UNL A   1      44.361  25.650  29.162  1.00  0.00     0.023 A 
ATOM     83  C   UNL A   1      44.583  24.920  30.347  1.00  0.00     0.012 A 
ATOM     84  C   UNL A   1      43.548  25.093  28.156  1.00  0.00     0.148 A 
ATOM     85  C   UNL A   1      44.034  23.647  30.511  1.00  0.00     0.002 A 
ATOM     86  C   UNL A   1      42.958  23.850  28.350  1.00  0.00     0.091 A 
ATOM     87  F   UNL A   1      43.364  25.796  27.029  1.00  0.00    -0.205 F 
ATOM     88  C   UNL A   1      43.215  23.116  29.519  1.00  0.00     0.022 A 
BRANCH  86  89
ATOM     89  S   UNL A   1      41.797  23.139  27.178  1.00  0.00     0.127 S 
ATOM     90  O   UNL A   1      42.049  23.941  25.983  1.00  0.00    -0.237 OA
ATOM     91  O   UNL A   1      42.262  21.754  27.101  1.00  0.00    -0.237 OA
ATOM     92  O   UNL A   1      40.481  23.300  27.779  1.00  0.00    -0.744 OA
ENDBRANCH  86  89
ENDBRANCH  58  82
BRANCH  70  93
ATOM     93  C   UNL A   1      50.350  27.770  26.252  1.00  0.00     0.023 A 
ATOM     94  C   UNL A   1      50.259  27.384  24.900  1.00  0.00     0.012 A 
ATOM     95  C   UNL A   1      51.547  27.533  26.959  1.00  0.00     0.148 A 
ATOM     96  C   UNL A   1      51.327  26.743  24.273  1.00  0.00     0.002 A 
ATOM     97  C   UNL A   1      52.626  26.945  26.313  1.00  0.00     0.091 A 
ATOM     98  F   UNL A   1      51.609  27.896  28.249  1.00  0.00    -0.205 F 
ATOM     99  C   UNL A   1      52.513  26.535  24.974  1.00  0.00     0.022 A 
BRANCH  97 100
ATOM    100  S   UNL A   1      54.225  26.730  27.103  1.00  0.00     0.127 S 
ATOM    101  O   UNL A   1      54.590  28.111  27.416  1.00  0.00    -0.237 OA
ATOM    102  O   UNL A   1      53.886  25.909  28.266  1.00  0.00    -0.237 OA
ATOM    103  O   UNL A   1      55.074  26.068  26.122  1.00  0.00    -0.744 OA
ENDBRANCH  97 100
ENDBRANCH  70  93
ENDBRANCH  44  45
ENDBRANCH  37  39
ENDBRANCH  36  37
ENDBRANCH  35  36
ENDBRANCH  34  35
ENDBRANCH  33  34
ENDBRANCH  32  33
ENDBRANCH  31  32
ENDBRANCH   1  31
TORSDOF 26
ENDMDL
MODEL 3
REMARK VINA RESULT:      -8.3      5.822     11.676
REMARK SMILES CCOc1ccccc1-c1cc(C(=O)OCCOCCOCCOCCOC(=O)c2ccc(-c3c4nc(c(-c5cccc(S(=O)(=O)[O-])c5F)c5ccc([nH]5)c(-c5cccc(S(=O)(=O)[O-])c5F)c5nc(c(-c6cccc(S(=O)(=O)[O-])c6F)c6ccc3[nH]6)C=C5)C=C4)cc2)c2cc(C)cc(C)c2n1
REMARK SMILES IDX 21 1 20 2 19 3 18 4 17 5 16 6 15 7 13 8 14 9 12 10 10 11
REMARK SMILES IDX 11 12 101 13 100 14 93 15 98 16 94 17 97 18 99 19 95 20
REMARK SMILES IDX 96 21 9 22 4 23 5 24 6 25 8 26 7 27 3 28 2 29 1 30 22 31
REMARK SMILES IDX 23 32 24 33 25 34 26 35 27 36 28 37 29 38 30 39 31 40 92 41
REMARK SMILES IDX 32 42 91 43 33 44 34 45 35 46 85 47 36 48 90 49 84 50 86 51
REMARK SMILES IDX 37 52 89 53 83 54 82 55 38 57 70 58 50 59 69 60 51 61 54 62
REMARK SMILES IDX 68 63 87 64 52 65 53 66 67 68 88 69 55 70 39 71 40 72 48 73
REMARK SMILES IDX 41 74 43 75 49 76 42 77 44 78 45 79 46 80 47 81 71 82 72 83
REMARK SMILES IDX 80 84 73 85 75 86 81 87 74 88 76 89 77 90 78 91 79 92 56 93
REMARK SMILES IDX 57 94 65 95 58 96 60 97 66 98 59 99 61 100 62 101 63 102
REMARK SMILES IDX 64 103
REMARK H PARENT 86 56 54 67
REMARK Flexibility Score: inf
ROOT
ATOM      1  O   UNL A   1      38.061  31.362  30.402  1.00  0.00    -0.377 OA
ENDROOT
BRANCH   1   2
ATOM      2  C   UNL A   1      39.376  30.859  30.555  1.00  0.00     0.188 C 
BRANCH   2   3
ATOM      3  C   UNL A   1      39.713  29.702  29.607  1.00  0.00     0.188 C 
BRANCH   3   4
ATOM      4  O   UNL A   1      40.371  28.544  30.100  1.00  0.00    -0.376 OA
BRANCH   4   5
ATOM      5  C   UNL A   1      41.563  28.075  29.479  1.00  0.00     0.202 C 
BRANCH   5   6
ATOM      6  C   UNL A   1      41.923  28.537  28.051  1.00  0.00     0.261 C 
BRANCH   6   7
ATOM      7  O   UNL A   1      41.262  27.839  26.985  1.00  0.00    -0.460 OA
BRANCH   7   8
ATOM      8  C   UNL A   1      41.204  26.502  27.151  1.00  0.00     0.338 C 
ATOM      9  O   UNL A   1      40.267  25.874  27.621  1.00  0.00    -0.246 OA
BRANCH   8  10
ATOM     10  C   UNL A   1      42.426  25.846  26.644  1.00  0.00     0.071 A 
ATOM     11  C   UNL A   1      43.886  25.048  24.981  1.00  0.00     0.076 A 
ATOM     12  C   UNL A   1      42.633  25.535  25.296  1.00  0.00     0.045 A 
ATOM     13  N   UNL A   1      44.907  25.453  25.764  1.00  0.00    -0.247 NA
ATOM     14  C   UNL A   1      44.692  25.289  27.068  1.00  0.00     0.075 A 
ATOM     15  C   UNL A   1      43.395  25.412  27.570  1.00  0.00     0.015 A 
ATOM     16  C   UNL A   1      45.707  24.773  27.866  1.00  0.00    -0.024 A 
ATOM     17  C   UNL A   1      43.093  24.876  28.842  1.00  0.00     0.014 A 
ATOM     18  C   UNL A   1      45.377  24.149  29.077  1.00  0.00     0.009 A 
ATOM     19  C   UNL A   1      47.121  24.700  27.361  1.00  0.00     0.047 C 
ATOM     20  C   UNL A   1      44.057  24.136  29.534  1.00  0.00    -0.050 A 
ATOM     21  C   UNL A   1      43.633  23.179  30.609  1.00  0.00     0.044 C 
BRANCH  11  22
ATOM     22  C   UNL A   1      44.175  23.616  24.606  1.00  0.00     0.042 A 
ATOM     23  C   UNL A   1      43.479  22.562  25.250  1.00  0.00     0.128 A 
ATOM     24  C   UNL A   1      44.136  21.389  25.641  1.00  0.00     0.047 A 
ATOM     25  C   UNL A   1      45.457  21.178  25.266  1.00  0.00     0.004 A 
ATOM     26  C   UNL A   1      45.459  23.312  24.114  1.00  0.00     0.014 A 
ATOM     27  C   UNL A   1      46.094  22.107  24.448  1.00  0.00     0.001 A 
BRANCH  23  28
ATOM     28  O   UNL A   1      42.195  22.741  25.703  1.00  0.00    -0.493 OA
BRANCH  28  29
ATOM     29  C   UNL A   1      42.030  22.163  27.003  1.00  0.00     0.226 C 
ATOM     30  C   UNL A   1      40.649  22.453  27.567  1.00  0.00     0.049 C 
ENDBRANCH  28  29
ENDBRANCH  23  28
ENDBRANCH  11  22
ENDBRANCH   8  10
ENDBRANCH   7   8
ENDBRANCH   6   7
ENDBRANCH   5   6
ENDBRANCH   4   5
ENDBRANCH   3   4
ENDBRANCH   2   3
ENDBRANCH   1   2
BRANCH   1  31
ATOM     31  C   UNL A   1      37.694  31.648  29.066  1.00  0.00     0.188 C 
BRANCH  31  32
ATOM     32  C   UNL A   1      37.351  33.121  28.798  1.00  0.00     0.188 C 
BRANCH  32  33
ATOM     33  O   UNL A   1      36.214  33.271  27.951  1.00  0.00    -0.376 OA
BRANCH  33  34
ATOM     34  C   UNL A   1      35.079  33.935  28.484  1.00  0.00     0.202 C 
BRANCH  34  35
ATOM     35  C   UNL A   1      34.612  33.439  29.861  1.00  0.00     0.261 C 
BRANCH  35  36
ATOM     36  O   UNL A   1      35.109  34.171  30.990  1.00  0.00    -0.460 OA
BRANCH  36  37
ATOM     37  C   UNL A   1      34.692  33.772  32.211  1.00  0.00     0.338 C 
ATOM     38  O   UNL A   1      33.549  33.486  32.533  1.00  0.00    -0.246 OA
BRANCH  37  39
ATOM     39  C   UNL A   1      35.891  33.527  33.042  1.00  0.00     0.060 A 
ATOM     40  C   UNL A   1      36.148  32.216  33.466  1.00  0.00     0.016 A 
ATOM     41  C   UNL A   1      36.790  34.556  33.342  1.00  0.00     0.016 A 
ATOM     42  C   UNL A   1      37.298  31.933  34.201  1.00  0.00     0.010 A 
ATOM     43  C   UNL A   1      37.922  34.277  34.113  1.00  0.00     0.010 A 
ATOM     44  C   UNL A   1      38.165  32.968  34.568  1.00  0.00    -0.014 A 
BRANCH  44  45
ATOM     45  C   UNL A   1      39.182  32.718  35.617  1.00  0.00     0.031 A 
ATOM     46  C   UNL A   1      40.519  32.185  35.179  1.00  0.00     0.074 A 
ATOM     47  C   UNL A   1      38.943  32.973  36.915  1.00  0.00     0.049 A 
ATOM     48  N   UNL A   1      41.567  31.880  35.898  1.00  0.00    -0.248 NA
ATOM     49  C   UNL A   1      40.696  31.970  33.733  1.00  0.00     0.031 C 
ATOM     50  C   UNL A   1      37.699  33.512  37.458  1.00  0.00     0.029 A 
ATOM     51  N   UNL A   1      39.742  32.789  38.016  1.00  0.00    -0.354 N 
ATOM     52  C   UNL A   1      42.515  31.411  34.997  1.00  0.00     0.074 A 
ATOM     53  C   UNL A   1      41.919  31.464  33.681  1.00  0.00     0.031 C 
ATOM     54  C   UNL A   1      37.808  33.590  38.798  1.00  0.00     0.029 A 
ATOM     55  C   UNL A   1      39.118  33.084  39.205  1.00  0.00     0.049 A 
ATOM     56  H   UNL A   1      40.674  32.476  37.960  1.00  0.00     0.167 HD
ATOM     57  C   UNL A   1      43.775  30.982  35.241  1.00  0.00     0.034 A 
ATOM     58  C   UNL A   1      39.550  32.938  40.474  1.00  0.00     0.034 A 
ATOM     59  C   UNL A   1      44.367  30.934  36.548  1.00  0.00     0.049 A 
ATOM     60  C   UNL A   1      40.942  32.412  40.723  1.00  0.00     0.074 A 
ATOM     61  C   UNL A   1      45.650  30.551  36.895  1.00  0.00     0.029 A 
ATOM     62  N   UNL A   1      43.710  31.254  37.726  1.00  0.00    -0.354 N 
ATOM     63  N   UNL A   1      41.867  32.076  39.856  1.00  0.00    -0.248 NA
ATOM     64  C   UNL A   1      41.362  32.274  42.126  1.00  0.00     0.031 C 
ATOM     65  C   UNL A   1      45.756  30.601  38.290  1.00  0.00     0.029 A 
ATOM     66  C   UNL A   1      44.555  31.061  38.805  1.00  0.00     0.049 A 
ATOM     67  H   UNL A   1      42.781  31.574  37.786  1.00  0.00     0.167 HD
ATOM     68  C   UNL A   1      42.988  31.730  40.606  1.00  0.00     0.074 A 
ATOM     69  C   UNL A   1      42.631  31.912  41.997  1.00  0.00     0.031 C 
ATOM     70  C   UNL A   1      44.201  31.294  40.182  1.00  0.00     0.034 A 
BRANCH  57  71
ATOM     71  C   UNL A   1      44.595  30.526  34.064  1.00  0.00     0.023 A 
ATOM     72  C   UNL A   1      45.424  31.443  33.386  1.00  0.00     0.012 A 
ATOM     73  C   UNL A   1      44.575  29.179  33.659  1.00  0.00     0.148 A 
ATOM     74  C   UNL A   1      46.197  31.030  32.301  1.00  0.00     0.002 A 
ATOM     75  C   UNL A   1      45.384  28.764  32.609  1.00  0.00     0.091 A 
ATOM     76  F   UNL A   1      43.758  28.330  34.300  1.00  0.00    -0.205 F 
ATOM     77  C   UNL A   1      46.185  29.690  31.921  1.00  0.00     0.022 A 
BRANCH  75  78
ATOM     78  S   UNL A   1      45.500  27.048  32.095  1.00  0.00     0.127 S 
ATOM     79  O   UNL A   1      46.331  27.155  30.897  1.00  0.00    -0.237 OA
ATOM     80  O   UNL A   1      46.162  26.429  33.244  1.00  0.00    -0.237 OA
ATOM     81  O   UNL A   1      44.133  26.602  31.867  1.00  0.00    -0.744 OA
ENDBRANCH  75  78
ENDBRANCH  57  71
BRANCH  58  82
ATOM     82  C   UNL A   1      38.666  33.312  41.617  1.00  0.00     0.023 A 
ATOM     83  C   UNL A   1      38.811  34.574  42.226  1.00  0.00     0.012 A 
ATOM     84  C   UNL A   1      37.691  32.422  42.106  1.00  0.00     0.148 A 
ATOM     85  C   UNL A   1      38.022  34.929  43.322  1.00  0.00     0.002 A 
ATOM     86  C   UNL A   1      36.871  32.803  43.161  1.00  0.00     0.091 A 
ATOM     87  F   UNL A   1      37.582  31.219  41.523  1.00  0.00    -0.205 F 
ATOM     88  C   UNL A   1      37.047  34.049  43.783  1.00  0.00     0.022 A 
BRANCH  86  89
ATOM     89  S   UNL A   1      35.512  31.784  43.745  1.00  0.00     0.127 S 
ATOM     90  O   UNL A   1      36.221  30.646  44.325  1.00  0.00    -0.237 OA
ATOM     91  O   UNL A   1      34.870  32.671  44.715  1.00  0.00    -0.237 OA
ATOM     92  O   UNL A   1      34.705  31.490  42.570  1.00  0.00    -0.744 OA
ENDBRANCH  86  89
ENDBRANCH  58  82
BRANCH  70  93
ATOM     93  C   UNL A   1      45.259  31.030  41.223  1.00  0.00     0.023 A 
ATOM     94  C   UNL A   1      45.421  29.736  41.757  1.00  0.00     0.012 A 
ATOM     95  C   UNL A   1      46.149  32.053  41.609  1.00  0.00     0.148 A 
ATOM     96  C   UNL A   1      46.428  29.474  42.685  1.00  0.00     0.002 A 
ATOM     97  C   UNL A   1      47.184  31.771  42.492  1.00  0.00     0.091 A 
ATOM     98  F   UNL A   1      45.970  33.281  41.100  1.00  0.00    -0.205 F 
ATOM     99  C   UNL A   1      47.316  30.486  43.043  1.00  0.00     0.022 A 
BRANCH  97 100
ATOM    100  S   UNL A   1      48.434  32.984  42.931  1.00  0.00     0.127 S 
ATOM    101  O   UNL A   1      49.326  32.924  41.774  1.00  0.00    -0.237 OA
ATOM    102  O   UNL A   1      47.649  34.214  43.035  1.00  0.00    -0.237 OA
ATOM    103  O   UNL A   1      49.013  32.529  44.188  1.00  0.00    -0.744 OA
ENDBRANCH  97 100
ENDBRANCH  70  93
ENDBRANCH  44  45
ENDBRANCH  37  39
ENDBRANCH  36  37
ENDBRANCH  35  36
ENDBRANCH  34  35
ENDBRANCH  33  34
ENDBRANCH  32  33
ENDBRANCH  31  32
ENDBRANCH   1  31
TORSDOF 26
ENDMDL
