MODEL 1
REMARK VINA RESULT:      -7.4      0.000      0.000
REMARK SMILES COCCN1C(=O)C[C@H](C(=O)OCCOCCOCCOCCOC(=O)c2ccc(-c3c4nc(c(-c5cccc(S(=O)(=O)[O-])c5F)c5ccc([nH]5)c(-c5cccc(S(=O)(=O)[O-])c5F)c5nc(c(-c6cccc(S(=O)(=O)[O-])c6F)c6ccc3[nH]6)C=C5)C=C4)cc2)[C@@H]1c1ccccc1N1CCOCC1
REMARK SMILES IDX 18 1 17 2 16 3 15 4 14 5 13 6 12 7 10 8 11 9 9 10 5 11 6 12
REMARK SMILES IDX 90 13 7 14 8 15 4 16 3 17 2 18 1 19 91 20 92 21 96 22 93 23
REMARK SMILES IDX 95 24 94 25 97 26 98 27 102 28 99 29 101 30 100 31 19 32
REMARK SMILES IDX 20 33 21 34 22 35 23 36 24 37 25 38 26 39 27 40 28 41 89 42
REMARK SMILES IDX 29 43 88 44 30 45 31 46 32 47 82 48 33 49 87 50 81 51 83 52
REMARK SMILES IDX 34 53 86 54 80 55 79 56 35 58 67 59 47 60 66 61 48 62 51 63
REMARK SMILES IDX 65 64 84 65 49 66 50 67 64 69 85 70 52 71 36 72 37 73 45 74
REMARK SMILES IDX 38 75 40 76 46 77 39 78 41 79 42 80 43 81 44 82 68 83 69 84
REMARK SMILES IDX 77 85 70 86 72 87 78 88 71 89 73 90 74 91 75 92 76 93 53 94
REMARK SMILES IDX 54 95 62 96 55 97 57 98 63 99 56 100 58 101 59 102 60 103
REMARK SMILES IDX 61 104
REMARK H PARENT 83 57 51 68
REMARK Flexibility Score: inf
ROOT
ATOM      1  O   UNL A   1      38.994  24.477  26.629  1.00  0.00    -0.377 OA
ENDROOT
BRANCH   1   2
ATOM      2  C   UNL A   1      39.118  23.080  26.863  1.00  0.00     0.188 C 
BRANCH   2   3
ATOM      3  C   UNL A   1      38.565  22.136  25.782  1.00  0.00     0.188 C 
BRANCH   3   4
ATOM      4  O   UNL A   1      37.143  21.997  25.774  1.00  0.00    -0.376 OA
BRANCH   4   5
ATOM      5  C   UNL A   1      36.503  21.885  24.513  1.00  0.00     0.202 C 
BRANCH   5   6
ATOM      6  C   UNL A   1      34.979  22.118  24.445  1.00  0.00     0.261 C 
BRANCH   6   7
ATOM      7  O   UNL A   1      34.272  22.783  25.507  1.00  0.00    -0.463 OA
BRANCH   7   8
ATOM      8  C   UNL A   1      34.236  24.124  25.553  1.00  0.00     0.312 C 
ATOM      9  O   UNL A   1      35.157  24.868  25.247  1.00  0.00    -0.252 OA
BRANCH   8  10
ATOM     10  C   UNL A   1      32.956  24.705  26.046  1.00  0.00     0.136 C 
ATOM     11  N   UNL A   1      30.974  25.790  25.484  1.00  0.00    -0.332 N 
ATOM     12  C   UNL A   1      31.563  26.511  26.526  1.00  0.00     0.224 C 
ATOM     13  C   UNL A   1      31.881  24.751  24.952  1.00  0.00     0.132 C 
ATOM     14  O   UNL A   1      31.009  27.328  27.244  1.00  0.00    -0.275 OA
ATOM     15  C   UNL A   1      33.002  26.098  26.645  1.00  0.00     0.118 C 
BRANCH  11  16
ATOM     16  C   UNL A   1      29.528  25.885  25.262  1.00  0.00     0.148 C 
BRANCH  16  17
ATOM     17  C   UNL A   1      29.031  26.362  23.892  1.00  0.00     0.181 C 
BRANCH  17  18
ATOM     18  O   UNL A   1      28.094  27.443  23.993  1.00  0.00    -0.383 OA
ATOM     19  C   UNL A   1      28.056  28.238  22.824  1.00  0.00     0.194 C 
ENDBRANCH  17  18
ENDBRANCH  16  17
ENDBRANCH  11  16
BRANCH  13  20
ATOM     20  C   UNL A   1      32.430  25.010  23.541  1.00  0.00    -0.001 A 
ATOM     21  C   UNL A   1      32.395  23.912  22.638  1.00  0.00     0.008 A 
ATOM     22  C   UNL A   1      32.791  26.307  23.038  1.00  0.00     0.042 A 
ATOM     23  C   UNL A   1      32.686  24.050  21.286  1.00  0.00     0.001 A 
ATOM     24  C   UNL A   1      33.090  26.390  21.656  1.00  0.00     0.026 A 
ATOM     25  C   UNL A   1      33.029  25.293  20.793  1.00  0.00     0.002 A 
BRANCH  22  26
ATOM     26  N   UNL A   1      32.743  27.496  23.775  1.00  0.00    -0.367 N 
ATOM     27  C   UNL A   1      33.935  28.147  24.322  1.00  0.00     0.145 C 
ATOM     28  C   UNL A   1      31.647  28.478  23.546  1.00  0.00     0.145 C 
ATOM     29  C   UNL A   1      33.571  28.956  25.579  1.00  0.00     0.181 C 
ATOM     30  C   UNL A   1      31.419  29.396  24.772  1.00  0.00     0.181 C 
ATOM     31  O   UNL A   1      32.632  29.992  25.255  1.00  0.00    -0.378 OA
ENDBRANCH  22  26
ENDBRANCH  13  20
ENDBRANCH   8  10
ENDBRANCH   7   8
ENDBRANCH   6   7
ENDBRANCH   5   6
ENDBRANCH   4   5
ENDBRANCH   3   4
ENDBRANCH   2   3
ENDBRANCH   1   2
BRANCH   1  32
ATOM     32  C   UNL A   1      40.199  25.216  26.412  1.00  0.00     0.188 C 
BRANCH  32  33
ATOM     33  C   UNL A   1      40.491  26.394  27.362  1.00  0.00     0.188 C 
BRANCH  33  34
ATOM     34  O   UNL A   1      39.380  26.989  28.027  1.00  0.00    -0.376 OA
BRANCH  34  35
ATOM     35  C   UNL A   1      39.657  27.767  29.186  1.00  0.00     0.202 C 
BRANCH  35  36
ATOM     36  C   UNL A   1      38.622  27.654  30.303  1.00  0.00     0.261 C 
BRANCH  36  37
ATOM     37  O   UNL A   1      37.735  28.786  30.343  1.00  0.00    -0.460 OA
BRANCH  37  38
ATOM     38  C   UNL A   1      37.690  29.457  31.518  1.00  0.00     0.338 C 
ATOM     39  O   UNL A   1      36.925  29.253  32.451  1.00  0.00    -0.246 OA
BRANCH  38  40
ATOM     40  C   UNL A   1      38.835  30.385  31.611  1.00  0.00     0.060 A 
ATOM     41  C   UNL A   1      39.107  31.229  30.523  1.00  0.00     0.016 A 
ATOM     42  C   UNL A   1      39.688  30.356  32.715  1.00  0.00     0.016 A 
ATOM     43  C   UNL A   1      40.284  31.972  30.492  1.00  0.00     0.010 A 
ATOM     44  C   UNL A   1      40.874  31.087  32.677  1.00  0.00     0.010 A 
ATOM     45  C   UNL A   1      41.205  31.842  31.537  1.00  0.00    -0.014 A 
BRANCH  45  46
ATOM     46  C   UNL A   1      42.610  32.259  31.327  1.00  0.00     0.031 A 
ATOM     47  C   UNL A   1      43.001  33.648  31.761  1.00  0.00     0.074 A 
ATOM     48  C   UNL A   1      43.511  31.438  30.762  1.00  0.00     0.049 A 
ATOM     49  N   UNL A   1      44.128  34.286  31.589  1.00  0.00    -0.248 NA
ATOM     50  C   UNL A   1      41.974  34.424  32.479  1.00  0.00     0.031 C 
ATOM     51  C   UNL A   1      43.248  30.068  30.325  1.00  0.00     0.029 A 
ATOM     52  N   UNL A   1      44.822  31.659  30.425  1.00  0.00    -0.354 N 
ATOM     53  C   UNL A   1      43.936  35.545  32.147  1.00  0.00     0.074 A 
ATOM     54  C   UNL A   1      42.581  35.589  32.648  1.00  0.00     0.031 C 
ATOM     55  C   UNL A   1      44.353  29.585  29.730  1.00  0.00     0.029 A 
ATOM     56  C   UNL A   1      45.383  30.622  29.718  1.00  0.00     0.049 A 
ATOM     57  H   UNL A   1      45.312  32.477  30.666  1.00  0.00     0.167 HD
ATOM     58  C   UNL A   1      44.813  36.570  32.247  1.00  0.00     0.034 A 
ATOM     59  C   UNL A   1      46.577  30.544  29.097  1.00  0.00     0.034 A 
ATOM     60  C   UNL A   1      46.162  36.514  31.752  1.00  0.00     0.049 A 
ATOM     61  C   UNL A   1      47.527  31.712  29.186  1.00  0.00     0.074 A 
ATOM     62  C   UNL A   1      47.144  37.486  31.819  1.00  0.00     0.029 A 
ATOM     63  N   UNL A   1      46.714  35.429  31.091  1.00  0.00    -0.354 N 
ATOM     64  N   UNL A   1      47.366  32.864  29.791  1.00  0.00    -0.248 NA
ATOM     65  C   UNL A   1      48.835  31.556  28.535  1.00  0.00     0.031 C 
ATOM     66  C   UNL A   1      48.283  36.997  31.170  1.00  0.00     0.029 A 
ATOM     67  C   UNL A   1      48.022  35.706  30.737  1.00  0.00     0.049 A 
ATOM     68  H   UNL A   1      46.244  34.585  30.899  1.00  0.00     0.167 HD
ATOM     69  C   UNL A   1      48.563  33.554  29.628  1.00  0.00     0.074 A 
ATOM     70  C   UNL A   1      49.447  32.680  28.884  1.00  0.00     0.031 C 
ATOM     71  C   UNL A   1      48.902  34.800  30.044  1.00  0.00     0.034 A 
BRANCH  58  72
ATOM     72  C   UNL A   1      44.347  37.828  32.932  1.00  0.00     0.023 A 
ATOM     73  C   UNL A   1      44.514  37.968  34.325  1.00  0.00     0.012 A 
ATOM     74  C   UNL A   1      43.787  38.889  32.194  1.00  0.00     0.148 A 
ATOM     75  C   UNL A   1      44.100  39.128  34.978  1.00  0.00     0.002 A 
ATOM     76  C   UNL A   1      43.422  40.062  32.843  1.00  0.00     0.091 A 
ATOM     77  F   UNL A   1      43.617  38.728  30.874  1.00  0.00    -0.205 F 
ATOM     78  C   UNL A   1      43.565  40.178  34.237  1.00  0.00     0.022 A 
BRANCH  76  79
ATOM     79  S   UNL A   1      42.797  41.501  31.972  1.00  0.00     0.127 S 
ATOM     80  O   UNL A   1      42.858  42.528  33.012  1.00  0.00    -0.237 OA
ATOM     81  O   UNL A   1      43.779  41.661  30.900  1.00  0.00    -0.237 OA
ATOM     82  O   UNL A   1      41.457  41.150  31.522  1.00  0.00    -0.744 OA
ENDBRANCH  76  79
ENDBRANCH  58  72
BRANCH  59  83
ATOM     83  C   UNL A   1      46.944  29.314  28.338  1.00  0.00     0.023 A 
ATOM     84  C   UNL A   1      47.718  28.314  28.956  1.00  0.00     0.012 A 
ATOM     85  C   UNL A   1      46.520  29.130  27.007  1.00  0.00     0.148 A 
ATOM     86  C   UNL A   1      48.097  27.170  28.250  1.00  0.00     0.002 A 
ATOM     87  C   UNL A   1      46.847  27.960  26.331  1.00  0.00     0.091 A 
ATOM     88  F   UNL A   1      45.797  30.100  26.430  1.00  0.00    -0.205 F 
ATOM     89  C   UNL A   1      47.654  26.989  26.942  1.00  0.00     0.022 A 
BRANCH  87  90
ATOM     90  S   UNL A   1      46.200  27.579  24.699  1.00  0.00     0.127 S 
ATOM     91  O   UNL A   1      46.799  28.634  23.886  1.00  0.00    -0.237 OA
ATOM     92  O   UNL A   1      46.742  26.239  24.469  1.00  0.00    -0.237 OA
ATOM     93  O   UNL A   1      44.750  27.624  24.828  1.00  0.00    -0.744 OA
ENDBRANCH  87  90
ENDBRANCH  59  83
BRANCH  71  94
ATOM     94  C   UNL A   1      50.301  35.280  29.756  1.00  0.00     0.023 A 
ATOM     95  C   UNL A   1      51.355  34.948  30.629  1.00  0.00     0.012 A 
ATOM     96  C   UNL A   1      50.579  35.997  28.576  1.00  0.00     0.148 A 
ATOM     97  C   UNL A   1      52.660  35.354  30.349  1.00  0.00     0.002 A 
ATOM     98  C   UNL A   1      51.888  36.352  28.276  1.00  0.00     0.091 A 
ATOM     99  F   UNL A   1      49.559  36.315  27.766  1.00  0.00    -0.205 F 
ATOM    100  C   UNL A   1      52.928  36.045  29.169  1.00  0.00     0.022 A 
BRANCH  98 101
ATOM    101  S   UNL A   1      52.342  37.154  26.735  1.00  0.00     0.127 S 
ATOM    102  O   UNL A   1      53.667  37.683  27.054  1.00  0.00    -0.237 OA
ATOM    103  O   UNL A   1      52.342  36.034  25.793  1.00  0.00    -0.237 OA
ATOM    104  O   UNL A   1      51.315  38.156  26.484  1.00  0.00    -0.744 OA
ENDBRANCH  98 101
ENDBRANCH  71  94
ENDBRANCH  45  46
ENDBRANCH  38  40
ENDBRANCH  37  38
ENDBRANCH  36  37
ENDBRANCH  35  36
ENDBRANCH  34  35
ENDBRANCH  33  34
ENDBRANCH  32  33
ENDBRANCH   1  32
TORSDOF 28
ENDMDL
MODEL 2
REMARK VINA RESULT:      -7.3      7.090     13.922
REMARK SMILES COCCN1C(=O)C[C@H](C(=O)OCCOCCOCCOCCOC(=O)c2ccc(-c3c4nc(c(-c5cccc(S(=O)(=O)[O-])c5F)c5ccc([nH]5)c(-c5cccc(S(=O)(=O)[O-])c5F)c5nc(c(-c6cccc(S(=O)(=O)[O-])c6F)c6ccc3[nH]6)C=C5)C=C4)cc2)[C@@H]1c1ccccc1N1CCOCC1
REMARK SMILES IDX 18 1 17 2 16 3 15 4 14 5 13 6 12 7 10 8 11 9 9 10 5 11 6 12
REMARK SMILES IDX 90 13 7 14 8 15 4 16 3 17 2 18 1 19 91 20 92 21 96 22 93 23
REMARK SMILES IDX 95 24 94 25 97 26 98 27 102 28 99 29 101 30 100 31 19 32
REMARK SMILES IDX 20 33 21 34 22 35 23 36 24 37 25 38 26 39 27 40 28 41 89 42
REMARK SMILES IDX 29 43 88 44 30 45 31 46 32 47 82 48 33 49 87 50 81 51 83 52
REMARK SMILES IDX 34 53 86 54 80 55 79 56 35 58 67 59 47 60 66 61 48 62 51 63
REMARK SMILES IDX 65 64 84 65 49 66 50 67 64 69 85 70 52 71 36 72 37 73 45 74
REMARK SMILES IDX 38 75 40 76 46 77 39 78 41 79 42 80 43 81 44 82 68 83 69 84
REMARK SMILES IDX 77 85 70 86 72 87 78 88 71 89 73 90 74 91 75 92 76 93 53 94
REMARK SMILES IDX 54 95 62 96 55 97 57 98 63 99 56 100 58 101 59 102 60 103
REMARK SMILES IDX 61 104
REMARK H PARENT 83 57 51 68
REMARK Flexibility Score: inf
ROOT
ATOM      1  O   UNL A   1      51.829  25.616  35.869  1.00  0.00    -0.377 OA
ENDROOT
BRANCH   1   2
ATOM      2  C   UNL A   1      52.437  25.723  34.588  1.00  0.00     0.188 C 
BRANCH   2   3
ATOM      3  C   UNL A   1      51.999  26.901  33.700  1.00  0.00     0.188 C 
BRANCH   3   4
ATOM      4  O   UNL A   1      51.216  26.537  32.562  1.00  0.00    -0.376 OA
BRANCH   4   5
ATOM      5  C   UNL A   1      49.926  25.999  32.800  1.00  0.00     0.202 C 
BRANCH   5   6
ATOM      6  C   UNL A   1      49.218  25.263  31.643  1.00  0.00     0.261 C 
BRANCH   6   7
ATOM      7  O   UNL A   1      48.582  25.982  30.571  1.00  0.00    -0.463 OA
BRANCH   7   8
ATOM      8  C   UNL A   1      49.000  25.811  29.307  1.00  0.00     0.312 C 
ATOM      9  O   UNL A   1      48.420  25.157  28.451  1.00  0.00    -0.252 OA
BRANCH   8  10
ATOM     10  C   UNL A   1      50.294  26.471  28.974  1.00  0.00     0.136 C 
ATOM     11  N   UNL A   1      51.339  28.355  28.092  1.00  0.00    -0.332 N 
ATOM     12  C   UNL A   1      51.883  27.238  27.451  1.00  0.00     0.224 C 
ATOM     13  C   UNL A   1      50.166  28.000  28.918  1.00  0.00     0.132 C 
ATOM     14  O   UNL A   1      52.928  27.203  26.823  1.00  0.00    -0.275 OA
ATOM     15  C   UNL A   1      50.980  26.062  27.684  1.00  0.00     0.118 C 
BRANCH  11  16
ATOM     16  C   UNL A   1      52.110  29.601  28.158  1.00  0.00     0.148 C 
BRANCH  16  17
ATOM     17  C   UNL A   1      51.344  30.928  28.220  1.00  0.00     0.181 C 
BRANCH  17  18
ATOM     18  O   UNL A   1      50.596  31.187  27.024  1.00  0.00    -0.383 OA
ATOM     19  C   UNL A   1      49.427  31.945  27.270  1.00  0.00     0.194 C 
ENDBRANCH  17  18
ENDBRANCH  16  17
ENDBRANCH  11  16
BRANCH  13  20
ATOM     20  C   UNL A   1      48.811  28.499  28.395  1.00  0.00    -0.001 A 
ATOM     21  C   UNL A   1      48.524  28.231  27.028  1.00  0.00     0.008 A 
ATOM     22  C   UNL A   1      47.768  29.035  29.227  1.00  0.00     0.042 A 
ATOM     23  C   UNL A   1      47.271  28.458  26.471  1.00  0.00     0.001 A 
ATOM     24  C   UNL A   1      46.515  29.260  28.606  1.00  0.00     0.026 A 
ATOM     25  C   UNL A   1      46.264  28.969  27.263  1.00  0.00     0.002 A 
BRANCH  22  26
ATOM     26  N   UNL A   1      47.864  29.225  30.610  1.00  0.00    -0.367 N 
ATOM     27  C   UNL A   1      48.655  30.298  31.217  1.00  0.00     0.145 C 
ATOM     28  C   UNL A   1      46.753  28.799  31.506  1.00  0.00     0.145 C 
ATOM     29  C   UNL A   1      49.130  29.881  32.620  1.00  0.00     0.181 C 
ATOM     30  C   UNL A   1      47.234  28.553  32.957  1.00  0.00     0.181 C 
ATOM     31  O   UNL A   1      48.007  29.642  33.481  1.00  0.00    -0.378 OA
ENDBRANCH  22  26
ENDBRANCH  13  20
ENDBRANCH   8  10
ENDBRANCH   7   8
ENDBRANCH   6   7
ENDBRANCH   5   6
ENDBRANCH   4   5
ENDBRANCH   3   4
ENDBRANCH   2   3
ENDBRANCH   1   2
BRANCH   1  32
ATOM     32  C   UNL A   1      51.431  24.311  36.300  1.00  0.00     0.188 C 
BRANCH  32  33
ATOM     33  C   UNL A   1      51.320  23.212  35.226  1.00  0.00     0.188 C 
BRANCH  33  34
ATOM     34  O   UNL A   1      50.935  21.910  35.660  1.00  0.00    -0.376 OA
BRANCH  34  35
ATOM     35  C   UNL A   1      50.447  21.012  34.669  1.00  0.00     0.202 C 
BRANCH  35  36
ATOM     36  C   UNL A   1      49.233  20.186  35.086  1.00  0.00     0.261 C 
BRANCH  36  37
ATOM     37  O   UNL A   1      48.151  20.289  34.143  1.00  0.00    -0.460 OA
BRANCH  37  38
ATOM     38  C   UNL A   1      46.905  20.276  34.672  1.00  0.00     0.338 C 
ATOM     39  O   UNL A   1      46.325  19.317  35.162  1.00  0.00    -0.246 OA
BRANCH  38  40
ATOM     40  C   UNL A   1      46.379  21.654  34.752  1.00  0.00     0.060 A 
ATOM     41  C   UNL A   1      44.989  21.840  34.819  1.00  0.00     0.016 A 
ATOM     42  C   UNL A   1      47.237  22.751  34.663  1.00  0.00     0.016 A 
ATOM     43  C   UNL A   1      44.448  23.117  34.697  1.00  0.00     0.010 A 
ATOM     44  C   UNL A   1      46.694  24.028  34.525  1.00  0.00     0.010 A 
ATOM     45  C   UNL A   1      45.299  24.204  34.474  1.00  0.00    -0.014 A 
BRANCH  45  46
ATOM     46  C   UNL A   1      44.748  25.460  33.917  1.00  0.00     0.031 A 
ATOM     47  C   UNL A   1      44.399  25.483  32.451  1.00  0.00     0.074 A 
ATOM     48  C   UNL A   1      44.568  26.550  34.681  1.00  0.00     0.049 A 
ATOM     49  N   UNL A   1      44.009  26.481  31.705  1.00  0.00    -0.248 NA
ATOM     50  C   UNL A   1      44.517  24.203  31.729  1.00  0.00     0.031 C 
ATOM     51  C   UNL A   1      44.850  26.633  36.113  1.00  0.00     0.029 A 
ATOM     52  N   UNL A   1      44.142  27.809  34.343  1.00  0.00    -0.354 N 
ATOM     53  C   UNL A   1      43.867  25.960  30.424  1.00  0.00     0.074 A 
ATOM     54  C   UNL A   1      44.227  24.562  30.488  1.00  0.00     0.031 C 
ATOM     55  C   UNL A   1      44.636  27.896  36.523  1.00  0.00     0.029 A 
ATOM     56  C   UNL A   1      44.234  28.710  35.377  1.00  0.00     0.049 A 
ATOM     57  H   UNL A   1      43.803  28.044  33.449  1.00  0.00     0.167 HD
ATOM     58  C   UNL A   1      43.458  26.586  29.296  1.00  0.00     0.034 A 
ATOM     59  C   UNL A   1      44.056  30.046  35.380  1.00  0.00     0.034 A 
ATOM     60  C   UNL A   1      43.093  27.975  29.243  1.00  0.00     0.049 A 
ATOM     61  C   UNL A   1      43.638  30.732  34.103  1.00  0.00     0.074 A 
ATOM     62  C   UNL A   1      42.644  28.707  28.159  1.00  0.00     0.029 A 
ATOM     63  N   UNL A   1      43.146  28.844  30.321  1.00  0.00    -0.354 N 
ATOM     64  N   UNL A   1      43.422  30.213  32.918  1.00  0.00    -0.248 NA
ATOM     65  C   UNL A   1      43.407  32.182  34.171  1.00  0.00     0.031 C 
ATOM     66  C   UNL A   1      42.452  30.028  28.576  1.00  0.00     0.029 A 
ATOM     67  C   UNL A   1      42.743  30.108  29.930  1.00  0.00     0.049 A 
ATOM     68  H   UNL A   1      43.429  28.599  31.232  1.00  0.00     0.167 HD
ATOM     69  C   UNL A   1      42.994  31.262  32.111  1.00  0.00     0.074 A 
ATOM     70  C   UNL A   1      42.961  32.443  32.950  1.00  0.00     0.031 C 
ATOM     71  C   UNL A   1      42.666  31.257  30.794  1.00  0.00     0.034 A 
BRANCH  58  72
ATOM     72  C   UNL A   1      43.366  25.767  28.035  1.00  0.00     0.023 A 
ATOM     73  C   UNL A   1      42.103  25.364  27.554  1.00  0.00     0.012 A 
ATOM     74  C   UNL A   1      44.521  25.436  27.300  1.00  0.00     0.148 A 
ATOM     75  C   UNL A   1      41.994  24.616  26.382  1.00  0.00     0.002 A 
ATOM     76  C   UNL A   1      44.402  24.733  26.108  1.00  0.00     0.091 A 
ATOM     77  F   UNL A   1      45.714  25.810  27.785  1.00  0.00    -0.205 F 
ATOM     78  C   UNL A   1      43.140  24.310  25.654  1.00  0.00     0.022 A 
BRANCH  76  79
ATOM     79  S   UNL A   1      45.807  24.356  25.057  1.00  0.00     0.127 S 
ATOM     80  O   UNL A   1      45.180  23.572  23.993  1.00  0.00    -0.237 OA
ATOM     81  O   UNL A   1      46.251  25.690  24.650  1.00  0.00    -0.237 OA
ATOM     82  O   UNL A   1      46.752  23.628  25.891  1.00  0.00    -0.744 OA
ENDBRANCH  76  79
ENDBRANCH  58  72
BRANCH  59  83
ATOM     83  C   UNL A   1      44.267  30.825  36.633  1.00  0.00     0.023 A 
ATOM     84  C   UNL A   1      43.172  31.130  37.463  1.00  0.00     0.012 A 
ATOM     85  C   UNL A   1      45.555  31.256  37.010  1.00  0.00     0.148 A 
ATOM     86  C   UNL A   1      43.348  31.885  38.624  1.00  0.00     0.002 A 
ATOM     87  C   UNL A   1      45.732  31.952  38.199  1.00  0.00     0.091 A 
ATOM     88  F   UNL A   1      46.583  30.969  36.199  1.00  0.00    -0.205 F 
ATOM     89  C   UNL A   1      44.628  32.287  38.998  1.00  0.00     0.022 A 
BRANCH  87  90
ATOM     90  S   UNL A   1      47.359  32.383  38.829  1.00  0.00     0.127 S 
ATOM     91  O   UNL A   1      47.028  33.003  40.111  1.00  0.00    -0.237 OA
ATOM     92  O   UNL A   1      47.999  31.070  38.924  1.00  0.00    -0.237 OA
ATOM     93  O   UNL A   1      47.948  33.265  37.832  1.00  0.00    -0.744 OA
ENDBRANCH  87  90
ENDBRANCH  59  83
BRANCH  71  94
ATOM     94  C   UNL A   1      42.191  32.551  30.185  1.00  0.00     0.023 A 
ATOM     95  C   UNL A   1      40.852  32.958  30.343  1.00  0.00     0.012 A 
ATOM     96  C   UNL A   1      43.098  33.399  29.519  1.00  0.00     0.148 A 
ATOM     97  C   UNL A   1      40.414  34.172  29.817  1.00  0.00     0.002 A 
ATOM     98  C   UNL A   1      42.669  34.631  29.043  1.00  0.00     0.091 A 
ATOM     99  F   UNL A   1      44.365  32.987  29.367  1.00  0.00    -0.205 F 
ATOM    100  C   UNL A   1      41.324  35.013  29.178  1.00  0.00     0.022 A 
BRANCH  98 101
ATOM    101  S   UNL A   1      43.788  35.821  28.298  1.00  0.00     0.127 S 
ATOM    102  O   UNL A   1      42.895  36.952  28.048  1.00  0.00    -0.237 OA
ATOM    103  O   UNL A   1      44.764  36.039  29.366  1.00  0.00    -0.237 OA
ATOM    104  O   UNL A   1      44.326  35.178  27.107  1.00  0.00    -0.744 OA
ENDBRANCH  98 101
ENDBRANCH  71  94
ENDBRANCH  45  46
ENDBRANCH  38  40
ENDBRANCH  37  38
ENDBRANCH  36  37
ENDBRANCH  35  36
ENDBRANCH  34  35
ENDBRANCH  33  34
ENDBRANCH  32  33
ENDBRANCH   1  32
TORSDOF 28
ENDMDL
MODEL 3
REMARK VINA RESULT:      -7.3      3.720      6.565
REMARK SMILES COCCN1C(=O)C[C@H](C(=O)OCCOCCOCCOCCOC(=O)c2ccc(-c3c4nc(c(-c5cccc(S(=O)(=O)[O-])c5F)c5ccc([nH]5)c(-c5cccc(S(=O)(=O)[O-])c5F)c5nc(c(-c6cccc(S(=O)(=O)[O-])c6F)c6ccc3[nH]6)C=C5)C=C4)cc2)[C@@H]1c1ccccc1N1CCOCC1
REMARK SMILES IDX 18 1 17 2 16 3 15 4 14 5 13 6 12 7 10 8 11 9 9 10 5 11 6 12
REMARK SMILES IDX 90 13 7 14 8 15 4 16 3 17 2 18 1 19 91 20 92 21 96 22 93 23
REMARK SMILES IDX 95 24 94 25 97 26 98 27 102 28 99 29 101 30 100 31 19 32
REMARK SMILES IDX 20 33 21 34 22 35 23 36 24 37 25 38 26 39 27 40 28 41 89 42
REMARK SMILES IDX 29 43 88 44 30 45 31 46 32 47 82 48 33 49 87 50 81 51 83 52
REMARK SMILES IDX 34 53 86 54 80 55 79 56 35 58 67 59 47 60 66 61 48 62 51 63
REMARK SMILES IDX 65 64 84 65 49 66 50 67 64 69 85 70 52 71 36 72 37 73 45 74
REMARK SMILES IDX 38 75 40 76 46 77 39 78 41 79 42 80 43 81 44 82 68 83 69 84
REMARK SMILES IDX 77 85 70 86 72 87 78 88 71 89 73 90 74 91 75 92 76 93 53 94
REMARK SMILES IDX 54 95 62 96 55 97 57 98 63 99 56 100 58 101 59 102 60 103
REMARK SMILES IDX 61 104
REMARK H PARENT 83 57 51 68
REMARK Flexibility Score: inf
ROOT
ATOM      1  O   UNL A   1      40.568  23.234  26.756  1.00  0.00    -0.377 OA
ENDROOT
BRANCH   1   2
ATOM      2  C   UNL A   1      40.384  21.859  27.068  1.00  0.00     0.188 C 
BRANCH   2   3
ATOM      3  C   UNL A   1      39.551  21.022  26.082  1.00  0.00     0.188 C 
BRANCH   3   4
ATOM      4  O   UNL A   1      38.274  21.573  25.754  1.00  0.00    -0.376 OA
BRANCH   4   5
ATOM      5  C   UNL A   1      37.491  20.883  24.793  1.00  0.00     0.202 C 
BRANCH   5   6
ATOM      6  C   UNL A   1      36.095  21.444  24.451  1.00  0.00     0.261 C 
BRANCH   6   7
ATOM      7  O   UNL A   1      35.934  22.588  23.594  1.00  0.00    -0.463 OA
BRANCH   7   8
ATOM      8  C   UNL A   1      34.711  23.101  23.381  1.00  0.00     0.312 C 
ATOM      9  O   UNL A   1      33.725  22.462  23.040  1.00  0.00    -0.252 OA
BRANCH   8  10
ATOM     10  C   UNL A   1      34.604  24.576  23.564  1.00  0.00     0.136 C 
ATOM     11  N   UNL A   1      33.959  26.314  24.972  1.00  0.00    -0.332 N 
ATOM     12  C   UNL A   1      33.370  26.546  23.726  1.00  0.00     0.224 C 
ATOM     13  C   UNL A   1      34.583  24.975  25.046  1.00  0.00     0.132 C 
ATOM     14  O   UNL A   1      32.909  27.605  23.331  1.00  0.00    -0.275 OA
ATOM     15  C   UNL A   1      33.421  25.278  22.925  1.00  0.00     0.118 C 
BRANCH  11  16
ATOM     16  C   UNL A   1      34.186  27.435  25.889  1.00  0.00     0.148 C 
BRANCH  16  17
ATOM     17  C   UNL A   1      33.065  27.820  26.861  1.00  0.00     0.181 C 
BRANCH  17  18
ATOM     18  O   UNL A   1      33.008  29.232  27.103  1.00  0.00    -0.383 OA
ATOM     19  C   UNL A   1      31.782  29.804  26.689  1.00  0.00     0.194 C 
ENDBRANCH  17  18
ENDBRANCH  16  17
ENDBRANCH  11  16
BRANCH  13  20
ATOM     20  C   UNL A   1      33.876  23.964  25.960  1.00  0.00    -0.001 A 
ATOM     21  C   UNL A   1      34.701  23.257  26.877  1.00  0.00     0.008 A 
ATOM     22  C   UNL A   1      32.449  23.831  26.071  1.00  0.00     0.042 A 
ATOM     23  C   UNL A   1      34.179  22.452  27.883  1.00  0.00     0.001 A 
ATOM     24  C   UNL A   1      31.970  22.990  27.104  1.00  0.00     0.026 A 
ATOM     25  C   UNL A   1      32.810  22.323  27.999  1.00  0.00     0.002 A 
BRANCH  22  26
ATOM     26  N   UNL A   1      31.515  24.562  25.329  1.00  0.00    -0.367 N 
ATOM     27  C   UNL A   1      30.783  24.003  24.190  1.00  0.00     0.145 C 
ATOM     28  C   UNL A   1      30.758  25.678  25.962  1.00  0.00     0.145 C 
ATOM     29  C   UNL A   1      30.402  25.118  23.201  1.00  0.00     0.181 C 
ATOM     30  C   UNL A   1      30.238  26.697  24.919  1.00  0.00     0.181 C 
ATOM     31  O   UNL A   1      29.539  26.075  23.832  1.00  0.00    -0.378 OA
ENDBRANCH  22  26
ENDBRANCH  13  20
ENDBRANCH   8  10
ENDBRANCH   7   8
ENDBRANCH   6   7
ENDBRANCH   5   6
ENDBRANCH   4   5
ENDBRANCH   3   4
ENDBRANCH   2   3
ENDBRANCH   1   2
BRANCH   1  32
ATOM     32  C   UNL A   1      41.709  23.888  27.320  1.00  0.00     0.188 C 
BRANCH  32  33
ATOM     33  C   UNL A   1      41.484  25.255  27.993  1.00  0.00     0.188 C 
BRANCH  33  34
ATOM     34  O   UNL A   1      40.325  25.990  27.609  1.00  0.00    -0.376 OA
BRANCH  34  35
ATOM     35  C   UNL A   1      40.479  26.948  26.568  1.00  0.00     0.202 C 
BRANCH  35  36
ATOM     36  C   UNL A   1      40.056  28.370  26.931  1.00  0.00     0.261 C 
BRANCH  36  37
ATOM     37  O   UNL A   1      40.371  28.704  28.294  1.00  0.00    -0.460 OA
BRANCH  37  38
ATOM     38  C   UNL A   1      39.334  29.142  29.047  1.00  0.00     0.338 C 
ATOM     39  O   UNL A   1      38.199  28.686  29.071  1.00  0.00    -0.246 OA
BRANCH  38  40
ATOM     40  C   UNL A   1      39.804  30.164  30.004  1.00  0.00     0.060 A 
ATOM     41  C   UNL A   1      39.320  31.476  29.878  1.00  0.00     0.016 A 
ATOM     42  C   UNL A   1      40.783  29.858  30.950  1.00  0.00     0.016 A 
ATOM     43  C   UNL A   1      39.884  32.504  30.629  1.00  0.00     0.010 A 
ATOM     44  C   UNL A   1      41.358  30.890  31.691  1.00  0.00     0.010 A 
ATOM     45  C   UNL A   1      40.956  32.222  31.482  1.00  0.00    -0.014 A 
BRANCH  45  46
ATOM     46  C   UNL A   1      41.834  33.323  31.940  1.00  0.00     0.031 A 
ATOM     47  C   UNL A   1      41.655  33.821  33.351  1.00  0.00     0.074 A 
ATOM     48  C   UNL A   1      42.754  33.872  31.131  1.00  0.00     0.049 A 
ATOM     49  N   UNL A   1      42.215  34.836  33.952  1.00  0.00    -0.248 NA
ATOM     50  C   UNL A   1      40.705  33.073  34.195  1.00  0.00     0.031 C 
ATOM     51  C   UNL A   1      43.028  33.455  29.757  1.00  0.00     0.029 A 
ATOM     52  N   UNL A   1      43.602  34.929  31.343  1.00  0.00    -0.354 N 
ATOM     53  C   UNL A   1      41.665  34.869  35.228  1.00  0.00     0.074 A 
ATOM     54  C   UNL A   1      40.715  33.783  35.313  1.00  0.00     0.031 C 
ATOM     55  C   UNL A   1      43.946  34.282  29.229  1.00  0.00     0.029 A 
ATOM     56  C   UNL A   1      44.298  35.301  30.218  1.00  0.00     0.049 A 
ATOM     57  H   UNL A   1      43.703  35.376  32.214  1.00  0.00     0.167 HD
ATOM     58  C   UNL A   1      41.936  35.718  36.246  1.00  0.00     0.034 A 
ATOM     59  C   UNL A   1      45.091  36.369  30.003  1.00  0.00     0.034 A 
ATOM     60  C   UNL A   1      42.889  36.790  36.155  1.00  0.00     0.049 A 
ATOM     61  C   UNL A   1      45.351  37.327  31.139  1.00  0.00     0.074 A 
ATOM     62  C   UNL A   1      43.260  37.698  37.132  1.00  0.00     0.029 A 
ATOM     63  N   UNL A   1      43.616  37.104  35.018  1.00  0.00    -0.354 N 
ATOM     64  N   UNL A   1      44.892  37.298  32.368  1.00  0.00    -0.248 NA
ATOM     65  C   UNL A   1      46.264  38.447  30.869  1.00  0.00     0.031 C 
ATOM     66  C   UNL A   1      44.191  38.580  36.573  1.00  0.00     0.029 A 
ATOM     67  C   UNL A   1      44.430  38.195  35.263  1.00  0.00     0.049 A 
ATOM     68  H   UNL A   1      43.560  36.622  34.161  1.00  0.00     0.167 HD
ATOM     69  C   UNL A   1      45.489  38.368  33.026  1.00  0.00     0.074 A 
ATOM     70  C   UNL A   1      46.359  39.014  32.065  1.00  0.00     0.031 C 
ATOM     71  C   UNL A   1      45.328  38.789  34.306  1.00  0.00     0.034 A 
BRANCH  58  72
ATOM     72  C   UNL A   1      41.207  35.508  37.547  1.00  0.00     0.023 A 
ATOM     73  C   UNL A   1      39.995  36.188  37.786  1.00  0.00     0.012 A 
ATOM     74  C   UNL A   1      41.694  34.606  38.513  1.00  0.00     0.148 A 
ATOM     75  C   UNL A   1      39.297  36.000  38.979  1.00  0.00     0.002 A 
ATOM     76  C   UNL A   1      40.969  34.386  39.677  1.00  0.00     0.091 A 
ATOM     77  F   UNL A   1      42.859  33.987  38.277  1.00  0.00    -0.205 F 
ATOM     78  C   UNL A   1      39.777  35.092  39.918  1.00  0.00     0.022 A 
BRANCH  76  79
ATOM     79  S   UNL A   1      41.460  33.182  40.915  1.00  0.00     0.127 S 
ATOM     80  O   UNL A   1      41.523  31.953  40.124  1.00  0.00    -0.237 OA
ATOM     81  O   UNL A   1      42.760  33.697  41.345  1.00  0.00    -0.237 OA
ATOM     82  O   UNL A   1      40.424  33.210  41.939  1.00  0.00    -0.744 OA
ENDBRANCH  76  79
ENDBRANCH  58  72
BRANCH  59  83
ATOM     83  C   UNL A   1      45.701  36.590  28.661  1.00  0.00     0.023 A 
ATOM     84  C   UNL A   1      45.101  37.487  27.757  1.00  0.00     0.012 A 
ATOM     85  C   UNL A   1      46.881  35.920  28.282  1.00  0.00     0.148 A 
ATOM     86  C   UNL A   1      45.642  37.683  26.485  1.00  0.00     0.002 A 
ATOM     87  C   UNL A   1      47.450  36.168  27.038  1.00  0.00     0.091 A 
ATOM     88  F   UNL A   1      47.430  35.059  29.150  1.00  0.00    -0.205 F 
ATOM     89  C   UNL A   1      46.820  37.031  26.129  1.00  0.00     0.022 A 
BRANCH  87  90
ATOM     90  S   UNL A   1      49.039  35.486  26.553  1.00  0.00     0.127 S 
ATOM     91  O   UNL A   1      49.968  36.339  27.291  1.00  0.00    -0.237 OA
ATOM     92  O   UNL A   1      48.937  34.111  27.046  1.00  0.00    -0.237 OA
ATOM     93  O   UNL A   1      49.091  35.598  25.102  1.00  0.00    -0.744 OA
ENDBRANCH  87  90
ENDBRANCH  59  83
BRANCH  71  94
ATOM     94  C   UNL A   1      46.145  39.969  34.764  1.00  0.00     0.023 A 
ATOM     95  C   UNL A   1      47.374  39.767  35.420  1.00  0.00     0.012 A 
ATOM     96  C   UNL A   1      45.723  41.282  34.474  1.00  0.00     0.148 A 
ATOM     97  C   UNL A   1      48.155  40.854  35.812  1.00  0.00     0.002 A 
ATOM     98  C   UNL A   1      46.531  42.358  34.819  1.00  0.00     0.091 A 
ATOM     99  F   UNL A   1      44.543  41.453  33.861  1.00  0.00    -0.205 F 
ATOM    100  C   UNL A   1      47.740  42.147  35.502  1.00  0.00     0.022 A 
BRANCH  98 101
ATOM    101  S   UNL A   1      46.127  44.050  34.372  1.00  0.00     0.127 S 
ATOM    102  O   UNL A   1      47.333  44.764  34.791  1.00  0.00    -0.237 OA
ATOM    103  O   UNL A   1      45.949  43.952  32.923  1.00  0.00    -0.237 OA
ATOM    104  O   UNL A   1      44.916  44.384  35.110  1.00  0.00    -0.744 OA
ENDBRANCH  98 101
ENDBRANCH  71  94
ENDBRANCH  45  46
ENDBRANCH  38  40
ENDBRANCH  37  38
ENDBRANCH  36  37
ENDBRANCH  35  36
ENDBRANCH  34  35
ENDBRANCH  33  34
ENDBRANCH  32  33
ENDBRANCH   1  32
TORSDOF 28
ENDMDL
