MODEL 1
REMARK VINA RESULT:      -9.8      0.000      0.000
REMARK SMILES CCc1nn(-c2cc(F)c(F)c(F)c2)c(Cl)c1C(=O)OCCOCCOCCOCCOC(=O)c1ccc(-c2c3nc(c(-c4cccc(S(=O)(=O)[O-])c4F)c4ccc([nH]4)c(-c4cccc(S(=O)(=O)[O-])c4F)c4nc(c(-c5cccc(S(=O)(=O)[O-])c5F)c5ccc2[nH]5)C=C4)C=C3)cc1
REMARK SMILES IDX 27 1 26 2 25 3 24 4 23 5 22 6 21 7 20 8 18 9 19 10 17 11
REMARK SMILES IDX 3 12 4 13 5 14 15 15 16 16 2 17 1 18 6 19 7 20 14 21 8 22
REMARK SMILES IDX 12 23 9 24 10 25 13 26 11 27 28 28 29 29 30 30 31 31 32 32
REMARK SMILES IDX 33 33 34 34 35 35 36 36 97 37 37 38 96 39 38 40 39 41 40 42
REMARK SMILES IDX 90 43 41 44 95 45 89 46 91 47 42 48 94 49 88 50 87 51 43 53
REMARK SMILES IDX 75 54 55 55 74 56 56 57 59 58 73 59 92 60 57 61 58 62 72 64
REMARK SMILES IDX 93 65 60 66 44 67 45 68 53 69 46 70 48 71 54 72 47 73 49 74
REMARK SMILES IDX 50 75 51 76 52 77 76 78 77 79 85 80 78 81 80 82 86 83 79 84
REMARK SMILES IDX 81 85 82 86 83 87 84 88 61 89 62 90 70 91 63 92 65 93 71 94
REMARK SMILES IDX 64 95 66 96 67 97 68 98 69 99
REMARK H PARENT 91 52 59 63
REMARK Flexibility Score: inf
ROOT
ATOM      1  C   UNL A   1      34.309  33.461  30.228  1.00  0.00     0.188 C 
ENDROOT
BRANCH   1   2
ATOM      2  O   UNL A   1      34.983  33.221  28.992  1.00  0.00    -0.377 OA
BRANCH   2   3
ATOM      3  C   UNL A   1      34.165  32.734  27.944  1.00  0.00     0.188 C 
BRANCH   3   4
ATOM      4  C   UNL A   1      34.407  31.243  27.620  1.00  0.00     0.188 C 
BRANCH   4   5
ATOM      5  O   UNL A   1      33.406  30.425  27.032  1.00  0.00    -0.376 OA
BRANCH   5   6
ATOM      6  C   UNL A   1      33.406  29.012  27.140  1.00  0.00     0.202 C 
BRANCH   6   7
ATOM      7  C   UNL A   1      32.386  28.102  26.433  1.00  0.00     0.261 C 
BRANCH   7   8
ATOM      8  O   UNL A   1      32.328  26.746  26.871  1.00  0.00    -0.460 OA
BRANCH   8   9
ATOM      9  C   UNL A   1      31.393  25.967  26.279  1.00  0.00     0.343 C 
ATOM     10  O   UNL A   1      30.179  26.112  26.407  1.00  0.00    -0.246 OA
BRANCH   9  11
ATOM     11  C   UNL A   1      31.989  25.034  25.351  1.00  0.00     0.120 A 
ATOM     12  C   UNL A   1      32.382  25.185  23.988  1.00  0.00     0.079 A 
ATOM     13  N   UNL A   1      32.945  24.060  23.509  1.00  0.00    -0.171 NA
ATOM     14  N   UNL A   1      32.733  23.137  24.475  1.00  0.00    -0.221 N 
ATOM     15  C   UNL A   1      32.214  23.704  25.608  1.00  0.00     0.147 A 
ATOM     16  Cl  UNL A   1      31.935  22.768  27.015  1.00  0.00    -0.061 Cl
BRANCH  12  17
ATOM     17  C   UNL A   1      32.304  26.416  23.131  1.00  0.00     0.056 C 
ATOM     18  C   UNL A   1      33.329  26.461  22.005  1.00  0.00     0.011 C 
ENDBRANCH  12  17
BRANCH  14  19
ATOM     19  C   UNL A   1      33.241  21.830  24.357  1.00  0.00     0.072 A 
ATOM     20  C   UNL A   1      32.369  20.753  24.151  1.00  0.00     0.071 A 
ATOM     21  C   UNL A   1      34.591  21.625  24.661  1.00  0.00     0.071 A 
ATOM     22  C   UNL A   1      32.867  19.459  24.272  1.00  0.00     0.164 A 
ATOM     23  C   UNL A   1      35.050  20.321  24.808  1.00  0.00     0.164 A 
ATOM     24  F   UNL A   1      32.039  18.420  24.094  1.00  0.00    -0.204 F 
ATOM     25  C   UNL A   1      34.196  19.239  24.617  1.00  0.00     0.194 A 
ATOM     26  F   UNL A   1      36.317  20.118  25.191  1.00  0.00    -0.204 F 
ATOM     27  F   UNL A   1      34.646  17.990  24.800  1.00  0.00    -0.200 F 
ENDBRANCH  14  19
ENDBRANCH   9  11
ENDBRANCH   8   9
ENDBRANCH   7   8
ENDBRANCH   6   7
ENDBRANCH   5   6
ENDBRANCH   4   5
ENDBRANCH   3   4
ENDBRANCH   2   3
ENDBRANCH   1   2
BRANCH   1  28
ATOM     28  C   UNL A   1      34.714  34.712  31.056  1.00  0.00     0.188 C 
BRANCH  28  29
ATOM     29  O   UNL A   1      34.823  34.495  32.456  1.00  0.00    -0.376 OA
BRANCH  29  30
ATOM     30  C   UNL A   1      36.047  34.505  33.170  1.00  0.00     0.202 C 
BRANCH  30  31
ATOM     31  C   UNL A   1      36.746  33.186  33.464  1.00  0.00     0.261 C 
BRANCH  31  32
ATOM     32  O   UNL A   1      37.228  32.550  32.305  1.00  0.00    -0.460 OA
BRANCH  32  33
ATOM     33  C   UNL A   1      36.492  31.506  31.893  1.00  0.00     0.338 C 
ATOM     34  O   UNL A   1      35.469  31.070  32.405  1.00  0.00    -0.246 OA
BRANCH  33  35
ATOM     35  C   UNL A   1      37.200  30.894  30.772  1.00  0.00     0.060 A 
ATOM     36  C   UNL A   1      37.133  29.504  30.709  1.00  0.00     0.016 A 
ATOM     37  C   UNL A   1      38.230  31.645  30.181  1.00  0.00     0.016 A 
ATOM     38  C   UNL A   1      38.282  28.848  30.357  1.00  0.00     0.010 A 
ATOM     39  C   UNL A   1      39.385  30.993  29.877  1.00  0.00     0.010 A 
ATOM     40  C   UNL A   1      39.414  29.618  30.080  1.00  0.00    -0.014 A 
BRANCH  40  41
ATOM     41  C   UNL A   1      40.668  28.938  29.934  1.00  0.00     0.031 A 
ATOM     42  C   UNL A   1      41.290  28.689  31.243  1.00  0.00     0.074 A 
ATOM     43  C   UNL A   1      41.108  28.517  28.736  1.00  0.00     0.049 A 
ATOM     44  N   UNL A   1      42.275  29.338  31.766  1.00  0.00    -0.248 NA
ATOM     45  C   UNL A   1      40.569  27.817  32.183  1.00  0.00     0.031 C 
ATOM     46  C   UNL A   1      40.383  28.464  27.463  1.00  0.00     0.029 A 
ATOM     47  N   UNL A   1      42.273  27.890  28.451  1.00  0.00    -0.354 N 
ATOM     48  C   UNL A   1      42.462  28.735  33.003  1.00  0.00     0.074 A 
ATOM     49  C   UNL A   1      41.235  28.058  33.312  1.00  0.00     0.031 C 
ATOM     50  C   UNL A   1      41.017  27.596  26.639  1.00  0.00     0.029 A 
ATOM     51  C   UNL A   1      42.234  27.134  27.287  1.00  0.00     0.049 A 
ATOM     52  H   UNL A   1      43.075  27.963  29.018  1.00  0.00     0.167 HD
ATOM     53  C   UNL A   1      43.715  28.540  33.491  1.00  0.00     0.034 A 
ATOM     54  C   UNL A   1      43.084  26.123  26.979  1.00  0.00     0.034 A 
ATOM     55  C   UNL A   1      44.681  29.354  32.792  1.00  0.00     0.049 A 
ATOM     56  C   UNL A   1      44.284  26.279  27.845  1.00  0.00     0.074 A 
ATOM     57  C   UNL A   1      44.803  30.706  32.533  1.00  0.00     0.029 A 
ATOM     58  N   UNL A   1      45.484  28.718  31.874  1.00  0.00    -0.354 N 
ATOM     59  N   UNL A   1      45.115  27.280  27.747  1.00  0.00    -0.248 NA
ATOM     60  C   UNL A   1      44.285  25.594  29.131  1.00  0.00     0.031 C 
ATOM     61  C   UNL A   1      45.282  30.780  31.193  1.00  0.00     0.029 A 
ATOM     62  C   UNL A   1      45.500  29.480  30.736  1.00  0.00     0.049 A 
ATOM     63  H   UNL A   1      45.963  27.868  32.011  1.00  0.00     0.167 HD
ATOM     64  C   UNL A   1      45.387  27.638  29.063  1.00  0.00     0.074 A 
ATOM     65  C   UNL A   1      44.931  26.503  29.868  1.00  0.00     0.031 C 
ATOM     66  C   UNL A   1      45.658  28.932  29.405  1.00  0.00     0.034 A 
BRANCH  53  67
ATOM     67  C   UNL A   1      44.128  27.329  34.293  1.00  0.00     0.023 A 
ATOM     68  C   UNL A   1      44.098  26.088  33.625  1.00  0.00     0.012 A 
ATOM     69  C   UNL A   1      44.277  27.294  35.702  1.00  0.00     0.148 A 
ATOM     70  C   UNL A   1      44.148  24.879  34.325  1.00  0.00     0.002 A 
ATOM     71  C   UNL A   1      44.414  26.093  36.384  1.00  0.00     0.091 A 
ATOM     72  F   UNL A   1      44.145  28.405  36.429  1.00  0.00    -0.205 F 
ATOM     73  C   UNL A   1      44.313  24.881  35.705  1.00  0.00     0.022 A 
BRANCH  71  74
ATOM     74  S   UNL A   1      44.678  26.053  38.162  1.00  0.00     0.127 S 
ATOM     75  O   UNL A   1      43.385  26.514  38.658  1.00  0.00    -0.237 OA
ATOM     76  O   UNL A   1      44.963  24.635  38.387  1.00  0.00    -0.237 OA
ATOM     77  O   UNL A   1      45.812  26.934  38.412  1.00  0.00    -0.744 OA
ENDBRANCH  71  74
ENDBRANCH  53  67
BRANCH  54  78
ATOM     78  C   UNL A   1      42.808  24.866  26.238  1.00  0.00     0.023 A 
ATOM     79  C   UNL A   1      43.662  24.474  25.187  1.00  0.00     0.012 A 
ATOM     80  C   UNL A   1      41.875  23.918  26.719  1.00  0.00     0.148 A 
ATOM     81  C   UNL A   1      43.605  23.181  24.652  1.00  0.00     0.002 A 
ATOM     82  C   UNL A   1      41.812  22.638  26.174  1.00  0.00     0.091 A 
ATOM     83  F   UNL A   1      41.115  24.233  27.774  1.00  0.00    -0.205 F 
ATOM     84  C   UNL A   1      42.685  22.261  25.148  1.00  0.00     0.022 A 
BRANCH  82  85
ATOM     85  S   UNL A   1      40.655  21.401  26.780  1.00  0.00     0.127 S 
ATOM     86  O   UNL A   1      41.155  20.180  26.146  1.00  0.00    -0.237 OA
ATOM     87  O   UNL A   1      40.864  21.473  28.223  1.00  0.00    -0.237 OA
ATOM     88  O   UNL A   1      39.342  21.822  26.309  1.00  0.00    -0.744 OA
ENDBRANCH  82  85
ENDBRANCH  54  78
BRANCH  66  89
ATOM     89  C   UNL A   1      45.889  29.936  28.302  1.00  0.00     0.023 A 
ATOM     90  C   UNL A   1      44.830  30.582  27.629  1.00  0.00     0.012 A 
ATOM     91  C   UNL A   1      47.203  30.384  28.080  1.00  0.00     0.148 A 
ATOM     92  C   UNL A   1      45.078  31.635  26.742  1.00  0.00     0.002 A 
ATOM     93  C   UNL A   1      47.442  31.461  27.237  1.00  0.00     0.091 A 
ATOM     94  F   UNL A   1      48.199  29.764  28.731  1.00  0.00    -0.205 F 
ATOM     95  C   UNL A   1      46.383  32.084  26.558  1.00  0.00     0.022 A 
BRANCH  93  96
ATOM     96  S   UNL A   1      49.082  32.167  27.064  1.00  0.00     0.127 S 
ATOM     97  O   UNL A   1      49.864  31.014  26.623  1.00  0.00    -0.237 OA
ATOM     98  O   UNL A   1      48.876  33.195  26.042  1.00  0.00    -0.237 OA
ATOM     99  O   UNL A   1      49.428  32.698  28.377  1.00  0.00    -0.744 OA
ENDBRANCH  93  96
ENDBRANCH  66  89
ENDBRANCH  40  41
ENDBRANCH  33  35
ENDBRANCH  32  33
ENDBRANCH  31  32
ENDBRANCH  30  31
ENDBRANCH  29  30
ENDBRANCH  28  29
ENDBRANCH   1  28
TORSDOF 25
ENDMDL
MODEL 2
REMARK VINA RESULT:      -8.9      9.364     14.801
REMARK SMILES CCc1nn(-c2cc(F)c(F)c(F)c2)c(Cl)c1C(=O)OCCOCCOCCOCCOC(=O)c1ccc(-c2c3nc(c(-c4cccc(S(=O)(=O)[O-])c4F)c4ccc([nH]4)c(-c4cccc(S(=O)(=O)[O-])c4F)c4nc(c(-c5cccc(S(=O)(=O)[O-])c5F)c5ccc2[nH]5)C=C4)C=C3)cc1
REMARK SMILES IDX 27 1 26 2 25 3 24 4 23 5 22 6 21 7 20 8 18 9 19 10 17 11
REMARK SMILES IDX 3 12 4 13 5 14 15 15 16 16 2 17 1 18 6 19 7 20 14 21 8 22
REMARK SMILES IDX 12 23 9 24 10 25 13 26 11 27 28 28 29 29 30 30 31 31 32 32
REMARK SMILES IDX 33 33 34 34 35 35 36 36 97 37 37 38 96 39 38 40 39 41 40 42
REMARK SMILES IDX 90 43 41 44 95 45 89 46 91 47 42 48 94 49 88 50 87 51 43 53
REMARK SMILES IDX 75 54 55 55 74 56 56 57 59 58 73 59 92 60 57 61 58 62 72 64
REMARK SMILES IDX 93 65 60 66 44 67 45 68 53 69 46 70 48 71 54 72 47 73 49 74
REMARK SMILES IDX 50 75 51 76 52 77 76 78 77 79 85 80 78 81 80 82 86 83 79 84
REMARK SMILES IDX 81 85 82 86 83 87 84 88 61 89 62 90 70 91 63 92 65 93 71 94
REMARK SMILES IDX 64 95 66 96 67 97 68 98 69 99
REMARK H PARENT 91 52 59 63
REMARK Flexibility Score: inf
ROOT
ATOM      1  C   UNL A   1      41.654  40.932  26.030  1.00  0.00     0.188 C 
ENDROOT
BRANCH   1   2
ATOM      2  O   UNL A   1      42.786  40.990  25.163  1.00  0.00    -0.377 OA
BRANCH   2   3
ATOM      3  C   UNL A   1      43.891  41.723  25.661  1.00  0.00     0.188 C 
BRANCH   3   4
ATOM      4  C   UNL A   1      45.205  40.910  25.685  1.00  0.00     0.188 C 
BRANCH   4   5
ATOM      5  O   UNL A   1      46.300  41.219  24.836  1.00  0.00    -0.376 OA
BRANCH   5   6
ATOM      6  C   UNL A   1      46.337  42.376  24.018  1.00  0.00     0.202 C 
BRANCH   6   7
ATOM      7  C   UNL A   1      45.915  42.390  22.539  1.00  0.00     0.261 C 
BRANCH   7   8
ATOM      8  O   UNL A   1      46.571  43.334  21.695  1.00  0.00    -0.460 OA
BRANCH   8   9
ATOM      9  C   UNL A   1      46.638  43.017  20.382  1.00  0.00     0.343 C 
ATOM     10  O   UNL A   1      46.854  41.888  19.945  1.00  0.00    -0.246 OA
BRANCH   9  11
ATOM     11  C   UNL A   1      46.272  44.136  19.545  1.00  0.00     0.120 A 
ATOM     12  C   UNL A   1      47.071  45.102  18.864  1.00  0.00     0.079 A 
ATOM     13  N   UNL A   1      46.313  45.955  18.151  1.00  0.00    -0.171 NA
ATOM     14  N   UNL A   1      45.043  45.677  18.528  1.00  0.00    -0.221 N 
ATOM     15  C   UNL A   1      44.986  44.560  19.317  1.00  0.00     0.147 A 
ATOM     16  Cl  UNL A   1      43.485  43.938  19.858  1.00  0.00    -0.061 Cl
BRANCH  12  17
ATOM     17  C   UNL A   1      48.569  45.195  18.809  1.00  0.00     0.056 C 
ATOM     18  C   UNL A   1      49.232  45.433  20.160  1.00  0.00     0.011 C 
ENDBRANCH  12  17
BRANCH  14  19
ATOM     19  C   UNL A   1      43.948  46.339  17.942  1.00  0.00     0.072 A 
ATOM     20  C   UNL A   1      43.039  45.626  17.149  1.00  0.00     0.071 A 
ATOM     21  C   UNL A   1      43.923  47.736  18.000  1.00  0.00     0.071 A 
ATOM     22  C   UNL A   1      42.109  46.338  16.397  1.00  0.00     0.164 A 
ATOM     23  C   UNL A   1      43.005  48.419  17.212  1.00  0.00     0.164 A 
ATOM     24  F   UNL A   1      41.245  45.669  15.621  1.00  0.00    -0.204 F 
ATOM     25  C   UNL A   1      42.101  47.729  16.410  1.00  0.00     0.194 A 
ATOM     26  F   UNL A   1      43.036  49.758  17.190  1.00  0.00    -0.204 F 
ATOM     27  F   UNL A   1      41.247  48.404  15.628  1.00  0.00    -0.200 F 
ENDBRANCH  14  19
ENDBRANCH   9  11
ENDBRANCH   8   9
ENDBRANCH   7   8
ENDBRANCH   6   7
ENDBRANCH   5   6
ENDBRANCH   4   5
ENDBRANCH   3   4
ENDBRANCH   2   3
ENDBRANCH   1   2
BRANCH   1  28
ATOM     28  C   UNL A   1      41.545  39.738  27.019  1.00  0.00     0.188 C 
BRANCH  28  29
ATOM     29  O   UNL A   1      42.170  38.538  26.582  1.00  0.00    -0.376 OA
BRANCH  29  30
ATOM     30  C   UNL A   1      42.931  37.686  27.419  1.00  0.00     0.202 C 
BRANCH  30  31
ATOM     31  C   UNL A   1      42.710  36.182  27.344  1.00  0.00     0.261 C 
BRANCH  31  32
ATOM     32  O   UNL A   1      43.839  35.483  26.879  1.00  0.00    -0.460 OA
BRANCH  32  33
ATOM     33  C   UNL A   1      44.498  34.794  27.823  1.00  0.00     0.338 C 
ATOM     34  O   UNL A   1      45.363  35.214  28.583  1.00  0.00    -0.246 OA
BRANCH  33  35
ATOM     35  C   UNL A   1      44.083  33.400  27.710  1.00  0.00     0.060 A 
ATOM     36  C   UNL A   1      43.933  32.718  28.916  1.00  0.00     0.016 A 
ATOM     37  C   UNL A   1      44.336  32.757  26.486  1.00  0.00     0.016 A 
ATOM     38  C   UNL A   1      44.386  31.427  28.954  1.00  0.00     0.010 A 
ATOM     39  C   UNL A   1      44.829  31.489  26.535  1.00  0.00     0.010 A 
ATOM     40  C   UNL A   1      44.945  30.897  27.787  1.00  0.00    -0.014 A 
BRANCH  40  41
ATOM     41  C   UNL A   1      45.622  29.636  27.882  1.00  0.00     0.031 A 
ATOM     42  C   UNL A   1      44.661  28.524  27.934  1.00  0.00     0.074 A 
ATOM     43  C   UNL A   1      46.961  29.547  27.818  1.00  0.00     0.049 A 
ATOM     44  N   UNL A   1      44.317  27.849  28.978  1.00  0.00    -0.248 NA
ATOM     45  C   UNL A   1      43.789  28.324  26.766  1.00  0.00     0.031 C 
ATOM     46  C   UNL A   1      47.930  30.584  27.454  1.00  0.00     0.029 A 
ATOM     47  N   UNL A   1      47.726  28.435  27.918  1.00  0.00    -0.354 N 
ATOM     48  C   UNL A   1      43.379  26.942  28.505  1.00  0.00     0.074 A 
ATOM     49  C   UNL A   1      42.889  27.478  27.266  1.00  0.00     0.031 C 
ATOM     50  C   UNL A   1      49.091  29.986  27.096  1.00  0.00     0.029 A 
ATOM     51  C   UNL A   1      48.971  28.553  27.316  1.00  0.00     0.049 A 
ATOM     52  H   UNL A   1      47.426  27.616  28.376  1.00  0.00     0.167 HD
ATOM     53  C   UNL A   1      43.351  25.669  28.978  1.00  0.00     0.034 A 
ATOM     54  C   UNL A   1      49.756  27.519  26.925  1.00  0.00     0.034 A 
ATOM     55  C   UNL A   1      44.089  25.555  30.214  1.00  0.00     0.049 A 
ATOM     56  C   UNL A   1      49.279  26.308  27.649  1.00  0.00     0.074 A 
ATOM     57  C   UNL A   1      44.037  26.197  31.436  1.00  0.00     0.029 A 
ATOM     58  N   UNL A   1      45.331  24.968  30.146  1.00  0.00    -0.354 N 
ATOM     59  N   UNL A   1      49.377  26.160  28.942  1.00  0.00    -0.248 NA
ATOM     60  C   UNL A   1      48.259  25.491  27.004  1.00  0.00     0.031 C 
ATOM     61  C   UNL A   1      45.398  26.364  31.821  1.00  0.00     0.029 A 
ATOM     62  C   UNL A   1      46.201  25.751  30.857  1.00  0.00     0.049 A 
ATOM     63  H   UNL A   1      45.555  24.133  29.673  1.00  0.00     0.167 HD
ATOM     64  C   UNL A   1      48.158  25.610  29.322  1.00  0.00     0.074 A 
ATOM     65  C   UNL A   1      47.553  25.127  28.079  1.00  0.00     0.031 C 
ATOM     66  C   UNL A   1      47.610  25.876  30.545  1.00  0.00     0.034 A 
BRANCH  53  67
ATOM     67  C   UNL A   1      43.030  24.461  28.130  1.00  0.00     0.023 A 
ATOM     68  C   UNL A   1      42.007  23.613  28.599  1.00  0.00     0.012 A 
ATOM     69  C   UNL A   1      43.832  23.970  27.070  1.00  0.00     0.148 A 
ATOM     70  C   UNL A   1      41.834  22.323  28.089  1.00  0.00     0.002 A 
ATOM     71  C   UNL A   1      43.601  22.723  26.506  1.00  0.00     0.091 A 
ATOM     72  F   UNL A   1      44.924  24.630  26.680  1.00  0.00    -0.205 F 
ATOM     73  C   UNL A   1      42.627  21.880  27.037  1.00  0.00     0.022 A 
BRANCH  71  74
ATOM     74  S   UNL A   1      44.572  22.132  25.114  1.00  0.00     0.127 S 
ATOM     75  O   UNL A   1      43.855  20.912  24.757  1.00  0.00    -0.237 OA
ATOM     76  O   UNL A   1      44.432  23.238  24.165  1.00  0.00    -0.237 OA
ATOM     77  O   UNL A   1      45.926  21.954  25.624  1.00  0.00    -0.744 OA
ENDBRANCH  71  74
ENDBRANCH  53  67
BRANCH  54  78
ATOM     78  C   UNL A   1      50.662  27.427  25.752  1.00  0.00     0.023 A 
ATOM     79  C   UNL A   1      51.966  26.919  25.916  1.00  0.00     0.012 A 
ATOM     80  C   UNL A   1      50.175  27.584  24.433  1.00  0.00     0.148 A 
ATOM     81  C   UNL A   1      52.748  26.559  24.811  1.00  0.00     0.002 A 
ATOM     82  C   UNL A   1      50.961  27.239  23.337  1.00  0.00     0.091 A 
ATOM     83  F   UNL A   1      48.910  27.978  24.251  1.00  0.00    -0.205 F 
ATOM     84  C   UNL A   1      52.245  26.714  23.522  1.00  0.00     0.022 A 
BRANCH  82  85
ATOM     85  S   UNL A   1      50.363  27.401  21.648  1.00  0.00     0.127 S 
ATOM     86  O   UNL A   1      51.579  27.161  20.870  1.00  0.00    -0.237 OA
ATOM     87  O   UNL A   1      49.368  26.336  21.575  1.00  0.00    -0.237 OA
ATOM     88  O   UNL A   1      49.846  28.760  21.540  1.00  0.00    -0.744 OA
ENDBRANCH  82  85
ENDBRANCH  54  78
BRANCH  66  89
ATOM     89  C   UNL A   1      48.453  26.590  31.573  1.00  0.00     0.023 A 
ATOM     90  C   UNL A   1      49.382  25.915  32.393  1.00  0.00     0.012 A 
ATOM     91  C   UNL A   1      48.450  27.995  31.569  1.00  0.00     0.148 A 
ATOM     92  C   UNL A   1      50.273  26.626  33.204  1.00  0.00     0.002 A 
ATOM     93  C   UNL A   1      49.368  28.698  32.339  1.00  0.00     0.091 A 
ATOM     94  F   UNL A   1      47.565  28.623  30.780  1.00  0.00    -0.205 F 
ATOM     95  C   UNL A   1      50.276  28.017  33.165  1.00  0.00     0.022 A 
BRANCH  93  96
ATOM     96  S   UNL A   1      49.508  30.483  32.228  1.00  0.00     0.127 S 
ATOM     97  O   UNL A   1      48.238  30.923  32.801  1.00  0.00    -0.237 OA
ATOM     98  O   UNL A   1      50.683  30.759  33.057  1.00  0.00    -0.237 OA
ATOM     99  O   UNL A   1      49.698  30.782  30.814  1.00  0.00    -0.744 OA
ENDBRANCH  93  96
ENDBRANCH  66  89
ENDBRANCH  40  41
ENDBRANCH  33  35
ENDBRANCH  32  33
ENDBRANCH  31  32
ENDBRANCH  30  31
ENDBRANCH  29  30
ENDBRANCH  28  29
ENDBRANCH   1  28
TORSDOF 25
ENDMDL
MODEL 3
REMARK VINA RESULT:      -8.8      4.567      7.803
REMARK SMILES CCc1nn(-c2cc(F)c(F)c(F)c2)c(Cl)c1C(=O)OCCOCCOCCOCCOC(=O)c1ccc(-c2c3nc(c(-c4cccc(S(=O)(=O)[O-])c4F)c4ccc([nH]4)c(-c4cccc(S(=O)(=O)[O-])c4F)c4nc(c(-c5cccc(S(=O)(=O)[O-])c5F)c5ccc2[nH]5)C=C4)C=C3)cc1
REMARK SMILES IDX 27 1 26 2 25 3 24 4 23 5 22 6 21 7 20 8 18 9 19 10 17 11
REMARK SMILES IDX 3 12 4 13 5 14 15 15 16 16 2 17 1 18 6 19 7 20 14 21 8 22
REMARK SMILES IDX 12 23 9 24 10 25 13 26 11 27 28 28 29 29 30 30 31 31 32 32
REMARK SMILES IDX 33 33 34 34 35 35 36 36 97 37 37 38 96 39 38 40 39 41 40 42
REMARK SMILES IDX 90 43 41 44 95 45 89 46 91 47 42 48 94 49 88 50 87 51 43 53
REMARK SMILES IDX 75 54 55 55 74 56 56 57 59 58 73 59 92 60 57 61 58 62 72 64
REMARK SMILES IDX 93 65 60 66 44 67 45 68 53 69 46 70 48 71 54 72 47 73 49 74
REMARK SMILES IDX 50 75 51 76 52 77 76 78 77 79 85 80 78 81 80 82 86 83 79 84
REMARK SMILES IDX 81 85 82 86 83 87 84 88 61 89 62 90 70 91 63 92 65 93 71 94
REMARK SMILES IDX 64 95 66 96 67 97 68 98 69 99
REMARK H PARENT 91 52 59 63
REMARK Flexibility Score: inf
ROOT
ATOM      1  C   UNL A   1      35.865  31.195  28.291  1.00  0.00     0.188 C 
ENDROOT
BRANCH   1   2
ATOM      2  O   UNL A   1      36.044  30.093  29.182  1.00  0.00    -0.377 OA
BRANCH   2   3
ATOM      3  C   UNL A   1      37.332  29.989  29.762  1.00  0.00     0.188 C 
BRANCH   3   4
ATOM      4  C   UNL A   1      38.467  30.452  28.821  1.00  0.00     0.188 C 
BRANCH   4   5
ATOM      5  O   UNL A   1      39.505  29.578  28.403  1.00  0.00    -0.376 OA
BRANCH   5   6
ATOM      6  C   UNL A   1      39.788  28.352  29.055  1.00  0.00     0.202 C 
BRANCH   6   7
ATOM      7  C   UNL A   1      39.171  27.004  28.642  1.00  0.00     0.261 C 
BRANCH   7   8
ATOM      8  O   UNL A   1      39.739  26.363  27.502  1.00  0.00    -0.460 OA
BRANCH   8   9
ATOM      9  C   UNL A   1      39.651  25.013  27.470  1.00  0.00     0.343 C 
ATOM     10  O   UNL A   1      38.597  24.380  27.492  1.00  0.00    -0.246 OA
BRANCH   9  11
ATOM     11  C   UNL A   1      40.942  24.402  27.250  1.00  0.00     0.120 A 
ATOM     12  C   UNL A   1      42.264  24.910  27.417  1.00  0.00     0.079 A 
ATOM     13  N   UNL A   1      43.191  23.975  27.137  1.00  0.00    -0.171 NA
ATOM     14  N   UNL A   1      42.489  22.951  26.602  1.00  0.00    -0.221 N 
ATOM     15  C   UNL A   1      41.139  23.155  26.707  1.00  0.00     0.147 A 
ATOM     16  Cl  UNL A   1      40.023  21.966  26.186  1.00  0.00    -0.061 Cl
BRANCH  12  17
ATOM     17  C   UNL A   1      42.681  26.264  27.917  1.00  0.00     0.056 C 
ATOM     18  C   UNL A   1      43.141  26.281  29.369  1.00  0.00     0.011 C 
ENDBRANCH  12  17
BRANCH  14  19
ATOM     19  C   UNL A   1      43.121  21.748  26.234  1.00  0.00     0.072 A 
ATOM     20  C   UNL A   1      44.306  21.777  25.486  1.00  0.00     0.071 A 
ATOM     21  C   UNL A   1      42.427  20.554  26.450  1.00  0.00     0.071 A 
ATOM     22  C   UNL A   1      44.778  20.587  24.940  1.00  0.00     0.164 A 
ATOM     23  C   UNL A   1      42.906  19.389  25.863  1.00  0.00     0.164 A 
ATOM     24  F   UNL A   1      45.901  20.604  24.208  1.00  0.00    -0.204 F 
ATOM     25  C   UNL A   1      44.075  19.399  25.109  1.00  0.00     0.194 A 
ATOM     26  F   UNL A   1      42.197  18.260  25.988  1.00  0.00    -0.204 F 
ATOM     27  F   UNL A   1      44.502  18.275  24.519  1.00  0.00    -0.200 F 
ENDBRANCH  14  19
ENDBRANCH   9  11
ENDBRANCH   8   9
ENDBRANCH   7   8
ENDBRANCH   6   7
ENDBRANCH   5   6
ENDBRANCH   4   5
ENDBRANCH   3   4
ENDBRANCH   2   3
ENDBRANCH   1   2
BRANCH   1  28
ATOM     28  C   UNL A   1      34.487  31.360  27.594  1.00  0.00     0.188 C 
BRANCH  28  29
ATOM     29  O   UNL A   1      33.606  32.286  28.217  1.00  0.00    -0.376 OA
BRANCH  29  30
ATOM     30  C   UNL A   1      33.745  33.694  28.139  1.00  0.00     0.202 C 
BRANCH  30  31
ATOM     31  C   UNL A   1      33.902  34.496  29.422  1.00  0.00     0.261 C 
BRANCH  31  32
ATOM     32  O   UNL A   1      33.918  33.690  30.575  1.00  0.00    -0.460 OA
BRANCH  32  33
ATOM     33  C   UNL A   1      34.806  34.068  31.508  1.00  0.00     0.338 C 
ATOM     34  O   UNL A   1      34.782  35.086  32.189  1.00  0.00    -0.246 OA
BRANCH  33  35
ATOM     35  C   UNL A   1      35.893  33.094  31.490  1.00  0.00     0.060 A 
ATOM     36  C   UNL A   1      35.825  32.101  32.464  1.00  0.00     0.016 A 
ATOM     37  C   UNL A   1      37.092  33.488  30.872  1.00  0.00     0.016 A 
ATOM     38  C   UNL A   1      37.001  31.751  33.070  1.00  0.00     0.010 A 
ATOM     39  C   UNL A   1      38.255  33.174  31.506  1.00  0.00     0.010 A 
ATOM     40  C   UNL A   1      38.167  32.403  32.658  1.00  0.00    -0.014 A 
BRANCH  40  41
ATOM     41  C   UNL A   1      39.355  32.207  33.437  1.00  0.00     0.031 A 
ATOM     42  C   UNL A   1      39.396  33.133  34.579  1.00  0.00     0.074 A 
ATOM     43  C   UNL A   1      40.224  31.219  33.164  1.00  0.00     0.049 A 
ATOM     44  N   UNL A   1      40.108  34.203  34.681  1.00  0.00    -0.248 NA
ATOM     45  C   UNL A   1      38.335  33.009  35.591  1.00  0.00     0.031 C 
ATOM     46  C   UNL A   1      40.066  30.092  32.241  1.00  0.00     0.029 A 
ATOM     47  N   UNL A   1      41.388  30.937  33.794  1.00  0.00    -0.354 N 
ATOM     48  C   UNL A   1      39.769  34.722  35.923  1.00  0.00     0.074 A 
ATOM     49  C   UNL A   1      38.502  34.144  36.270  1.00  0.00     0.031 C 
ATOM     50  C   UNL A   1      40.951  29.125  32.582  1.00  0.00     0.029 A 
ATOM     51  C   UNL A   1      41.795  29.618  33.659  1.00  0.00     0.049 A 
ATOM     52  H   UNL A   1      41.899  31.608  34.304  1.00  0.00     0.167 HD
ATOM     53  C   UNL A   1      40.717  35.289  36.715  1.00  0.00     0.034 A 
ATOM     54  C   UNL A   1      42.668  28.977  34.476  1.00  0.00     0.034 A 
ATOM     55  C   UNL A   1      41.905  35.610  35.959  1.00  0.00     0.049 A 
ATOM     56  C   UNL A   1      43.427  30.024  35.214  1.00  0.00     0.074 A 
ATOM     57  C   UNL A   1      42.158  36.354  34.823  1.00  0.00     0.029 A 
ATOM     58  N   UNL A   1      42.989  34.779  36.118  1.00  0.00    -0.354 N 
ATOM     59  N   UNL A   1      44.257  30.850  34.636  1.00  0.00    -0.248 NA
ATOM     60  C   UNL A   1      42.896  30.470  36.495  1.00  0.00     0.031 C 
ATOM     61  C   UNL A   1      43.134  35.605  34.104  1.00  0.00     0.029 A 
ATOM     62  C   UNL A   1      43.479  34.491  34.872  1.00  0.00     0.049 A 
ATOM     63  H   UNL A   1      43.349  34.450  36.974  1.00  0.00     0.167 HD
ATOM     64  C   UNL A   1      43.991  32.080  35.228  1.00  0.00     0.074 A 
ATOM     65  C   UNL A   1      43.220  31.765  36.432  1.00  0.00     0.031 C 
ATOM     66  C   UNL A   1      44.140  33.247  34.535  1.00  0.00     0.034 A 
BRANCH  53  67
ATOM     67  C   UNL A   1      40.742  35.167  38.220  1.00  0.00     0.023 A 
ATOM     68  C   UNL A   1      41.001  36.347  38.946  1.00  0.00     0.012 A 
ATOM     69  C   UNL A   1      40.797  33.948  38.939  1.00  0.00     0.148 A 
ATOM     70  C   UNL A   1      41.359  36.311  40.297  1.00  0.00     0.002 A 
ATOM     71  C   UNL A   1      41.067  33.923  40.301  1.00  0.00     0.091 A 
ATOM     72  F   UNL A   1      40.734  32.777  38.303  1.00  0.00    -0.205 F 
ATOM     73  C   UNL A   1      41.385  35.099  40.977  1.00  0.00     0.022 A 
BRANCH  71  74
ATOM     74  S   UNL A   1      41.063  32.383  41.228  1.00  0.00     0.127 S 
ATOM     75  O   UNL A   1      39.708  31.900  40.984  1.00  0.00    -0.237 OA
ATOM     76  O   UNL A   1      42.124  31.631  40.557  1.00  0.00    -0.237 OA
ATOM     77  O   UNL A   1      41.374  32.751  42.604  1.00  0.00    -0.744 OA
ENDBRANCH  71  74
ENDBRANCH  53  67
BRANCH  54  78
ATOM     78  C   UNL A   1      42.675  27.555  34.901  1.00  0.00     0.023 A 
ATOM     79  C   UNL A   1      41.649  27.071  35.738  1.00  0.00     0.012 A 
ATOM     80  C   UNL A   1      43.526  26.607  34.285  1.00  0.00     0.148 A 
ATOM     81  C   UNL A   1      41.463  25.697  35.936  1.00  0.00     0.002 A 
ATOM     82  C   UNL A   1      43.346  25.243  34.496  1.00  0.00     0.091 A 
ATOM     83  F   UNL A   1      44.449  27.033  33.416  1.00  0.00    -0.205 F 
ATOM     84  C   UNL A   1      42.307  24.782  35.311  1.00  0.00     0.022 A 
BRANCH  82  85
ATOM     85  S   UNL A   1      44.393  24.011  33.706  1.00  0.00     0.127 S 
ATOM     86  O   UNL A   1      43.772  22.759  34.141  1.00  0.00    -0.237 OA
ATOM     87  O   UNL A   1      44.216  24.325  32.292  1.00  0.00    -0.237 OA
ATOM     88  O   UNL A   1      45.732  24.228  34.240  1.00  0.00    -0.744 OA
ENDBRANCH  82  85
ENDBRANCH  54  78
BRANCH  66  89
ATOM     89  C   UNL A   1      44.820  33.205  33.188  1.00  0.00     0.023 A 
ATOM     90  C   UNL A   1      46.224  33.187  33.048  1.00  0.00     0.012 A 
ATOM     91  C   UNL A   1      44.023  32.976  32.053  1.00  0.00     0.148 A 
ATOM     92  C   UNL A   1      46.817  32.966  31.800  1.00  0.00     0.002 A 
ATOM     93  C   UNL A   1      44.617  32.708  30.826  1.00  0.00     0.091 A 
ATOM     94  F   UNL A   1      42.690  32.990  32.203  1.00  0.00    -0.205 F 
ATOM     95  C   UNL A   1      46.014  32.711  30.693  1.00  0.00     0.022 A 
BRANCH  93  96
ATOM     96  S   UNL A   1      43.637  32.242  29.397  1.00  0.00     0.127 S 
ATOM     97  O   UNL A   1      42.896  33.471  29.123  1.00  0.00    -0.237 OA
ATOM     98  O   UNL A   1      44.663  31.912  28.406  1.00  0.00    -0.237 OA
ATOM     99  O   UNL A   1      42.833  31.102  29.819  1.00  0.00    -0.744 OA
ENDBRANCH  93  96
ENDBRANCH  66  89
ENDBRANCH  40  41
ENDBRANCH  33  35
ENDBRANCH  32  33
ENDBRANCH  31  32
ENDBRANCH  30  31
ENDBRANCH  29  30
ENDBRANCH  28  29
ENDBRANCH   1  28
TORSDOF 25
ENDMDL
