MODEL 1
REMARK VINA RESULT:      -8.0      0.000      0.000
REMARK SMILES CC(C)N(CCCC(=O)OCCOCCOCCOCCOC(=O)c1ccc(-c2c3nc(c(-c4cccc(S(=O)(=O)[O-])c4F)c4ccc([nH]4)c(-c4cccc(S(=O)(=O)[O-])c4F)c4nc(c(-c5cccc(S(=O)(=O)[O-])c5F)c5ccc2[nH]5)C=C4)C=C3)cc1)C(=O)Cc1c(F)cccc1F
REMARK SMILES IDX 14 1 13 2 12 3 11 4 10 5 8 6 9 7 7 8 6 9 5 10 4 11 2 12 1 13
REMARK SMILES IDX 3 14 88 15 89 16 90 17 91 18 92 19 97 20 93 21 94 22 96 23
REMARK SMILES IDX 98 24 95 25 15 26 16 27 17 28 18 29 19 30 20 31 21 32 22 33
REMARK SMILES IDX 23 34 24 35 25 36 26 37 87 38 27 39 86 40 28 41 29 42 30 43
REMARK SMILES IDX 80 44 31 45 85 46 79 47 81 48 32 49 84 50 78 51 77 52 33 54
REMARK SMILES IDX 65 55 45 56 64 57 46 58 49 59 63 60 82 61 47 62 48 63 62 65
REMARK SMILES IDX 83 66 50 67 34 68 35 69 43 70 36 71 38 72 44 73 37 74 39 75
REMARK SMILES IDX 40 76 41 77 42 78 66 79 67 80 75 81 68 82 70 83 76 84 69 85
REMARK SMILES IDX 71 86 72 87 73 88 74 89 51 90 52 91 60 92 53 93 55 94 61 95
REMARK SMILES IDX 54 96 56 97 57 98 58 99 59 100
REMARK H PARENT 81 53 49 64
REMARK Flexibility Score: inf
ROOT
ATOM      1  C   UNL A   1      41.195  24.222  28.149  1.00  0.00     0.188 C 
ENDROOT
BRANCH   1   2
ATOM      2  O   UNL A   1      39.800  24.694  28.012  1.00  0.00    -0.376 OA
BRANCH   2   3
ATOM      3  C   UNL A   1      38.925  24.213  26.885  1.00  0.00     0.202 C 
BRANCH   3   4
ATOM      4  C   UNL A   1      38.723  22.434  26.288  1.00  0.00     0.261 C 
BRANCH   4   5
ATOM      5  O   UNL A   1      37.078  21.746  25.273  1.00  0.00    -0.463 OA
BRANCH   5   6
ATOM      6  C   UNL A   1      35.507  21.281  25.702  1.00  0.00     0.305 C 
ATOM      7  O   UNL A   1      34.945  21.565  26.780  1.00  0.00    -0.252 OA
BRANCH   6   8
ATOM      8  C   UNL A   1      34.662  20.389  24.852  1.00  0.00     0.124 C 
BRANCH   8   9
ATOM      9  C   UNL A   1      33.530  21.136  24.267  1.00  0.00     0.033 C 
BRANCH   9  10
ATOM     10  C   UNL A   1      34.137  22.421  23.808  1.00  0.00     0.120 C 
BRANCH  10  11
ATOM     11  N   UNL A   1      33.250  23.594  24.028  1.00  0.00    -0.340 N 
BRANCH  11  12
ATOM     12  C   UNL A   1      31.925  23.050  24.406  1.00  0.00     0.078 C 
ATOM     13  C   UNL A   1      31.667  23.156  25.899  1.00  0.00     0.031 C 
ATOM     14  C   UNL A   1      30.813  23.438  23.446  1.00  0.00     0.031 C 
ENDBRANCH  11  12
BRANCH  11  15
ATOM     15  C   UNL A   1      33.412  25.030  24.000  1.00  0.00     0.227 C 
ATOM     16  O   UNL A   1      33.588  25.536  22.871  1.00  0.00    -0.275 OA
BRANCH  15  17
ATOM     17  C   UNL A   1      33.604  26.182  25.209  1.00  0.00     0.142 C 
BRANCH  17  18
ATOM     18  C   UNL A   1      32.410  27.325  25.550  1.00  0.00     0.033 A 
ATOM     19  C   UNL A   1      30.723  26.709  25.346  1.00  0.00     0.129 A 
ATOM     20  C   UNL A   1      33.005  28.484  24.383  1.00  0.00     0.129 A 
ATOM     21  F   UNL A   1      30.052  26.133  26.355  1.00  0.00    -0.207 F 
ATOM     22  C   UNL A   1      29.897  27.045  23.702  1.00  0.00     0.040 A 
ATOM     23  C   UNL A   1      32.225  28.825  22.900  1.00  0.00     0.040 A 
ATOM     24  F   UNL A   1      34.202  29.034  24.631  1.00  0.00    -0.207 F 
ATOM     25  C   UNL A   1      30.677  28.118  22.500  1.00  0.00     0.006 A 
ENDBRANCH  17  18
ENDBRANCH  15  17
ENDBRANCH  11  15
ENDBRANCH  10  11
ENDBRANCH   9  10
ENDBRANCH   8   9
ENDBRANCH   6   8
ENDBRANCH   5   6
ENDBRANCH   4   5
ENDBRANCH   3   4
ENDBRANCH   2   3
ENDBRANCH   1   2
BRANCH   1  26
ATOM     26  C   UNL A   1      42.263  24.554  26.968  1.00  0.00     0.188 C 
BRANCH  26  27
ATOM     27  O   UNL A   1      42.074  25.678  26.086  1.00  0.00    -0.377 OA
BRANCH  27  28
ATOM     28  C   UNL A   1      42.921  25.791  24.951  1.00  0.00     0.188 C 
BRANCH  28  29
ATOM     29  C   UNL A   1      44.254  26.411  25.310  1.00  0.00     0.188 C 
BRANCH  29  30
ATOM     30  O   UNL A   1      44.261  27.821  25.544  1.00  0.00    -0.376 OA
BRANCH  30  31
ATOM     31  C   UNL A   1      44.618  28.310  26.836  1.00  0.00     0.202 C 
BRANCH  31  32
ATOM     32  C   UNL A   1      44.467  27.321  27.992  1.00  0.00     0.261 C 
BRANCH  32  33
ATOM     33  O   UNL A   1      45.722  26.825  28.487  1.00  0.00    -0.460 OA
BRANCH  33  34
ATOM     34  C   UNL A   1      45.628  25.904  29.475  1.00  0.00     0.338 C 
ATOM     35  O   UNL A   1      45.844  24.708  29.387  1.00  0.00    -0.246 OA
BRANCH  34  36
ATOM     36  C   UNL A   1      45.325  26.563  30.760  1.00  0.00     0.060 A 
ATOM     37  C   UNL A   1      44.405  25.947  31.619  1.00  0.00     0.016 A 
ATOM     38  C   UNL A   1      45.837  27.828  31.061  1.00  0.00     0.016 A 
ATOM     39  C   UNL A   1      43.940  26.625  32.747  1.00  0.00     0.010 A 
ATOM     40  C   UNL A   1      45.364  28.507  32.188  1.00  0.00     0.010 A 
ATOM     41  C   UNL A   1      44.378  27.928  33.006  1.00  0.00    -0.014 A 
BRANCH  41  42
ATOM     42  C   UNL A   1      43.675  28.760  34.015  1.00  0.00     0.031 A 
ATOM     43  C   UNL A   1      42.325  29.330  33.669  1.00  0.00     0.074 A 
ATOM     44  C   UNL A   1      44.229  29.019  35.212  1.00  0.00     0.049 A 
ATOM     45  N   UNL A   1      41.562  30.135  34.360  1.00  0.00    -0.248 NA
ATOM     46  C   UNL A   1      41.766  28.944  32.362  1.00  0.00     0.031 C 
ATOM     47  C   UNL A   1      45.525  28.521  35.668  1.00  0.00     0.029 A 
ATOM     48  N   UNL A   1      43.779  29.798  36.249  1.00  0.00    -0.354 N 
ATOM     49  C   UNL A   1      40.447  30.375  33.564  1.00  0.00     0.074 A 
ATOM     50  C   UNL A   1      40.642  29.643  32.332  1.00  0.00     0.031 C 
ATOM     51  C   UNL A   1      45.787  29.042  36.879  1.00  0.00     0.029 A 
ATOM     52  C   UNL A   1      44.691  29.930  37.268  1.00  0.00     0.049 A 
ATOM     53  H   UNL A   1      42.890  30.221  36.261  1.00  0.00     0.167 HD
ATOM     54  C   UNL A   1      39.352  31.125  33.838  1.00  0.00     0.034 A 
ATOM     55  C   UNL A   1      44.661  30.706  38.370  1.00  0.00     0.034 A 
ATOM     56  C   UNL A   1      39.159  31.850  35.065  1.00  0.00     0.049 A 
ATOM     57  C   UNL A   1      43.455  31.568  38.637  1.00  0.00     0.074 A 
ATOM     58  C   UNL A   1      38.067  32.604  35.456  1.00  0.00     0.029 A 
ATOM     59  N   UNL A   1      40.087  31.929  36.091  1.00  0.00    -0.354 N 
ATOM     60  N   UNL A   1      42.358  31.696  37.929  1.00  0.00    -0.248 NA
ATOM     61  C   UNL A   1      43.469  32.371  39.869  1.00  0.00     0.031 C 
ATOM     62  C   UNL A   1      38.351  33.171  36.703  1.00  0.00     0.029 A 
ATOM     63  C   UNL A   1      39.603  32.736  37.107  1.00  0.00     0.049 A 
ATOM     64  H   UNL A   1      40.961  31.478  36.097  1.00  0.00     0.167 HD
ATOM     65  C   UNL A   1      41.541  32.568  38.643  1.00  0.00     0.074 A 
ATOM     66  C   UNL A   1      42.261  32.918  39.850  1.00  0.00     0.031 C 
ATOM     67  C   UNL A   1      40.313  33.048  38.323  1.00  0.00     0.034 A 
BRANCH  54  68
ATOM     68  C   UNL A   1      38.272  31.185  32.788  1.00  0.00     0.023 A 
ATOM     69  C   UNL A   1      37.291  30.175  32.733  1.00  0.00     0.012 A 
ATOM     70  C   UNL A   1      38.210  32.259  31.878  1.00  0.00     0.148 A 
ATOM     71  C   UNL A   1      36.291  30.206  31.762  1.00  0.00     0.002 A 
ATOM     72  C   UNL A   1      37.182  32.308  30.942  1.00  0.00     0.091 A 
ATOM     73  F   UNL A   1      39.163  33.199  31.930  1.00  0.00    -0.205 F 
ATOM     74  C   UNL A   1      36.231  31.277  30.873  1.00  0.00     0.022 A 
BRANCH  72  75
ATOM     75  S   UNL A   1      36.973  33.683  29.805  1.00  0.00     0.127 S 
ATOM     76  O   UNL A   1      38.214  34.427  30.012  1.00  0.00    -0.237 OA
ATOM     77  O   UNL A   1      36.879  33.001  28.514  1.00  0.00    -0.237 OA
ATOM     78  O   UNL A   1      35.757  34.367  30.221  1.00  0.00    -0.744 OA
ENDBRANCH  72  75
ENDBRANCH  54  68
BRANCH  55  79
ATOM     79  C   UNL A   1      45.818  30.702  39.308  1.00  0.00     0.023 A 
ATOM     80  C   UNL A   1      45.854  29.785  40.375  1.00  0.00     0.012 A 
ATOM     81  C   UNL A   1      46.895  31.593  39.128  1.00  0.00     0.148 A 
ATOM     82  C   UNL A   1      46.932  29.771  41.262  1.00  0.00     0.002 A 
ATOM     83  C   UNL A   1      47.990  31.535  39.978  1.00  0.00     0.091 A 
ATOM     84  F   UNL A   1      46.829  32.469  38.116  1.00  0.00    -0.205 F 
ATOM     85  C   UNL A   1      48.004  30.636  41.057  1.00  0.00     0.022 A 
BRANCH  83  86
ATOM     86  S   UNL A   1      49.471  32.514  39.706  1.00  0.00     0.127 S 
ATOM     87  O   UNL A   1      50.088  32.496  41.030  1.00  0.00    -0.237 OA
ATOM     88  O   UNL A   1      50.163  31.726  38.688  1.00  0.00    -0.237 OA
ATOM     89  O   UNL A   1      49.001  33.814  39.244  1.00  0.00    -0.744 OA
ENDBRANCH  83  86
ENDBRANCH  55  79
BRANCH  67  90
ATOM     90  C   UNL A   1      39.647  33.982  39.301  1.00  0.00     0.023 A 
ATOM     91  C   UNL A   1      39.755  35.376  39.128  1.00  0.00     0.012 A 
ATOM     92  C   UNL A   1      38.852  33.477  40.350  1.00  0.00     0.148 A 
ATOM     93  C   UNL A   1      39.113  36.252  40.003  1.00  0.00     0.002 A 
ATOM     94  C   UNL A   1      38.174  34.355  41.186  1.00  0.00     0.091 A 
ATOM     95  F   UNL A   1      38.774  32.148  40.509  1.00  0.00    -0.205 F 
ATOM     96  C   UNL A   1      38.313  35.742  41.023  1.00  0.00     0.022 A 
BRANCH  94  97
ATOM     97  S   UNL A   1      37.046  33.793  42.467  1.00  0.00     0.127 S 
ATOM     98  O   UNL A   1      36.823  35.022  43.228  1.00  0.00    -0.237 OA
ATOM     99  O   UNL A   1      35.893  33.340  41.687  1.00  0.00    -0.237 OA
ATOM    100  O   UNL A   1      37.745  32.735  43.184  1.00  0.00    -0.744 OA
ENDBRANCH  94  97
ENDBRANCH  67  90
ENDBRANCH  41  42
ENDBRANCH  34  36
ENDBRANCH  33  34
ENDBRANCH  32  33
ENDBRANCH  31  32
ENDBRANCH  30  31
ENDBRANCH  29  30
ENDBRANCH  28  29
ENDBRANCH  27  28
ENDBRANCH  26  27
ENDBRANCH   1  26
TORSDOF 30
ENDMDL
MODEL 2
REMARK VINA RESULT:      -8.0      5.307     10.638
REMARK SMILES CC(C)N(CCCC(=O)OCCOCCOCCOCCOC(=O)c1ccc(-c2c3nc(c(-c4cccc(S(=O)(=O)[O-])c4F)c4ccc([nH]4)c(-c4cccc(S(=O)(=O)[O-])c4F)c4nc(c(-c5cccc(S(=O)(=O)[O-])c5F)c5ccc2[nH]5)C=C4)C=C3)cc1)C(=O)Cc1c(F)cccc1F
REMARK SMILES IDX 14 1 13 2 12 3 11 4 10 5 8 6 9 7 7 8 6 9 5 10 4 11 2 12 1 13
REMARK SMILES IDX 3 14 88 15 89 16 90 17 91 18 92 19 97 20 93 21 94 22 96 23
REMARK SMILES IDX 98 24 95 25 15 26 16 27 17 28 18 29 19 30 20 31 21 32 22 33
REMARK SMILES IDX 23 34 24 35 25 36 26 37 87 38 27 39 86 40 28 41 29 42 30 43
REMARK SMILES IDX 80 44 31 45 85 46 79 47 81 48 32 49 84 50 78 51 77 52 33 54
REMARK SMILES IDX 65 55 45 56 64 57 46 58 49 59 63 60 82 61 47 62 48 63 62 65
REMARK SMILES IDX 83 66 50 67 34 68 35 69 43 70 36 71 38 72 44 73 37 74 39 75
REMARK SMILES IDX 40 76 41 77 42 78 66 79 67 80 75 81 68 82 70 83 76 84 69 85
REMARK SMILES IDX 71 86 72 87 73 88 74 89 51 90 52 91 60 92 53 93 55 94 61 95
REMARK SMILES IDX 54 96 56 97 57 98 58 99 59 100
REMARK H PARENT 81 53 49 64
REMARK Flexibility Score: inf
ROOT
ATOM      1  C   UNL A   1      32.989  24.606  23.557  1.00  0.00     0.188 C 
ENDROOT
BRANCH   1   2
ATOM      2  O   UNL A   1      33.686  23.372  23.978  1.00  0.00    -0.376 OA
BRANCH   2   3
ATOM      3  C   UNL A   1      34.684  23.389  25.105  1.00  0.00     0.202 C 
BRANCH   3   4
ATOM      4  C   UNL A   1      36.547  23.649  24.965  1.00  0.00     0.261 C 
BRANCH   4   5
ATOM      5  O   UNL A   1      37.765  24.100  26.553  1.00  0.00    -0.463 OA
BRANCH   5   6
ATOM      6  C   UNL A   1      39.345  24.684  26.731  1.00  0.00     0.305 C 
ATOM      7  O   UNL A   1      40.008  25.240  25.831  1.00  0.00    -0.252 OA
BRANCH   6   8
ATOM      8  C   UNL A   1      40.144  24.502  27.980  1.00  0.00     0.124 C 
BRANCH   8   9
ATOM      9  C   UNL A   1      41.435  25.212  27.887  1.00  0.00     0.033 C 
BRANCH   9  10
ATOM     10  C   UNL A   1      42.448  24.178  28.254  1.00  0.00     0.120 C 
BRANCH  10  11
ATOM     11  N   UNL A   1      43.840  24.704  28.259  1.00  0.00    -0.340 N 
BRANCH  11  12
ATOM     12  C   UNL A   1      44.393  24.433  26.913  1.00  0.00     0.078 C 
ATOM     13  C   UNL A   1      43.916  23.103  26.355  1.00  0.00     0.031 C 
ATOM     14  C   UNL A   1      44.392  25.647  26.000  1.00  0.00     0.031 C 
ENDBRANCH  11  12
BRANCH  11  15
ATOM     15  C   UNL A   1      44.674  25.407  29.208  1.00  0.00     0.227 C 
ATOM     16  O   UNL A   1      45.143  24.715  30.137  1.00  0.00    -0.275 OA
BRANCH  15  17
ATOM     17  C   UNL A   1      45.010  27.037  29.446  1.00  0.00     0.142 C 
BRANCH  17  18
ATOM     18  C   UNL A   1      43.975  28.042  30.320  1.00  0.00     0.033 A 
ATOM     19  C   UNL A   1      42.361  28.290  29.545  1.00  0.00     0.129 A 
ATOM     20  C   UNL A   1      45.090  29.390  30.339  1.00  0.00     0.129 A 
ATOM     21  F   UNL A   1      41.321  27.482  29.799  1.00  0.00    -0.207 F 
ATOM     22  C   UNL A   1      42.164  29.816  28.482  1.00  0.00     0.040 A 
ATOM     23  C   UNL A   1      44.885  30.806  29.401  1.00  0.00     0.040 A 
ATOM     24  F   UNL A   1      46.221  29.231  31.041  1.00  0.00    -0.207 F 
ATOM     25  C   UNL A   1      43.448  31.061  28.439  1.00  0.00     0.006 A 
ENDBRANCH  17  18
ENDBRANCH  15  17
ENDBRANCH  11  15
ENDBRANCH  10  11
ENDBRANCH   9  10
ENDBRANCH   8   9
ENDBRANCH   6   8
ENDBRANCH   5   6
ENDBRANCH   4   5
ENDBRANCH   3   4
ENDBRANCH   2   3
ENDBRANCH   1   2
BRANCH   1  26
ATOM     26  C   UNL A   1      33.520  26.042  24.108  1.00  0.00     0.188 C 
BRANCH  26  27
ATOM     27  O   UNL A   1      32.990  26.620  25.316  1.00  0.00    -0.377 OA
BRANCH  27  28
ATOM     28  C   UNL A   1      32.346  27.883  25.231  1.00  0.00     0.188 C 
BRANCH  28  29
ATOM     29  C   UNL A   1      33.205  28.987  25.807  1.00  0.00     0.188 C 
BRANCH  29  30
ATOM     30  O   UNL A   1      34.196  28.596  26.759  1.00  0.00    -0.376 OA
BRANCH  30  31
ATOM     31  C   UNL A   1      34.875  29.601  27.511  1.00  0.00     0.202 C 
BRANCH  31  32
ATOM     32  C   UNL A   1      34.180  30.961  27.591  1.00  0.00     0.261 C 
BRANCH  32  33
ATOM     33  O   UNL A   1      35.059  32.030  27.980  1.00  0.00    -0.460 OA
BRANCH  33  34
ATOM     34  C   UNL A   1      35.107  32.280  29.311  1.00  0.00     0.338 C 
ATOM     35  O   UNL A   1      34.201  32.694  30.013  1.00  0.00    -0.246 OA
BRANCH  34  36
ATOM     36  C   UNL A   1      36.414  31.871  29.860  1.00  0.00     0.060 A 
ATOM     37  C   UNL A   1      36.688  32.166  31.203  1.00  0.00     0.016 A 
ATOM     38  C   UNL A   1      37.403  31.323  29.040  1.00  0.00     0.016 A 
ATOM     39  C   UNL A   1      37.974  31.978  31.710  1.00  0.00     0.010 A 
ATOM     40  C   UNL A   1      38.692  31.142  29.549  1.00  0.00     0.010 A 
ATOM     41  C   UNL A   1      38.994  31.515  30.870  1.00  0.00    -0.014 A 
BRANCH  41  42
ATOM     42  C   UNL A   1      40.410  31.598  31.308  1.00  0.00     0.031 A 
ATOM     43  C   UNL A   1      40.999  30.446  32.077  1.00  0.00     0.074 A 
ATOM     44  C   UNL A   1      41.158  32.684  31.043  1.00  0.00     0.049 A 
ATOM     45  N   UNL A   1      42.184  30.326  32.616  1.00  0.00    -0.248 NA
ATOM     46  C   UNL A   1      40.130  29.272  32.267  1.00  0.00     0.031 C 
ATOM     47  C   UNL A   1      40.705  33.860  30.303  1.00  0.00     0.029 A 
ATOM     48  N   UNL A   1      42.450  32.982  31.400  1.00  0.00    -0.354 N 
ATOM     49  C   UNL A   1      42.195  29.080  33.233  1.00  0.00     0.074 A 
ATOM     50  C   UNL A   1      40.893  28.489  33.015  1.00  0.00     0.031 C 
ATOM     51  C   UNL A   1      41.692  34.774  30.298  1.00  0.00     0.029 A 
ATOM     52  C   UNL A   1      42.830  34.256  31.057  1.00  0.00     0.049 A 
ATOM     53  H   UNL A   1      43.044  32.345  31.858  1.00  0.00     0.167 HD
ATOM     54  C   UNL A   1      43.201  28.475  33.909  1.00  0.00     0.034 A 
ATOM     55  C   UNL A   1      43.954  34.940  31.352  1.00  0.00     0.034 A 
ATOM     56  C   UNL A   1      44.496  29.063  34.123  1.00  0.00     0.049 A 
ATOM     57  C   UNL A   1      45.046  34.266  32.143  1.00  0.00     0.074 A 
ATOM     58  C   UNL A   1      45.596  28.514  34.758  1.00  0.00     0.029 A 
ATOM     59  N   UNL A   1      44.859  30.340  33.727  1.00  0.00    -0.354 N 
ATOM     60  N   UNL A   1      45.086  33.045  32.622  1.00  0.00    -0.248 NA
ATOM     61  C   UNL A   1      46.259  35.053  32.408  1.00  0.00     0.031 C 
ATOM     62  C   UNL A   1      46.612  29.475  34.779  1.00  0.00     0.029 A 
ATOM     63  C   UNL A   1      46.159  30.607  34.121  1.00  0.00     0.049 A 
ATOM     64  H   UNL A   1      44.279  30.966  33.237  1.00  0.00     0.167 HD
ATOM     65  C   UNL A   1      46.336  32.909  33.219  1.00  0.00     0.074 A 
ATOM     66  C   UNL A   1      47.031  34.164  33.019  1.00  0.00     0.031 C 
ATOM     67  C   UNL A   1      46.856  31.847  33.884  1.00  0.00     0.034 A 
BRANCH  54  68
ATOM     68  C   UNL A   1      42.937  27.095  34.456  1.00  0.00     0.023 A 
ATOM     69  C   UNL A   1      41.955  26.912  35.450  1.00  0.00     0.012 A 
ATOM     70  C   UNL A   1      43.637  25.976  33.962  1.00  0.00     0.148 A 
ATOM     71  C   UNL A   1      41.704  25.645  35.978  1.00  0.00     0.002 A 
ATOM     72  C   UNL A   1      43.348  24.710  34.459  1.00  0.00     0.091 A 
ATOM     73  F   UNL A   1      44.582  26.171  33.032  1.00  0.00    -0.205 F 
ATOM     74  C   UNL A   1      42.393  24.544  35.475  1.00  0.00     0.022 A 
BRANCH  72  75
ATOM     75  S   UNL A   1      44.125  23.221  33.824  1.00  0.00     0.127 S 
ATOM     76  O   UNL A   1      43.815  22.255  34.876  1.00  0.00    -0.237 OA
ATOM     77  O   UNL A   1      43.403  23.008  32.570  1.00  0.00    -0.237 OA
ATOM     78  O   UNL A   1      45.537  23.540  33.666  1.00  0.00    -0.744 OA
ENDBRANCH  72  75
ENDBRANCH  54  68
BRANCH  55  79
ATOM     79  C   UNL A   1      44.104  36.348  30.894  1.00  0.00     0.023 A 
ATOM     80  C   UNL A   1      44.288  36.628  29.526  1.00  0.00     0.012 A 
ATOM     81  C   UNL A   1      44.041  37.416  31.812  1.00  0.00     0.148 A 
ATOM     82  C   UNL A   1      44.430  37.944  29.083  1.00  0.00     0.002 A 
ATOM     83  C   UNL A   1      44.124  38.725  31.358  1.00  0.00     0.091 A 
ATOM     84  F   UNL A   1      43.883  37.125  33.111  1.00  0.00    -0.205 F 
ATOM     85  C   UNL A   1      44.336  38.991  29.996  1.00  0.00     0.022 A 
BRANCH  83  86
ATOM     86  S   UNL A   1      43.876  40.135  32.443  1.00  0.00     0.127 S 
ATOM     87  O   UNL A   1      42.631  39.775  33.117  1.00  0.00    -0.237 OA
ATOM     88  O   UNL A   1      45.073  40.078  33.280  1.00  0.00    -0.237 OA
ATOM     89  O   UNL A   1      43.809  41.296  31.567  1.00  0.00    -0.744 OA
ENDBRANCH  83  86
ENDBRANCH  55  79
BRANCH  67  90
ATOM     90  C   UNL A   1      48.258  31.976  34.425  1.00  0.00     0.023 A 
ATOM     91  C   UNL A   1      48.465  32.436  35.740  1.00  0.00     0.012 A 
ATOM     92  C   UNL A   1      49.366  31.571  33.652  1.00  0.00     0.148 A 
ATOM     93  C   UNL A   1      49.754  32.523  36.267  1.00  0.00     0.002 A 
ATOM     94  C   UNL A   1      50.641  31.613  34.201  1.00  0.00     0.091 A 
ATOM     95  F   UNL A   1      49.151  31.152  32.397  1.00  0.00    -0.205 F 
ATOM     96  C   UNL A   1      50.839  32.101  35.503  1.00  0.00     0.022 A 
BRANCH  94  97
ATOM     97  S   UNL A   1      52.089  31.002  33.330  1.00  0.00     0.127 S 
ATOM     98  O   UNL A   1      51.995  31.718  32.058  1.00  0.00    -0.237 OA
ATOM     99  O   UNL A   1      53.181  31.442  34.199  1.00  0.00    -0.237 OA
ATOM    100  O   UNL A   1      51.928  29.557  33.244  1.00  0.00    -0.744 OA
ENDBRANCH  94  97
ENDBRANCH  67  90
ENDBRANCH  41  42
ENDBRANCH  34  36
ENDBRANCH  33  34
ENDBRANCH  32  33
ENDBRANCH  31  32
ENDBRANCH  30  31
ENDBRANCH  29  30
ENDBRANCH  28  29
ENDBRANCH  27  28
ENDBRANCH  26  27
ENDBRANCH   1  26
TORSDOF 30
ENDMDL
MODEL 3
REMARK VINA RESULT:      -7.7      5.657      9.982
REMARK SMILES CC(C)N(CCCC(=O)OCCOCCOCCOCCOC(=O)c1ccc(-c2c3nc(c(-c4cccc(S(=O)(=O)[O-])c4F)c4ccc([nH]4)c(-c4cccc(S(=O)(=O)[O-])c4F)c4nc(c(-c5cccc(S(=O)(=O)[O-])c5F)c5ccc2[nH]5)C=C4)C=C3)cc1)C(=O)Cc1c(F)cccc1F
REMARK SMILES IDX 14 1 13 2 12 3 11 4 10 5 8 6 9 7 7 8 6 9 5 10 4 11 2 12 1 13
REMARK SMILES IDX 3 14 88 15 89 16 90 17 91 18 92 19 97 20 93 21 94 22 96 23
REMARK SMILES IDX 98 24 95 25 15 26 16 27 17 28 18 29 19 30 20 31 21 32 22 33
REMARK SMILES IDX 23 34 24 35 25 36 26 37 87 38 27 39 86 40 28 41 29 42 30 43
REMARK SMILES IDX 80 44 31 45 85 46 79 47 81 48 32 49 84 50 78 51 77 52 33 54
REMARK SMILES IDX 65 55 45 56 64 57 46 58 49 59 63 60 82 61 47 62 48 63 62 65
REMARK SMILES IDX 83 66 50 67 34 68 35 69 43 70 36 71 38 72 44 73 37 74 39 75
REMARK SMILES IDX 40 76 41 77 42 78 66 79 67 80 75 81 68 82 70 83 76 84 69 85
REMARK SMILES IDX 71 86 72 87 73 88 74 89 51 90 52 91 60 92 53 93 55 94 61 95
REMARK SMILES IDX 54 96 56 97 57 98 58 99 59 100
REMARK H PARENT 81 53 49 64
REMARK Flexibility Score: inf
ROOT
ATOM      1  C   UNL A   1      33.751  24.150  26.144  1.00  0.00     0.188 C 
ENDROOT
BRANCH   1   2
ATOM      2  O   UNL A   1      34.180  22.854  25.576  1.00  0.00    -0.376 OA
BRANCH   2   3
ATOM      3  C   UNL A   1      35.230  22.788  24.498  1.00  0.00     0.202 C 
BRANCH   3   4
ATOM      4  C   UNL A   1      37.005  23.416  24.606  1.00  0.00     0.261 C 
BRANCH   4   5
ATOM      5  O   UNL A   1      38.401  22.689  25.921  1.00  0.00    -0.463 OA
BRANCH   5   6
ATOM      6  C   UNL A   1      39.630  23.367  26.870  1.00  0.00     0.305 C 
ATOM      7  O   UNL A   1      40.584  22.732  27.366  1.00  0.00    -0.252 OA
BRANCH   6   8
ATOM      8  C   UNL A   1      39.637  24.800  27.288  1.00  0.00     0.124 C 
BRANCH   8   9
ATOM      9  C   UNL A   1      40.373  25.630  26.314  1.00  0.00     0.033 C 
BRANCH   9  10
ATOM     10  C   UNL A   1      41.498  26.214  27.104  1.00  0.00     0.120 C 
BRANCH  10  11
ATOM     11  N   UNL A   1      41.340  27.672  27.351  1.00  0.00    -0.340 N 
BRANCH  11  12
ATOM     12  C   UNL A   1      40.023  27.844  28.006  1.00  0.00     0.078 C 
ATOM     13  C   UNL A   1      40.102  27.642  29.510  1.00  0.00     0.031 C 
ATOM     14  C   UNL A   1      39.227  29.022  27.471  1.00  0.00     0.031 C 
ENDBRANCH  11  12
BRANCH  11  15
ATOM     15  C   UNL A   1      42.155  28.847  27.145  1.00  0.00     0.227 C 
ATOM     16  O   UNL A   1      42.550  29.038  25.974  1.00  0.00    -0.275 OA
BRANCH  15  17
ATOM     17  C   UNL A   1      42.862  29.947  28.202  1.00  0.00     0.142 C 
BRANCH  17  18
ATOM     18  C   UNL A   1      44.081  29.492  29.277  1.00  0.00     0.033 A 
ATOM     19  C   UNL A   1      43.528  28.381  30.591  1.00  0.00     0.129 A 
ATOM     20  C   UNL A   1      44.489  31.137  29.712  1.00  0.00     0.129 A 
ATOM     21  F   UNL A   1      43.554  27.048  30.449  1.00  0.00    -0.207 F 
ATOM     22  C   UNL A   1      43.053  29.173  32.217  1.00  0.00     0.040 A 
ATOM     23  C   UNL A   1      44.096  31.846  31.217  1.00  0.00     0.040 A 
ATOM     24  F   UNL A   1      45.031  31.901  28.753  1.00  0.00    -0.207 F 
ATOM     25  C   UNL A   1      43.359  30.914  32.499  1.00  0.00     0.006 A 
ENDBRANCH  17  18
ENDBRANCH  15  17
ENDBRANCH  11  15
ENDBRANCH  10  11
ENDBRANCH   9  10
ENDBRANCH   8   9
ENDBRANCH   6   8
ENDBRANCH   5   6
ENDBRANCH   4   5
ENDBRANCH   3   4
ENDBRANCH   2   3
ENDBRANCH   1   2
BRANCH   1  26
ATOM     26  C   UNL A   1      33.179  25.300  25.146  1.00  0.00     0.188 C 
BRANCH  26  27
ATOM     27  O   UNL A   1      31.857  25.849  25.320  1.00  0.00    -0.377 OA
BRANCH  27  28
ATOM     28  C   UNL A   1      31.696  26.943  26.210  1.00  0.00     0.188 C 
BRANCH  28  29
ATOM     29  C   UNL A   1      32.912  27.843  26.215  1.00  0.00     0.188 C 
BRANCH  29  30
ATOM     30  O   UNL A   1      33.224  28.490  27.450  1.00  0.00    -0.376 OA
BRANCH  30  31
ATOM     31  C   UNL A   1      34.015  29.678  27.433  1.00  0.00     0.202 C 
BRANCH  31  32
ATOM     32  C   UNL A   1      35.463  29.525  27.899  1.00  0.00     0.261 C 
BRANCH  32  33
ATOM     33  O   UNL A   1      35.954  30.667  28.622  1.00  0.00    -0.460 OA
BRANCH  33  34
ATOM     34  C   UNL A   1      36.578  30.384  29.790  1.00  0.00     0.338 C 
ATOM     35  O   UNL A   1      36.358  29.441  30.531  1.00  0.00    -0.246 OA
BRANCH  34  36
ATOM     36  C   UNL A   1      37.684  31.333  30.021  1.00  0.00     0.060 A 
ATOM     37  C   UNL A   1      38.868  30.844  30.587  1.00  0.00     0.016 A 
ATOM     38  C   UNL A   1      37.516  32.703  29.806  1.00  0.00     0.016 A 
ATOM     39  C   UNL A   1      39.862  31.730  31.004  1.00  0.00     0.010 A 
ATOM     40  C   UNL A   1      38.509  33.590  30.230  1.00  0.00     0.010 A 
ATOM     41  C   UNL A   1      39.663  33.110  30.876  1.00  0.00    -0.014 A 
BRANCH  41  42
ATOM     42  C   UNL A   1      40.563  34.058  31.580  1.00  0.00     0.031 A 
ATOM     43  C   UNL A   1      41.768  34.589  30.852  1.00  0.00     0.074 A 
ATOM     44  C   UNL A   1      40.324  34.430  32.850  1.00  0.00     0.049 A 
ATOM     45  N   UNL A   1      42.724  35.368  31.286  1.00  0.00    -0.248 NA
ATOM     46  C   UNL A   1      41.918  34.179  29.445  1.00  0.00     0.031 C 
ATOM     47  C   UNL A   1      39.189  33.992  33.659  1.00  0.00     0.029 A 
ATOM     48  N   UNL A   1      41.049  35.239  33.690  1.00  0.00    -0.354 N 
ATOM     49  C   UNL A   1      43.603  35.520  30.218  1.00  0.00     0.074 A 
ATOM     50  C   UNL A   1      43.073  34.739  29.122  1.00  0.00     0.031 C 
ATOM     51  C   UNL A   1      39.316  34.503  34.896  1.00  0.00     0.029 A 
ATOM     52  C   UNL A   1      40.554  35.279  34.970  1.00  0.00     0.049 A 
ATOM     53  H   UNL A   1      41.846  35.740  33.402  1.00  0.00     0.167 HD
ATOM     54  C   UNL A   1      44.739  36.254  30.150  1.00  0.00     0.034 A 
ATOM     55  C   UNL A   1      41.060  35.847  36.083  1.00  0.00     0.034 A 
ATOM     56  C   UNL A   1      45.263  37.031  31.241  1.00  0.00     0.049 A 
ATOM     57  C   UNL A   1      42.350  36.623  35.999  1.00  0.00     0.074 A 
ATOM     58  C   UNL A   1      46.384  37.842  31.260  1.00  0.00     0.029 A 
ATOM     59  N   UNL A   1      44.714  37.079  32.512  1.00  0.00    -0.354 N 
ATOM     60  N   UNL A   1      43.109  36.852  34.955  1.00  0.00    -0.248 NA
ATOM     61  C   UNL A   1      42.836  37.242  37.241  1.00  0.00     0.031 C 
ATOM     62  C   UNL A   1      46.533  38.350  32.555  1.00  0.00     0.029 A 
ATOM     63  C   UNL A   1      45.482  37.889  33.331  1.00  0.00     0.049 A 
ATOM     64  H   UNL A   1      43.896  36.608  32.792  1.00  0.00     0.167 HD
ATOM     65  C   UNL A   1      44.145  37.664  35.406  1.00  0.00     0.074 A 
ATOM     66  C   UNL A   1      43.901  37.906  36.813  1.00  0.00     0.031 C 
ATOM     67  C   UNL A   1      45.209  38.155  34.722  1.00  0.00     0.034 A 
BRANCH  54  68
ATOM     68  C   UNL A   1      45.487  36.254  28.841  1.00  0.00     0.023 A 
ATOM     69  C   UNL A   1      45.269  37.291  27.911  1.00  0.00     0.012 A 
ATOM     70  C   UNL A   1      46.429  35.249  28.546  1.00  0.00     0.148 A 
ATOM     71  C   UNL A   1      45.941  37.304  26.689  1.00  0.00     0.002 A 
ATOM     72  C   UNL A   1      47.130  35.294  27.346  1.00  0.00     0.091 A 
ATOM     73  F   UNL A   1      46.608  34.260  29.432  1.00  0.00    -0.205 F 
ATOM     74  C   UNL A   1      46.878  36.311  26.412  1.00  0.00     0.022 A 
BRANCH  72  75
ATOM     75  S   UNL A   1      48.411  34.107  26.929  1.00  0.00     0.127 S 
ATOM     76  O   UNL A   1      47.679  33.167  26.083  1.00  0.00    -0.237 OA
ATOM     77  O   UNL A   1      49.381  34.940  26.217  1.00  0.00    -0.237 OA
ATOM     78  O   UNL A   1      48.888  33.569  28.195  1.00  0.00    -0.744 OA
ENDBRANCH  72  75
ENDBRANCH  54  68
BRANCH  55  79
ATOM     79  C   UNL A   1      40.341  35.702  37.379  1.00  0.00     0.023 A 
ATOM     80  C   UNL A   1      39.939  36.847  38.093  1.00  0.00     0.012 A 
ATOM     81  C   UNL A   1      40.034  34.427  37.895  1.00  0.00     0.148 A 
ATOM     82  C   UNL A   1      39.265  36.725  39.309  1.00  0.00     0.002 A 
ATOM     83  C   UNL A   1      39.313  34.313  39.075  1.00  0.00     0.091 A 
ATOM     84  F   UNL A   1      40.443  33.351  37.207  1.00  0.00    -0.205 F 
ATOM     85  C   UNL A   1      38.941  35.460  39.793  1.00  0.00     0.022 A 
BRANCH  83  86
ATOM     86  S   UNL A   1      38.735  32.730  39.698  1.00  0.00     0.127 S 
ATOM     87  O   UNL A   1      38.671  31.934  38.474  1.00  0.00    -0.237 OA
ATOM     88  O   UNL A   1      39.810  32.365  40.619  1.00  0.00    -0.237 OA
ATOM     89  O   UNL A   1      37.458  33.005  40.342  1.00  0.00    -0.744 OA
ENDBRANCH  83  86
ENDBRANCH  55  79
BRANCH  67  90
ATOM     90  C   UNL A   1      46.183  39.028  35.471  1.00  0.00     0.023 A 
ATOM     91  C   UNL A   1      47.385  38.482  35.963  1.00  0.00     0.012 A 
ATOM     92  C   UNL A   1      45.940  40.409  35.622  1.00  0.00     0.148 A 
ATOM     93  C   UNL A   1      48.312  39.287  36.624  1.00  0.00     0.002 A 
ATOM     94  C   UNL A   1      46.891  41.214  36.236  1.00  0.00     0.091 A 
ATOM     95  F   UNL A   1      44.784  40.908  35.162  1.00  0.00    -0.205 F 
ATOM     96  C   UNL A   1      48.072  40.654  36.750  1.00  0.00     0.022 A 
BRANCH  94  97
ATOM     97  S   UNL A   1      46.714  42.997  36.360  1.00  0.00     0.127 S 
ATOM     98  O   UNL A   1      46.057  43.142  37.658  1.00  0.00    -0.237 OA
ATOM     99  O   UNL A   1      48.106  43.450  36.326  1.00  0.00    -0.237 OA
ATOM    100  O   UNL A   1      45.917  43.404  35.210  1.00  0.00    -0.744 OA
ENDBRANCH  94  97
ENDBRANCH  67  90
ENDBRANCH  41  42
ENDBRANCH  34  36
ENDBRANCH  33  34
ENDBRANCH  32  33
ENDBRANCH  31  32
ENDBRANCH  30  31
ENDBRANCH  29  30
ENDBRANCH  28  29
ENDBRANCH  27  28
ENDBRANCH  26  27
ENDBRANCH   1  26
TORSDOF 30
ENDMDL
