MODEL 1
REMARK VINA RESULT:      -9.9      0.000      0.000
REMARK SMILES C[C@@](NC(=O)c1cc(Br)c[nH]1)(C(=O)OCCOCCOCCOCCOC(=O)c1ccc(-c2c3nc(c(-c4cccc(S(=O)(=O)[O-])c4F)c4ccc([nH]4)c(-c4cccc(S(=O)(=O)[O-])c4F)c4nc(c(-c5cccc(S(=O)(=O)[O-])c5F)c5ccc2[nH]5)C=C4)C=C3)cc1)C(F)(F)F
REMARK SMILES IDX 21 1 20 2 19 3 18 4 17 5 16 6 15 7 14 8 12 9 13 10 2 11 1 12
REMARK SMILES IDX 3 13 4 14 5 16 6 17 7 18 11 19 8 20 10 21 9 23 92 24 93 25
REMARK SMILES IDX 94 26 95 27 22 28 23 29 24 30 25 31 26 32 27 33 28 34 29 35
REMARK SMILES IDX 30 36 91 37 31 38 90 39 32 40 33 41 34 42 84 43 35 44 89 45
REMARK SMILES IDX 83 46 85 47 36 48 88 49 82 50 81 51 37 53 69 54 49 55 68 56
REMARK SMILES IDX 50 57 53 58 67 59 86 60 51 61 52 62 66 64 87 65 54 66 38 67
REMARK SMILES IDX 39 68 47 69 40 70 42 71 48 72 41 73 43 74 44 75 45 76 46 77
REMARK SMILES IDX 70 78 71 79 79 80 72 81 74 82 80 83 73 84 75 85 76 86 77 87
REMARK SMILES IDX 78 88 55 89 56 90 64 91 57 92 59 93 65 94 58 95 60 96 61 97
REMARK SMILES IDX 62 98 63 99
REMARK H PARENT 3 15 11 22 85 52 53 63
REMARK Flexibility Score: inf
ROOT
ATOM      1  C   UNL A   1      35.420  21.152  25.673  1.00  0.00     0.188 C 
ENDROOT
BRANCH   1   2
ATOM      2  O   UNL A   1      34.021  21.406  25.554  1.00  0.00    -0.377 OA
BRANCH   2   3
ATOM      3  C   UNL A   1      33.521  22.712  25.768  1.00  0.00     0.188 C 
BRANCH   3   4
ATOM      4  C   UNL A   1      32.002  22.893  25.619  1.00  0.00     0.188 C 
BRANCH   4   5
ATOM      5  O   UNL A   1      31.496  22.628  24.319  1.00  0.00    -0.376 OA
BRANCH   5   6
ATOM      6  C   UNL A   1      30.726  23.631  23.677  1.00  0.00     0.202 C 
BRANCH   6   7
ATOM      7  C   UNL A   1      31.468  24.792  23.013  1.00  0.00     0.261 C 
BRANCH   7   8
ATOM      8  O   UNL A   1      32.297  25.636  23.830  1.00  0.00    -0.461 OA
BRANCH   8   9
ATOM      9  C   UNL A   1      31.786  26.474  24.760  1.00  0.00     0.341 C 
ATOM     10  O   UNL A   1      30.592  26.667  24.955  1.00  0.00    -0.249 OA
BRANCH   9  11
ATOM     11  C   UNL A   1      32.892  27.284  25.419  1.00  0.00     0.231 C 
ATOM     12  C   UNL A   1      34.056  26.424  25.953  1.00  0.00     0.058 C 
BRANCH  11  13
ATOM     13  N   UNL A   1      33.413  28.361  24.512  1.00  0.00    -0.328 N 
ATOM     14  C   UNL A   1      32.959  28.807  23.296  1.00  0.00     0.268 C 
ATOM     15  H   UNL A   1      34.214  28.825  24.846  1.00  0.00     0.165 HD
ATOM     16  O   UNL A   1      33.814  29.135  22.478  1.00  0.00    -0.268 OA
BRANCH  14  17
ATOM     17  C   UNL A   1      31.546  29.012  23.069  1.00  0.00     0.105 A 
ATOM     18  C   UNL A   1      30.703  29.957  23.639  1.00  0.00     0.049 A 
ATOM     19  N   UNL A   1      30.736  28.182  22.312  1.00  0.00    -0.356 N 
ATOM     20  C   UNL A   1      29.408  29.741  23.124  1.00  0.00     0.036 A 
ATOM     21  C   UNL A   1      29.448  28.657  22.289  1.00  0.00     0.098 A 
ATOM     22  H   UNL A   1      31.041  27.365  21.856  1.00  0.00     0.166 HD
ATOM     23  Br  UNL A   1      27.928  30.839  23.456  1.00  0.00    -0.049 Br
ENDBRANCH  14  17
ENDBRANCH  11  13
BRANCH  11  24
ATOM     24  C   UNL A   1      32.177  27.908  26.638  1.00  0.00     0.422 C 
ATOM     25  F   UNL A   1      31.517  26.999  27.390  1.00  0.00    -0.168 F 
ATOM     26  F   UNL A   1      33.076  28.511  27.459  1.00  0.00    -0.168 F 
ATOM     27  F   UNL A   1      31.288  28.867  26.288  1.00  0.00    -0.168 F 
ENDBRANCH  11  24
ENDBRANCH   9  11
ENDBRANCH   8   9
ENDBRANCH   7   8
ENDBRANCH   6   7
ENDBRANCH   5   6
ENDBRANCH   4   5
ENDBRANCH   3   4
ENDBRANCH   2   3
ENDBRANCH   1   2
BRANCH   1  28
ATOM     28  C   UNL A   1      36.469  22.061  25.004  1.00  0.00     0.188 C 
BRANCH  28  29
ATOM     29  O   UNL A   1      37.738  21.457  24.826  1.00  0.00    -0.376 OA
BRANCH  29  30
ATOM     30  C   UNL A   1      37.854  20.068  25.082  1.00  0.00     0.202 C 
BRANCH  30  31
ATOM     31  C   UNL A   1      39.180  19.548  25.657  1.00  0.00     0.261 C 
BRANCH  31  32
ATOM     32  O   UNL A   1      40.233  20.503  25.875  1.00  0.00    -0.460 OA
BRANCH  32  33
ATOM     33  C   UNL A   1      40.849  20.543  27.082  1.00  0.00     0.338 C 
ATOM     34  O   UNL A   1      41.325  19.612  27.686  1.00  0.00    -0.246 OA
BRANCH  33  35
ATOM     35  C   UNL A   1      41.039  21.977  27.432  1.00  0.00     0.060 A 
ATOM     36  C   UNL A   1      40.300  22.953  26.745  1.00  0.00     0.016 A 
ATOM     37  C   UNL A   1      41.910  22.353  28.456  1.00  0.00     0.016 A 
ATOM     38  C   UNL A   1      40.453  24.306  27.063  1.00  0.00     0.010 A 
ATOM     39  C   UNL A   1      42.084  23.710  28.751  1.00  0.00     0.010 A 
ATOM     40  C   UNL A   1      41.380  24.696  28.037  1.00  0.00    -0.014 A 
BRANCH  40  41
ATOM     41  C   UNL A   1      41.758  26.126  28.178  1.00  0.00     0.031 A 
ATOM     42  C   UNL A   1      43.145  26.539  27.760  1.00  0.00     0.074 A 
ATOM     43  C   UNL A   1      40.906  27.040  28.679  1.00  0.00     0.049 A 
ATOM     44  N   UNL A   1      43.730  27.703  27.862  1.00  0.00    -0.248 NA
ATOM     45  C   UNL A   1      43.985  25.495  27.148  1.00  0.00     0.031 C 
ATOM     46  C   UNL A   1      39.532  26.777  29.102  1.00  0.00     0.029 A 
ATOM     47  N   UNL A   1      41.092  28.376  28.946  1.00  0.00    -0.354 N 
ATOM     48  C   UNL A   1      45.014  27.525  27.362  1.00  0.00     0.074 A 
ATOM     49  C   UNL A   1      45.125  26.142  26.955  1.00  0.00     0.031 C 
ATOM     50  C   UNL A   1      39.012  27.905  29.616  1.00  0.00     0.029 A 
ATOM     51  C   UNL A   1      40.026  28.961  29.589  1.00  0.00     0.049 A 
ATOM     52  H   UNL A   1      41.910  28.866  28.702  1.00  0.00     0.167 HD
ATOM     53  C   UNL A   1      46.013  28.432  27.248  1.00  0.00     0.034 A 
ATOM     54  C   UNL A   1      39.897  30.191  30.128  1.00  0.00     0.034 A 
ATOM     55  C   UNL A   1      45.901  29.811  27.638  1.00  0.00     0.049 A 
ATOM     56  C   UNL A   1      41.043  31.169  30.024  1.00  0.00     0.074 A 
ATOM     57  C   UNL A   1      46.843  30.817  27.509  1.00  0.00     0.029 A 
ATOM     58  N   UNL A   1      44.796  30.374  28.251  1.00  0.00    -0.354 N 
ATOM     59  N   UNL A   1      42.208  31.022  29.440  1.00  0.00    -0.248 NA
ATOM     60  C   UNL A   1      40.845  32.495  30.633  1.00  0.00     0.031 C 
ATOM     61  C   UNL A   1      46.322  31.979  28.084  1.00  0.00     0.029 A 
ATOM     62  C   UNL A   1      45.039  31.708  28.530  1.00  0.00     0.049 A 
ATOM     63  H   UNL A   1      43.959  29.897  28.458  1.00  0.00     0.167 HD
ATOM     64  C   UNL A   1      42.864  32.241  29.580  1.00  0.00     0.074 A 
ATOM     65  C   UNL A   1      41.956  33.126  30.280  1.00  0.00     0.031 C 
ATOM     66  C   UNL A   1      44.110  32.595  29.180  1.00  0.00     0.034 A 
BRANCH  53  67
ATOM     67  C   UNL A   1      47.324  27.969  26.671  1.00  0.00     0.023 A 
ATOM     68  C   UNL A   1      48.347  27.516  27.527  1.00  0.00     0.012 A 
ATOM     69  C   UNL A   1      47.506  27.903  25.275  1.00  0.00     0.148 A 
ATOM     70  C   UNL A   1      49.541  27.022  27.002  1.00  0.00     0.002 A 
ATOM     71  C   UNL A   1      48.679  27.367  24.760  1.00  0.00     0.091 A 
ATOM     72  F   UNL A   1      46.526  28.360  24.483  1.00  0.00    -0.205 F 
ATOM     73  C   UNL A   1      49.701  26.935  25.621  1.00  0.00     0.022 A 
BRANCH  71  74
ATOM     74  S   UNL A   1      48.949  27.137  23.000  1.00  0.00     0.127 S 
ATOM     75  O   UNL A   1      48.237  25.884  22.755  1.00  0.00    -0.237 OA
ATOM     76  O   UNL A   1      48.307  28.324  22.436  1.00  0.00    -0.237 OA
ATOM     77  O   UNL A   1      50.392  27.075  22.816  1.00  0.00    -0.744 OA
ENDBRANCH  71  74
ENDBRANCH  53  67
BRANCH  54  78
ATOM     78  C   UNL A   1      38.642  30.582  30.833  1.00  0.00     0.023 A 
ATOM     79  C   UNL A   1      38.464  30.245  32.190  1.00  0.00     0.012 A 
ATOM     80  C   UNL A   1      37.607  31.256  30.154  1.00  0.00     0.148 A 
ATOM     81  C   UNL A   1      37.265  30.535  32.844  1.00  0.00     0.002 A 
ATOM     82  C   UNL A   1      36.440  31.595  30.829  1.00  0.00     0.091 A 
ATOM     83  F   UNL A   1      37.782  31.546  28.858  1.00  0.00    -0.205 F 
ATOM     84  C   UNL A   1      36.258  31.218  32.168  1.00  0.00     0.022 A 
BRANCH  82  85
ATOM     85  S   UNL A   1      35.147  32.584  30.071  1.00  0.00     0.127 S 
ATOM     86  O   UNL A   1      34.206  32.743  31.176  1.00  0.00    -0.237 OA
ATOM     87  O   UNL A   1      35.876  33.797  29.700  1.00  0.00    -0.237 OA
ATOM     88  O   UNL A   1      34.668  31.802  28.939  1.00  0.00    -0.744 OA
ENDBRANCH  82  85
ENDBRANCH  54  78
BRANCH  66  89
ATOM     89  C   UNL A   1      44.563  34.009  29.445  1.00  0.00     0.023 A 
ATOM     90  C   UNL A   1      45.158  34.340  30.679  1.00  0.00     0.012 A 
ATOM     91  C   UNL A   1      44.465  34.993  28.440  1.00  0.00     0.148 A 
ATOM     92  C   UNL A   1      45.612  35.636  30.922  1.00  0.00     0.002 A 
ATOM     93  C   UNL A   1      44.970  36.268  28.670  1.00  0.00     0.091 A 
ATOM     94  F   UNL A   1      43.886  34.663  27.276  1.00  0.00    -0.205 F 
ATOM     95  C   UNL A   1      45.529  36.595  29.916  1.00  0.00     0.022 A 
BRANCH  93  96
ATOM     96  S   UNL A   1      44.996  37.540  27.402  1.00  0.00     0.127 S 
ATOM     97  O   UNL A   1      45.870  36.941  26.396  1.00  0.00    -0.237 OA
ATOM     98  O   UNL A   1      43.586  37.619  27.016  1.00  0.00    -0.237 OA
ATOM     99  O   UNL A   1      45.516  38.740  28.045  1.00  0.00    -0.744 OA
ENDBRANCH  93  96
ENDBRANCH  66  89
ENDBRANCH  40  41
ENDBRANCH  33  35
ENDBRANCH  32  33
ENDBRANCH  31  32
ENDBRANCH  30  31
ENDBRANCH  29  30
ENDBRANCH  28  29
ENDBRANCH   1  28
TORSDOF 26
ENDMDL
MODEL 2
REMARK VINA RESULT:      -9.3      1.895      2.507
REMARK SMILES C[C@@](NC(=O)c1cc(Br)c[nH]1)(C(=O)OCCOCCOCCOCCOC(=O)c1ccc(-c2c3nc(c(-c4cccc(S(=O)(=O)[O-])c4F)c4ccc([nH]4)c(-c4cccc(S(=O)(=O)[O-])c4F)c4nc(c(-c5cccc(S(=O)(=O)[O-])c5F)c5ccc2[nH]5)C=C4)C=C3)cc1)C(F)(F)F
REMARK SMILES IDX 21 1 20 2 19 3 18 4 17 5 16 6 15 7 14 8 12 9 13 10 2 11 1 12
REMARK SMILES IDX 3 13 4 14 5 16 6 17 7 18 11 19 8 20 10 21 9 23 92 24 93 25
REMARK SMILES IDX 94 26 95 27 22 28 23 29 24 30 25 31 26 32 27 33 28 34 29 35
REMARK SMILES IDX 30 36 91 37 31 38 90 39 32 40 33 41 34 42 84 43 35 44 89 45
REMARK SMILES IDX 83 46 85 47 36 48 88 49 82 50 81 51 37 53 69 54 49 55 68 56
REMARK SMILES IDX 50 57 53 58 67 59 86 60 51 61 52 62 66 64 87 65 54 66 38 67
REMARK SMILES IDX 39 68 47 69 40 70 42 71 48 72 41 73 43 74 44 75 45 76 46 77
REMARK SMILES IDX 70 78 71 79 79 80 72 81 74 82 80 83 73 84 75 85 76 86 77 87
REMARK SMILES IDX 78 88 55 89 56 90 64 91 57 92 59 93 65 94 58 95 60 96 61 97
REMARK SMILES IDX 62 98 63 99
REMARK H PARENT 3 15 11 22 85 52 53 63
REMARK Flexibility Score: inf
ROOT
ATOM      1  C   UNL A   1      34.751  21.265  26.059  1.00  0.00     0.188 C 
ENDROOT
BRANCH   1   2
ATOM      2  O   UNL A   1      33.349  21.521  26.028  1.00  0.00    -0.377 OA
BRANCH   2   3
ATOM      3  C   UNL A   1      32.816  22.621  26.740  1.00  0.00     0.188 C 
BRANCH   3   4
ATOM      4  C   UNL A   1      31.294  22.816  26.656  1.00  0.00     0.188 C 
BRANCH   4   5
ATOM      5  O   UNL A   1      30.861  23.675  25.612  1.00  0.00    -0.376 OA
BRANCH   5   6
ATOM      6  C   UNL A   1      29.983  24.742  25.935  1.00  0.00     0.202 C 
BRANCH   6   7
ATOM      7  C   UNL A   1      30.583  26.138  26.109  1.00  0.00     0.261 C 
BRANCH   7   8
ATOM      8  O   UNL A   1      30.661  27.002  24.963  1.00  0.00    -0.461 OA
BRANCH   8   9
ATOM      9  C   UNL A   1      31.174  28.251  25.029  1.00  0.00     0.341 C 
ATOM     10  O   UNL A   1      31.686  28.752  26.023  1.00  0.00    -0.249 OA
BRANCH   9  11
ATOM     11  C   UNL A   1      30.875  29.023  23.753  1.00  0.00     0.231 C 
ATOM     12  C   UNL A   1      30.228  30.401  23.999  1.00  0.00     0.058 C 
BRANCH  11  13
ATOM     13  N   UNL A   1      32.094  29.166  22.888  1.00  0.00    -0.328 N 
ATOM     14  C   UNL A   1      33.343  28.606  22.997  1.00  0.00     0.268 C 
ATOM     15  H   UNL A   1      31.978  29.763  22.113  1.00  0.00     0.165 HD
ATOM     16  O   UNL A   1      34.292  29.313  22.670  1.00  0.00    -0.268 OA
BRANCH  14  17
ATOM     17  C   UNL A   1      33.494  27.209  23.336  1.00  0.00     0.105 A 
ATOM     18  C   UNL A   1      33.228  26.092  22.555  1.00  0.00     0.049 A 
ATOM     19  N   UNL A   1      33.818  26.729  24.593  1.00  0.00    -0.356 N 
ATOM     20  C   UNL A   1      33.505  24.949  23.334  1.00  0.00     0.036 A 
ATOM     21  C   UNL A   1      33.891  25.358  24.582  1.00  0.00     0.098 A 
ATOM     22  H   UNL A   1      33.975  27.292  25.385  1.00  0.00     0.166 HD
ATOM     23  Br  UNL A   1      33.455  23.187  22.702  1.00  0.00    -0.049 Br
ENDBRANCH  14  17
ENDBRANCH  11  13
BRANCH  11  24
ATOM     24  C   UNL A   1      29.824  28.132  23.055  1.00  0.00     0.422 C 
ATOM     25  F   UNL A   1      30.309  26.924  22.689  1.00  0.00    -0.168 F 
ATOM     26  F   UNL A   1      28.776  27.894  23.887  1.00  0.00    -0.168 F 
ATOM     27  F   UNL A   1      29.299  28.710  21.949  1.00  0.00    -0.168 F 
ENDBRANCH  11  24
ENDBRANCH   9  11
ENDBRANCH   8   9
ENDBRANCH   7   8
ENDBRANCH   6   7
ENDBRANCH   5   6
ENDBRANCH   4   5
ENDBRANCH   3   4
ENDBRANCH   2   3
ENDBRANCH   1   2
BRANCH   1  28
ATOM     28  C   UNL A   1      35.778  22.313  25.590  1.00  0.00     0.188 C 
BRANCH  28  29
ATOM     29  O   UNL A   1      37.023  21.772  25.183  1.00  0.00    -0.376 OA
BRANCH  29  30
ATOM     30  C   UNL A   1      37.134  20.363  25.086  1.00  0.00     0.202 C 
BRANCH  30  31
ATOM     31  C   UNL A   1      38.531  19.738  25.213  1.00  0.00     0.261 C 
BRANCH  31  32
ATOM     32  O   UNL A   1      39.633  20.619  25.494  1.00  0.00    -0.460 OA
BRANCH  32  33
ATOM     33  C   UNL A   1      40.217  20.577  26.717  1.00  0.00     0.338 C 
ATOM     34  O   UNL A   1      40.612  19.596  27.300  1.00  0.00    -0.246 OA
BRANCH  33  35
ATOM     35  C   UNL A   1      40.496  21.983  27.119  1.00  0.00     0.060 A 
ATOM     36  C   UNL A   1      39.758  23.023  26.532  1.00  0.00     0.016 A 
ATOM     37  C   UNL A   1      41.450  22.270  28.097  1.00  0.00     0.016 A 
ATOM     38  C   UNL A   1      39.994  24.350  26.902  1.00  0.00     0.010 A 
ATOM     39  C   UNL A   1      41.706  23.601  28.443  1.00  0.00     0.010 A 
ATOM     40  C   UNL A   1      41.001  24.651  27.827  1.00  0.00    -0.014 A 
BRANCH  40  41
ATOM     41  C   UNL A   1      41.453  26.054  28.008  1.00  0.00     0.031 A 
ATOM     42  C   UNL A   1      42.844  26.417  27.560  1.00  0.00     0.074 A 
ATOM     43  C   UNL A   1      40.663  26.988  28.572  1.00  0.00     0.049 A 
ATOM     44  N   UNL A   1      43.489  27.547  27.685  1.00  0.00    -0.248 NA
ATOM     45  C   UNL A   1      43.613  25.360  26.882  1.00  0.00     0.031 C 
ATOM     46  C   UNL A   1      39.292  26.775  29.031  1.00  0.00     0.029 A 
ATOM     47  N   UNL A   1      40.922  28.302  28.883  1.00  0.00    -0.354 N 
ATOM     48  C   UNL A   1      44.746  27.328  27.137  1.00  0.00     0.074 A 
ATOM     49  C   UNL A   1      44.776  25.959  26.674  1.00  0.00     0.031 C 
ATOM     50  C   UNL A   1      38.845  27.905  29.605  1.00  0.00     0.029 A 
ATOM     51  C   UNL A   1      39.907  28.912  29.583  1.00  0.00     0.049 A 
ATOM     52  H   UNL A   1      41.756  28.762  28.630  1.00  0.00     0.167 HD
ATOM     53  C   UNL A   1      45.783  28.190  27.022  1.00  0.00     0.034 A 
ATOM     54  C   UNL A   1      39.856  30.125  30.171  1.00  0.00     0.034 A 
ATOM     55  C   UNL A   1      45.752  29.557  27.467  1.00  0.00     0.049 A 
ATOM     56  C   UNL A   1      41.044  31.050  30.066  1.00  0.00     0.074 A 
ATOM     57  C   UNL A   1      46.737  30.521  27.345  1.00  0.00     0.029 A 
ATOM     58  N   UNL A   1      44.695  30.147  28.138  1.00  0.00    -0.354 N 
ATOM     59  N   UNL A   1      42.181  30.871  29.438  1.00  0.00    -0.248 NA
ATOM     60  C   UNL A   1      40.931  32.359  30.730  1.00  0.00     0.031 C 
ATOM     61  C   UNL A   1      46.292  31.683  27.981  1.00  0.00     0.029 A 
ATOM     62  C   UNL A   1      45.012  31.456  28.459  1.00  0.00     0.049 A 
ATOM     63  H   UNL A   1      43.844  29.703  28.356  1.00  0.00     0.167 HD
ATOM     64  C   UNL A   1      42.900  32.051  29.601  1.00  0.00     0.074 A 
ATOM     65  C   UNL A   1      42.060  32.950  30.364  1.00  0.00     0.031 C 
ATOM     66  C   UNL A   1      44.149  32.361  29.173  1.00  0.00     0.034 A 
BRANCH  53  67
ATOM     67  C   UNL A   1      47.051  27.689  26.385  1.00  0.00     0.023 A 
ATOM     68  C   UNL A   1      47.245  27.833  24.997  1.00  0.00     0.012 A 
ATOM     69  C   UNL A   1      48.085  27.153  27.178  1.00  0.00     0.148 A 
ATOM     70  C   UNL A   1      48.442  27.435  24.404  1.00  0.00     0.002 A 
ATOM     71  C   UNL A   1      49.292  26.801  26.587  1.00  0.00     0.091 A 
ATOM     72  F   UNL A   1      47.869  27.005  28.492  1.00  0.00    -0.205 F 
ATOM     73  C   UNL A   1      49.469  26.932  25.200  1.00  0.00     0.022 A 
BRANCH  71  74
ATOM     74  S   UNL A   1      50.703  26.221  27.535  1.00  0.00     0.127 S 
ATOM     75  O   UNL A   1      50.687  24.789  27.239  1.00  0.00    -0.237 OA
ATOM     76  O   UNL A   1      51.806  26.959  26.920  1.00  0.00    -0.237 OA
ATOM     77  O   UNL A   1      50.431  26.570  28.922  1.00  0.00    -0.744 OA
ENDBRANCH  71  74
ENDBRANCH  53  67
BRANCH  54  78
ATOM     78  C   UNL A   1      38.644  30.546  30.932  1.00  0.00     0.023 A 
ATOM     79  C   UNL A   1      38.508  30.192  32.290  1.00  0.00     0.012 A 
ATOM     80  C   UNL A   1      37.609  31.269  30.307  1.00  0.00     0.148 A 
ATOM     81  C   UNL A   1      37.348  30.512  32.996  1.00  0.00     0.002 A 
ATOM     82  C   UNL A   1      36.483  31.637  31.034  1.00  0.00     0.091 A 
ATOM     83  F   UNL A   1      37.743  31.576  29.010  1.00  0.00    -0.205 F 
ATOM     84  C   UNL A   1      36.340  31.242  32.372  1.00  0.00     0.022 A 
BRANCH  82  85
ATOM     85  S   UNL A   1      35.197  32.685  30.345  1.00  0.00     0.127 S 
ATOM     86  O   UNL A   1      34.295  32.840  31.483  1.00  0.00    -0.237 OA
ATOM     87  O   UNL A   1      35.951  33.886  29.984  1.00  0.00    -0.237 OA
ATOM     88  O   UNL A   1      34.660  31.950  29.207  1.00  0.00    -0.744 OA
ENDBRANCH  82  85
ENDBRANCH  54  78
BRANCH  66  89
ATOM     89  C   UNL A   1      44.678  33.739  29.475  1.00  0.00     0.023 A 
ATOM     90  C   UNL A   1      45.438  33.964  30.641  1.00  0.00     0.012 A 
ATOM     91  C   UNL A   1      44.485  34.797  28.564  1.00  0.00     0.148 A 
ATOM     92  C   UNL A   1      45.963  35.228  30.913  1.00  0.00     0.002 A 
ATOM     93  C   UNL A   1      45.056  36.040  28.815  1.00  0.00     0.091 A 
ATOM     94  F   UNL A   1      43.750  34.569  27.465  1.00  0.00    -0.205 F 
ATOM     95  C   UNL A   1      45.782  36.261  29.996  1.00  0.00     0.022 A 
BRANCH  93  96
ATOM     96  S   UNL A   1      44.961  37.402  27.647  1.00  0.00     0.127 S 
ATOM     97  O   UNL A   1      45.495  38.510  28.437  1.00  0.00    -0.237 OA
ATOM     98  O   UNL A   1      45.837  36.944  26.568  1.00  0.00    -0.237 OA
ATOM     99  O   UNL A   1      43.556  37.520  27.279  1.00  0.00    -0.744 OA
ENDBRANCH  93  96
ENDBRANCH  66  89
ENDBRANCH  40  41
ENDBRANCH  33  35
ENDBRANCH  32  33
ENDBRANCH  31  32
ENDBRANCH  30  31
ENDBRANCH  29  30
ENDBRANCH  28  29
ENDBRANCH   1  28
TORSDOF 26
ENDMDL
MODEL 3
REMARK VINA RESULT:      -9.2      6.214     11.328
REMARK SMILES C[C@@](NC(=O)c1cc(Br)c[nH]1)(C(=O)OCCOCCOCCOCCOC(=O)c1ccc(-c2c3nc(c(-c4cccc(S(=O)(=O)[O-])c4F)c4ccc([nH]4)c(-c4cccc(S(=O)(=O)[O-])c4F)c4nc(c(-c5cccc(S(=O)(=O)[O-])c5F)c5ccc2[nH]5)C=C4)C=C3)cc1)C(F)(F)F
REMARK SMILES IDX 21 1 20 2 19 3 18 4 17 5 16 6 15 7 14 8 12 9 13 10 2 11 1 12
REMARK SMILES IDX 3 13 4 14 5 16 6 17 7 18 11 19 8 20 10 21 9 23 92 24 93 25
REMARK SMILES IDX 94 26 95 27 22 28 23 29 24 30 25 31 26 32 27 33 28 34 29 35
REMARK SMILES IDX 30 36 91 37 31 38 90 39 32 40 33 41 34 42 84 43 35 44 89 45
REMARK SMILES IDX 83 46 85 47 36 48 88 49 82 50 81 51 37 53 69 54 49 55 68 56
REMARK SMILES IDX 50 57 53 58 67 59 86 60 51 61 52 62 66 64 87 65 54 66 38 67
REMARK SMILES IDX 39 68 47 69 40 70 42 71 48 72 41 73 43 74 44 75 45 76 46 77
REMARK SMILES IDX 70 78 71 79 79 80 72 81 74 82 80 83 73 84 75 85 76 86 77 87
REMARK SMILES IDX 78 88 55 89 56 90 64 91 57 92 59 93 65 94 58 95 60 96 61 97
REMARK SMILES IDX 62 98 63 99
REMARK H PARENT 3 15 11 22 85 52 53 63
REMARK Flexibility Score: inf
ROOT
ATOM      1  C   UNL A   1      35.111  31.010  28.183  1.00  0.00     0.188 C 
ENDROOT
BRANCH   1   2
ATOM      2  O   UNL A   1      34.721  30.009  27.245  1.00  0.00    -0.377 OA
BRANCH   2   3
ATOM      3  C   UNL A   1      33.353  29.693  27.076  1.00  0.00     0.188 C 
BRANCH   3   4
ATOM      4  C   UNL A   1      32.764  29.937  25.677  1.00  0.00     0.188 C 
BRANCH   4   5
ATOM      5  O   UNL A   1      31.749  29.021  25.293  1.00  0.00    -0.376 OA
BRANCH   5   6
ATOM      6  C   UNL A   1      31.954  28.234  24.130  1.00  0.00     0.202 C 
BRANCH   6   7
ATOM      7  C   UNL A   1      33.394  27.927  23.716  1.00  0.00     0.261 C 
BRANCH   7   8
ATOM      8  O   UNL A   1      33.876  26.579  23.848  1.00  0.00    -0.461 OA
BRANCH   8   9
ATOM      9  C   UNL A   1      33.691  25.645  22.888  1.00  0.00     0.341 C 
ATOM     10  O   UNL A   1      33.647  25.870  21.685  1.00  0.00    -0.249 OA
BRANCH   9  11
ATOM     11  C   UNL A   1      33.370  24.293  23.508  1.00  0.00     0.231 C 
ATOM     12  C   UNL A   1      33.725  23.096  22.604  1.00  0.00     0.058 C 
BRANCH  11  13
ATOM     13  N   UNL A   1      34.005  24.133  24.859  1.00  0.00    -0.328 N 
ATOM     14  C   UNL A   1      33.901  23.126  25.787  1.00  0.00     0.268 C 
ATOM     15  H   UNL A   1      34.594  24.876  25.125  1.00  0.00     0.165 HD
ATOM     16  O   UNL A   1      33.900  23.464  26.966  1.00  0.00    -0.268 OA
BRANCH  14  17
ATOM     17  C   UNL A   1      33.942  21.741  25.374  1.00  0.00     0.105 A 
ATOM     18  C   UNL A   1      32.893  20.836  25.267  1.00  0.00     0.049 A 
ATOM     19  N   UNL A   1      35.098  21.019  25.133  1.00  0.00    -0.356 N 
ATOM     20  C   UNL A   1      33.436  19.601  24.853  1.00  0.00     0.036 A 
ATOM     21  C   UNL A   1      34.794  19.735  24.752  1.00  0.00     0.098 A 
ATOM     22  H   UNL A   1      36.010  21.376  25.223  1.00  0.00     0.166 HD
ATOM     23  Br  UNL A   1      32.429  18.085  24.413  1.00  0.00    -0.049 Br
ENDBRANCH  14  17
ENDBRANCH  11  13
BRANCH  11  24
ATOM     24  C   UNL A   1      31.832  24.337  23.640  1.00  0.00     0.422 C 
ATOM     25  F   UNL A   1      31.414  24.765  24.853  1.00  0.00    -0.168 F 
ATOM     26  F   UNL A   1      31.300  25.189  22.724  1.00  0.00    -0.168 F 
ATOM     27  F   UNL A   1      31.252  23.135  23.413  1.00  0.00    -0.168 F 
ENDBRANCH  11  24
ENDBRANCH   9  11
ENDBRANCH   8   9
ENDBRANCH   7   8
ENDBRANCH   6   7
ENDBRANCH   5   6
ENDBRANCH   4   5
ENDBRANCH   3   4
ENDBRANCH   2   3
ENDBRANCH   1   2
BRANCH   1  28
ATOM     28  C   UNL A   1      35.052  32.511  27.839  1.00  0.00     0.188 C 
BRANCH  28  29
ATOM     29  O   UNL A   1      33.930  33.191  28.376  1.00  0.00    -0.376 OA
BRANCH  29  30
ATOM     30  C   UNL A   1      34.152  34.437  29.011  1.00  0.00     0.202 C 
BRANCH  30  31
ATOM     31  C   UNL A   1      32.931  35.205  29.540  1.00  0.00     0.261 C 
BRANCH  31  32
ATOM     32  O   UNL A   1      33.127  36.073  30.670  1.00  0.00    -0.460 OA
BRANCH  32  33
ATOM     33  C   UNL A   1      32.751  35.648  31.902  1.00  0.00     0.338 C 
ATOM     34  O   UNL A   1      31.640  35.678  32.373  1.00  0.00    -0.246 OA
BRANCH  33  35
ATOM     35  C   UNL A   1      33.911  34.924  32.490  1.00  0.00     0.060 A 
ATOM     36  C   UNL A   1      35.203  35.446  32.317  1.00  0.00     0.016 A 
ATOM     37  C   UNL A   1      33.722  33.761  33.238  1.00  0.00     0.016 A 
ATOM     38  C   UNL A   1      36.307  34.790  32.870  1.00  0.00     0.010 A 
ATOM     39  C   UNL A   1      34.832  33.089  33.764  1.00  0.00     0.010 A 
ATOM     40  C   UNL A   1      36.133  33.583  33.558  1.00  0.00    -0.014 A 
BRANCH  40  41
ATOM     41  C   UNL A   1      37.308  32.738  33.892  1.00  0.00     0.031 A 
ATOM     42  C   UNL A   1      38.130  33.108  35.099  1.00  0.00     0.074 A 
ATOM     43  C   UNL A   1      37.657  31.677  33.141  1.00  0.00     0.049 A 
ATOM     44  N   UNL A   1      39.238  32.577  35.542  1.00  0.00    -0.248 NA
ATOM     45  C   UNL A   1      37.635  34.232  35.911  1.00  0.00     0.031 C 
ATOM     46  C   UNL A   1      36.938  31.199  31.961  1.00  0.00     0.029 A 
ATOM     47  N   UNL A   1      38.733  30.827  33.246  1.00  0.00    -0.354 N 
ATOM     48  C   UNL A   1      39.593  33.321  36.661  1.00  0.00     0.074 A 
ATOM     49  C   UNL A   1      38.581  34.340  36.832  1.00  0.00     0.031 C 
ATOM     50  C   UNL A   1      37.616  30.169  31.426  1.00  0.00     0.029 A 
ATOM     51  C   UNL A   1      38.832  29.934  32.205  1.00  0.00     0.049 A 
ATOM     52  H   UNL A   1      39.372  30.856  33.995  1.00  0.00     0.167 HD
ATOM     53  C   UNL A   1      40.661  33.168  37.477  1.00  0.00     0.034 A 
ATOM     54  C   UNL A   1      39.810  29.057  31.895  1.00  0.00     0.034 A 
ATOM     55  C   UNL A   1      41.661  32.147  37.319  1.00  0.00     0.049 A 
ATOM     56  C   UNL A   1      41.013  28.938  32.799  1.00  0.00     0.074 A 
ATOM     57  C   UNL A   1      42.751  31.881  38.130  1.00  0.00     0.029 A 
ATOM     58  N   UNL A   1      41.708  31.240  36.275  1.00  0.00    -0.354 N 
ATOM     59  N   UNL A   1      41.272  29.567  33.920  1.00  0.00    -0.248 NA
ATOM     60  C   UNL A   1      42.048  27.967  32.408  1.00  0.00     0.031 C 
ATOM     61  C   UNL A   1      43.482  30.840  37.551  1.00  0.00     0.029 A 
ATOM     62  C   UNL A   1      42.821  30.428  36.405  1.00  0.00     0.049 A 
ATOM     63  H   UNL A   1      41.047  31.180  35.547  1.00  0.00     0.167 HD
ATOM     64  C   UNL A   1      42.476  29.044  34.384  1.00  0.00     0.074 A 
ATOM     65  C   UNL A   1      42.882  28.027  33.437  1.00  0.00     0.031 C 
ATOM     66  C   UNL A   1      43.190  29.383  35.485  1.00  0.00     0.034 A 
BRANCH  53  67
ATOM     67  C   UNL A   1      40.813  34.126  38.628  1.00  0.00     0.023 A 
ATOM     68  C   UNL A   1      41.694  35.220  38.520  1.00  0.00     0.012 A 
ATOM     69  C   UNL A   1      40.016  33.987  39.782  1.00  0.00     0.148 A 
ATOM     70  C   UNL A   1      41.794  36.153  39.552  1.00  0.00     0.002 A 
ATOM     71  C   UNL A   1      40.088  34.945  40.785  1.00  0.00     0.091 A 
ATOM     72  F   UNL A   1      39.202  32.926  39.870  1.00  0.00    -0.205 F 
ATOM     73  C   UNL A   1      40.982  36.023  40.677  1.00  0.00     0.022 A 
BRANCH  71  74
ATOM     74  S   UNL A   1      39.028  34.913  42.234  1.00  0.00     0.127 S 
ATOM     75  O   UNL A   1      39.761  35.782  43.155  1.00  0.00    -0.237 OA
ATOM     76  O   UNL A   1      37.785  35.483  41.715  1.00  0.00    -0.237 OA
ATOM     77  O   UNL A   1      38.938  33.518  42.640  1.00  0.00    -0.744 OA
ENDBRANCH  71  74
ENDBRANCH  53  67
BRANCH  54  78
ATOM     78  C   UNL A   1      39.715  28.222  30.662  1.00  0.00     0.023 A 
ATOM     79  C   UNL A   1      38.934  27.048  30.668  1.00  0.00     0.012 A 
ATOM     80  C   UNL A   1      40.422  28.567  29.494  1.00  0.00     0.148 A 
ATOM     81  C   UNL A   1      38.894  26.214  29.549  1.00  0.00     0.002 A 
ATOM     82  C   UNL A   1      40.329  27.763  28.363  1.00  0.00     0.091 A 
ATOM     83  F   UNL A   1      41.179  29.672  29.514  1.00  0.00    -0.205 F 
ATOM     84  C   UNL A   1      39.583  26.576  28.395  1.00  0.00     0.022 A 
BRANCH  82  85
ATOM     85  S   UNL A   1      41.080  28.220  26.797  1.00  0.00     0.127 S 
ATOM     86  O   UNL A   1      42.460  28.485  27.193  1.00  0.00    -0.237 OA
ATOM     87  O   UNL A   1      40.885  27.005  26.006  1.00  0.00    -0.237 OA
ATOM     88  O   UNL A   1      40.325  29.373  26.322  1.00  0.00    -0.744 OA
ENDBRANCH  82  85
ENDBRANCH  54  78
BRANCH  66  89
ATOM     89  C   UNL A   1      44.466  28.628  35.761  1.00  0.00     0.023 A 
ATOM     90  C   UNL A   1      44.434  27.446  36.527  1.00  0.00     0.012 A 
ATOM     91  C   UNL A   1      45.686  29.051  35.197  1.00  0.00     0.148 A 
ATOM     92  C   UNL A   1      45.601  26.719  36.760  1.00  0.00     0.002 A 
ATOM     93  C   UNL A   1      46.836  28.293  35.387  1.00  0.00     0.091 A 
ATOM     94  F   UNL A   1      45.700  30.184  34.479  1.00  0.00    -0.205 F 
ATOM     95  C   UNL A   1      46.798  27.136  36.182  1.00  0.00     0.022 A 
BRANCH  93  96
ATOM     96  S   UNL A   1      48.401  28.695  34.603  1.00  0.00     0.127 S 
ATOM     97  O   UNL A   1      48.836  29.854  35.381  1.00  0.00    -0.237 OA
ATOM     98  O   UNL A   1      49.182  27.479  34.831  1.00  0.00    -0.237 OA
ATOM     99  O   UNL A   1      48.094  28.965  33.204  1.00  0.00    -0.744 OA
ENDBRANCH  93  96
ENDBRANCH  66  89
ENDBRANCH  40  41
ENDBRANCH  33  35
ENDBRANCH  32  33
ENDBRANCH  31  32
ENDBRANCH  30  31
ENDBRANCH  29  30
ENDBRANCH  28  29
ENDBRANCH   1  28
TORSDOF 26
ENDMDL
