MODEL 1
REMARK VINA RESULT:      -9.3      0.000      0.000
REMARK SMILES Cc1ccccc1CSCC(=O)Nc1ccc(C)c(C(=O)OCCOCCOCCOCCOC(=O)c2ccc(-c3c4nc(c(-c5cccc(S(=O)(=O)[O-])c5F)c5ccc([nH]5)c(-c5cccc(S(=O)(=O)[O-])c5F)c5nc(c(-c6cccc(S(=O)(=O)[O-])c6F)c6ccc3[nH]6)C=C5)C=C4)cc2)c1
REMARK SMILES IDX 27 1 26 2 25 3 24 4 23 5 22 6 20 7 21 8 19 9 14 10 15 11
REMARK SMILES IDX 100 12 16 13 17 14 18 15 13 16 11 17 12 18 10 20 9 21 8 22
REMARK SMILES IDX 7 23 1 24 2 25 3 26 4 27 6 28 5 29 28 30 29 31 30 32 31 33
REMARK SMILES IDX 32 34 33 35 34 36 35 37 36 38 37 39 38 40 99 41 39 42 98 43
REMARK SMILES IDX 40 44 41 45 42 46 92 47 43 48 97 49 91 50 93 51 44 52 96 53
REMARK SMILES IDX 90 54 89 55 45 57 77 58 57 59 76 60 58 61 61 62 75 63 94 64
REMARK SMILES IDX 59 65 60 66 74 68 95 69 62 70 46 71 47 72 55 73 48 74 50 75
REMARK SMILES IDX 56 76 49 77 51 78 52 79 53 80 54 81 78 82 79 83 87 84 80 85
REMARK SMILES IDX 82 86 88 87 81 88 83 89 84 90 85 91 86 92 63 93 64 94 72 95
REMARK SMILES IDX 65 96 67 97 73 98 66 99 68 100 69 101 70 102 71 103
REMARK H PARENT 13 19 93 56 61 67
REMARK Flexibility Score: inf
ROOT
ATOM      1  C   UNL A   1      35.744  33.191  28.273  1.00  0.00     0.188 C 
ENDROOT
BRANCH   1   2
ATOM      2  C   UNL A   1      34.923  31.930  28.537  1.00  0.00     0.188 C 
BRANCH   2   3
ATOM      3  O   UNL A   1      34.867  30.950  27.506  1.00  0.00    -0.376 OA
BRANCH   3   4
ATOM      4  C   UNL A   1      33.578  30.675  26.953  1.00  0.00     0.202 C 
BRANCH   4   5
ATOM      5  C   UNL A   1      32.985  29.385  27.442  1.00  0.00     0.261 C 
BRANCH   5   6
ATOM      6  O   UNL A   1      33.526  28.389  26.570  1.00  0.00    -0.460 OA
BRANCH   6   7
ATOM      7  C   UNL A   1      32.904  27.233  26.535  1.00  0.00     0.338 C 
ATOM      8  O   UNL A   1      31.955  26.847  27.250  1.00  0.00    -0.246 OA
BRANCH   7   9
ATOM      9  C   UNL A   1      33.150  26.715  25.191  1.00  0.00     0.065 A 
ATOM     10  C   UNL A   1      32.683  27.237  22.903  1.00  0.00     0.042 A 
ATOM     11  C   UNL A   1      33.525  26.221  22.469  1.00  0.00     0.026 A 
ATOM     12  C   UNL A   1      32.537  27.518  24.240  1.00  0.00     0.042 A 
ATOM     13  C   UNL A   1      34.143  25.407  23.409  1.00  0.00     0.006 A 
ATOM     14  C   UNL A   1      33.996  25.659  24.781  1.00  0.00    -0.036 A 
ATOM     15  C   UNL A   1      34.805  24.797  25.697  1.00  0.00     0.045 C 
BRANCH  10  16
ATOM     16  N   UNL A   1      31.781  27.857  22.045  1.00  0.00    -0.325 N 
ATOM     17  C   UNL A   1      30.467  28.063  22.414  1.00  0.00     0.234 C 
ATOM     18  O   UNL A   1      29.874  29.030  21.926  1.00  0.00    -0.274 OA
ATOM     19  H   UNL A   1      32.085  28.153  21.158  1.00  0.00     0.169 HD
BRANCH  17  20
ATOM     20  C   UNL A   1      29.787  27.171  23.456  1.00  0.00     0.170 C 
BRANCH  20  21
ATOM     21  S   UNL A   1      29.756  25.365  23.178  1.00  0.00    -0.147 SA
BRANCH  21  22
ATOM     22  C   UNL A   1      30.380  24.697  24.762  1.00  0.00     0.105 C 
BRANCH  22  23
ATOM     23  C   UNL A   1      31.204  23.458  24.574  1.00  0.00    -0.035 A 
ATOM     24  C   UNL A   1      31.557  22.978  27.095  1.00  0.00     0.044 C 
ATOM     25  C   UNL A   1      31.809  22.744  25.629  1.00  0.00    -0.047 A 
ATOM     26  C   UNL A   1      32.718  21.725  25.305  1.00  0.00     0.004 A 
ATOM     27  C   UNL A   1      32.968  21.372  23.980  1.00  0.00     0.000 A 
ATOM     28  C   UNL A   1      31.416  23.043  23.245  1.00  0.00     0.005 A 
ATOM     29  C   UNL A   1      32.292  22.010  22.948  1.00  0.00     0.000 A 
ENDBRANCH  22  23
ENDBRANCH  21  22
ENDBRANCH  20  21
ENDBRANCH  17  20
ENDBRANCH  10  16
ENDBRANCH   7   9
ENDBRANCH   6   7
ENDBRANCH   5   6
ENDBRANCH   4   5
ENDBRANCH   3   4
ENDBRANCH   2   3
ENDBRANCH   1   2
BRANCH   1  30
ATOM     30  O   UNL A   1      35.217  34.446  28.621  1.00  0.00    -0.377 OA
BRANCH  30  31
ATOM     31  C   UNL A   1      33.949  34.524  29.231  1.00  0.00     0.188 C 
BRANCH  31  32
ATOM     32  C   UNL A   1      34.036  34.683  30.753  1.00  0.00     0.188 C 
BRANCH  32  33
ATOM     33  O   UNL A   1      33.932  33.493  31.503  1.00  0.00    -0.376 OA
BRANCH  33  34
ATOM     34  C   UNL A   1      34.352  33.615  32.862  1.00  0.00     0.202 C 
BRANCH  34  35
ATOM     35  C   UNL A   1      35.561  32.755  33.426  1.00  0.00     0.261 C 
BRANCH  35  36
ATOM     36  O   UNL A   1      36.890  33.113  32.830  1.00  0.00    -0.460 OA
BRANCH  36  37
ATOM     37  C   UNL A   1      37.664  34.259  32.918  1.00  0.00     0.338 C 
ATOM     38  O   UNL A   1      37.493  35.067  33.827  1.00  0.00    -0.246 OA
BRANCH  37  39
ATOM     39  C   UNL A   1      38.954  34.378  32.119  1.00  0.00     0.060 A 
ATOM     40  C   UNL A   1      38.936  34.341  30.722  1.00  0.00     0.016 A 
ATOM     41  C   UNL A   1      40.207  34.594  32.678  1.00  0.00     0.016 A 
ATOM     42  C   UNL A   1      40.101  34.050  29.985  1.00  0.00     0.010 A 
ATOM     43  C   UNL A   1      41.354  34.183  31.990  1.00  0.00     0.010 A 
ATOM     44  C   UNL A   1      41.273  33.759  30.662  1.00  0.00    -0.014 A 
BRANCH  44  45
ATOM     45  C   UNL A   1      42.320  32.848  30.153  1.00  0.00     0.031 A 
ATOM     46  C   UNL A   1      42.159  31.350  30.280  1.00  0.00     0.074 A 
ATOM     47  C   UNL A   1      43.170  33.342  29.207  1.00  0.00     0.049 A 
ATOM     48  N   UNL A   1      42.826  30.472  29.608  1.00  0.00    -0.248 NA
ATOM     49  C   UNL A   1      41.177  30.710  31.147  1.00  0.00     0.031 C 
ATOM     50  C   UNL A   1      43.806  32.517  28.200  1.00  0.00     0.029 A 
ATOM     51  N   UNL A   1      43.605  34.618  28.820  1.00  0.00    -0.354 N 
ATOM     52  C   UNL A   1      42.216  29.243  29.692  1.00  0.00     0.074 A 
ATOM     53  C   UNL A   1      41.234  29.434  30.733  1.00  0.00     0.031 C 
ATOM     54  C   UNL A   1      44.503  33.242  27.333  1.00  0.00     0.029 A 
ATOM     55  C   UNL A   1      44.738  34.480  27.998  1.00  0.00     0.049 A 
ATOM     56  H   UNL A   1      43.187  35.470  29.081  1.00  0.00     0.167 HD
ATOM     57  C   UNL A   1      42.565  28.264  28.797  1.00  0.00     0.034 A 
ATOM     58  C   UNL A   1      46.030  34.828  28.290  1.00  0.00     0.034 A 
ATOM     59  C   UNL A   1      43.799  28.626  28.011  1.00  0.00     0.049 A 
ATOM     60  C   UNL A   1      46.963  33.596  28.423  1.00  0.00     0.074 A 
ATOM     61  C   UNL A   1      44.168  28.606  26.672  1.00  0.00     0.029 A 
ATOM     62  N   UNL A   1      44.895  29.228  28.660  1.00  0.00    -0.354 N 
ATOM     63  N   UNL A   1      46.526  32.364  28.290  1.00  0.00    -0.248 NA
ATOM     64  C   UNL A   1      48.396  33.580  28.679  1.00  0.00     0.031 C 
ATOM     65  C   UNL A   1      45.419  29.290  26.521  1.00  0.00     0.029 A 
ATOM     66  C   UNL A   1      45.884  29.651  27.775  1.00  0.00     0.049 A 
ATOM     67  H   UNL A   1      44.955  29.338  29.636  1.00  0.00     0.167 HD
ATOM     68  C   UNL A   1      47.491  31.421  28.412  1.00  0.00     0.074 A 
ATOM     69  C   UNL A   1      48.660  32.250  28.705  1.00  0.00     0.031 C 
ATOM     70  C   UNL A   1      47.212  30.076  28.265  1.00  0.00     0.034 A 
BRANCH  57  71
ATOM     71  C   UNL A   1      41.740  26.979  28.504  1.00  0.00     0.023 A 
ATOM     72  C   UNL A   1      40.350  27.128  28.268  1.00  0.00     0.012 A 
ATOM     73  C   UNL A   1      42.193  25.629  28.503  1.00  0.00     0.148 A 
ATOM     74  C   UNL A   1      39.476  26.044  28.068  1.00  0.00     0.002 A 
ATOM     75  C   UNL A   1      41.334  24.547  28.228  1.00  0.00     0.091 A 
ATOM     76  F   UNL A   1      43.453  25.346  28.832  1.00  0.00    -0.205 F 
ATOM     77  C   UNL A   1      39.970  24.752  28.031  1.00  0.00     0.022 A 
BRANCH  75  78
ATOM     78  S   UNL A   1      41.901  22.833  28.094  1.00  0.00     0.127 S 
ATOM     79  O   UNL A   1      42.801  22.892  26.941  1.00  0.00    -0.237 OA
ATOM     80  O   UNL A   1      42.575  22.627  29.376  1.00  0.00    -0.237 OA
ATOM     81  O   UNL A   1      40.709  22.019  27.895  1.00  0.00    -0.744 OA
ENDBRANCH  75  78
ENDBRANCH  57  71
BRANCH  58  82
ATOM     82  C   UNL A   1      46.119  36.238  28.760  1.00  0.00     0.023 A 
ATOM     83  C   UNL A   1      47.014  36.413  29.852  1.00  0.00     0.012 A 
ATOM     84  C   UNL A   1      46.017  37.259  27.808  1.00  0.00     0.148 A 
ATOM     85  C   UNL A   1      47.993  37.410  29.815  1.00  0.00     0.002 A 
ATOM     86  C   UNL A   1      46.997  38.250  27.776  1.00  0.00     0.091 A 
ATOM     87  F   UNL A   1      45.061  37.167  26.875  1.00  0.00    -0.205 F 
ATOM     88  C   UNL A   1      48.024  38.286  28.736  1.00  0.00     0.022 A 
BRANCH  86  89
ATOM     89  S   UNL A   1      47.131  39.351  26.362  1.00  0.00     0.127 S 
ATOM     90  O   UNL A   1      45.757  39.805  26.196  1.00  0.00    -0.237 OA
ATOM     91  O   UNL A   1      48.059  40.368  26.850  1.00  0.00    -0.237 OA
ATOM     92  O   UNL A   1      47.670  38.512  25.301  1.00  0.00    -0.744 OA
ENDBRANCH  86  89
ENDBRANCH  58  82
BRANCH  70  93
ATOM     93  C   UNL A   1      48.175  28.947  28.598  1.00  0.00     0.023 A 
ATOM     94  C   UNL A   1      48.777  28.818  29.854  1.00  0.00     0.012 A 
ATOM     95  C   UNL A   1      48.488  27.936  27.642  1.00  0.00     0.148 A 
ATOM     96  C   UNL A   1      49.448  27.649  30.224  1.00  0.00     0.002 A 
ATOM     97  C   UNL A   1      49.173  26.786  27.999  1.00  0.00     0.091 A 
ATOM     98  F   UNL A   1      48.146  28.079  26.361  1.00  0.00    -0.205 F 
ATOM     99  C   UNL A   1      49.607  26.615  29.311  1.00  0.00     0.022 A 
BRANCH  97 100
ATOM    100  S   UNL A   1      49.531  25.474  26.824  1.00  0.00     0.127 S 
ATOM    101  O   UNL A   1      48.243  25.337  26.143  1.00  0.00    -0.237 OA
ATOM    102  O   UNL A   1      50.589  26.083  26.019  1.00  0.00    -0.237 OA
ATOM    103  O   UNL A   1      49.937  24.312  27.601  1.00  0.00    -0.744 OA
ENDBRANCH  97 100
ENDBRANCH  70  93
ENDBRANCH  44  45
ENDBRANCH  37  39
ENDBRANCH  36  37
ENDBRANCH  35  36
ENDBRANCH  34  35
ENDBRANCH  33  34
ENDBRANCH  32  33
ENDBRANCH  31  32
ENDBRANCH  30  31
ENDBRANCH   1  30
TORSDOF 28
ENDMDL
MODEL 2
REMARK VINA RESULT:      -8.6      6.985     10.962
REMARK SMILES Cc1ccccc1CSCC(=O)Nc1ccc(C)c(C(=O)OCCOCCOCCOCCOC(=O)c2ccc(-c3c4nc(c(-c5cccc(S(=O)(=O)[O-])c5F)c5ccc([nH]5)c(-c5cccc(S(=O)(=O)[O-])c5F)c5nc(c(-c6cccc(S(=O)(=O)[O-])c6F)c6ccc3[nH]6)C=C5)C=C4)cc2)c1
REMARK SMILES IDX 27 1 26 2 25 3 24 4 23 5 22 6 20 7 21 8 19 9 14 10 15 11
REMARK SMILES IDX 100 12 16 13 17 14 18 15 13 16 11 17 12 18 10 20 9 21 8 22
REMARK SMILES IDX 7 23 1 24 2 25 3 26 4 27 6 28 5 29 28 30 29 31 30 32 31 33
REMARK SMILES IDX 32 34 33 35 34 36 35 37 36 38 37 39 38 40 99 41 39 42 98 43
REMARK SMILES IDX 40 44 41 45 42 46 92 47 43 48 97 49 91 50 93 51 44 52 96 53
REMARK SMILES IDX 90 54 89 55 45 57 77 58 57 59 76 60 58 61 61 62 75 63 94 64
REMARK SMILES IDX 59 65 60 66 74 68 95 69 62 70 46 71 47 72 55 73 48 74 50 75
REMARK SMILES IDX 56 76 49 77 51 78 52 79 53 80 54 81 78 82 79 83 87 84 80 85
REMARK SMILES IDX 82 86 88 87 81 88 83 89 84 90 85 91 86 92 63 93 64 94 72 95
REMARK SMILES IDX 65 96 67 97 73 98 66 99 68 100 69 101 70 102 71 103
REMARK H PARENT 13 19 93 56 61 67
REMARK Flexibility Score: inf
ROOT
ATOM      1  C   UNL A   1      38.363  21.789  26.150  1.00  0.00     0.188 C 
ENDROOT
BRANCH   1   2
ATOM      2  C   UNL A   1      37.409  22.633  25.306  1.00  0.00     0.188 C 
BRANCH   2   3
ATOM      3  O   UNL A   1      36.737  23.711  25.949  1.00  0.00    -0.376 OA
BRANCH   3   4
ATOM      4  C   UNL A   1      35.749  23.362  26.921  1.00  0.00     0.202 C 
BRANCH   4   5
ATOM      5  C   UNL A   1      34.546  22.687  26.329  1.00  0.00     0.261 C 
BRANCH   5   6
ATOM      6  O   UNL A   1      33.472  23.603  26.560  1.00  0.00    -0.460 OA
BRANCH   6   7
ATOM      7  C   UNL A   1      32.276  23.083  26.717  1.00  0.00     0.338 C 
ATOM      8  O   UNL A   1      31.670  22.852  27.784  1.00  0.00    -0.246 OA
BRANCH   7   9
ATOM      9  C   UNL A   1      31.590  23.329  25.450  1.00  0.00     0.065 A 
ATOM     10  C   UNL A   1      30.117  24.916  24.433  1.00  0.00     0.042 A 
ATOM     11  C   UNL A   1      30.260  24.301  23.196  1.00  0.00     0.026 A 
ATOM     12  C   UNL A   1      30.811  24.474  25.533  1.00  0.00     0.042 A 
ATOM     13  C   UNL A   1      31.034  23.152  23.098  1.00  0.00     0.006 A 
ATOM     14  C   UNL A   1      31.738  22.666  24.210  1.00  0.00    -0.036 A 
ATOM     15  C   UNL A   1      32.637  21.498  23.958  1.00  0.00     0.045 C 
BRANCH  10  16
ATOM     16  N   UNL A   1      29.109  25.843  24.678  1.00  0.00    -0.325 N 
ATOM     17  C   UNL A   1      28.920  26.931  23.850  1.00  0.00     0.234 C 
ATOM     18  O   UNL A   1      27.778  27.392  23.752  1.00  0.00    -0.274 OA
ATOM     19  H   UNL A   1      28.520  25.721  25.456  1.00  0.00     0.169 HD
BRANCH  17  20
ATOM     20  C   UNL A   1      30.069  27.502  23.016  1.00  0.00     0.170 C 
BRANCH  20  21
ATOM     21  S   UNL A   1      30.864  29.053  23.565  1.00  0.00    -0.147 SA
BRANCH  21  22
ATOM     22  C   UNL A   1      32.587  28.858  22.982  1.00  0.00     0.105 C 
BRANCH  22  23
ATOM     23  C   UNL A   1      33.112  27.471  23.206  1.00  0.00    -0.035 A 
ATOM     24  C   UNL A   1      33.526  27.743  25.749  1.00  0.00     0.044 C 
ATOM     25  C   UNL A   1      33.620  27.009  24.436  1.00  0.00    -0.047 A 
ATOM     26  C   UNL A   1      34.265  25.763  24.462  1.00  0.00     0.004 A 
ATOM     27  C   UNL A   1      34.341  24.963  23.322  1.00  0.00     0.000 A 
ATOM     28  C   UNL A   1      33.138  26.622  22.082  1.00  0.00     0.005 A 
ATOM     29  C   UNL A   1      33.749  25.379  22.137  1.00  0.00     0.000 A 
ENDBRANCH  22  23
ENDBRANCH  21  22
ENDBRANCH  20  21
ENDBRANCH  17  20
ENDBRANCH  10  16
ENDBRANCH   7   9
ENDBRANCH   6   7
ENDBRANCH   5   6
ENDBRANCH   4   5
ENDBRANCH   3   4
ENDBRANCH   2   3
ENDBRANCH   1   2
BRANCH   1  30
ATOM     30  O   UNL A   1      39.183  20.836  25.523  1.00  0.00    -0.377 OA
BRANCH  30  31
ATOM     31  C   UNL A   1      40.267  20.277  26.230  1.00  0.00     0.188 C 
BRANCH  31  32
ATOM     32  C   UNL A   1      40.747  21.172  27.377  1.00  0.00     0.188 C 
BRANCH  32  33
ATOM     33  O   UNL A   1      41.821  22.036  27.076  1.00  0.00    -0.376 OA
BRANCH  33  34
ATOM     34  C   UNL A   1      42.538  21.695  25.890  1.00  0.00     0.202 C 
BRANCH  34  35
ATOM     35  C   UNL A   1      42.897  22.797  24.805  1.00  0.00     0.261 C 
BRANCH  35  36
ATOM     36  O   UNL A   1      44.268  22.641  24.214  1.00  0.00    -0.460 OA
BRANCH  36  37
ATOM     37  C   UNL A   1      45.476  23.254  24.508  1.00  0.00     0.338 C 
ATOM     38  O   UNL A   1      46.339  23.393  23.646  1.00  0.00    -0.246 OA
BRANCH  37  39
ATOM     39  C   UNL A   1      45.631  24.071  25.783  1.00  0.00     0.060 A 
ATOM     40  C   UNL A   1      46.215  25.340  25.752  1.00  0.00     0.016 A 
ATOM     41  C   UNL A   1      45.165  23.677  27.031  1.00  0.00     0.016 A 
ATOM     42  C   UNL A   1      46.727  25.937  26.921  1.00  0.00     0.010 A 
ATOM     43  C   UNL A   1      45.769  24.180  28.188  1.00  0.00     0.010 A 
ATOM     44  C   UNL A   1      46.684  25.233  28.113  1.00  0.00    -0.014 A 
BRANCH  44  45
ATOM     45  C   UNL A   1      47.680  25.373  29.195  1.00  0.00     0.031 A 
ATOM     46  C   UNL A   1      49.158  25.397  28.876  1.00  0.00     0.074 A 
ATOM     47  C   UNL A   1      47.251  25.914  30.372  1.00  0.00     0.049 A 
ATOM     48  N   UNL A   1      50.082  25.826  29.670  1.00  0.00    -0.248 NA
ATOM     49  C   UNL A   1      49.719  24.986  27.594  1.00  0.00     0.031 C 
ATOM     50  C   UNL A   1      48.112  26.663  31.264  1.00  0.00     0.029 A 
ATOM     51  N   UNL A   1      46.014  26.044  31.022  1.00  0.00    -0.354 N 
ATOM     52  C   UNL A   1      51.248  26.038  28.973  1.00  0.00     0.074 A 
ATOM     53  C   UNL A   1      50.985  25.420  27.695  1.00  0.00     0.031 C 
ATOM     54  C   UNL A   1      47.439  27.174  32.289  1.00  0.00     0.029 A 
ATOM     55  C   UNL A   1      46.244  26.402  32.363  1.00  0.00     0.049 A 
ATOM     56  H   UNL A   1      45.132  25.908  30.608  1.00  0.00     0.167 HD
ATOM     57  C   UNL A   1      52.237  26.796  29.547  1.00  0.00     0.034 A 
ATOM     58  C   UNL A   1      46.029  25.638  33.480  1.00  0.00     0.034 A 
ATOM     59  C   UNL A   1      51.979  27.055  31.009  1.00  0.00     0.049 A 
ATOM     60  C   UNL A   1      47.348  25.241  34.193  1.00  0.00     0.074 A 
ATOM     61  C   UNL A   1      52.007  28.165  31.843  1.00  0.00     0.029 A 
ATOM     62  N   UNL A   1      51.500  26.019  31.833  1.00  0.00    -0.354 N 
ATOM     63  N   UNL A   1      48.528  25.593  33.737  1.00  0.00    -0.248 NA
ATOM     64  C   UNL A   1      47.507  24.480  35.424  1.00  0.00     0.031 C 
ATOM     65  C   UNL A   1      51.444  27.811  33.113  1.00  0.00     0.029 A 
ATOM     66  C   UNL A   1      51.155  26.456  33.110  1.00  0.00     0.049 A 
ATOM     67  H   UNL A   1      51.417  25.084  31.538  1.00  0.00     0.167 HD
ATOM     68  C   UNL A   1      49.563  25.179  34.508  1.00  0.00     0.074 A 
ATOM     69  C   UNL A   1      48.856  24.433  35.549  1.00  0.00     0.031 C 
ATOM     70  C   UNL A   1      50.871  25.492  34.194  1.00  0.00     0.034 A 
BRANCH  57  71
ATOM     71  C   UNL A   1      53.430  27.442  28.786  1.00  0.00     0.023 A 
ATOM     72  C   UNL A   1      53.321  28.808  28.427  1.00  0.00     0.012 A 
ATOM     73  C   UNL A   1      54.623  26.810  28.332  1.00  0.00     0.148 A 
ATOM     74  C   UNL A   1      54.291  29.492  27.672  1.00  0.00     0.002 A 
ATOM     75  C   UNL A   1      55.630  27.511  27.640  1.00  0.00     0.091 A 
ATOM     76  F   UNL A   1      54.790  25.498  28.498  1.00  0.00    -0.205 F 
ATOM     77  C   UNL A   1      55.455  28.849  27.291  1.00  0.00     0.022 A 
BRANCH  75  78
ATOM     78  S   UNL A   1      57.211  26.771  27.162  1.00  0.00     0.127 S 
ATOM     79  O   UNL A   1      56.817  25.863  26.084  1.00  0.00    -0.237 OA
ATOM     80  O   UNL A   1      57.979  27.935  26.720  1.00  0.00    -0.237 OA
ATOM     81  O   UNL A   1      57.734  26.112  28.352  1.00  0.00    -0.744 OA
ENDBRANCH  75  78
ENDBRANCH  57  71
BRANCH  58  82
ATOM     82  C   UNL A   1      44.645  25.091  33.505  1.00  0.00     0.023 A 
ATOM     83  C   UNL A   1      44.599  23.669  33.500  1.00  0.00     0.012 A 
ATOM     84  C   UNL A   1      43.671  25.790  34.227  1.00  0.00     0.148 A 
ATOM     85  C   UNL A   1      43.822  22.981  34.437  1.00  0.00     0.002 A 
ATOM     86  C   UNL A   1      42.899  25.098  35.161  1.00  0.00     0.091 A 
ATOM     87  F   UNL A   1      43.615  27.121  34.099  1.00  0.00    -0.205 F 
ATOM     88  C   UNL A   1      43.024  23.705  35.314  1.00  0.00     0.022 A 
BRANCH  86  89
ATOM     89  S   UNL A   1      41.918  25.992  36.372  1.00  0.00     0.127 S 
ATOM     90  O   UNL A   1      42.941  26.685  37.143  1.00  0.00    -0.237 OA
ATOM     91  O   UNL A   1      41.099  26.856  35.525  1.00  0.00    -0.237 OA
ATOM     92  O   UNL A   1      41.170  24.956  37.068  1.00  0.00    -0.744 OA
ENDBRANCH  86  89
ENDBRANCH  58  82
BRANCH  70  93
ATOM     93  C   UNL A   1      52.095  24.892  34.870  1.00  0.00     0.023 A 
ATOM     94  C   UNL A   1      52.839  25.587  35.829  1.00  0.00     0.012 A 
ATOM     95  C   UNL A   1      52.525  23.565  34.578  1.00  0.00     0.148 A 
ATOM     96  C   UNL A   1      53.792  24.940  36.620  1.00  0.00     0.002 A 
ATOM     97  C   UNL A   1      53.486  22.927  35.345  1.00  0.00     0.091 A 
ATOM     98  F   UNL A   1      52.025  22.900  33.535  1.00  0.00    -0.205 F 
ATOM     99  C   UNL A   1      54.084  23.599  36.408  1.00  0.00     0.022 A 
BRANCH  97 100
ATOM    100  S   UNL A   1      54.004  21.235  35.029  1.00  0.00     0.127 S 
ATOM    101  O   UNL A   1      52.904  20.479  35.627  1.00  0.00    -0.237 OA
ATOM    102  O   UNL A   1      54.044  21.210  33.568  1.00  0.00    -0.237 OA
ATOM    103  O   UNL A   1      55.292  21.061  35.685  1.00  0.00    -0.744 OA
ENDBRANCH  97 100
ENDBRANCH  70  93
ENDBRANCH  44  45
ENDBRANCH  37  39
ENDBRANCH  36  37
ENDBRANCH  35  36
ENDBRANCH  34  35
ENDBRANCH  33  34
ENDBRANCH  32  33
ENDBRANCH  31  32
ENDBRANCH  30  31
ENDBRANCH   1  30
TORSDOF 28
ENDMDL
MODEL 3
REMARK VINA RESULT:      -8.6      3.317      5.448
REMARK SMILES Cc1ccccc1CSCC(=O)Nc1ccc(C)c(C(=O)OCCOCCOCCOCCOC(=O)c2ccc(-c3c4nc(c(-c5cccc(S(=O)(=O)[O-])c5F)c5ccc([nH]5)c(-c5cccc(S(=O)(=O)[O-])c5F)c5nc(c(-c6cccc(S(=O)(=O)[O-])c6F)c6ccc3[nH]6)C=C5)C=C4)cc2)c1
REMARK SMILES IDX 27 1 26 2 25 3 24 4 23 5 22 6 20 7 21 8 19 9 14 10 15 11
REMARK SMILES IDX 100 12 16 13 17 14 18 15 13 16 11 17 12 18 10 20 9 21 8 22
REMARK SMILES IDX 7 23 1 24 2 25 3 26 4 27 6 28 5 29 28 30 29 31 30 32 31 33
REMARK SMILES IDX 32 34 33 35 34 36 35 37 36 38 37 39 38 40 99 41 39 42 98 43
REMARK SMILES IDX 40 44 41 45 42 46 92 47 43 48 97 49 91 50 93 51 44 52 96 53
REMARK SMILES IDX 90 54 89 55 45 57 77 58 57 59 76 60 58 61 61 62 75 63 94 64
REMARK SMILES IDX 59 65 60 66 74 68 95 69 62 70 46 71 47 72 55 73 48 74 50 75
REMARK SMILES IDX 56 76 49 77 51 78 52 79 53 80 54 81 78 82 79 83 87 84 80 85
REMARK SMILES IDX 82 86 88 87 81 88 83 89 84 90 85 91 86 92 63 93 64 94 72 95
REMARK SMILES IDX 65 96 67 97 73 98 66 99 68 100 69 101 70 102 71 103
REMARK H PARENT 13 19 93 56 61 67
REMARK Flexibility Score: inf
ROOT
ATOM      1  C   UNL A   1      40.052  29.691  33.864  1.00  0.00     0.188 C 
ENDROOT
BRANCH   1   2
ATOM      2  C   UNL A   1      39.886  29.047  32.489  1.00  0.00     0.188 C 
BRANCH   2   3
ATOM      3  O   UNL A   1      39.004  27.935  32.382  1.00  0.00    -0.376 OA
BRANCH   3   4
ATOM      4  C   UNL A   1      38.767  27.430  31.066  1.00  0.00     0.202 C 
BRANCH   4   5
ATOM      5  C   UNL A   1      39.149  28.395  29.981  1.00  0.00     0.261 C 
BRANCH   5   6
ATOM      6  O   UNL A   1      37.902  28.827  29.431  1.00  0.00    -0.460 OA
BRANCH   6   7
ATOM      7  C   UNL A   1      37.958  29.737  28.484  1.00  0.00     0.338 C 
ATOM      8  O   UNL A   1      38.490  29.646  27.358  1.00  0.00    -0.246 OA
BRANCH   7   9
ATOM      9  C   UNL A   1      36.846  30.643  28.769  1.00  0.00     0.065 A 
ATOM     10  C   UNL A   1      34.666  31.194  27.952  1.00  0.00     0.042 A 
ATOM     11  C   UNL A   1      34.434  32.022  29.043  1.00  0.00     0.026 A 
ATOM     12  C   UNL A   1      35.830  30.472  27.840  1.00  0.00     0.042 A 
ATOM     13  C   UNL A   1      35.445  32.205  29.979  1.00  0.00     0.006 A 
ATOM     14  C   UNL A   1      36.651  31.496  29.879  1.00  0.00    -0.036 A 
ATOM     15  C   UNL A   1      37.614  31.677  31.009  1.00  0.00     0.045 C 
BRANCH  10  16
ATOM     16  N   UNL A   1      33.857  31.229  26.821  1.00  0.00    -0.325 N 
ATOM     17  C   UNL A   1      32.881  30.276  26.609  1.00  0.00     0.234 C 
ATOM     18  O   UNL A   1      31.883  30.604  25.960  1.00  0.00    -0.274 OA
ATOM     19  H   UNL A   1      33.983  31.946  26.160  1.00  0.00     0.169 HD
BRANCH  17  20
ATOM     20  C   UNL A   1      32.990  28.879  27.226  1.00  0.00     0.170 C 
BRANCH  20  21
ATOM     21  S   UNL A   1      33.859  27.573  26.290  1.00  0.00    -0.147 SA
BRANCH  21  22
ATOM     22  C   UNL A   1      32.492  26.497  25.725  1.00  0.00     0.105 C 
BRANCH  22  23
ATOM     23  C   UNL A   1      32.431  26.388  24.230  1.00  0.00    -0.035 A 
ATOM     24  C   UNL A   1      30.522  28.109  23.908  1.00  0.00     0.044 C 
ATOM     25  C   UNL A   1      31.477  27.048  23.429  1.00  0.00    -0.047 A 
ATOM     26  C   UNL A   1      31.400  26.704  22.071  1.00  0.00     0.004 A 
ATOM     27  C   UNL A   1      32.288  25.791  21.503  1.00  0.00     0.000 A 
ATOM     28  C   UNL A   1      33.362  25.519  23.627  1.00  0.00     0.005 A 
ATOM     29  C   UNL A   1      33.291  25.220  22.275  1.00  0.00     0.000 A 
ENDBRANCH  22  23
ENDBRANCH  21  22
ENDBRANCH  20  21
ENDBRANCH  17  20
ENDBRANCH  10  16
ENDBRANCH   7   9
ENDBRANCH   6   7
ENDBRANCH   5   6
ENDBRANCH   4   5
ENDBRANCH   3   4
ENDBRANCH   2   3
ENDBRANCH   1   2
BRANCH   1  30
ATOM     30  O   UNL A   1      38.954  29.747  34.740  1.00  0.00    -0.377 OA
BRANCH  30  31
ATOM     31  C   UNL A   1      38.335  30.985  35.001  1.00  0.00     0.188 C 
BRANCH  31  32
ATOM     32  C   UNL A   1      38.119  31.233  36.497  1.00  0.00     0.188 C 
BRANCH  32  33
ATOM     33  O   UNL A   1      39.225  31.752  37.202  1.00  0.00    -0.376 OA
BRANCH  33  34
ATOM     34  C   UNL A   1      39.157  33.156  37.453  1.00  0.00     0.202 C 
BRANCH  34  35
ATOM     35  C   UNL A   1      37.940  34.026  36.921  1.00  0.00     0.261 C 
BRANCH  35  36
ATOM     36  O   UNL A   1      38.232  34.759  35.645  1.00  0.00    -0.460 OA
BRANCH  36  37
ATOM     37  C   UNL A   1      39.413  35.245  35.107  1.00  0.00     0.338 C 
ATOM     38  O   UNL A   1      39.892  36.307  35.495  1.00  0.00    -0.246 OA
BRANCH  37  39
ATOM     39  C   UNL A   1      40.319  34.331  34.294  1.00  0.00     0.060 A 
ATOM     40  C   UNL A   1      41.662  34.162  34.642  1.00  0.00     0.016 A 
ATOM     41  C   UNL A   1      39.896  33.562  33.217  1.00  0.00     0.016 A 
ATOM     42  C   UNL A   1      42.598  33.664  33.715  1.00  0.00     0.010 A 
ATOM     43  C   UNL A   1      40.815  33.182  32.233  1.00  0.00     0.010 A 
ATOM     44  C   UNL A   1      42.185  33.377  32.425  1.00  0.00    -0.014 A 
BRANCH  44  45
ATOM     45  C   UNL A   1      43.049  33.491  31.232  1.00  0.00     0.031 A 
ATOM     46  C   UNL A   1      43.511  32.252  30.499  1.00  0.00     0.074 A 
ATOM     47  C   UNL A   1      43.044  34.685  30.571  1.00  0.00     0.049 A 
ATOM     48  N   UNL A   1      43.983  32.232  29.298  1.00  0.00    -0.248 NA
ATOM     49  C   UNL A   1      43.423  30.904  31.049  1.00  0.00     0.031 C 
ATOM     50  C   UNL A   1      43.298  34.808  29.150  1.00  0.00     0.029 A 
ATOM     51  N   UNL A   1      42.737  36.012  30.903  1.00  0.00    -0.354 N 
ATOM     52  C   UNL A   1      43.979  30.949  28.805  1.00  0.00     0.074 A 
ATOM     53  C   UNL A   1      43.694  30.149  29.972  1.00  0.00     0.031 C 
ATOM     54  C   UNL A   1      43.134  36.055  28.724  1.00  0.00     0.029 A 
ATOM     55  C   UNL A   1      43.236  36.858  29.896  1.00  0.00     0.049 A 
ATOM     56  H   UNL A   1      42.252  36.304  31.709  1.00  0.00     0.167 HD
ATOM     57  C   UNL A   1      44.122  30.755  27.454  1.00  0.00     0.034 A 
ATOM     58  C   UNL A   1      44.273  37.747  29.990  1.00  0.00     0.034 A 
ATOM     59  C   UNL A   1      44.545  32.013  26.740  1.00  0.00     0.049 A 
ATOM     60  C   UNL A   1      45.497  37.327  29.134  1.00  0.00     0.074 A 
ATOM     61  C   UNL A   1      44.138  32.695  25.601  1.00  0.00     0.029 A 
ATOM     62  N   UNL A   1      45.528  32.847  27.307  1.00  0.00    -0.354 N 
ATOM     63  N   UNL A   1      45.514  36.221  28.426  1.00  0.00    -0.248 NA
ATOM     64  C   UNL A   1      46.751  38.043  28.951  1.00  0.00     0.031 C 
ATOM     65  C   UNL A   1      44.795  33.969  25.559  1.00  0.00     0.029 A 
ATOM     66  C   UNL A   1      45.688  34.046  26.616  1.00  0.00     0.049 A 
ATOM     67  H   UNL A   1      46.048  32.607  28.108  1.00  0.00     0.167 HD
ATOM     68  C   UNL A   1      46.656  36.035  27.722  1.00  0.00     0.074 A 
ATOM     69  C   UNL A   1      47.432  37.207  28.128  1.00  0.00     0.031 C 
ATOM     70  C   UNL A   1      46.830  34.940  26.897  1.00  0.00     0.034 A 
BRANCH  57  71
ATOM     71  C   UNL A   1      43.773  29.444  26.694  1.00  0.00     0.023 A 
ATOM     72  C   UNL A   1      42.442  29.284  26.233  1.00  0.00     0.012 A 
ATOM     73  C   UNL A   1      44.617  28.324  26.446  1.00  0.00     0.148 A 
ATOM     74  C   UNL A   1      41.974  28.118  25.601  1.00  0.00     0.002 A 
ATOM     75  C   UNL A   1      44.172  27.186  25.747  1.00  0.00     0.091 A 
ATOM     76  F   UNL A   1      45.856  28.299  26.936  1.00  0.00    -0.205 F 
ATOM     77  C   UNL A   1      42.842  27.073  25.342  1.00  0.00     0.022 A 
BRANCH  75  78
ATOM     78  S   UNL A   1      45.251  25.802  25.305  1.00  0.00     0.127 S 
ATOM     79  O   UNL A   1      45.687  25.315  26.614  1.00  0.00    -0.237 OA
ATOM     80  O   UNL A   1      44.334  24.903  24.602  1.00  0.00    -0.237 OA
ATOM     81  O   UNL A   1      46.314  26.356  24.477  1.00  0.00    -0.744 OA
ENDBRANCH  75  78
ENDBRANCH  57  71
BRANCH  58  82
ATOM     82  C   UNL A   1      44.099  38.664  31.149  1.00  0.00     0.023 A 
ATOM     83  C   UNL A   1      45.073  38.475  32.170  1.00  0.00     0.012 A 
ATOM     84  C   UNL A   1      43.631  39.960  30.903  1.00  0.00     0.148 A 
ATOM     85  C   UNL A   1      45.780  39.564  32.686  1.00  0.00     0.002 A 
ATOM     86  C   UNL A   1      44.341  41.042  31.422  1.00  0.00     0.091 A 
ATOM     87  F   UNL A   1      42.602  40.116  30.061  1.00  0.00    -0.205 F 
ATOM     88  C   UNL A   1      45.456  40.846  32.256  1.00  0.00     0.022 A 
BRANCH  86  89
ATOM     89  S   UNL A   1      44.017  42.708  30.831  1.00  0.00     0.127 S 
ATOM     90  O   UNL A   1      42.624  42.902  31.209  1.00  0.00    -0.237 OA
ATOM     91  O   UNL A   1      44.977  43.498  31.599  1.00  0.00    -0.237 OA
ATOM     92  O   UNL A   1      44.301  42.648  29.405  1.00  0.00    -0.744 OA
ENDBRANCH  86  89
ENDBRANCH  58  82
BRANCH  70  93
ATOM     93  C   UNL A   1      48.146  34.541  26.247  1.00  0.00     0.023 A 
ATOM     94  C   UNL A   1      48.732  35.285  25.218  1.00  0.00     0.012 A 
ATOM     95  C   UNL A   1      48.868  33.392  26.686  1.00  0.00     0.148 A 
ATOM     96  C   UNL A   1      50.049  35.056  24.813  1.00  0.00     0.002 A 
ATOM     97  C   UNL A   1      50.166  33.148  26.268  1.00  0.00     0.091 A 
ATOM     98  F   UNL A   1      48.302  32.500  27.500  1.00  0.00    -0.205 F 
ATOM     99  C   UNL A   1      50.781  34.015  25.369  1.00  0.00     0.022 A 
BRANCH  97 100
ATOM    100  S   UNL A   1      51.115  31.736  26.850  1.00  0.00     0.127 S 
ATOM    101  O   UNL A   1      50.979  31.873  28.300  1.00  0.00    -0.237 OA
ATOM    102  O   UNL A   1      50.370  30.622  26.265  1.00  0.00    -0.237 OA
ATOM    103  O   UNL A   1      52.471  31.904  26.345  1.00  0.00    -0.744 OA
ENDBRANCH  97 100
ENDBRANCH  70  93
ENDBRANCH  44  45
ENDBRANCH  37  39
ENDBRANCH  36  37
ENDBRANCH  35  36
ENDBRANCH  34  35
ENDBRANCH  33  34
ENDBRANCH  32  33
ENDBRANCH  31  32
ENDBRANCH  30  31
ENDBRANCH   1  30
TORSDOF 28
ENDMDL
