MODEL 1
REMARK VINA RESULT:      -8.6      0.000      0.000
REMARK SMILES CC(C)[C@H](C)CNC(=O)N[C@H]1C=C[C@@H](C(=O)OCCOCCOCCOCCOC(=O)c2ccc(-c3c4nc(c(-c5cccc(S(=O)(=O)[O-])c5F)c5ccc([nH]5)c(-c5cccc(S(=O)(=O)[O-])c5F)c5nc(c(-c6cccc(S(=O)(=O)[O-])c6F)c6ccc3[nH]6)C=C5)C=C4)cc2)C1
REMARK SMILES IDX 22 1 21 2 20 3 19 4 18 5 17 6 15 7 16 8 14 9 11 10 12 11
REMARK SMILES IDX 95 12 13 13 10 14 7 15 8 16 9 18 6 20 4 21 5 22 2 23 1 24
REMARK SMILES IDX 3 25 23 26 24 27 25 28 26 29 27 30 28 31 29 32 30 33 31 34
REMARK SMILES IDX 32 35 33 36 94 37 34 38 93 39 35 40 36 41 37 42 87 43 38 44
REMARK SMILES IDX 92 45 86 46 88 47 39 48 91 49 85 50 84 51 40 53 72 54 52 55
REMARK SMILES IDX 71 56 53 57 56 58 70 59 89 60 54 61 55 62 69 64 90 65 57 66
REMARK SMILES IDX 41 67 42 68 50 69 43 70 45 71 51 72 44 73 46 74 47 75 48 76
REMARK SMILES IDX 49 77 73 78 74 79 82 80 75 81 77 82 83 83 76 84 78 85 79 86
REMARK SMILES IDX 80 87 81 88 58 89 59 90 67 91 60 92 62 93 68 94 61 95 63 96
REMARK SMILES IDX 64 97 65 98 66 99
REMARK H PARENT 7 17 10 19 88 52 56 63
REMARK Flexibility Score: inf
ROOT
ATOM      1  C   UNL A   1      37.407  23.169  25.579  1.00  0.00     0.188 C 
ENDROOT
BRANCH   1   2
ATOM      2  C   UNL A   1      36.235  24.141  25.764  1.00  0.00     0.188 C 
BRANCH   2   3
ATOM      3  O   UNL A   1      35.130  24.137  24.873  1.00  0.00    -0.376 OA
BRANCH   3   4
ATOM      4  C   UNL A   1      34.351  25.313  24.672  1.00  0.00     0.202 C 
BRANCH   4   5
ATOM      5  C   UNL A   1      33.129  25.331  23.739  1.00  0.00     0.261 C 
BRANCH   5   6
ATOM      6  O   UNL A   1      32.861  24.090  23.074  1.00  0.00    -0.463 OA
BRANCH   6   7
ATOM      7  C   UNL A   1      31.801  23.379  23.514  1.00  0.00     0.312 C 
ATOM      8  O   UNL A   1      30.629  23.730  23.398  1.00  0.00    -0.252 OA
BRANCH   7   9
ATOM      9  C   UNL A   1      32.183  22.016  24.081  1.00  0.00     0.124 C 
ATOM     10  C   UNL A   1      33.897  20.577  24.990  1.00  0.00     0.107 C 
ATOM     11  C   UNL A   1      33.201  21.312  26.079  1.00  0.00    -0.006 C 
ATOM     12  C   UNL A   1      33.565  21.423  23.770  1.00  0.00     0.048 C 
ATOM     13  C   UNL A   1      32.227  22.085  25.583  1.00  0.00    -0.014 C 
BRANCH  10  14
ATOM     14  N   UNL A   1      35.293  20.436  25.246  1.00  0.00    -0.332 N 
ATOM     15  N   UNL A   1      35.785  18.258  24.460  1.00  0.00    -0.338 N 
ATOM     16  C   UNL A   1      36.148  19.442  24.973  1.00  0.00     0.315 C 
ATOM     17  H   UNL A   1      36.558  17.666  24.318  1.00  0.00     0.165 HD
ATOM     18  O   UNL A   1      37.346  19.616  25.201  1.00  0.00    -0.249 OA
ATOM     19  H   UNL A   1      35.701  21.207  25.703  1.00  0.00     0.165 HD
BRANCH  15  20
ATOM     20  C   UNL A   1      34.531  17.628  24.060  1.00  0.00     0.121 C 
BRANCH  20  21
ATOM     21  C   UNL A   1      34.379  16.235  24.710  1.00  0.00     0.008 C 
ATOM     22  C   UNL A   1      35.712  15.841  25.370  1.00  0.00     0.010 C 
BRANCH  21  23
ATOM     23  C   UNL A   1      33.217  16.106  25.739  1.00  0.00    -0.013 C 
ATOM     24  C   UNL A   1      32.245  17.286  25.734  1.00  0.00     0.008 C 
ATOM     25  C   UNL A   1      32.433  14.799  25.578  1.00  0.00     0.008 C 
ENDBRANCH  21  23
ENDBRANCH  20  21
ENDBRANCH  15  20
ENDBRANCH  10  14
ENDBRANCH   7   9
ENDBRANCH   6   7
ENDBRANCH   5   6
ENDBRANCH   4   5
ENDBRANCH   3   4
ENDBRANCH   2   3
ENDBRANCH   1   2
BRANCH   1  26
ATOM     26  O   UNL A   1      38.616  23.567  26.184  1.00  0.00    -0.377 OA
BRANCH  26  27
ATOM     27  C   UNL A   1      39.486  22.540  26.648  1.00  0.00     0.188 C 
BRANCH  27  28
ATOM     28  C   UNL A   1      40.915  22.928  27.088  1.00  0.00     0.188 C 
BRANCH  28  29
ATOM     29  O   UNL A   1      41.773  21.825  27.355  1.00  0.00    -0.376 OA
BRANCH  29  30
ATOM     30  C   UNL A   1      42.647  21.377  26.328  1.00  0.00     0.202 C 
BRANCH  30  31
ATOM     31  C   UNL A   1      43.005  22.358  25.196  1.00  0.00     0.261 C 
BRANCH  31  32
ATOM     32  O   UNL A   1      44.325  22.247  24.643  1.00  0.00    -0.460 OA
BRANCH  32  33
ATOM     33  C   UNL A   1      45.373  22.318  25.487  1.00  0.00     0.338 C 
ATOM     34  O   UNL A   1      46.180  21.431  25.728  1.00  0.00    -0.246 OA
BRANCH  33  35
ATOM     35  C   UNL A   1      45.523  23.723  25.919  1.00  0.00     0.060 A 
ATOM     36  C   UNL A   1      45.698  23.988  27.283  1.00  0.00     0.016 A 
ATOM     37  C   UNL A   1      45.479  24.770  24.995  1.00  0.00     0.016 A 
ATOM     38  C   UNL A   1      45.777  25.304  27.734  1.00  0.00     0.010 A 
ATOM     39  C   UNL A   1      45.535  26.090  25.452  1.00  0.00     0.010 A 
ATOM     40  C   UNL A   1      45.638  26.362  26.828  1.00  0.00    -0.014 A 
BRANCH  40  41
ATOM     41  C   UNL A   1      45.383  27.727  27.350  1.00  0.00     0.031 A 
ATOM     42  C   UNL A   1      46.532  28.697  27.404  1.00  0.00     0.074 A 
ATOM     43  C   UNL A   1      44.156  28.113  27.738  1.00  0.00     0.049 A 
ATOM     44  N   UNL A   1      46.553  29.939  27.813  1.00  0.00    -0.248 NA
ATOM     45  C   UNL A   1      47.835  28.198  26.933  1.00  0.00     0.031 C 
ATOM     46  C   UNL A   1      42.961  27.273  27.726  1.00  0.00     0.029 A 
ATOM     47  N   UNL A   1      43.719  29.315  28.239  1.00  0.00    -0.354 N 
ATOM     48  C   UNL A   1      47.871  30.360  27.676  1.00  0.00     0.074 A 
ATOM     49  C   UNL A   1      48.623  29.237  27.163  1.00  0.00     0.031 C 
ATOM     50  C   UNL A   1      41.930  27.974  28.230  1.00  0.00     0.029 A 
ATOM     51  C   UNL A   1      42.400  29.304  28.620  1.00  0.00     0.049 A 
ATOM     52  H   UNL A   1      44.298  30.108  28.318  1.00  0.00     0.167 HD
ATOM     53  C   UNL A   1      48.406  31.575  27.939  1.00  0.00     0.034 A 
ATOM     54  C   UNL A   1      41.663  30.249  29.239  1.00  0.00     0.034 A 
ATOM     55  C   UNL A   1      47.657  32.692  28.447  1.00  0.00     0.049 A 
ATOM     56  C   UNL A   1      42.287  31.584  29.553  1.00  0.00     0.074 A 
ATOM     57  C   UNL A   1      48.100  33.977  28.708  1.00  0.00     0.029 A 
ATOM     58  N   UNL A   1      46.315  32.654  28.790  1.00  0.00    -0.354 N 
ATOM     59  N   UNL A   1      43.506  32.006  29.313  1.00  0.00    -0.248 NA
ATOM     60  C   UNL A   1      41.422  32.590  30.189  1.00  0.00     0.031 C 
ATOM     61  C   UNL A   1      47.034  34.703  29.249  1.00  0.00     0.029 A 
ATOM     62  C   UNL A   1      45.915  33.887  29.277  1.00  0.00     0.049 A 
ATOM     63  H   UNL A   1      45.732  31.866  28.701  1.00  0.00     0.167 HD
ATOM     64  C   UNL A   1      43.543  33.332  29.733  1.00  0.00     0.074 A 
ATOM     65  C   UNL A   1      42.218  33.650  30.222  1.00  0.00     0.031 C 
ATOM     66  C   UNL A   1      44.582  34.205  29.722  1.00  0.00     0.034 A 
BRANCH  53  67
ATOM     67  C   UNL A   1      49.880  31.755  27.678  1.00  0.00     0.023 A 
ATOM     68  C   UNL A   1      50.826  31.184  28.555  1.00  0.00     0.012 A 
ATOM     69  C   UNL A   1      50.328  32.465  26.547  1.00  0.00     0.148 A 
ATOM     70  C   UNL A   1      52.193  31.352  28.333  1.00  0.00     0.002 A 
ATOM     71  C   UNL A   1      51.691  32.585  26.306  1.00  0.00     0.091 A 
ATOM     72  F   UNL A   1      49.415  33.021  25.738  1.00  0.00    -0.205 F 
ATOM     73  C   UNL A   1      52.624  32.044  27.205  1.00  0.00     0.022 A 
BRANCH  71  74
ATOM     74  S   UNL A   1      52.347  33.386  24.838  1.00  0.00     0.127 S 
ATOM     75  O   UNL A   1      51.747  32.584  23.772  1.00  0.00    -0.237 OA
ATOM     76  O   UNL A   1      51.804  34.739  24.960  1.00  0.00    -0.237 OA
ATOM     77  O   UNL A   1      53.796  33.299  24.945  1.00  0.00    -0.744 OA
ENDBRANCH  71  74
ENDBRANCH  53  67
BRANCH  54  78
ATOM     78  C   UNL A   1      40.243  29.970  29.595  1.00  0.00     0.023 A 
ATOM     79  C   UNL A   1      39.248  30.001  28.599  1.00  0.00     0.012 A 
ATOM     80  C   UNL A   1      39.878  29.664  30.921  1.00  0.00     0.148 A 
ATOM     81  C   UNL A   1      37.911  29.765  28.922  1.00  0.00     0.002 A 
ATOM     82  C   UNL A   1      38.555  29.371  31.225  1.00  0.00     0.091 A 
ATOM     83  F   UNL A   1      40.838  29.654  31.857  1.00  0.00    -0.205 F 
ATOM     84  C   UNL A   1      37.566  29.441  30.231  1.00  0.00     0.022 A 
BRANCH  82  85
ATOM     85  S   UNL A   1      38.038  28.819  32.854  1.00  0.00     0.127 S 
ATOM     86  O   UNL A   1      38.950  29.558  33.723  1.00  0.00    -0.237 OA
ATOM     87  O   UNL A   1      36.646  29.273  32.893  1.00  0.00    -0.237 OA
ATOM     88  O   UNL A   1      38.201  27.373  32.851  1.00  0.00    -0.744 OA
ENDBRANCH  82  85
ENDBRANCH  54  78
BRANCH  66  89
ATOM     89  C   UNL A   1      44.322  35.610  30.207  1.00  0.00     0.023 A 
ATOM     90  C   UNL A   1      44.123  36.655  29.283  1.00  0.00     0.012 A 
ATOM     91  C   UNL A   1      44.214  35.881  31.586  1.00  0.00     0.148 A 
ATOM     92  C   UNL A   1      43.868  37.954  29.723  1.00  0.00     0.002 A 
ATOM     93  C   UNL A   1      43.904  37.165  32.017  1.00  0.00     0.091 A 
ATOM     94  F   UNL A   1      44.421  34.879  32.453  1.00  0.00    -0.205 F 
ATOM     95  C   UNL A   1      43.747  38.207  31.088  1.00  0.00     0.022 A 
BRANCH  93  96
ATOM     96  S   UNL A   1      43.630  37.561  33.747  1.00  0.00     0.127 S 
ATOM     97  O   UNL A   1      43.046  38.899  33.658  1.00  0.00    -0.237 OA
ATOM     98  O   UNL A   1      42.694  36.514  34.161  1.00  0.00    -0.237 OA
ATOM     99  O   UNL A   1      44.935  37.491  34.389  1.00  0.00    -0.744 OA
ENDBRANCH  93  96
ENDBRANCH  66  89
ENDBRANCH  40  41
ENDBRANCH  33  35
ENDBRANCH  32  33
ENDBRANCH  31  32
ENDBRANCH  30  31
ENDBRANCH  29  30
ENDBRANCH  28  29
ENDBRANCH  27  28
ENDBRANCH  26  27
ENDBRANCH   1  26
TORSDOF 27
ENDMDL
MODEL 2
REMARK VINA RESULT:      -8.1      6.090     10.127
REMARK SMILES CC(C)[C@H](C)CNC(=O)N[C@H]1C=C[C@@H](C(=O)OCCOCCOCCOCCOC(=O)c2ccc(-c3c4nc(c(-c5cccc(S(=O)(=O)[O-])c5F)c5ccc([nH]5)c(-c5cccc(S(=O)(=O)[O-])c5F)c5nc(c(-c6cccc(S(=O)(=O)[O-])c6F)c6ccc3[nH]6)C=C5)C=C4)cc2)C1
REMARK SMILES IDX 22 1 21 2 20 3 19 4 18 5 17 6 15 7 16 8 14 9 11 10 12 11
REMARK SMILES IDX 95 12 13 13 10 14 7 15 8 16 9 18 6 20 4 21 5 22 2 23 1 24
REMARK SMILES IDX 3 25 23 26 24 27 25 28 26 29 27 30 28 31 29 32 30 33 31 34
REMARK SMILES IDX 32 35 33 36 94 37 34 38 93 39 35 40 36 41 37 42 87 43 38 44
REMARK SMILES IDX 92 45 86 46 88 47 39 48 91 49 85 50 84 51 40 53 72 54 52 55
REMARK SMILES IDX 71 56 53 57 56 58 70 59 89 60 54 61 55 62 69 64 90 65 57 66
REMARK SMILES IDX 41 67 42 68 50 69 43 70 45 71 51 72 44 73 46 74 47 75 48 76
REMARK SMILES IDX 49 77 73 78 74 79 82 80 75 81 77 82 83 83 76 84 78 85 79 86
REMARK SMILES IDX 80 87 81 88 58 89 59 90 67 91 60 92 62 93 68 94 61 95 63 96
REMARK SMILES IDX 64 97 65 98 66 99
REMARK H PARENT 7 17 10 19 88 52 56 63
REMARK Flexibility Score: inf
ROOT
ATOM      1  C   UNL A   1      41.151  26.755  26.747  1.00  0.00     0.188 C 
ENDROOT
BRANCH   1   2
ATOM      2  C   UNL A   1      40.537  25.489  27.357  1.00  0.00     0.188 C 
BRANCH   2   3
ATOM      3  O   UNL A   1      41.325  24.584  28.117  1.00  0.00    -0.376 OA
BRANCH   3   4
ATOM      4  C   UNL A   1      41.242  23.180  27.893  1.00  0.00     0.202 C 
BRANCH   4   5
ATOM      5  C   UNL A   1      40.656  22.596  26.597  1.00  0.00     0.261 C 
BRANCH   5   6
ATOM      6  O   UNL A   1      39.229  22.668  26.495  1.00  0.00    -0.463 OA
BRANCH   6   7
ATOM      7  C   UNL A   1      38.618  21.698  25.781  1.00  0.00     0.312 C 
ATOM      8  O   UNL A   1      39.019  20.540  25.694  1.00  0.00    -0.252 OA
BRANCH   7   9
ATOM      9  C   UNL A   1      37.294  22.143  25.170  1.00  0.00     0.124 C 
ATOM     10  C   UNL A   1      35.022  22.889  25.511  1.00  0.00     0.107 C 
ATOM     11  C   UNL A   1      35.946  24.052  25.422  1.00  0.00    -0.006 C 
ATOM     12  C   UNL A   1      35.973  21.750  25.846  1.00  0.00     0.048 C 
ATOM     13  C   UNL A   1      37.201  23.644  25.199  1.00  0.00    -0.014 C 
BRANCH  10  14
ATOM     14  N   UNL A   1      33.990  23.097  26.473  1.00  0.00    -0.332 N 
ATOM     15  N   UNL A   1      32.274  24.149  25.228  1.00  0.00    -0.338 N 
ATOM     16  C   UNL A   1      32.756  23.604  26.354  1.00  0.00     0.315 C 
ATOM     17  H   UNL A   1      31.343  24.452  25.335  1.00  0.00     0.165 HD
ATOM     18  O   UNL A   1      32.008  23.571  27.332  1.00  0.00    -0.249 OA
ATOM     19  H   UNL A   1      34.226  22.817  27.387  1.00  0.00     0.165 HD
BRANCH  15  20
ATOM     20  C   UNL A   1      32.782  24.405  23.885  1.00  0.00     0.121 C 
BRANCH  20  21
ATOM     21  C   UNL A   1      31.623  24.633  22.888  1.00  0.00     0.008 C 
ATOM     22  C   UNL A   1      30.292  24.642  23.661  1.00  0.00     0.010 C 
BRANCH  21  23
ATOM     23  C   UNL A   1      31.741  25.917  22.015  1.00  0.00    -0.013 C 
ATOM     24  C   UNL A   1      30.898  27.090  22.515  1.00  0.00     0.008 C 
ATOM     25  C   UNL A   1      33.193  26.373  21.834  1.00  0.00     0.008 C 
ENDBRANCH  21  23
ENDBRANCH  20  21
ENDBRANCH  15  20
ENDBRANCH  10  14
ENDBRANCH   7   9
ENDBRANCH   6   7
ENDBRANCH   5   6
ENDBRANCH   4   5
ENDBRANCH   3   4
ENDBRANCH   2   3
ENDBRANCH   1   2
BRANCH   1  26
ATOM     26  O   UNL A   1      40.278  27.858  26.654  1.00  0.00    -0.377 OA
BRANCH  26  27
ATOM     27  C   UNL A   1      40.375  28.858  27.663  1.00  0.00     0.188 C 
BRANCH  27  28
ATOM     28  C   UNL A   1      39.313  28.878  28.784  1.00  0.00     0.188 C 
BRANCH  28  29
ATOM     29  O   UNL A   1      38.073  29.470  28.415  1.00  0.00    -0.376 OA
BRANCH  29  30
ATOM     30  C   UNL A   1      37.549  30.514  29.225  1.00  0.00     0.202 C 
BRANCH  30  31
ATOM     31  C   UNL A   1      36.440  30.167  30.235  1.00  0.00     0.261 C 
BRANCH  31  32
ATOM     32  O   UNL A   1      36.820  29.347  31.351  1.00  0.00    -0.460 OA
BRANCH  32  33
ATOM     33  C   UNL A   1      37.554  29.911  32.330  1.00  0.00     0.338 C 
ATOM     34  O   UNL A   1      37.134  30.567  33.273  1.00  0.00    -0.246 OA
BRANCH  33  35
ATOM     35  C   UNL A   1      38.943  29.425  32.202  1.00  0.00     0.060 A 
ATOM     36  C   UNL A   1      39.172  28.043  32.220  1.00  0.00     0.016 A 
ATOM     37  C   UNL A   1      40.011  30.318  32.079  1.00  0.00     0.016 A 
ATOM     38  C   UNL A   1      40.474  27.550  32.168  1.00  0.00     0.010 A 
ATOM     39  C   UNL A   1      41.318  29.822  32.050  1.00  0.00     0.010 A 
ATOM     40  C   UNL A   1      41.556  28.439  32.141  1.00  0.00    -0.014 A 
BRANCH  40  41
ATOM     41  C   UNL A   1      42.917  27.923  32.428  1.00  0.00     0.031 A 
ATOM     42  C   UNL A   1      43.792  27.533  31.268  1.00  0.00     0.074 A 
ATOM     43  C   UNL A   1      43.384  27.833  33.686  1.00  0.00     0.049 A 
ATOM     44  N   UNL A   1      45.013  27.065  31.269  1.00  0.00    -0.248 NA
ATOM     45  C   UNL A   1      43.210  27.692  29.925  1.00  0.00     0.031 C 
ATOM     46  C   UNL A   1      42.640  28.187  34.892  1.00  0.00     0.029 A 
ATOM     47  N   UNL A   1      44.597  27.391  34.154  1.00  0.00    -0.354 N 
ATOM     48  C   UNL A   1      45.335  26.847  29.934  1.00  0.00     0.074 A 
ATOM     49  C   UNL A   1      44.176  27.218  29.153  1.00  0.00     0.031 C 
ATOM     50  C   UNL A   1      43.401  27.918  35.967  1.00  0.00     0.029 A 
ATOM     51  C   UNL A   1      44.675  27.351  35.524  1.00  0.00     0.049 A 
ATOM     52  H   UNL A   1      45.340  27.129  33.562  1.00  0.00     0.167 HD
ATOM     53  C   UNL A   1      46.494  26.394  29.403  1.00  0.00     0.034 A 
ATOM     54  C   UNL A   1      45.652  26.885  36.329  1.00  0.00     0.034 A 
ATOM     55  C   UNL A   1      47.648  26.029  30.179  1.00  0.00     0.049 A 
ATOM     56  C   UNL A   1      46.923  26.354  35.716  1.00  0.00     0.074 A 
ATOM     57  C   UNL A   1      48.884  25.596  29.733  1.00  0.00     0.029 A 
ATOM     58  N   UNL A   1      47.702  26.032  31.564  1.00  0.00    -0.354 N 
ATOM     59  N   UNL A   1      47.257  26.260  34.451  1.00  0.00    -0.248 NA
ATOM     60  C   UNL A   1      47.969  25.900  36.645  1.00  0.00     0.031 C 
ATOM     61  C   UNL A   1      49.671  25.299  30.850  1.00  0.00     0.029 A 
ATOM     62  C   UNL A   1      48.944  25.595  31.991  1.00  0.00     0.049 A 
ATOM     63  H   UNL A   1      46.965  26.306  32.157  1.00  0.00     0.167 HD
ATOM     64  C   UNL A   1      48.560  25.773  34.433  1.00  0.00     0.074 A 
ATOM     65  C   UNL A   1      48.962  25.613  35.815  1.00  0.00     0.031 C 
ATOM     66  C   UNL A   1      49.349  25.478  33.369  1.00  0.00     0.034 A 
BRANCH  53  67
ATOM     67  C   UNL A   1      46.569  26.270  27.902  1.00  0.00     0.023 A 
ATOM     68  C   UNL A   1      47.075  27.337  27.132  1.00  0.00     0.012 A 
ATOM     69  C   UNL A   1      46.165  25.084  27.258  1.00  0.00     0.148 A 
ATOM     70  C   UNL A   1      47.138  27.243  25.741  1.00  0.00     0.002 A 
ATOM     71  C   UNL A   1      46.279  24.978  25.877  1.00  0.00     0.091 A 
ATOM     72  F   UNL A   1      45.665  24.089  28.004  1.00  0.00    -0.205 F 
ATOM     73  C   UNL A   1      46.750  26.061  25.116  1.00  0.00     0.022 A 
BRANCH  71  74
ATOM     74  S   UNL A   1      45.883  23.470  24.986  1.00  0.00     0.127 S 
ATOM     75  O   UNL A   1      44.436  23.596  24.821  1.00  0.00    -0.237 OA
ATOM     76  O   UNL A   1      46.654  23.632  23.752  1.00  0.00    -0.237 OA
ATOM     77  O   UNL A   1      46.322  22.373  25.837  1.00  0.00    -0.744 OA
ENDBRANCH  71  74
ENDBRANCH  53  67
BRANCH  54  78
ATOM     78  C   UNL A   1      45.472  26.909  37.808  1.00  0.00     0.023 A 
ATOM     79  C   UNL A   1      44.949  25.782  38.472  1.00  0.00     0.012 A 
ATOM     80  C   UNL A   1      45.826  28.046  38.560  1.00  0.00     0.148 A 
ATOM     81  C   UNL A   1      44.753  25.799  39.854  1.00  0.00     0.002 A 
ATOM     82  C   UNL A   1      45.684  28.034  39.942  1.00  0.00     0.091 A 
ATOM     83  F   UNL A   1      46.307  29.113  37.907  1.00  0.00    -0.205 F 
ATOM     84  C   UNL A   1      45.129  26.920  40.589  1.00  0.00     0.022 A 
BRANCH  82  85
ATOM     85  S   UNL A   1      46.259  29.380  40.982  1.00  0.00     0.127 S 
ATOM     86  O   UNL A   1      47.667  29.470  40.605  1.00  0.00    -0.237 OA
ATOM     87  O   UNL A   1      45.424  30.491  40.518  1.00  0.00    -0.237 OA
ATOM     88  O   UNL A   1      45.997  28.961  42.352  1.00  0.00    -0.744 OA
ENDBRANCH  82  85
ENDBRANCH  54  78
BRANCH  66  89
ATOM     89  C   UNL A   1      50.752  24.998  33.649  1.00  0.00     0.023 A 
ATOM     90  C   UNL A   1      51.760  25.916  34.004  1.00  0.00     0.012 A 
ATOM     91  C   UNL A   1      51.054  23.621  33.620  1.00  0.00     0.148 A 
ATOM     92  C   UNL A   1      53.056  25.478  34.278  1.00  0.00     0.002 A 
ATOM     93  C   UNL A   1      52.332  23.186  33.949  1.00  0.00     0.091 A 
ATOM     94  F   UNL A   1      50.088  22.761  33.266  1.00  0.00    -0.205 F 
ATOM     95  C   UNL A   1      53.339  24.114  34.262  1.00  0.00     0.022 A 
BRANCH  93  96
ATOM     96  S   UNL A   1      52.761  21.445  34.052  1.00  0.00     0.127 S 
ATOM     97  O   UNL A   1      54.194  21.507  34.336  1.00  0.00    -0.237 OA
ATOM     98  O   UNL A   1      51.937  20.989  35.173  1.00  0.00    -0.237 OA
ATOM     99  O   UNL A   1      52.404  20.865  32.765  1.00  0.00    -0.744 OA
ENDBRANCH  93  96
ENDBRANCH  66  89
ENDBRANCH  40  41
ENDBRANCH  33  35
ENDBRANCH  32  33
ENDBRANCH  31  32
ENDBRANCH  30  31
ENDBRANCH  29  30
ENDBRANCH  28  29
ENDBRANCH  27  28
ENDBRANCH  26  27
ENDBRANCH   1  26
TORSDOF 27
ENDMDL
MODEL 3
REMARK VINA RESULT:      -7.6      7.089     12.417
REMARK SMILES CC(C)[C@H](C)CNC(=O)N[C@H]1C=C[C@@H](C(=O)OCCOCCOCCOCCOC(=O)c2ccc(-c3c4nc(c(-c5cccc(S(=O)(=O)[O-])c5F)c5ccc([nH]5)c(-c5cccc(S(=O)(=O)[O-])c5F)c5nc(c(-c6cccc(S(=O)(=O)[O-])c6F)c6ccc3[nH]6)C=C5)C=C4)cc2)C1
REMARK SMILES IDX 22 1 21 2 20 3 19 4 18 5 17 6 15 7 16 8 14 9 11 10 12 11
REMARK SMILES IDX 95 12 13 13 10 14 7 15 8 16 9 18 6 20 4 21 5 22 2 23 1 24
REMARK SMILES IDX 3 25 23 26 24 27 25 28 26 29 27 30 28 31 29 32 30 33 31 34
REMARK SMILES IDX 32 35 33 36 94 37 34 38 93 39 35 40 36 41 37 42 87 43 38 44
REMARK SMILES IDX 92 45 86 46 88 47 39 48 91 49 85 50 84 51 40 53 72 54 52 55
REMARK SMILES IDX 71 56 53 57 56 58 70 59 89 60 54 61 55 62 69 64 90 65 57 66
REMARK SMILES IDX 41 67 42 68 50 69 43 70 45 71 51 72 44 73 46 74 47 75 48 76
REMARK SMILES IDX 49 77 73 78 74 79 82 80 75 81 77 82 83 83 76 84 78 85 79 86
REMARK SMILES IDX 80 87 81 88 58 89 59 90 67 91 60 92 62 93 68 94 61 95 63 96
REMARK SMILES IDX 64 97 65 98 66 99
REMARK H PARENT 7 17 10 19 88 52 56 63
REMARK Flexibility Score: inf
ROOT
ATOM      1  C   UNL A   1      33.093  36.839  32.220  1.00  0.00     0.188 C 
ENDROOT
BRANCH   1   2
ATOM      2  C   UNL A   1      32.690  35.948  31.039  1.00  0.00     0.188 C 
BRANCH   2   3
ATOM      3  O   UNL A   1      32.712  36.441  29.707  1.00  0.00    -0.376 OA
BRANCH   3   4
ATOM      4  C   UNL A   1      33.639  35.927  28.755  1.00  0.00     0.202 C 
BRANCH   4   5
ATOM      5  C   UNL A   1      33.501  34.514  28.165  1.00  0.00     0.261 C 
BRANCH   5   6
ATOM      6  O   UNL A   1      34.737  33.807  28.002  1.00  0.00    -0.463 OA
BRANCH   6   7
ATOM      7  C   UNL A   1      35.034  32.874  28.932  1.00  0.00     0.312 C 
ATOM      8  O   UNL A   1      34.521  32.812  30.046  1.00  0.00    -0.252 OA
BRANCH   7   9
ATOM      9  C   UNL A   1      36.003  31.810  28.429  1.00  0.00     0.124 C 
ATOM     10  C   UNL A   1      37.204  29.758  28.857  1.00  0.00     0.107 C 
ATOM     11  C   UNL A   1      35.888  29.470  28.226  1.00  0.00    -0.006 C 
ATOM     12  C   UNL A   1      36.997  31.163  29.404  1.00  0.00     0.048 C 
ATOM     13  C   UNL A   1      35.233  30.606  27.956  1.00  0.00    -0.014 C 
BRANCH  10  14
ATOM     14  N   UNL A   1      37.549  28.788  29.844  1.00  0.00    -0.332 N 
ATOM     15  N   UNL A   1      39.532  27.814  28.995  1.00  0.00    -0.338 N 
ATOM     16  C   UNL A   1      38.596  27.959  29.944  1.00  0.00     0.315 C 
ATOM     17  H   UNL A   1      40.228  27.170  29.260  1.00  0.00     0.165 HD
ATOM     18  O   UNL A   1      38.720  27.287  30.969  1.00  0.00    -0.249 OA
ATOM     19  H   UNL A   1      36.903  28.714  30.583  1.00  0.00     0.165 HD
BRANCH  15  20
ATOM     20  C   UNL A   1      39.777  28.370  27.669  1.00  0.00     0.121 C 
BRANCH  20  21
ATOM     21  C   UNL A   1      40.988  29.329  27.685  1.00  0.00     0.008 C 
ATOM     22  C   UNL A   1      41.217  29.822  29.125  1.00  0.00     0.010 C 
BRANCH  21  23
ATOM     23  C   UNL A   1      42.309  28.740  27.108  1.00  0.00    -0.013 C 
ATOM     24  C   UNL A   1      42.159  28.110  25.723  1.00  0.00     0.008 C 
ATOM     25  C   UNL A   1      43.447  29.767  27.080  1.00  0.00     0.008 C 
ENDBRANCH  21  23
ENDBRANCH  20  21
ENDBRANCH  15  20
ENDBRANCH  10  14
ENDBRANCH   7   9
ENDBRANCH   6   7
ENDBRANCH   5   6
ENDBRANCH   4   5
ENDBRANCH   3   4
ENDBRANCH   2   3
ENDBRANCH   1   2
BRANCH   1  26
ATOM     26  O   UNL A   1      34.099  36.309  33.054  1.00  0.00    -0.377 OA
BRANCH  26  27
ATOM     27  C   UNL A   1      34.957  35.318  32.498  1.00  0.00     0.188 C 
BRANCH  27  28
ATOM     28  C   UNL A   1      35.446  34.171  33.409  1.00  0.00     0.188 C 
BRANCH  28  29
ATOM     29  O   UNL A   1      36.368  33.279  32.796  1.00  0.00    -0.376 OA
BRANCH  29  30
ATOM     30  C   UNL A   1      36.173  31.880  32.955  1.00  0.00     0.202 C 
BRANCH  30  31
ATOM     31  C   UNL A   1      37.405  30.998  33.224  1.00  0.00     0.261 C 
BRANCH  31  32
ATOM     32  O   UNL A   1      38.687  31.636  33.130  1.00  0.00    -0.460 OA
BRANCH  32  33
ATOM     33  C   UNL A   1      39.279  32.037  34.272  1.00  0.00     0.338 C 
ATOM     34  O   UNL A   1      38.792  32.751  35.137  1.00  0.00    -0.246 OA
BRANCH  33  35
ATOM     35  C   UNL A   1      40.546  31.292  34.420  1.00  0.00     0.060 A 
ATOM     36  C   UNL A   1      41.748  31.953  34.136  1.00  0.00     0.016 A 
ATOM     37  C   UNL A   1      40.554  29.953  34.822  1.00  0.00     0.016 A 
ATOM     38  C   UNL A   1      42.957  31.264  34.201  1.00  0.00     0.010 A 
ATOM     39  C   UNL A   1      41.766  29.258  34.864  1.00  0.00     0.010 A 
ATOM     40  C   UNL A   1      42.966  29.899  34.510  1.00  0.00    -0.014 A 
BRANCH  40  41
ATOM     41  C   UNL A   1      44.195  29.110  34.245  1.00  0.00     0.031 A 
ATOM     42  C   UNL A   1      45.105  28.797  35.401  1.00  0.00     0.074 A 
ATOM     43  C   UNL A   1      44.485  28.652  33.015  1.00  0.00     0.049 A 
ATOM     44  N   UNL A   1      46.225  28.123  35.418  1.00  0.00    -0.248 NA
ATOM     45  C   UNL A   1      44.695  29.314  36.718  1.00  0.00     0.031 C 
ATOM     46  C   UNL A   1      43.681  28.879  31.816  1.00  0.00     0.029 A 
ATOM     47  N   UNL A   1      45.554  27.914  32.571  1.00  0.00    -0.354 N 
ATOM     48  C   UNL A   1      46.669  28.159  36.736  1.00  0.00     0.074 A 
ATOM     49  C   UNL A   1      45.706  28.934  37.485  1.00  0.00     0.031 C 
ATOM     50  C   UNL A   1      44.303  28.320  30.763  1.00  0.00     0.029 A 
ATOM     51  C   UNL A   1      45.558  27.716  31.212  1.00  0.00     0.049 A 
ATOM     52  H   UNL A   1      46.251  27.560  33.171  1.00  0.00     0.167 HD
ATOM     53  C   UNL A   1      47.769  27.587  37.278  1.00  0.00     0.034 A 
ATOM     54  C   UNL A   1      46.483  27.139  30.417  1.00  0.00     0.034 A 
ATOM     55  C   UNL A   1      48.724  26.812  36.533  1.00  0.00     0.049 A 
ATOM     56  C   UNL A   1      47.717  26.536  31.038  1.00  0.00     0.074 A 
ATOM     57  C   UNL A   1      49.851  26.157  36.998  1.00  0.00     0.029 A 
ATOM     58  N   UNL A   1      48.678  26.606  35.163  1.00  0.00    -0.354 N 
ATOM     59  N   UNL A   1      48.066  26.479  32.301  1.00  0.00    -0.248 NA
ATOM     60  C   UNL A   1      48.668  25.883  30.126  1.00  0.00     0.031 C 
ATOM     61  C   UNL A   1      50.508  25.590  35.902  1.00  0.00     0.029 A 
ATOM     62  C   UNL A   1      49.765  25.847  34.762  1.00  0.00     0.049 A 
ATOM     63  H   UNL A   1      47.976  26.948  34.564  1.00  0.00     0.167 HD
ATOM     64  C   UNL A   1      49.253  25.754  32.339  1.00  0.00     0.074 A 
ATOM     65  C   UNL A   1      49.552  25.374  30.974  1.00  0.00     0.031 C 
ATOM     66  C   UNL A   1      50.030  25.439  33.406  1.00  0.00     0.034 A 
BRANCH  53  67
ATOM     67  C   UNL A   1      47.994  27.779  38.756  1.00  0.00     0.023 A 
ATOM     68  C   UNL A   1      47.477  26.843  39.675  1.00  0.00     0.012 A 
ATOM     69  C   UNL A   1      48.745  28.872  39.232  1.00  0.00     0.148 A 
ATOM     70  C   UNL A   1      47.667  27.014  41.047  1.00  0.00     0.002 A 
ATOM     71  C   UNL A   1      48.973  29.008  40.596  1.00  0.00     0.091 A 
ATOM     72  F   UNL A   1      49.209  29.765  38.346  1.00  0.00    -0.205 F 
ATOM     73  C   UNL A   1      48.422  28.090  41.505  1.00  0.00     0.022 A 
BRANCH  71  74
ATOM     74  S   UNL A   1      50.001  30.312  41.280  1.00  0.00     0.127 S 
ATOM     75  O   UNL A   1      51.268  30.082  40.589  1.00  0.00    -0.237 OA
ATOM     76  O   UNL A   1      49.287  31.518  40.856  1.00  0.00    -0.237 OA
ATOM     77  O   UNL A   1      50.025  30.093  42.719  1.00  0.00    -0.744 OA
ENDBRANCH  71  74
ENDBRANCH  53  67
BRANCH  54  78
ATOM     78  C   UNL A   1      46.272  27.093  28.943  1.00  0.00     0.023 A 
ATOM     79  C   UNL A   1      46.807  28.105  28.122  1.00  0.00     0.012 A 
ATOM     80  C   UNL A   1      45.547  26.040  28.350  1.00  0.00     0.148 A 
ATOM     81  C   UNL A   1      46.597  28.087  26.743  1.00  0.00     0.002 A 
ATOM     82  C   UNL A   1      45.392  25.997  26.970  1.00  0.00     0.091 A 
ATOM     83  F   UNL A   1      45.033  25.095  29.150  1.00  0.00    -0.205 F 
ATOM     84  C   UNL A   1      45.899  27.030  26.166  1.00  0.00     0.022 A 
BRANCH  82  85
ATOM     85  S   UNL A   1      44.620  24.611  26.129  1.00  0.00     0.127 S 
ATOM     86  O   UNL A   1      43.247  24.690  26.620  1.00  0.00    -0.237 OA
ATOM     87  O   UNL A   1      44.796  24.982  24.723  1.00  0.00    -0.237 OA
ATOM     88  O   UNL A   1      45.370  23.432  26.539  1.00  0.00    -0.744 OA
ENDBRANCH  82  85
ENDBRANCH  54  78
BRANCH  66  89
ATOM     89  C   UNL A   1      51.257  24.597  33.155  1.00  0.00     0.023 A 
ATOM     90  C   UNL A   1      52.458  25.201  32.730  1.00  0.00     0.012 A 
ATOM     91  C   UNL A   1      51.233  23.209  33.400  1.00  0.00     0.148 A 
ATOM     92  C   UNL A   1      53.601  24.431  32.510  1.00  0.00     0.002 A 
ATOM     93  C   UNL A   1      52.390  22.457  33.233  1.00  0.00     0.091 A 
ATOM     94  F   UNL A   1      50.079  22.648  33.789  1.00  0.00    -0.205 F 
ATOM     95  C   UNL A   1      53.570  23.063  32.772  1.00  0.00     0.022 A 
BRANCH  93  96
ATOM     96  S   UNL A   1      52.470  20.710  33.642  1.00  0.00     0.127 S 
ATOM     97  O   UNL A   1      52.318  20.737  35.096  1.00  0.00    -0.237 OA
ATOM     98  O   UNL A   1      51.318  20.169  32.918  1.00  0.00    -0.237 OA
ATOM     99  O   UNL A   1      53.762  20.242  33.158  1.00  0.00    -0.744 OA
ENDBRANCH  93  96
ENDBRANCH  66  89
ENDBRANCH  40  41
ENDBRANCH  33  35
ENDBRANCH  32  33
ENDBRANCH  31  32
ENDBRANCH  30  31
ENDBRANCH  29  30
ENDBRANCH  28  29
ENDBRANCH  27  28
ENDBRANCH  26  27
ENDBRANCH   1  26
TORSDOF 27
ENDMDL
