MODEL 1
REMARK VINA RESULT:      -7.0      0.000      0.000
REMARK SMILES CC1(C)CC[C@@]2(C(=O)OCCOCCOCCOCCOC(=O)c3ccc(-c4c5nc(c(-c6cccc(S(=O)(=O)[O-])c6F)c6ccc([nH]6)c(-c6cccc(S(=O)(=O)[O-])c6F)c6nc(c(-c7cccc(S(=O)(=O)[O-])c7F)c7ccc4[nH]7)C=C6)C=C5)cc3)CC[C@@]3(C)C(=CC[C@H]4[C@@]5(C)CC[C@H](O)C(C)(C)[C@@H]5CC[C@]43C)[C@@H]2C1
REMARK SMILES IDX 16 1 15 2 14 3 13 4 12 5 11 6 10 7 9 8 7 9 8 10 6 11 1 12
REMARK SMILES IDX 2 13 3 14 4 15 110 16 5 17 109 18 91 19 87 20 89 21 92 22
REMARK SMILES IDX 88 23 90 24 107 25 93 26 94 27 106 28 108 29 95 30 105 31
REMARK SMILES IDX 96 32 97 33 104 34 98 35 101 36 99 37 102 38 103 39 100 40
REMARK SMILES IDX 17 42 18 43 19 44 20 45 21 46 22 47 23 48 24 49 25 50 86 51
REMARK SMILES IDX 26 52 85 53 27 54 28 55 29 56 79 57 30 58 84 59 78 60 80 61
REMARK SMILES IDX 31 62 83 63 77 64 76 65 32 67 64 68 44 69 63 70 45 71 48 72
REMARK SMILES IDX 62 73 81 74 46 75 47 76 61 78 82 79 49 80 33 81 34 82 42 83
REMARK SMILES IDX 35 84 37 85 43 86 36 87 38 88 39 89 40 90 41 91 65 92 66 93
REMARK SMILES IDX 74 94 67 95 69 96 75 97 68 98 70 99 71 100 72 101 73 102
REMARK SMILES IDX 50 103 51 104 59 105 52 106 54 107 60 108 53 109 55 110
REMARK SMILES IDX 56 111 57 112 58 113
REMARK H PARENT 100 41 80 66 48 77
REMARK Flexibility Score: inf
ROOT
ATOM      1  C   UNL A   1      38.845  34.050  33.648  1.00  0.00     0.188 C 
ENDROOT
BRANCH   1   2
ATOM      2  O   UNL A   1      39.898  34.983  33.464  1.00  0.00    -0.377 OA
BRANCH   2   3
ATOM      3  C   UNL A   1      41.272  34.587  33.487  1.00  0.00     0.188 C 
BRANCH   3   4
ATOM      4  C   UNL A   1      42.224  35.310  32.541  1.00  0.00     0.188 C 
BRANCH   4   5
ATOM      5  O   UNL A   1      43.387  35.842  33.182  1.00  0.00    -0.376 OA
BRANCH   5   6
ATOM      6  C   UNL A   1      44.392  36.063  32.227  1.00  0.00     0.202 C 
BRANCH   6   7
ATOM      7  C   UNL A   1      44.684  34.970  31.261  1.00  0.00     0.261 C 
BRANCH   7   8
ATOM      8  O   UNL A   1      44.263  35.264  30.010  1.00  0.00    -0.463 OA
BRANCH   8   9
ATOM      9  C   UNL A   1      45.151  34.691  29.218  1.00  0.00     0.312 C 
ATOM     10  O   UNL A   1      46.200  34.137  29.531  1.00  0.00    -0.252 OA
BRANCH   9  11
ATOM     11  C   UNL A   1      44.756  34.905  27.844  1.00  0.00     0.075 C 
ATOM     12  C   UNL A   1      47.784  37.237  25.975  1.00  0.00     0.011 C 
ATOM     13  C   UNL A   1      47.481  36.165  27.047  1.00  0.00    -0.035 C 
ATOM     14  C   UNL A   1      48.883  35.855  27.671  1.00  0.00     0.011 C 
ATOM     15  C   UNL A   1      46.515  36.851  28.045  1.00  0.00     0.007 C 
ATOM     16  C   UNL A   1      46.950  34.839  26.392  1.00  0.00     0.015 C 
ATOM     17  C   UNL A   1      44.994  36.453  27.870  1.00  0.00     0.020 C 
ATOM     18  C   UNL A   1      45.605  34.123  26.823  1.00  0.00     0.033 C 
ATOM     19  C   UNL A   1      45.750  32.562  27.102  1.00  0.00    -0.063 C 
ATOM     20  C   UNL A   1      43.387  34.160  27.936  1.00  0.00     0.020 C 
ATOM     21  C   UNL A   1      44.769  31.688  27.957  1.00  0.00    -0.006 C 
ATOM     22  C   UNL A   1      46.779  31.917  26.512  1.00  0.00    -0.027 C 
ATOM     23  C   UNL A   1      43.564  32.615  28.549  1.00  0.00     0.013 C 
ATOM     24  C   UNL A   1      43.828  30.946  26.894  1.00  0.00     0.017 C 
ATOM     25  C   UNL A   1      45.845  30.460  28.888  1.00  0.00    -0.020 C 
ATOM     26  C   UNL A   1      47.838  31.182  27.310  1.00  0.00     0.032 C 
ATOM     27  C   UNL A   1      47.467  30.718  28.722  1.00  0.00     0.006 C 
ATOM     28  C   UNL A   1      45.773  29.841  30.392  1.00  0.00     0.008 C 
ATOM     29  C   UNL A   1      45.473  29.122  28.081  1.00  0.00     0.012 C 
ATOM     30  C   UNL A   1      48.617  31.122  30.006  1.00  0.00    -0.025 C 
ATOM     31  C   UNL A   1      47.057  29.818  31.468  1.00  0.00     0.005 C 
ATOM     32  C   UNL A   1      49.598  29.929  29.879  1.00  0.00     0.012 C 
ATOM     33  C   UNL A   1      49.659  32.363  29.850  1.00  0.00     0.010 C 
ATOM     34  C   UNL A   1      47.957  31.085  31.453  1.00  0.00     0.003 C 
ATOM     35  C   UNL A   1      50.454  32.846  31.086  1.00  0.00     0.033 C 
ATOM     36  C   UNL A   1      48.837  31.859  32.752  1.00  0.00    -0.006 C 
ATOM     37  C   UNL A   1      49.562  33.178  32.269  1.00  0.00     0.120 C 
ATOM     38  C   UNL A   1      49.989  31.070  33.308  1.00  0.00     0.014 C 
ATOM     39  C   UNL A   1      48.063  32.183  34.063  1.00  0.00     0.014 C 
BRANCH  37  40
ATOM     40  O   UNL A   1      50.318  33.767  33.351  1.00  0.00    -0.393 OA
ATOM     41  H   UNL A   1      49.893  34.593  33.630  1.00  0.00     0.210 HD
ENDBRANCH  37  40
ENDBRANCH   9  11
ENDBRANCH   8   9
ENDBRANCH   7   8
ENDBRANCH   6   7
ENDBRANCH   5   6
ENDBRANCH   4   5
ENDBRANCH   3   4
ENDBRANCH   2   3
ENDBRANCH   1   2
BRANCH   1  42
ATOM     42  C   UNL A   1      37.751  34.355  32.595  1.00  0.00     0.188 C 
BRANCH  42  43
ATOM     43  O   UNL A   1      36.978  33.362  31.903  1.00  0.00    -0.376 OA
BRANCH  43  44
ATOM     44  C   UNL A   1      35.825  33.810  31.184  1.00  0.00     0.202 C 
BRANCH  44  45
ATOM     45  C   UNL A   1      34.577  32.843  31.010  1.00  0.00     0.261 C 
BRANCH  45  46
ATOM     46  O   UNL A   1      34.166  32.343  29.678  1.00  0.00    -0.460 OA
BRANCH  46  47
ATOM     47  C   UNL A   1      35.118  32.473  28.669  1.00  0.00     0.338 C 
ATOM     48  O   UNL A   1      34.911  33.083  27.628  1.00  0.00    -0.246 OA
BRANCH  47  49
ATOM     49  C   UNL A   1      36.408  31.661  28.835  1.00  0.00     0.060 A 
ATOM     50  C   UNL A   1      37.706  32.188  28.750  1.00  0.00     0.016 A 
ATOM     51  C   UNL A   1      36.316  30.307  29.220  1.00  0.00     0.016 A 
ATOM     52  C   UNL A   1      38.867  31.417  29.138  1.00  0.00     0.010 A 
ATOM     53  C   UNL A   1      37.453  29.607  29.741  1.00  0.00     0.010 A 
ATOM     54  C   UNL A   1      38.770  30.140  29.727  1.00  0.00    -0.014 A 
BRANCH  54  55
ATOM     55  C   UNL A   1      39.975  29.249  30.107  1.00  0.00     0.031 A 
ATOM     56  C   UNL A   1      40.813  29.771  31.260  1.00  0.00     0.074 A 
ATOM     57  C   UNL A   1      40.441  28.092  29.542  1.00  0.00     0.049 A 
ATOM     58  N   UNL A   1      41.955  29.344  31.733  1.00  0.00    -0.248 NA
ATOM     59  C   UNL A   1      40.306  30.983  31.926  1.00  0.00     0.031 C 
ATOM     60  C   UNL A   1      39.887  27.394  28.395  1.00  0.00     0.029 A 
ATOM     61  N   UNL A   1      41.540  27.284  29.851  1.00  0.00    -0.354 N 
ATOM     62  C   UNL A   1      42.320  30.273  32.698  1.00  0.00     0.074 A 
ATOM     63  C   UNL A   1      41.345  31.336  32.656  1.00  0.00     0.031 C 
ATOM     64  C   UNL A   1      40.605  26.294  28.093  1.00  0.00     0.029 A 
ATOM     65  C   UNL A   1      41.718  26.176  29.025  1.00  0.00     0.049 A 
ATOM     66  H   UNL A   1      42.146  27.484  30.601  1.00  0.00     0.167 HD
ATOM     67  C   UNL A   1      43.311  30.238  33.613  1.00  0.00     0.034 A 
ATOM     68  C   UNL A   1      42.645  25.180  29.002  1.00  0.00     0.034 A 
ATOM     69  C   UNL A   1      44.250  29.173  33.777  1.00  0.00     0.049 A 
ATOM     70  C   UNL A   1      43.762  25.165  30.033  1.00  0.00     0.074 A 
ATOM     71  C   UNL A   1      45.235  29.051  34.739  1.00  0.00     0.029 A 
ATOM     72  N   UNL A   1      44.325  28.053  32.975  1.00  0.00    -0.354 N 
ATOM     73  N   UNL A   1      43.966  25.976  31.040  1.00  0.00    -0.248 NA
ATOM     74  C   UNL A   1      44.760  24.078  29.945  1.00  0.00     0.031 C 
ATOM     75  C   UNL A   1      45.924  27.860  34.507  1.00  0.00     0.029 A 
ATOM     76  C   UNL A   1      45.345  27.232  33.419  1.00  0.00     0.049 A 
ATOM     77  H   UNL A   1      43.741  27.865  32.205  1.00  0.00     0.167 HD
ATOM     78  C   UNL A   1      45.076  25.474  31.720  1.00  0.00     0.074 A 
ATOM     79  C   UNL A   1      45.488  24.272  31.036  1.00  0.00     0.031 C 
ATOM     80  C   UNL A   1      45.709  25.986  32.804  1.00  0.00     0.034 A 
BRANCH  67  81
ATOM     81  C   UNL A   1      43.362  31.386  34.579  1.00  0.00     0.023 A 
ATOM     82  C   UNL A   1      44.246  32.459  34.333  1.00  0.00     0.012 A 
ATOM     83  C   UNL A   1      42.548  31.394  35.723  1.00  0.00     0.148 A 
ATOM     84  C   UNL A   1      44.363  33.498  35.249  1.00  0.00     0.002 A 
ATOM     85  C   UNL A   1      42.625  32.467  36.598  1.00  0.00     0.091 A 
ATOM     86  F   UNL A   1      41.736  30.350  35.939  1.00  0.00    -0.205 F 
ATOM     87  C   UNL A   1      43.543  33.508  36.374  1.00  0.00     0.022 A 
BRANCH  85  88
ATOM     88  S   UNL A   1      41.554  32.622  38.028  1.00  0.00     0.127 S 
ATOM     89  O   UNL A   1      40.245  32.316  37.451  1.00  0.00    -0.237 OA
ATOM     90  O   UNL A   1      42.088  31.590  38.915  1.00  0.00    -0.237 OA
ATOM     91  O   UNL A   1      41.714  33.987  38.508  1.00  0.00    -0.744 OA
ENDBRANCH  85  88
ENDBRANCH  67  81
BRANCH  68  92
ATOM     92  C   UNL A   1      42.601  24.037  28.011  1.00  0.00     0.023 A 
ATOM     93  C   UNL A   1      41.620  23.027  28.165  1.00  0.00     0.012 A 
ATOM     94  C   UNL A   1      43.588  23.854  27.021  1.00  0.00     0.148 A 
ATOM     95  C   UNL A   1      41.664  21.845  27.413  1.00  0.00     0.002 A 
ATOM     96  C   UNL A   1      43.592  22.699  26.233  1.00  0.00     0.091 A 
ATOM     97  F   UNL A   1      44.534  24.794  26.889  1.00  0.00    -0.205 F 
ATOM     98  C   UNL A   1      42.647  21.683  26.446  1.00  0.00     0.022 A 
BRANCH  96  99
ATOM     99  S   UNL A   1      44.757  22.435  24.887  1.00  0.00     0.127 S 
ATOM    100  O   UNL A   1      44.709  23.717  24.189  1.00  0.00    -0.237 OA
ATOM    101  O   UNL A   1      46.001  22.177  25.614  1.00  0.00    -0.237 OA
ATOM    102  O   UNL A   1      44.243  21.291  24.146  1.00  0.00    -0.744 OA
ENDBRANCH  96  99
ENDBRANCH  68  92
BRANCH  80 103
ATOM    103  C   UNL A   1      46.887  25.245  33.387  1.00  0.00     0.023 A 
ATOM    104  C   UNL A   1      46.685  24.288  34.400  1.00  0.00     0.012 A 
ATOM    105  C   UNL A   1      48.173  25.397  32.828  1.00  0.00     0.148 A 
ATOM    106  C   UNL A   1      47.747  23.508  34.861  1.00  0.00     0.002 A 
ATOM    107  C   UNL A   1      49.214  24.581  33.256  1.00  0.00     0.091 A 
ATOM    108  F   UNL A   1      48.347  26.318  31.869  1.00  0.00    -0.205 F 
ATOM    109  C   UNL A   1      49.006  23.644  34.280  1.00  0.00     0.022 A 
BRANCH 107 110
ATOM    110  S   UNL A   1      50.843  24.609  32.496  1.00  0.00     0.127 S 
ATOM    111  O   UNL A   1      51.343  25.919  32.910  1.00  0.00    -0.237 OA
ATOM    112  O   UNL A   1      51.504  23.474  33.140  1.00  0.00    -0.237 OA
ATOM    113  O   UNL A   1      50.624  24.454  31.064  1.00  0.00    -0.744 OA
ENDBRANCH 107 110
ENDBRANCH  80 103
ENDBRANCH  54  55
ENDBRANCH  47  49
ENDBRANCH  46  47
ENDBRANCH  45  46
ENDBRANCH  44  45
ENDBRANCH  43  44
ENDBRANCH  42  43
ENDBRANCH   1  42
TORSDOF 24
ENDMDL
MODEL 2
REMARK VINA RESULT:      -7.0      2.748      9.130
REMARK SMILES CC1(C)CC[C@@]2(C(=O)OCCOCCOCCOCCOC(=O)c3ccc(-c4c5nc(c(-c6cccc(S(=O)(=O)[O-])c6F)c6ccc([nH]6)c(-c6cccc(S(=O)(=O)[O-])c6F)c6nc(c(-c7cccc(S(=O)(=O)[O-])c7F)c7ccc4[nH]7)C=C6)C=C5)cc3)CC[C@@]3(C)C(=CC[C@H]4[C@@]5(C)CC[C@H](O)C(C)(C)[C@@H]5CC[C@]43C)[C@@H]2C1
REMARK SMILES IDX 16 1 15 2 14 3 13 4 12 5 11 6 10 7 9 8 7 9 8 10 6 11 1 12
REMARK SMILES IDX 2 13 3 14 4 15 110 16 5 17 109 18 91 19 87 20 89 21 92 22
REMARK SMILES IDX 88 23 90 24 107 25 93 26 94 27 106 28 108 29 95 30 105 31
REMARK SMILES IDX 96 32 97 33 104 34 98 35 101 36 99 37 102 38 103 39 100 40
REMARK SMILES IDX 17 42 18 43 19 44 20 45 21 46 22 47 23 48 24 49 25 50 86 51
REMARK SMILES IDX 26 52 85 53 27 54 28 55 29 56 79 57 30 58 84 59 78 60 80 61
REMARK SMILES IDX 31 62 83 63 77 64 76 65 32 67 64 68 44 69 63 70 45 71 48 72
REMARK SMILES IDX 62 73 81 74 46 75 47 76 61 78 82 79 49 80 33 81 34 82 42 83
REMARK SMILES IDX 35 84 37 85 43 86 36 87 38 88 39 89 40 90 41 91 65 92 66 93
REMARK SMILES IDX 74 94 67 95 69 96 75 97 68 98 70 99 71 100 72 101 73 102
REMARK SMILES IDX 50 103 51 104 59 105 52 106 54 107 60 108 53 109 55 110
REMARK SMILES IDX 56 111 57 112 58 113
REMARK H PARENT 100 41 80 66 48 77
REMARK Flexibility Score: inf
ROOT
ATOM      1  C   UNL A   1      48.429  26.482  25.174  1.00  0.00     0.188 C 
ENDROOT
BRANCH   1   2
ATOM      2  O   UNL A   1      49.016  26.732  26.441  1.00  0.00    -0.377 OA
BRANCH   2   3
ATOM      3  C   UNL A   1      48.526  27.754  27.313  1.00  0.00     0.188 C 
BRANCH   3   4
ATOM      4  C   UNL A   1      47.309  28.545  26.849  1.00  0.00     0.188 C 
BRANCH   4   5
ATOM      5  O   UNL A   1      47.568  29.934  26.626  1.00  0.00    -0.376 OA
BRANCH   5   6
ATOM      6  C   UNL A   1      46.411  30.556  26.128  1.00  0.00     0.202 C 
BRANCH   6   7
ATOM      7  C   UNL A   1      45.814  31.656  26.932  1.00  0.00     0.261 C 
BRANCH   7   8
ATOM      8  O   UNL A   1      45.142  31.198  28.012  1.00  0.00    -0.463 OA
BRANCH   8   9
ATOM      9  C   UNL A   1      45.504  32.003  28.994  1.00  0.00     0.312 C 
ATOM     10  O   UNL A   1      46.390  32.851  28.992  1.00  0.00    -0.252 OA
BRANCH   9  11
ATOM     11  C   UNL A   1      44.744  31.666  30.177  1.00  0.00     0.075 C 
ATOM     12  C   UNL A   1      47.507  30.566  33.219  1.00  0.00     0.011 C 
ATOM     13  C   UNL A   1      47.265  31.457  31.980  1.00  0.00    -0.035 C 
ATOM     14  C   UNL A   1      48.608  32.245  31.818  1.00  0.00     0.011 C 
ATOM     15  C   UNL A   1      47.000  30.471  30.815  1.00  0.00     0.007 C 
ATOM     16  C   UNL A   1      46.129  32.510  32.249  1.00  0.00     0.015 C 
ATOM     17  C   UNL A   1      45.475  30.303  30.427  1.00  0.00     0.020 C 
ATOM     18  C   UNL A   1      44.867  32.700  31.312  1.00  0.00     0.033 C 
ATOM     19  C   UNL A   1      44.574  34.210  30.900  1.00  0.00    -0.063 C 
ATOM     20  C   UNL A   1      43.331  31.875  29.545  1.00  0.00     0.020 C 
ATOM     21  C   UNL A   1      43.728  34.677  29.666  1.00  0.00    -0.006 C 
ATOM     22  C   UNL A   1      45.052  35.180  31.709  1.00  0.00    -0.027 C 
ATOM     23  C   UNL A   1      43.191  33.381  28.833  1.00  0.00     0.013 C 
ATOM     24  C   UNL A   1      42.283  35.038  30.256  1.00  0.00     0.017 C 
ATOM     25  C   UNL A   1      44.590  36.206  28.993  1.00  0.00    -0.020 C 
ATOM     26  C   UNL A   1      46.016  36.242  31.218  1.00  0.00     0.032 C 
ATOM     27  C   UNL A   1      46.036  36.541  29.715  1.00  0.00     0.006 C 
ATOM     28  C   UNL A   1      44.853  36.756  27.483  1.00  0.00     0.008 C 
ATOM     29  C   UNL A   1      43.536  37.325  29.455  1.00  0.00     0.012 C 
ATOM     30  C   UNL A   1      47.629  36.570  28.945  1.00  0.00    -0.025 C 
ATOM     31  C   UNL A   1      46.348  37.231  26.897  1.00  0.00     0.005 C 
ATOM     32  C   UNL A   1      48.047  38.034  29.234  1.00  0.00     0.012 C 
ATOM     33  C   UNL A   1      48.897  35.781  29.591  1.00  0.00     0.010 C 
ATOM     34  C   UNL A   1      47.551  36.367  27.369  1.00  0.00     0.003 C 
ATOM     35  C   UNL A   1      50.190  35.609  28.758  1.00  0.00     0.033 C 
ATOM     36  C   UNL A   1      49.036  35.954  26.541  1.00  0.00    -0.006 C 
ATOM     37  C   UNL A   1      49.938  34.979  27.400  1.00  0.00     0.120 C 
ATOM     38  C   UNL A   1      49.978  37.099  26.300  1.00  0.00     0.014 C 
ATOM     39  C   UNL A   1      48.929  35.373  25.101  1.00  0.00     0.014 C 
BRANCH  37  40
ATOM     40  O   UNL A   1      51.176  34.695  26.711  1.00  0.00    -0.393 OA
ATOM     41  H   UNL A   1      51.159  33.785  26.376  1.00  0.00     0.210 HD
ENDBRANCH  37  40
ENDBRANCH   9  11
ENDBRANCH   8   9
ENDBRANCH   7   8
ENDBRANCH   6   7
ENDBRANCH   5   6
ENDBRANCH   4   5
ENDBRANCH   3   4
ENDBRANCH   2   3
ENDBRANCH   1   2
BRANCH   1  42
ATOM     42  C   UNL A   1      47.672  25.134  25.259  1.00  0.00     0.188 C 
BRANCH  42  43
ATOM     43  O   UNL A   1      46.446  24.837  24.573  1.00  0.00    -0.376 OA
BRANCH  43  44
ATOM     44  C   UNL A   1      46.272  23.503  24.085  1.00  0.00     0.202 C 
BRANCH  44  45
ATOM     45  C   UNL A   1      45.163  22.564  24.727  1.00  0.00     0.261 C 
BRANCH  45  46
ATOM     46  O   UNL A   1      43.750  22.628  24.293  1.00  0.00    -0.460 OA
BRANCH  46  47
ATOM     47  C   UNL A   1      42.807  22.652  25.319  1.00  0.00     0.338 C 
ATOM     48  O   UNL A   1      41.866  21.872  25.383  1.00  0.00    -0.246 OA
BRANCH  47  49
ATOM     49  C   UNL A   1      42.892  23.830  26.298  1.00  0.00     0.060 A 
ATOM     50  C   UNL A   1      43.152  25.160  25.934  1.00  0.00     0.016 A 
ATOM     51  C   UNL A   1      42.573  23.612  27.655  1.00  0.00     0.016 A 
ATOM     52  C   UNL A   1      42.995  26.250  26.874  1.00  0.00     0.010 A 
ATOM     53  C   UNL A   1      42.278  24.707  28.531  1.00  0.00     0.010 A 
ATOM     54  C   UNL A   1      42.469  26.068  28.169  1.00  0.00    -0.014 A 
BRANCH  54  55
ATOM     55  C   UNL A   1      42.334  27.183  29.231  1.00  0.00     0.031 A 
ATOM     56  C   UNL A   1      43.242  27.027  30.436  1.00  0.00     0.074 A 
ATOM     57  C   UNL A   1      41.493  28.262  29.287  1.00  0.00     0.049 A 
ATOM     58  N   UNL A   1      43.281  27.701  31.557  1.00  0.00    -0.248 NA
ATOM     59  C   UNL A   1      44.199  25.909  30.380  1.00  0.00     0.031 C 
ATOM     60  C   UNL A   1      40.478  28.633  28.316  1.00  0.00     0.029 A 
ATOM     61  N   UNL A   1      41.334  29.268  30.247  1.00  0.00    -0.354 N 
ATOM     62  C   UNL A   1      44.214  27.044  32.345  1.00  0.00     0.074 A 
ATOM     63  C   UNL A   1      44.624  25.862  31.627  1.00  0.00     0.031 C 
ATOM     64  C   UNL A   1      39.817  29.745  28.693  1.00  0.00     0.029 A 
ATOM     65  C   UNL A   1      40.342  30.206  29.971  1.00  0.00     0.049 A 
ATOM     66  H   UNL A   1      41.887  29.310  31.061  1.00  0.00     0.167 HD
ATOM     67  C   UNL A   1      44.772  27.403  33.522  1.00  0.00     0.034 A 
ATOM     68  C   UNL A   1      39.895  31.303  30.641  1.00  0.00     0.034 A 
ATOM     69  C   UNL A   1      44.487  28.605  34.240  1.00  0.00     0.049 A 
ATOM     70  C   UNL A   1      40.527  31.684  31.970  1.00  0.00     0.074 A 
ATOM     71  C   UNL A   1      45.078  29.058  35.405  1.00  0.00     0.029 A 
ATOM     72  N   UNL A   1      43.547  29.545  33.871  1.00  0.00    -0.354 N 
ATOM     73  N   UNL A   1      41.532  31.126  32.597  1.00  0.00    -0.248 NA
ATOM     74  C   UNL A   1      39.984  32.868  32.671  1.00  0.00     0.031 C 
ATOM     75  C   UNL A   1      44.479  30.268  35.755  1.00  0.00     0.029 A 
ATOM     76  C   UNL A   1      43.538  30.578  34.790  1.00  0.00     0.049 A 
ATOM     77  H   UNL A   1      42.971  29.490  33.074  1.00  0.00     0.167 HD
ATOM     78  C   UNL A   1      41.764  31.909  33.728  1.00  0.00     0.074 A 
ATOM     79  C   UNL A   1      40.820  33.000  33.692  1.00  0.00     0.031 C 
ATOM     80  C   UNL A   1      42.667  31.719  34.720  1.00  0.00     0.034 A 
BRANCH  67  81
ATOM     81  C   UNL A   1      45.833  26.487  34.058  1.00  0.00     0.023 A 
ATOM     82  C   UNL A   1      47.190  26.772  33.794  1.00  0.00     0.012 A 
ATOM     83  C   UNL A   1      45.486  25.351  34.807  1.00  0.00     0.148 A 
ATOM     84  C   UNL A   1      48.187  25.901  34.219  1.00  0.00     0.002 A 
ATOM     85  C   UNL A   1      46.491  24.523  35.282  1.00  0.00     0.091 A 
ATOM     86  F   UNL A   1      44.187  25.098  35.021  1.00  0.00    -0.205 F 
ATOM     87  C   UNL A   1      47.838  24.784  34.973  1.00  0.00     0.022 A 
BRANCH  85  88
ATOM     88  S   UNL A   1      46.158  23.111  36.334  1.00  0.00     0.127 S 
ATOM     89  O   UNL A   1      46.942  22.064  35.679  1.00  0.00    -0.237 OA
ATOM     90  O   UNL A   1      46.694  23.562  37.619  1.00  0.00    -0.237 OA
ATOM     91  O   UNL A   1      44.717  22.914  36.306  1.00  0.00    -0.744 OA
ENDBRANCH  85  88
ENDBRANCH  67  81
BRANCH  68  92
ATOM     92  C   UNL A   1      38.808  32.211  30.104  1.00  0.00     0.023 A 
ATOM     93  C   UNL A   1      39.174  33.412  29.449  1.00  0.00     0.012 A 
ATOM     94  C   UNL A   1      37.440  31.984  30.355  1.00  0.00     0.148 A 
ATOM     95  C   UNL A   1      38.220  34.385  29.123  1.00  0.00     0.002 A 
ATOM     96  C   UNL A   1      36.487  32.933  29.974  1.00  0.00     0.091 A 
ATOM     97  F   UNL A   1      37.092  30.861  30.999  1.00  0.00    -0.205 F 
ATOM     98  C   UNL A   1      36.877  34.144  29.383  1.00  0.00     0.022 A 
BRANCH  96  99
ATOM     99  S   UNL A   1      34.716  32.677  30.172  1.00  0.00     0.127 S 
ATOM    100  O   UNL A   1      34.459  31.593  29.228  1.00  0.00    -0.237 OA
ATOM    101  O   UNL A   1      34.624  32.298  31.582  1.00  0.00    -0.237 OA
ATOM    102  O   UNL A   1      34.100  33.956  29.850  1.00  0.00    -0.744 OA
ENDBRANCH  96  99
ENDBRANCH  68  92
BRANCH  80 103
ATOM    103  C   UNL A   1      42.753  32.724  35.841  1.00  0.00     0.023 A 
ATOM    104  C   UNL A   1      42.067  32.494  37.048  1.00  0.00     0.012 A 
ATOM    105  C   UNL A   1      43.629  33.826  35.745  1.00  0.00     0.148 A 
ATOM    106  C   UNL A   1      42.236  33.351  38.136  1.00  0.00     0.002 A 
ATOM    107  C   UNL A   1      43.832  34.647  36.848  1.00  0.00     0.091 A 
ATOM    108  F   UNL A   1      44.268  34.033  34.584  1.00  0.00    -0.205 F 
ATOM    109  C   UNL A   1      43.128  34.418  38.041  1.00  0.00     0.022 A 
BRANCH 107 110
ATOM    110  S   UNL A   1      45.038  35.980  36.856  1.00  0.00     0.127 S 
ATOM    111  O   UNL A   1      45.395  36.049  38.273  1.00  0.00    -0.237 OA
ATOM    112  O   UNL A   1      46.090  35.450  35.988  1.00  0.00    -0.237 OA
ATOM    113  O   UNL A   1      44.350  37.152  36.334  1.00  0.00    -0.744 OA
ENDBRANCH 107 110
ENDBRANCH  80 103
ENDBRANCH  54  55
ENDBRANCH  47  49
ENDBRANCH  46  47
ENDBRANCH  45  46
ENDBRANCH  44  45
ENDBRANCH  43  44
ENDBRANCH  42  43
ENDBRANCH   1  42
TORSDOF 24
ENDMDL
MODEL 3
REMARK VINA RESULT:      -6.9      8.694     15.500
REMARK SMILES CC1(C)CC[C@@]2(C(=O)OCCOCCOCCOCCOC(=O)c3ccc(-c4c5nc(c(-c6cccc(S(=O)(=O)[O-])c6F)c6ccc([nH]6)c(-c6cccc(S(=O)(=O)[O-])c6F)c6nc(c(-c7cccc(S(=O)(=O)[O-])c7F)c7ccc4[nH]7)C=C6)C=C5)cc3)CC[C@@]3(C)C(=CC[C@H]4[C@@]5(C)CC[C@H](O)C(C)(C)[C@@H]5CC[C@]43C)[C@@H]2C1
REMARK SMILES IDX 16 1 15 2 14 3 13 4 12 5 11 6 10 7 9 8 7 9 8 10 6 11 1 12
REMARK SMILES IDX 2 13 3 14 4 15 110 16 5 17 109 18 91 19 87 20 89 21 92 22
REMARK SMILES IDX 88 23 90 24 107 25 93 26 94 27 106 28 108 29 95 30 105 31
REMARK SMILES IDX 96 32 97 33 104 34 98 35 101 36 99 37 102 38 103 39 100 40
REMARK SMILES IDX 17 42 18 43 19 44 20 45 21 46 22 47 23 48 24 49 25 50 86 51
REMARK SMILES IDX 26 52 85 53 27 54 28 55 29 56 79 57 30 58 84 59 78 60 80 61
REMARK SMILES IDX 31 62 83 63 77 64 76 65 32 67 64 68 44 69 63 70 45 71 48 72
REMARK SMILES IDX 62 73 81 74 46 75 47 76 61 78 82 79 49 80 33 81 34 82 42 83
REMARK SMILES IDX 35 84 37 85 43 86 36 87 38 88 39 89 40 90 41 91 65 92 66 93
REMARK SMILES IDX 74 94 67 95 69 96 75 97 68 98 70 99 71 100 72 101 73 102
REMARK SMILES IDX 50 103 51 104 59 105 52 106 54 107 60 108 53 109 55 110
REMARK SMILES IDX 56 111 57 112 58 113
REMARK H PARENT 100 41 80 66 48 77
REMARK Flexibility Score: inf
ROOT
ATOM      1  C   UNL A   1      45.046  34.592  27.878  1.00  0.00     0.188 C 
ENDROOT
BRANCH   1   2
ATOM      2  O   UNL A   1      43.730  35.106  27.747  1.00  0.00    -0.377 OA
BRANCH   2   3
ATOM      3  C   UNL A   1      43.146  35.953  28.741  1.00  0.00     0.188 C 
BRANCH   3   4
ATOM      4  C   UNL A   1      43.676  37.379  28.842  1.00  0.00     0.188 C 
BRANCH   4   5
ATOM      5  O   UNL A   1      42.883  38.344  28.144  1.00  0.00    -0.376 OA
BRANCH   5   6
ATOM      6  C   UNL A   1      42.812  39.528  28.895  1.00  0.00     0.202 C 
BRANCH   6   7
ATOM      7  C   UNL A   1      44.087  40.123  29.378  1.00  0.00     0.261 C 
BRANCH   7   8
ATOM      8  O   UNL A   1      44.019  41.469  29.484  1.00  0.00    -0.463 OA
BRANCH   8   9
ATOM      9  C   UNL A   1      44.440  41.727  30.709  1.00  0.00     0.312 C 
ATOM     10  O   UNL A   1      44.516  40.958  31.662  1.00  0.00    -0.252 OA
BRANCH   9  11
ATOM     11  C   UNL A   1      44.720  43.141  30.817  1.00  0.00     0.075 C 
ATOM     12  C   UNL A   1      42.102  44.754  33.758  1.00  0.00     0.011 C 
ATOM     13  C   UNL A   1      42.905  43.511  33.312  1.00  0.00    -0.035 C 
ATOM     14  C   UNL A   1      42.585  42.445  34.412  1.00  0.00     0.011 C 
ATOM     15  C   UNL A   1      42.331  43.134  31.923  1.00  0.00     0.007 C 
ATOM     16  C   UNL A   1      44.451  43.786  33.355  1.00  0.00     0.015 C 
ATOM     17  C   UNL A   1      43.223  43.588  30.696  1.00  0.00     0.020 C 
ATOM     18  C   UNL A   1      45.423  43.537  32.130  1.00  0.00     0.033 C 
ATOM     19  C   UNL A   1      46.732  42.704  32.486  1.00  0.00    -0.063 C 
ATOM     20  C   UNL A   1      45.812  43.191  29.703  1.00  0.00     0.020 C 
ATOM     21  C   UNL A   1      47.626  41.917  31.466  1.00  0.00    -0.006 C 
ATOM     22  C   UNL A   1      47.145  42.712  33.772  1.00  0.00    -0.027 C 
ATOM     23  C   UNL A   1      47.010  42.056  29.961  1.00  0.00     0.013 C 
ATOM     24  C   UNL A   1      48.872  42.877  31.167  1.00  0.00     0.017 C 
ATOM     25  C   UNL A   1      48.169  40.351  32.352  1.00  0.00    -0.020 C 
ATOM     26  C   UNL A   1      47.277  41.441  34.588  1.00  0.00     0.032 C 
ATOM     27  C   UNL A   1      47.460  40.125  33.825  1.00  0.00     0.006 C 
ATOM     28  C   UNL A   1      48.375  38.813  31.858  1.00  0.00     0.008 C 
ATOM     29  C   UNL A   1      49.714  40.713  32.597  1.00  0.00     0.012 C 
ATOM     30  C   UNL A   1      46.400  38.791  34.302  1.00  0.00    -0.025 C 
ATOM     31  C   UNL A   1      47.715  37.478  32.623  1.00  0.00     0.005 C 
ATOM     32  C   UNL A   1      47.210  38.208  35.488  1.00  0.00     0.012 C 
ATOM     33  C   UNL A   1      44.975  39.063  35.041  1.00  0.00     0.010 C 
ATOM     34  C   UNL A   1      46.276  37.674  33.176  1.00  0.00     0.003 C 
ATOM     35  C   UNL A   1      43.967  37.900  35.198  1.00  0.00     0.033 C 
ATOM     36  C   UNL A   1      44.959  36.531  33.325  1.00  0.00    -0.006 C 
ATOM     37  C   UNL A   1      43.646  37.214  33.882  1.00  0.00     0.120 C 
ATOM     38  C   UNL A   1      45.173  35.432  34.326  1.00  0.00     0.014 C 
ATOM     39  C   UNL A   1      44.576  35.696  32.069  1.00  0.00     0.014 C 
BRANCH  37  40
ATOM     40  O   UNL A   1      42.594  36.236  34.038  1.00  0.00    -0.393 OA
ATOM     41  H   UNL A   1      42.782  35.679  34.809  1.00  0.00     0.210 HD
ENDBRANCH  37  40
ENDBRANCH   9  11
ENDBRANCH   8   9
ENDBRANCH   7   8
ENDBRANCH   6   7
ENDBRANCH   5   6
ENDBRANCH   4   5
ENDBRANCH   3   4
ENDBRANCH   2   3
ENDBRANCH   1   2
BRANCH   1  42
ATOM     42  C   UNL A   1      44.958  33.254  28.653  1.00  0.00     0.188 C 
BRANCH  42  43
ATOM     43  O   UNL A   1      45.613  32.037  28.266  1.00  0.00    -0.376 OA
BRANCH  43  44
ATOM     44  C   UNL A   1      46.357  31.342  29.271  1.00  0.00     0.202 C 
BRANCH  44  45
ATOM     45  C   UNL A   1      47.553  32.073  30.018  1.00  0.00     0.261 C 
BRANCH  45  46
ATOM     46  O   UNL A   1      48.964  31.827  29.644  1.00  0.00    -0.460 OA
BRANCH  46  47
ATOM     47  C   UNL A   1      49.396  32.461  28.481  1.00  0.00     0.338 C 
ATOM     48  O   UNL A   1      50.158  31.939  27.676  1.00  0.00    -0.246 OA
BRANCH  47  49
ATOM     49  C   UNL A   1      49.012  33.938  28.322  1.00  0.00     0.060 A 
ATOM     50  C   UNL A   1      48.664  34.795  29.378  1.00  0.00     0.016 A 
ATOM     51  C   UNL A   1      49.122  34.538  27.050  1.00  0.00     0.016 A 
ATOM     52  C   UNL A   1      48.533  36.223  29.185  1.00  0.00     0.010 A 
ATOM     53  C   UNL A   1      49.136  35.963  26.903  1.00  0.00     0.010 A 
ATOM     54  C   UNL A   1      48.851  36.859  27.969  1.00  0.00    -0.014 A 
BRANCH  54  55
ATOM     55  C   UNL A   1      48.675  38.370  27.690  1.00  0.00     0.031 A 
ATOM     56  C   UNL A   1      49.814  39.243  28.182  1.00  0.00     0.074 A 
ATOM     57  C   UNL A   1      47.637  39.055  27.118  1.00  0.00     0.049 A 
ATOM     58  N   UNL A   1      49.918  40.547  28.230  1.00  0.00    -0.248 NA
ATOM     59  C   UNL A   1      50.972  38.532  28.750  1.00  0.00     0.031 C 
ATOM     60  C   UNL A   1      46.394  38.499  26.614  1.00  0.00     0.029 A 
ATOM     61  N   UNL A   1      47.444  40.420  26.878  1.00  0.00    -0.354 N 
ATOM     62  C   UNL A   1      51.113  40.793  28.890  1.00  0.00     0.074 A 
ATOM     63  C   UNL A   1      51.633  39.518  29.322  1.00  0.00     0.031 C 
ATOM     64  C   UNL A   1      45.583  39.461  26.131  1.00  0.00     0.029 A 
ATOM     65  C   UNL A   1      46.229  40.757  26.287  1.00  0.00     0.049 A 
ATOM     66  H   UNL A   1      48.122  41.096  27.112  1.00  0.00     0.167 HD
ATOM     67  C   UNL A   1      51.794  41.946  29.062  1.00  0.00     0.034 A 
ATOM     68  C   UNL A   1      45.683  41.945  25.908  1.00  0.00     0.034 A 
ATOM     69  C   UNL A   1      51.389  43.228  28.577  1.00  0.00     0.049 A 
ATOM     70  C   UNL A   1      46.460  43.234  26.122  1.00  0.00     0.074 A 
ATOM     71  C   UNL A   1      52.078  44.423  28.660  1.00  0.00     0.029 A 
ATOM     72  N   UNL A   1      50.204  43.487  27.919  1.00  0.00    -0.354 N 
ATOM     73  N   UNL A   1      47.669  43.400  26.595  1.00  0.00    -0.248 NA
ATOM     74  C   UNL A   1      45.810  44.499  25.719  1.00  0.00     0.031 C 
ATOM     75  C   UNL A   1      51.298  45.417  28.067  1.00  0.00     0.029 A 
ATOM     76  C   UNL A   1      50.139  44.829  27.591  1.00  0.00     0.049 A 
ATOM     77  H   UNL A   1      49.510  42.819  27.713  1.00  0.00     0.167 HD
ATOM     78  C   UNL A   1      47.934  44.767  26.505  1.00  0.00     0.074 A 
ATOM     79  C   UNL A   1      46.777  45.387  25.905  1.00  0.00     0.031 C 
ATOM     80  C   UNL A   1      49.034  45.446  26.912  1.00  0.00     0.034 A 
BRANCH  67  81
ATOM     81  C   UNL A   1      53.121  41.834  29.754  1.00  0.00     0.023 A 
ATOM     82  C   UNL A   1      54.246  41.391  29.026  1.00  0.00     0.012 A 
ATOM     83  C   UNL A   1      53.248  42.156  31.115  1.00  0.00     0.148 A 
ATOM     84  C   UNL A   1      55.469  41.210  29.661  1.00  0.00     0.002 A 
ATOM     85  C   UNL A   1      54.487  42.035  31.724  1.00  0.00     0.091 A 
ATOM     86  F   UNL A   1      52.156  42.553  31.784  1.00  0.00    -0.205 F 
ATOM     87  C   UNL A   1      55.592  41.544  31.006  1.00  0.00     0.022 A 
BRANCH  85  88
ATOM     88  S   UNL A   1      54.776  42.521  33.426  1.00  0.00     0.127 S 
ATOM     89  O   UNL A   1      54.708  43.979  33.331  1.00  0.00    -0.237 OA
ATOM     90  O   UNL A   1      53.643  41.900  34.111  1.00  0.00    -0.237 OA
ATOM     91  O   UNL A   1      56.080  41.985  33.786  1.00  0.00    -0.744 OA
ENDBRANCH  85  88
ENDBRANCH  67  81
BRANCH  68  92
ATOM     92  C   UNL A   1      44.334  42.053  25.230  1.00  0.00     0.023 A 
ATOM     93  C   UNL A   1      43.173  41.648  25.933  1.00  0.00     0.012 A 
ATOM     94  C   UNL A   1      44.195  42.405  23.872  1.00  0.00     0.148 A 
ATOM     95  C   UNL A   1      41.935  41.526  25.290  1.00  0.00     0.002 A 
ATOM     96  C   UNL A   1      42.945  42.338  23.250  1.00  0.00     0.091 A 
ATOM     97  F   UNL A   1      45.295  42.763  23.196  1.00  0.00    -0.205 F 
ATOM     98  C   UNL A   1      41.820  41.873  23.950  1.00  0.00     0.022 A 
BRANCH  96  99
ATOM     99  S   UNL A   1      42.667  42.860  21.551  1.00  0.00     0.127 S 
ATOM    100  O   UNL A   1      43.603  43.974  21.419  1.00  0.00    -0.237 OA
ATOM    101  O   UNL A   1      43.035  41.657  20.803  1.00  0.00    -0.237 OA
ATOM    102  O   UNL A   1      41.255  43.208  21.476  1.00  0.00    -0.744 OA
ENDBRANCH  96  99
ENDBRANCH  68  92
BRANCH  80 103
ATOM    103  C   UNL A   1      49.106  46.935  26.684  1.00  0.00     0.023 A 
ATOM    104  C   UNL A   1      48.641  47.822  27.674  1.00  0.00     0.012 A 
ATOM    105  C   UNL A   1      49.766  47.452  25.550  1.00  0.00     0.148 A 
ATOM    106  C   UNL A   1      48.814  49.200  27.531  1.00  0.00     0.002 A 
ATOM    107  C   UNL A   1      49.980  48.821  25.438  1.00  0.00     0.091 A 
ATOM    108  F   UNL A   1      50.196  46.592  24.615  1.00  0.00    -0.205 F 
ATOM    109  C   UNL A   1      49.496  49.697  26.422  1.00  0.00     0.022 A 
BRANCH 107 110
ATOM    110  S   UNL A   1      50.939  49.547  24.101  1.00  0.00     0.127 S 
ATOM    111  O   UNL A   1      50.879  50.970  24.431  1.00  0.00    -0.237 OA
ATOM    112  O   UNL A   1      52.252  48.932  24.294  1.00  0.00    -0.237 OA
ATOM    113  O   UNL A   1      50.264  49.169  22.867  1.00  0.00    -0.744 OA
ENDBRANCH 107 110
ENDBRANCH  80 103
ENDBRANCH  54  55
ENDBRANCH  47  49
ENDBRANCH  46  47
ENDBRANCH  45  46
ENDBRANCH  44  45
ENDBRANCH  43  44
ENDBRANCH  42  43
ENDBRANCH   1  42
TORSDOF 24
ENDMDL
