MODEL 1
REMARK VINA RESULT:      -8.6      0.000      0.000
REMARK SMILES Cc1ccc(OCC(=O)NNC(=O)[C@H]2CCCC[C@@H]2C(=O)OCCOCCOCCOCCOC(=O)c2ccc(-c3c4nc(c(-c5cccc(S(=O)(=O)[O-])c5F)c5ccc([nH]5)c(-c5cccc(S(=O)(=O)[O-])c5F)c5nc(c(-c6cccc(S(=O)(=O)[O-])c6F)c6ccc3[nH]6)C=C5)C=C4)cc2)cc1
REMARK SMILES IDX 27 1 26 2 25 3 24 4 23 5 22 6 20 7 21 8 19 9 14 10 15 11
REMARK SMILES IDX 16 12 18 13 17 14 12 15 11 16 13 18 10 19 8 20 9 21 7 23
REMARK SMILES IDX 6 24 5 25 1 26 2 27 3 28 101 29 4 30 100 31 28 32 29 33
REMARK SMILES IDX 30 34 31 35 32 36 33 37 34 38 35 39 36 40 37 41 38 42 99 43
REMARK SMILES IDX 39 44 98 45 40 46 41 47 42 48 92 49 43 50 97 51 91 52 93 53
REMARK SMILES IDX 44 54 96 55 90 56 89 57 45 59 77 60 57 61 76 62 58 63 61 64
REMARK SMILES IDX 75 65 94 66 59 67 60 68 74 70 95 71 62 72 46 73 47 74 55 75
REMARK SMILES IDX 48 76 50 77 56 78 49 79 51 80 52 81 53 82 54 83 78 84 79 85
REMARK SMILES IDX 87 86 80 87 82 88 88 89 81 90 83 91 84 92 85 93 86 94 63 95
REMARK SMILES IDX 64 96 72 97 65 98 67 99 73 100 66 101 68 102 69 103 70 104
REMARK SMILES IDX 71 105
REMARK H PARENT 11 17 10 22 93 58 61 69
REMARK Flexibility Score: inf
ROOT
ATOM      1  C   UNL A   1      40.121  25.914  27.144  1.00  0.00     0.188 C 
ENDROOT
BRANCH   1   2
ATOM      2  C   UNL A   1      39.703  24.466  27.408  1.00  0.00     0.188 C 
BRANCH   2   3
ATOM      3  O   UNL A   1      38.687  23.911  26.574  1.00  0.00    -0.376 OA
BRANCH   3   4
ATOM      4  C   UNL A   1      38.854  22.575  26.110  1.00  0.00     0.202 C 
BRANCH   4   5
ATOM      5  C   UNL A   1      37.819  22.076  25.133  1.00  0.00     0.261 C 
BRANCH   5   6
ATOM      6  O   UNL A   1      36.610  22.849  25.187  1.00  0.00    -0.463 OA
BRANCH   6   7
ATOM      7  C   UNL A   1      35.890  22.734  24.073  1.00  0.00     0.309 C 
ATOM      8  O   UNL A   1      36.241  23.168  22.972  1.00  0.00    -0.252 OA
BRANCH   7   9
ATOM      9  C   UNL A   1      34.648  21.883  24.171  1.00  0.00     0.111 C 
ATOM     10  C   UNL A   1      33.514  22.912  24.115  1.00  0.00     0.094 C 
ATOM     11  C   UNL A   1      32.956  23.192  25.512  1.00  0.00     0.014 C 
ATOM     12  C   UNL A   1      32.484  21.948  26.235  1.00  0.00     0.001 C 
ATOM     13  C   UNL A   1      34.449  20.712  25.142  1.00  0.00     0.016 C 
ATOM     14  C   UNL A   1      33.596  20.925  26.388  1.00  0.00     0.001 C 
BRANCH  10  15
ATOM     15  C   UNL A   1      32.546  22.555  22.995  1.00  0.00     0.242 C 
ATOM     16  N   UNL A   1      32.529  23.336  21.848  1.00  0.00    -0.267 N 
ATOM     17  H   UNL A   1      31.866  23.098  21.160  1.00  0.00     0.191 HD
ATOM     18  O   UNL A   1      31.752  21.618  23.090  1.00  0.00    -0.273 OA
BRANCH  16  19
ATOM     19  N   UNL A   1      33.365  24.434  21.573  1.00  0.00    -0.265 N 
ATOM     20  C   UNL A   1      32.956  25.753  21.635  1.00  0.00     0.276 C 
ATOM     21  O   UNL A   1      33.696  26.668  21.274  1.00  0.00    -0.269 OA
ATOM     22  H   UNL A   1      34.300  24.252  21.321  1.00  0.00     0.191 HD
BRANCH  20  23
ATOM     23  C   UNL A   1      31.593  26.066  22.233  1.00  0.00     0.331 C 
BRANCH  23  24
ATOM     24  O   UNL A   1      31.487  25.809  23.621  1.00  0.00    -0.484 OA
BRANCH  24  25
ATOM     25  C   UNL A   1      31.647  26.846  24.496  1.00  0.00     0.120 A 
ATOM     26  C   UNL A   1      31.904  30.438  26.883  1.00  0.00     0.044 C 
ATOM     27  C   UNL A   1      31.826  29.186  26.060  1.00  0.00    -0.051 A 
ATOM     28  C   UNL A   1      31.374  29.250  24.740  1.00  0.00     0.007 A 
ATOM     29  C   UNL A   1      32.199  27.943  26.584  1.00  0.00     0.007 A 
ATOM     30  C   UNL A   1      31.289  28.090  23.968  1.00  0.00     0.047 A 
ATOM     31  C   UNL A   1      32.121  26.779  25.804  1.00  0.00     0.047 A 
ENDBRANCH  24  25
ENDBRANCH  23  24
ENDBRANCH  20  23
ENDBRANCH  16  19
ENDBRANCH  10  15
ENDBRANCH   7   9
ENDBRANCH   6   7
ENDBRANCH   5   6
ENDBRANCH   4   5
ENDBRANCH   3   4
ENDBRANCH   2   3
ENDBRANCH   1   2
BRANCH   1  32
ATOM     32  O   UNL A   1      40.569  26.531  28.334  1.00  0.00    -0.377 OA
BRANCH  32  33
ATOM     33  C   UNL A   1      39.876  27.728  28.642  1.00  0.00     0.188 C 
BRANCH  33  34
ATOM     34  C   UNL A   1      38.951  27.573  29.861  1.00  0.00     0.188 C 
BRANCH  34  35
ATOM     35  O   UNL A   1      37.838  28.448  29.972  1.00  0.00    -0.376 OA
BRANCH  35  36
ATOM     36  C   UNL A   1      37.371  29.035  28.764  1.00  0.00     0.202 C 
BRANCH  36  37
ATOM     37  C   UNL A   1      36.986  30.553  28.704  1.00  0.00     0.261 C 
BRANCH  37  38
ATOM     38  O   UNL A   1      35.651  30.848  29.206  1.00  0.00    -0.460 OA
BRANCH  38  39
ATOM     39  C   UNL A   1      35.019  32.037  29.331  1.00  0.00     0.338 C 
ATOM     40  O   UNL A   1      34.206  32.503  28.546  1.00  0.00    -0.246 OA
BRANCH  39  41
ATOM     41  C   UNL A   1      35.651  32.742  30.524  1.00  0.00     0.060 A 
ATOM     42  C   UNL A   1      36.592  33.749  30.325  1.00  0.00     0.016 A 
ATOM     43  C   UNL A   1      35.559  32.216  31.813  1.00  0.00     0.016 A 
ATOM     44  C   UNL A   1      37.621  33.963  31.270  1.00  0.00     0.010 A 
ATOM     45  C   UNL A   1      36.641  32.333  32.697  1.00  0.00     0.010 A 
ATOM     46  C   UNL A   1      37.755  33.118  32.372  1.00  0.00    -0.014 A 
BRANCH  46  47
ATOM     47  C   UNL A   1      39.070  32.762  32.991  1.00  0.00     0.031 A 
ATOM     48  C   UNL A   1      40.098  31.890  32.272  1.00  0.00     0.074 A 
ATOM     49  C   UNL A   1      39.526  33.610  33.958  1.00  0.00     0.049 A 
ATOM     50  N   UNL A   1      41.346  31.745  32.617  1.00  0.00    -0.248 NA
ATOM     51  C   UNL A   1      39.780  31.076  31.099  1.00  0.00     0.031 C 
ATOM     52  C   UNL A   1      40.907  34.058  34.007  1.00  0.00     0.029 A 
ATOM     53  N   UNL A   1      38.953  34.391  34.967  1.00  0.00    -0.354 N 
ATOM     54  C   UNL A   1      42.031  31.101  31.598  1.00  0.00     0.074 A 
ATOM     55  C   UNL A   1      40.985  30.612  30.735  1.00  0.00     0.031 C 
ATOM     56  C   UNL A   1      41.095  34.963  34.959  1.00  0.00     0.029 A 
ATOM     57  C   UNL A   1      39.962  34.884  35.816  1.00  0.00     0.049 A 
ATOM     58  H   UNL A   1      37.990  34.569  35.068  1.00  0.00     0.167 HD
ATOM     59  C   UNL A   1      43.402  31.137  31.521  1.00  0.00     0.034 A 
ATOM     60  C   UNL A   1      40.162  34.609  37.139  1.00  0.00     0.034 A 
ATOM     61  C   UNL A   1      44.066  31.702  32.735  1.00  0.00     0.049 A 
ATOM     62  C   UNL A   1      41.347  33.677  37.437  1.00  0.00     0.074 A 
ATOM     63  C   UNL A   1      45.150  32.541  32.977  1.00  0.00     0.029 A 
ATOM     64  N   UNL A   1      43.527  31.452  33.996  1.00  0.00    -0.354 N 
ATOM     65  N   UNL A   1      42.353  33.413  36.631  1.00  0.00    -0.248 NA
ATOM     66  C   UNL A   1      41.419  32.886  38.662  1.00  0.00     0.031 C 
ATOM     67  C   UNL A   1      45.244  32.784  34.382  1.00  0.00     0.029 A 
ATOM     68  C   UNL A   1      44.250  32.055  35.008  1.00  0.00     0.049 A 
ATOM     69  H   UNL A   1      42.721  30.907  34.149  1.00  0.00     0.167 HD
ATOM     70  C   UNL A   1      43.052  32.315  37.099  1.00  0.00     0.074 A 
ATOM     71  C   UNL A   1      42.450  32.064  38.400  1.00  0.00     0.031 C 
ATOM     72  C   UNL A   1      44.005  31.628  36.378  1.00  0.00     0.034 A 
BRANCH  59  73
ATOM     73  C   UNL A   1      44.228  30.768  30.264  1.00  0.00     0.023 A 
ATOM     74  C   UNL A   1      44.988  29.571  30.303  1.00  0.00     0.012 A 
ATOM     75  C   UNL A   1      44.405  31.554  29.090  1.00  0.00     0.148 A 
ATOM     76  C   UNL A   1      45.893  29.203  29.295  1.00  0.00     0.002 A 
ATOM     77  C   UNL A   1      45.235  31.132  28.035  1.00  0.00     0.091 A 
ATOM     78  F   UNL A   1      43.843  32.765  29.013  1.00  0.00    -0.205 F 
ATOM     79  C   UNL A   1      46.006  29.975  28.151  1.00  0.00     0.022 A 
BRANCH  77  80
ATOM     80  S   UNL A   1      45.347  31.998  26.452  1.00  0.00     0.127 S 
ATOM     81  O   UNL A   1      45.948  33.275  26.836  1.00  0.00    -0.237 OA
ATOM     82  O   UNL A   1      46.230  31.124  25.679  1.00  0.00    -0.237 OA
ATOM     83  O   UNL A   1      43.984  32.081  25.941  1.00  0.00    -0.744 OA
ENDBRANCH  77  80
ENDBRANCH  59  73
BRANCH  60  84
ATOM     84  C   UNL A   1      39.006  35.005  37.988  1.00  0.00     0.023 A 
ATOM     85  C   UNL A   1      38.235  33.884  38.391  1.00  0.00     0.012 A 
ATOM     86  C   UNL A   1      39.210  36.051  38.893  1.00  0.00     0.148 A 
ATOM     87  C   UNL A   1      38.001  33.654  39.745  1.00  0.00     0.002 A 
ATOM     88  C   UNL A   1      39.011  35.799  40.246  1.00  0.00     0.091 A 
ATOM     89  F   UNL A   1      39.773  37.180  38.443  1.00  0.00    -0.205 F 
ATOM     90  C   UNL A   1      38.459  34.579  40.677  1.00  0.00     0.022 A 
BRANCH  88  91
ATOM     91  S   UNL A   1      39.801  36.838  41.480  1.00  0.00     0.127 S 
ATOM     92  O   UNL A   1      41.216  36.653  41.186  1.00  0.00    -0.237 OA
ATOM     93  O   UNL A   1      39.265  38.156  41.150  1.00  0.00    -0.237 OA
ATOM     94  O   UNL A   1      39.328  36.315  42.754  1.00  0.00    -0.744 OA
ENDBRANCH  88  91
ENDBRANCH  60  84
BRANCH  72  95
ATOM     95  C   UNL A   1      44.754  30.364  36.840  1.00  0.00     0.023 A 
ATOM     96  C   UNL A   1      44.800  29.191  36.068  1.00  0.00     0.012 A 
ATOM     97  C   UNL A   1      45.407  30.293  38.112  1.00  0.00     0.148 A 
ATOM     98  C   UNL A   1      45.586  28.089  36.435  1.00  0.00     0.002 A 
ATOM     99  C   UNL A   1      46.150  29.180  38.497  1.00  0.00     0.091 A 
ATOM    100  F   UNL A   1      45.300  31.301  38.981  1.00  0.00    -0.205 F 
ATOM    101  C   UNL A   1      46.280  28.092  37.637  1.00  0.00     0.022 A 
BRANCH  99 102
ATOM    102  S   UNL A   1      46.947  29.045  40.109  1.00  0.00     0.127 S 
ATOM    103  O   UNL A   1      45.791  28.991  41.005  1.00  0.00    -0.237 OA
ATOM    104  O   UNL A   1      47.674  27.783  39.976  1.00  0.00    -0.237 OA
ATOM    105  O   UNL A   1      47.779  30.229  40.264  1.00  0.00    -0.744 OA
ENDBRANCH  99 102
ENDBRANCH  72  95
ENDBRANCH  46  47
ENDBRANCH  39  41
ENDBRANCH  38  39
ENDBRANCH  37  38
ENDBRANCH  36  37
ENDBRANCH  35  36
ENDBRANCH  34  35
ENDBRANCH  33  34
ENDBRANCH  32  33
ENDBRANCH   1  32
TORSDOF 28
ENDMDL
MODEL 2
REMARK VINA RESULT:      -8.6      5.553      7.780
REMARK SMILES Cc1ccc(OCC(=O)NNC(=O)[C@H]2CCCC[C@@H]2C(=O)OCCOCCOCCOCCOC(=O)c2ccc(-c3c4nc(c(-c5cccc(S(=O)(=O)[O-])c5F)c5ccc([nH]5)c(-c5cccc(S(=O)(=O)[O-])c5F)c5nc(c(-c6cccc(S(=O)(=O)[O-])c6F)c6ccc3[nH]6)C=C5)C=C4)cc2)cc1
REMARK SMILES IDX 27 1 26 2 25 3 24 4 23 5 22 6 20 7 21 8 19 9 14 10 15 11
REMARK SMILES IDX 16 12 18 13 17 14 12 15 11 16 13 18 10 19 8 20 9 21 7 23
REMARK SMILES IDX 6 24 5 25 1 26 2 27 3 28 101 29 4 30 100 31 28 32 29 33
REMARK SMILES IDX 30 34 31 35 32 36 33 37 34 38 35 39 36 40 37 41 38 42 99 43
REMARK SMILES IDX 39 44 98 45 40 46 41 47 42 48 92 49 43 50 97 51 91 52 93 53
REMARK SMILES IDX 44 54 96 55 90 56 89 57 45 59 77 60 57 61 76 62 58 63 61 64
REMARK SMILES IDX 75 65 94 66 59 67 60 68 74 70 95 71 62 72 46 73 47 74 55 75
REMARK SMILES IDX 48 76 50 77 56 78 49 79 51 80 52 81 53 82 54 83 78 84 79 85
REMARK SMILES IDX 87 86 80 87 82 88 88 89 81 90 83 91 84 92 85 93 86 94 63 95
REMARK SMILES IDX 64 96 72 97 65 98 67 99 73 100 66 101 68 102 69 103 70 104
REMARK SMILES IDX 71 105
REMARK H PARENT 11 17 10 22 93 58 61 69
REMARK Flexibility Score: inf
ROOT
ATOM      1  C   UNL A   1      39.812  25.975  27.444  1.00  0.00     0.188 C 
ENDROOT
BRANCH   1   2
ATOM      2  C   UNL A   1      39.118  24.614  27.508  1.00  0.00     0.188 C 
BRANCH   2   3
ATOM      3  O   UNL A   1      38.240  24.270  26.436  1.00  0.00    -0.376 OA
BRANCH   3   4
ATOM      4  C   UNL A   1      38.310  22.950  25.907  1.00  0.00     0.202 C 
BRANCH   4   5
ATOM      5  C   UNL A   1      37.289  22.602  24.852  1.00  0.00     0.261 C 
BRANCH   5   6
ATOM      6  O   UNL A   1      36.094  23.386  24.978  1.00  0.00    -0.463 OA
BRANCH   6   7
ATOM      7  C   UNL A   1      35.218  23.127  24.010  1.00  0.00     0.309 C 
ATOM      8  O   UNL A   1      35.432  23.323  22.811  1.00  0.00    -0.252 OA
BRANCH   7   9
ATOM      9  C   UNL A   1      33.959  22.409  24.430  1.00  0.00     0.111 C 
ATOM     10  C   UNL A   1      33.063  23.543  24.939  1.00  0.00     0.094 C 
ATOM     11  C   UNL A   1      33.069  23.604  26.467  1.00  0.00     0.014 C 
ATOM     12  C   UNL A   1      32.669  22.300  27.126  1.00  0.00     0.001 C 
ATOM     13  C   UNL A   1      33.909  21.100  25.227  1.00  0.00     0.016 C 
ATOM     14  C   UNL A   1      33.578  21.156  26.716  1.00  0.00     0.001 C 
BRANCH  10  15
ATOM     15  C   UNL A   1      31.727  23.514  24.209  1.00  0.00     0.242 C 
ATOM     16  N   UNL A   1      31.639  24.084  22.946  1.00  0.00    -0.267 N 
ATOM     17  H   UNL A   1      30.753  24.079  22.519  1.00  0.00     0.191 HD
ATOM     18  O   UNL A   1      30.714  23.036  24.718  1.00  0.00    -0.273 OA
BRANCH  16  19
ATOM     19  N   UNL A   1      32.693  24.667  22.218  1.00  0.00    -0.265 N 
ATOM     20  C   UNL A   1      32.774  26.013  21.917  1.00  0.00     0.276 C 
ATOM     21  O   UNL A   1      33.658  26.451  21.181  1.00  0.00    -0.269 OA
ATOM     22  H   UNL A   1      33.419  24.080  21.905  1.00  0.00     0.191 HD
BRANCH  20  23
ATOM     23  C   UNL A   1      31.790  26.968  22.576  1.00  0.00     0.331 C 
BRANCH  23  24
ATOM     24  O   UNL A   1      31.622  26.770  23.968  1.00  0.00    -0.484 OA
BRANCH  24  25
ATOM     25  C   UNL A   1      32.312  27.570  24.834  1.00  0.00     0.120 A 
ATOM     26  C   UNL A   1      34.196  30.517  27.369  1.00  0.00     0.044 C 
ATOM     27  C   UNL A   1      33.553  29.486  26.490  1.00  0.00    -0.051 A 
ATOM     28  C   UNL A   1      32.671  29.886  25.482  1.00  0.00     0.007 A 
ATOM     29  C   UNL A   1      33.816  28.121  26.651  1.00  0.00     0.007 A 
ATOM     30  C   UNL A   1      32.061  28.934  24.663  1.00  0.00     0.047 A 
ATOM     31  C   UNL A   1      33.208  27.167  25.821  1.00  0.00     0.047 A 
ENDBRANCH  24  25
ENDBRANCH  23  24
ENDBRANCH  20  23
ENDBRANCH  16  19
ENDBRANCH  10  15
ENDBRANCH   7   9
ENDBRANCH   6   7
ENDBRANCH   5   6
ENDBRANCH   4   5
ENDBRANCH   3   4
ENDBRANCH   2   3
ENDBRANCH   1   2
BRANCH   1  32
ATOM     32  O   UNL A   1      40.382  26.306  28.694  1.00  0.00    -0.377 OA
BRANCH  32  33
ATOM     33  C   UNL A   1      39.828  27.474  29.274  1.00  0.00     0.188 C 
BRANCH  33  34
ATOM     34  C   UNL A   1      38.919  27.157  30.474  1.00  0.00     0.188 C 
BRANCH  34  35
ATOM     35  O   UNL A   1      38.102  28.199  30.987  1.00  0.00    -0.376 OA
BRANCH  35  36
ATOM     36  C   UNL A   1      37.628  29.155  30.046  1.00  0.00     0.202 C 
BRANCH  36  37
ATOM     37  C   UNL A   1      38.064  30.657  30.136  1.00  0.00     0.261 C 
BRANCH  37  38
ATOM     38  O   UNL A   1      37.412  31.403  31.203  1.00  0.00    -0.460 OA
BRANCH  38  39
ATOM     39  C   UNL A   1      36.640  32.511  31.135  1.00  0.00     0.338 C 
ATOM     40  O   UNL A   1      35.420  32.541  31.210  1.00  0.00    -0.246 OA
BRANCH  39  41
ATOM     41  C   UNL A   1      37.565  33.663  30.769  1.00  0.00     0.060 A 
ATOM     42  C   UNL A   1      37.782  33.990  29.433  1.00  0.00     0.016 A 
ATOM     43  C   UNL A   1      38.447  34.213  31.699  1.00  0.00     0.016 A 
ATOM     44  C   UNL A   1      39.017  34.541  29.023  1.00  0.00     0.010 A 
ATOM     45  C   UNL A   1      39.718  34.643  31.292  1.00  0.00     0.010 A 
ATOM     46  C   UNL A   1      40.062  34.691  29.935  1.00  0.00    -0.014 A 
BRANCH  46  47
ATOM     47  C   UNL A   1      41.507  34.558  29.571  1.00  0.00     0.031 A 
ATOM     48  C   UNL A   1      42.278  33.252  29.759  1.00  0.00     0.074 A 
ATOM     49  C   UNL A   1      41.974  35.438  28.638  1.00  0.00     0.049 A 
ATOM     50  N   UNL A   1      43.441  32.974  29.243  1.00  0.00    -0.248 NA
ATOM     51  C   UNL A   1      41.793  32.146  30.586  1.00  0.00     0.031 C 
ATOM     52  C   UNL A   1      42.826  35.022  27.538  1.00  0.00     0.029 A 
ATOM     53  N   UNL A   1      41.728  36.773  28.299  1.00  0.00    -0.354 N 
ATOM     54  C   UNL A   1      43.704  31.624  29.406  1.00  0.00     0.074 A 
ATOM     55  C   UNL A   1      42.699  31.188  30.344  1.00  0.00     0.031 C 
ATOM     56  C   UNL A   1      43.060  36.020  26.695  1.00  0.00     0.029 A 
ATOM     57  C   UNL A   1      42.697  37.213  27.377  1.00  0.00     0.049 A 
ATOM     58  H   UNL A   1      40.991  37.321  28.652  1.00  0.00     0.167 HD
ATOM     59  C   UNL A   1      44.664  30.984  28.659  1.00  0.00     0.034 A 
ATOM     60  C   UNL A   1      43.644  38.183  27.546  1.00  0.00     0.034 A 
ATOM     61  C   UNL A   1      45.533  31.906  27.866  1.00  0.00     0.049 A 
ATOM     62  C   UNL A   1      45.078  37.665  27.732  1.00  0.00     0.074 A 
ATOM     63  C   UNL A   1      46.095  31.893  26.592  1.00  0.00     0.029 A 
ATOM     64  N   UNL A   1      45.890  33.144  28.396  1.00  0.00    -0.354 N 
ATOM     65  N   UNL A   1      45.523  36.470  27.410  1.00  0.00    -0.248 NA
ATOM     66  C   UNL A   1      46.105  38.457  28.404  1.00  0.00     0.031 C 
ATOM     67  C   UNL A   1      46.780  33.128  26.376  1.00  0.00     0.029 A 
ATOM     68  C   UNL A   1      46.683  33.877  27.533  1.00  0.00     0.049 A 
ATOM     69  H   UNL A   1      45.609  33.461  29.285  1.00  0.00     0.167 HD
ATOM     70  C   UNL A   1      46.758  36.256  27.995  1.00  0.00     0.074 A 
ATOM     71  C   UNL A   1      47.090  37.556  28.561  1.00  0.00     0.031 C 
ATOM     72  C   UNL A   1      47.391  35.034  28.065  1.00  0.00     0.034 A 
BRANCH  59  73
ATOM     73  C   UNL A   1      44.789  29.448  28.507  1.00  0.00     0.023 A 
ATOM     74  C   UNL A   1      43.596  28.705  28.316  1.00  0.00     0.012 A 
ATOM     75  C   UNL A   1      45.969  28.664  28.645  1.00  0.00     0.148 A 
ATOM     76  C   UNL A   1      43.557  27.302  28.316  1.00  0.00     0.002 A 
ATOM     77  C   UNL A   1      45.942  27.261  28.543  1.00  0.00     0.091 A 
ATOM     78  F   UNL A   1      47.125  29.256  28.965  1.00  0.00    -0.205 F 
ATOM     79  C   UNL A   1      44.733  26.577  28.414  1.00  0.00     0.022 A 
BRANCH  77  80
ATOM     80  S   UNL A   1      47.432  26.237  28.523  1.00  0.00     0.127 S 
ATOM     81  O   UNL A   1      46.889  24.890  28.694  1.00  0.00    -0.237 OA
ATOM     82  O   UNL A   1      47.978  26.504  27.192  1.00  0.00    -0.237 OA
ATOM     83  O   UNL A   1      48.264  26.715  29.621  1.00  0.00    -0.744 OA
ENDBRANCH  77  80
ENDBRANCH  59  73
BRANCH  60  84
ATOM     84  C   UNL A   1      43.052  39.518  27.834  1.00  0.00     0.023 A 
ATOM     85  C   UNL A   1      42.912  39.746  29.228  1.00  0.00     0.012 A 
ATOM     86  C   UNL A   1      43.439  40.577  27.007  1.00  0.00     0.148 A 
ATOM     87  C   UNL A   1      43.492  40.873  29.808  1.00  0.00     0.002 A 
ATOM     88  C   UNL A   1      44.051  41.680  27.592  1.00  0.00     0.091 A 
ATOM     89  F   UNL A   1      43.383  40.401  25.681  1.00  0.00    -0.205 F 
ATOM     90  C   UNL A   1      44.128  41.802  28.992  1.00  0.00     0.022 A 
BRANCH  88  91
ATOM     91  S   UNL A   1      45.088  42.763  26.604  1.00  0.00     0.127 S 
ATOM     92  O   UNL A   1      45.546  43.738  27.584  1.00  0.00    -0.237 OA
ATOM     93  O   UNL A   1      46.110  41.839  26.119  1.00  0.00    -0.237 OA
ATOM     94  O   UNL A   1      44.204  43.259  25.558  1.00  0.00    -0.744 OA
ENDBRANCH  88  91
ENDBRANCH  60  84
BRANCH  72  95
ATOM     95  C   UNL A   1      48.732  34.746  28.766  1.00  0.00     0.023 A 
ATOM     96  C   UNL A   1      48.845  34.649  30.163  1.00  0.00     0.012 A 
ATOM     97  C   UNL A   1      49.955  34.612  28.036  1.00  0.00     0.148 A 
ATOM     98  C   UNL A   1      50.041  34.263  30.787  1.00  0.00     0.002 A 
ATOM     99  C   UNL A   1      51.153  34.274  28.660  1.00  0.00     0.091 A 
ATOM    100  F   UNL A   1      49.980  34.831  26.719  1.00  0.00    -0.205 F 
ATOM    101  C   UNL A   1      51.189  34.053  30.035  1.00  0.00     0.022 A 
BRANCH  99 102
ATOM    102  S   UNL A   1      52.717  34.140  27.772  1.00  0.00     0.127 S 
ATOM    103  O   UNL A   1      52.900  35.510  27.291  1.00  0.00    -0.237 OA
ATOM    104  O   UNL A   1      53.632  33.744  28.842  1.00  0.00    -0.237 OA
ATOM    105  O   UNL A   1      52.518  33.150  26.724  1.00  0.00    -0.744 OA
ENDBRANCH  99 102
ENDBRANCH  72  95
ENDBRANCH  46  47
ENDBRANCH  39  41
ENDBRANCH  38  39
ENDBRANCH  37  38
ENDBRANCH  36  37
ENDBRANCH  35  36
ENDBRANCH  34  35
ENDBRANCH  33  34
ENDBRANCH  32  33
ENDBRANCH   1  32
TORSDOF 28
ENDMDL
MODEL 3
REMARK VINA RESULT:      -8.4      4.174      9.479
REMARK SMILES Cc1ccc(OCC(=O)NNC(=O)[C@H]2CCCC[C@@H]2C(=O)OCCOCCOCCOCCOC(=O)c2ccc(-c3c4nc(c(-c5cccc(S(=O)(=O)[O-])c5F)c5ccc([nH]5)c(-c5cccc(S(=O)(=O)[O-])c5F)c5nc(c(-c6cccc(S(=O)(=O)[O-])c6F)c6ccc3[nH]6)C=C5)C=C4)cc2)cc1
REMARK SMILES IDX 27 1 26 2 25 3 24 4 23 5 22 6 20 7 21 8 19 9 14 10 15 11
REMARK SMILES IDX 16 12 18 13 17 14 12 15 11 16 13 18 10 19 8 20 9 21 7 23
REMARK SMILES IDX 6 24 5 25 1 26 2 27 3 28 101 29 4 30 100 31 28 32 29 33
REMARK SMILES IDX 30 34 31 35 32 36 33 37 34 38 35 39 36 40 37 41 38 42 99 43
REMARK SMILES IDX 39 44 98 45 40 46 41 47 42 48 92 49 43 50 97 51 91 52 93 53
REMARK SMILES IDX 44 54 96 55 90 56 89 57 45 59 77 60 57 61 76 62 58 63 61 64
REMARK SMILES IDX 75 65 94 66 59 67 60 68 74 70 95 71 62 72 46 73 47 74 55 75
REMARK SMILES IDX 48 76 50 77 56 78 49 79 51 80 52 81 53 82 54 83 78 84 79 85
REMARK SMILES IDX 87 86 80 87 82 88 88 89 81 90 83 91 84 92 85 93 86 94 63 95
REMARK SMILES IDX 64 96 72 97 65 98 67 99 73 100 66 101 68 102 69 103 70 104
REMARK SMILES IDX 71 105
REMARK H PARENT 11 17 10 22 93 58 61 69
REMARK Flexibility Score: inf
ROOT
ATOM      1  C   UNL A   1      38.801  23.436  26.400  1.00  0.00     0.188 C 
ENDROOT
BRANCH   1   2
ATOM      2  C   UNL A   1      37.442  24.065  26.093  1.00  0.00     0.188 C 
BRANCH   2   3
ATOM      3  O   UNL A   1      36.678  23.499  25.029  1.00  0.00    -0.376 OA
BRANCH   3   4
ATOM      4  C   UNL A   1      35.387  22.980  25.330  1.00  0.00     0.202 C 
BRANCH   4   5
ATOM      5  C   UNL A   1      34.225  23.643  24.633  1.00  0.00     0.261 C 
BRANCH   5   6
ATOM      6  O   UNL A   1      34.565  24.949  24.140  1.00  0.00    -0.463 OA
BRANCH   6   7
ATOM      7  C   UNL A   1      33.981  25.918  24.841  1.00  0.00     0.309 C 
ATOM      8  O   UNL A   1      34.288  26.218  25.998  1.00  0.00    -0.252 OA
BRANCH   7   9
ATOM      9  C   UNL A   1      32.995  26.778  24.089  1.00  0.00     0.111 C 
ATOM     10  C   UNL A   1      32.233  27.495  25.208  1.00  0.00     0.094 C 
ATOM     11  C   UNL A   1      30.873  26.840  25.453  1.00  0.00     0.014 C 
ATOM     12  C   UNL A   1      30.007  26.759  24.213  1.00  0.00     0.001 C 
ATOM     13  C   UNL A   1      32.160  26.325  22.886  1.00  0.00     0.016 C 
ATOM     14  C   UNL A   1      30.687  25.987  23.097  1.00  0.00     0.001 C 
BRANCH  10  15
ATOM     15  C   UNL A   1      32.295  29.001  24.994  1.00  0.00     0.242 C 
ATOM     16  N   UNL A   1      33.412  29.697  25.435  1.00  0.00    -0.267 N 
ATOM     17  H   UNL A   1      33.402  30.673  25.313  1.00  0.00     0.191 HD
ATOM     18  O   UNL A   1      31.370  29.627  24.475  1.00  0.00    -0.273 OA
BRANCH  16  19
ATOM     19  N   UNL A   1      34.555  29.143  26.042  1.00  0.00    -0.265 N 
ATOM     20  C   UNL A   1      35.088  29.586  27.238  1.00  0.00     0.276 C 
ATOM     21  O   UNL A   1      36.153  29.141  27.665  1.00  0.00    -0.269 OA
ATOM     22  H   UNL A   1      35.002  28.393  25.587  1.00  0.00     0.191 HD
BRANCH  20  23
ATOM     23  C   UNL A   1      34.293  30.585  28.065  1.00  0.00     0.331 C 
BRANCH  23  24
ATOM     24  O   UNL A   1      34.420  31.930  27.642  1.00  0.00    -0.484 OA
BRANCH  24  25
ATOM     25  C   UNL A   1      34.210  32.928  28.552  1.00  0.00     0.120 A 
ATOM     26  C   UNL A   1      33.213  36.310  31.049  1.00  0.00     0.044 C 
ATOM     27  C   UNL A   1      33.571  35.134  30.188  1.00  0.00    -0.051 A 
ATOM     28  C   UNL A   1      33.152  35.096  28.856  1.00  0.00     0.007 A 
ATOM     29  C   UNL A   1      34.323  34.065  30.688  1.00  0.00     0.007 A 
ATOM     30  C   UNL A   1      33.472  34.003  28.049  1.00  0.00     0.047 A 
ATOM     31  C   UNL A   1      34.650  32.971  29.873  1.00  0.00     0.047 A 
ENDBRANCH  24  25
ENDBRANCH  23  24
ENDBRANCH  20  23
ENDBRANCH  16  19
ENDBRANCH  10  15
ENDBRANCH   7   9
ENDBRANCH   6   7
ENDBRANCH   5   6
ENDBRANCH   4   5
ENDBRANCH   3   4
ENDBRANCH   2   3
ENDBRANCH   1   2
BRANCH   1  32
ATOM     32  O   UNL A   1      39.560  24.272  27.251  1.00  0.00    -0.377 OA
BRANCH  32  33
ATOM     33  C   UNL A   1      40.287  25.270  26.557  1.00  0.00     0.188 C 
BRANCH  33  34
ATOM     34  C   UNL A   1      40.191  26.646  27.239  1.00  0.00     0.188 C 
BRANCH  34  35
ATOM     35  O   UNL A   1      39.191  26.832  28.230  1.00  0.00    -0.376 OA
BRANCH  35  36
ATOM     36  C   UNL A   1      39.649  27.093  29.551  1.00  0.00     0.202 C 
BRANCH  36  37
ATOM     37  C   UNL A   1      38.635  27.353  30.718  1.00  0.00     0.261 C 
BRANCH  37  38
ATOM     38  O   UNL A   1      37.723  28.462  30.476  1.00  0.00    -0.460 OA
BRANCH  38  39
ATOM     39  C   UNL A   1      37.618  29.648  31.116  1.00  0.00     0.338 C 
ATOM     40  O   UNL A   1      36.775  29.940  31.953  1.00  0.00    -0.246 OA
BRANCH  39  41
ATOM     41  C   UNL A   1      38.623  30.586  30.462  1.00  0.00     0.060 A 
ATOM     42  C   UNL A   1      39.989  30.365  30.612  1.00  0.00     0.016 A 
ATOM     43  C   UNL A   1      38.241  31.835  29.972  1.00  0.00     0.016 A 
ATOM     44  C   UNL A   1      40.894  31.450  30.612  1.00  0.00     0.010 A 
ATOM     45  C   UNL A   1      39.108  32.931  30.091  1.00  0.00     0.010 A 
ATOM     46  C   UNL A   1      40.424  32.762  30.541  1.00  0.00    -0.014 A 
BRANCH  46  47
ATOM     47  C   UNL A   1      41.091  33.921  31.212  1.00  0.00     0.031 A 
ATOM     48  C   UNL A   1      40.596  34.487  32.542  1.00  0.00     0.074 A 
ATOM     49  C   UNL A   1      42.399  34.132  30.883  1.00  0.00     0.049 A 
ATOM     50  N   UNL A   1      41.253  35.307  33.311  1.00  0.00    -0.248 NA
ATOM     51  C   UNL A   1      39.279  34.182  33.103  1.00  0.00     0.031 C 
ATOM     52  C   UNL A   1      43.411  34.426  31.883  1.00  0.00     0.029 A 
ATOM     53  N   UNL A   1      43.186  33.992  29.735  1.00  0.00    -0.354 N 
ATOM     54  C   UNL A   1      40.616  35.394  34.539  1.00  0.00     0.074 A 
ATOM     55  C   UNL A   1      39.339  34.764  34.310  1.00  0.00     0.031 C 
ATOM     56  C   UNL A   1      44.625  34.480  31.349  1.00  0.00     0.029 A 
ATOM     57  C   UNL A   1      44.440  34.597  29.944  1.00  0.00     0.049 A 
ATOM     58  H   UNL A   1      42.905  33.541  28.907  1.00  0.00     0.167 HD
ATOM     59  C   UNL A   1      41.260  35.884  35.649  1.00  0.00     0.034 A 
ATOM     60  C   UNL A   1      44.974  35.678  29.303  1.00  0.00     0.034 A 
ATOM     61  C   UNL A   1      42.579  36.523  35.355  1.00  0.00     0.049 A 
ATOM     62  C   UNL A   1      45.002  36.974  30.128  1.00  0.00     0.074 A 
ATOM     63  C   UNL A   1      43.829  36.551  35.967  1.00  0.00     0.029 A 
ATOM     64  N   UNL A   1      42.748  37.247  34.176  1.00  0.00    -0.354 N 
ATOM     65  N   UNL A   1      44.899  37.067  31.436  1.00  0.00    -0.248 NA
ATOM     66  C   UNL A   1      45.050  38.291  29.499  1.00  0.00     0.031 C 
ATOM     67  C   UNL A   1      44.732  37.290  35.142  1.00  0.00     0.029 A 
ATOM     68  C   UNL A   1      44.026  37.759  34.052  1.00  0.00     0.049 A 
ATOM     69  H   UNL A   1      42.038  37.378  33.508  1.00  0.00     0.167 HD
ATOM     70  C   UNL A   1      44.656  38.381  31.794  1.00  0.00     0.074 A 
ATOM     71  C   UNL A   1      44.813  39.105  30.542  1.00  0.00     0.031 C 
ATOM     72  C   UNL A   1      44.258  38.790  33.049  1.00  0.00     0.034 A 
BRANCH  59  73
ATOM     73  C   UNL A   1      40.777  35.697  37.108  1.00  0.00     0.023 A 
ATOM     74  C   UNL A   1      40.693  36.851  37.928  1.00  0.00     0.012 A 
ATOM     75  C   UNL A   1      40.502  34.468  37.773  1.00  0.00     0.148 A 
ATOM     76  C   UNL A   1      40.416  36.799  39.303  1.00  0.00     0.002 A 
ATOM     77  C   UNL A   1      40.125  34.427  39.128  1.00  0.00     0.091 A 
ATOM     78  F   UNL A   1      40.686  33.311  37.128  1.00  0.00    -0.205 F 
ATOM     79  C   UNL A   1      40.116  35.587  39.903  1.00  0.00     0.022 A 
BRANCH  77  80
ATOM     80  S   UNL A   1      39.587  32.917  39.964  1.00  0.00     0.127 S 
ATOM     81  O   UNL A   1      40.841  32.184  40.126  1.00  0.00    -0.237 OA
ATOM     82  O   UNL A   1      39.023  33.434  41.211  1.00  0.00    -0.237 OA
ATOM     83  O   UNL A   1      38.612  32.291  39.078  1.00  0.00    -0.744 OA
ENDBRANCH  77  80
ENDBRANCH  59  73
BRANCH  60  84
ATOM     84  C   UNL A   1      45.123  35.460  27.839  1.00  0.00     0.023 A 
ATOM     85  C   UNL A   1      45.189  36.684  27.124  1.00  0.00     0.012 A 
ATOM     86  C   UNL A   1      45.928  34.392  27.433  1.00  0.00     0.148 A 
ATOM     87  C   UNL A   1      46.274  36.943  26.289  1.00  0.00     0.002 A 
ATOM     88  C   UNL A   1      47.031  34.666  26.631  1.00  0.00     0.091 A 
ATOM     89  F   UNL A   1      45.720  33.192  27.990  1.00  0.00    -0.205 F 
ATOM     90  C   UNL A   1      47.235  35.955  26.104  1.00  0.00     0.022 A 
BRANCH  88  91
ATOM     91  S   UNL A   1      48.406  33.513  26.569  1.00  0.00     0.127 S 
ATOM     92  O   UNL A   1      48.948  33.601  27.919  1.00  0.00    -0.237 OA
ATOM     93  O   UNL A   1      47.732  32.258  26.249  1.00  0.00    -0.237 OA
ATOM     94  O   UNL A   1      49.254  34.014  25.495  1.00  0.00    -0.744 OA
ENDBRANCH  88  91
ENDBRANCH  60  84
BRANCH  72  95
ATOM     95  C   UNL A   1      43.914  40.232  33.465  1.00  0.00     0.023 A 
ATOM     96  C   UNL A   1      42.673  40.824  33.174  1.00  0.00     0.012 A 
ATOM     97  C   UNL A   1      44.860  41.075  34.131  1.00  0.00     0.148 A 
ATOM     98  C   UNL A   1      42.320  42.090  33.665  1.00  0.00     0.002 A 
ATOM     99  C   UNL A   1      44.524  42.351  34.577  1.00  0.00     0.091 A 
ATOM    100  F   UNL A   1      46.113  40.658  34.324  1.00  0.00    -0.205 F 
ATOM    101  C   UNL A   1      43.235  42.844  34.386  1.00  0.00     0.022 A 
BRANCH  99 102
ATOM    102  S   UNL A   1      45.706  43.451  35.380  1.00  0.00     0.127 S 
ATOM    103  O   UNL A   1      45.272  44.759  34.887  1.00  0.00    -0.237 OA
ATOM    104  O   UNL A   1      45.424  43.208  36.794  1.00  0.00    -0.237 OA
ATOM    105  O   UNL A   1      47.029  43.041  34.930  1.00  0.00    -0.744 OA
ENDBRANCH  99 102
ENDBRANCH  72  95
ENDBRANCH  46  47
ENDBRANCH  39  41
ENDBRANCH  38  39
ENDBRANCH  37  38
ENDBRANCH  36  37
ENDBRANCH  35  36
ENDBRANCH  34  35
ENDBRANCH  33  34
ENDBRANCH  32  33
ENDBRANCH   1  32
TORSDOF 28
ENDMDL
