MODEL 1
REMARK VINA RESULT:      -8.4      0.000      0.000
REMARK SMILES O=C(OCCOCCOCCOCCOC(=O)C1CC[NH+]([C@H]2CC(=O)N(c3ccc4c(c3)OCCO4)C2=O)CC1)c1ccc(-c2c3nc(c(-c4cccc(S(=O)(=O)[O-])c4F)c4ccc([nH]4)c(-c4cccc(S(=O)(=O)[O-])c4F)c4nc(c(-c5cccc(S(=O)(=O)[O-])c5F)c5ccc2[nH]5)C=C4)C=C3)cc1
REMARK SMILES IDX 8 1 7 2 6 3 5 4 4 5 3 6 2 7 1 8 41 9 42 10 103 11 43 12
REMARK SMILES IDX 102 13 44 14 45 15 46 16 96 17 47 18 101 19 95 20 97 21
REMARK SMILES IDX 48 22 100 23 94 24 93 25 49 27 81 28 61 29 80 30 62 31 65 32
REMARK SMILES IDX 79 33 98 34 63 35 64 36 78 38 99 39 66 40 50 41 51 42 59 43
REMARK SMILES IDX 52 44 54 45 60 46 53 47 55 48 56 49 57 50 58 51 82 52 83 53
REMARK SMILES IDX 91 54 84 55 86 56 92 57 85 58 87 59 88 60 89 61 90 62 67 63
REMARK SMILES IDX 68 64 76 65 69 66 71 67 77 68 70 69 72 70 73 71 74 72 75 73
REMARK SMILES IDX 9 74 10 75 11 76 12 77 13 78 14 79 15 80 16 81 17 82 18 83
REMARK SMILES IDX 19 84 40 85 20 86 39 87 21 88 22 90 23 91 37 92 24 93 26 94
REMARK SMILES IDX 38 95 25 96 27 97 28 98 32 99 29 100 31 101 30 102 33 103
REMARK SMILES IDX 36 104 34 105 35 106
REMARK H PARENT 97 26 65 37 21 89
REMARK Flexibility Score: inf
ROOT
ATOM      1  C   UNL A   1      33.137  25.713  25.712  1.00  0.00     0.188 C 
ENDROOT
BRANCH   1   2
ATOM      2  C   UNL A   1      32.441  26.919  25.069  1.00  0.00     0.188 C 
BRANCH   2   3
ATOM      3  O   UNL A   1      32.308  28.010  25.973  1.00  0.00    -0.376 OA
BRANCH   3   4
ATOM      4  C   UNL A   1      33.071  29.193  25.762  1.00  0.00     0.202 C 
BRANCH   4   5
ATOM      5  C   UNL A   1      32.634  30.417  26.544  1.00  0.00     0.261 C 
BRANCH   5   6
ATOM      6  O   UNL A   1      33.653  31.039  27.334  1.00  0.00    -0.460 OA
BRANCH   6   7
ATOM      7  C   UNL A   1      33.692  32.237  27.953  1.00  0.00     0.338 C 
ATOM      8  O   UNL A   1      32.816  33.053  27.663  1.00  0.00    -0.246 OA
BRANCH   7   9
ATOM      9  C   UNL A   1      34.680  32.638  28.996  1.00  0.00     0.060 A 
ATOM     10  C   UNL A   1      34.761  33.876  29.636  1.00  0.00     0.016 A 
ATOM     11  C   UNL A   1      35.532  31.617  29.443  1.00  0.00     0.016 A 
ATOM     12  C   UNL A   1      35.677  34.132  30.638  1.00  0.00     0.010 A 
ATOM     13  C   UNL A   1      36.462  31.854  30.452  1.00  0.00     0.010 A 
ATOM     14  C   UNL A   1      36.552  33.130  31.018  1.00  0.00    -0.014 A 
BRANCH  14  15
ATOM     15  C   UNL A   1      37.718  33.532  31.802  1.00  0.00     0.031 A 
ATOM     16  C   UNL A   1      38.900  34.013  31.030  1.00  0.00     0.074 A 
ATOM     17  C   UNL A   1      37.658  33.559  33.141  1.00  0.00     0.049 A 
ATOM     18  N   UNL A   1      40.112  34.241  31.432  1.00  0.00    -0.248 NA
ATOM     19  C   UNL A   1      38.677  34.273  29.593  1.00  0.00     0.031 C 
ATOM     20  C   UNL A   1      36.466  33.264  33.939  1.00  0.00     0.029 A 
ATOM     21  N   UNL A   1      38.628  33.831  34.062  1.00  0.00    -0.354 N 
ATOM     22  C   UNL A   1      40.822  34.569  30.285  1.00  0.00     0.074 A 
ATOM     23  C   UNL A   1      39.898  34.558  29.178  1.00  0.00     0.031 C 
ATOM     24  C   UNL A   1      36.791  33.323  35.240  1.00  0.00     0.029 A 
ATOM     25  C   UNL A   1      38.223  33.568  35.348  1.00  0.00     0.049 A 
ATOM     26  H   UNL A   1      39.519  34.178  33.830  1.00  0.00     0.167 HD
ATOM     27  C   UNL A   1      42.144  34.821  30.184  1.00  0.00     0.034 A 
ATOM     28  C   UNL A   1      38.965  33.449  36.463  1.00  0.00     0.034 A 
ATOM     29  C   UNL A   1      43.006  34.809  31.329  1.00  0.00     0.049 A 
ATOM     30  C   UNL A   1      40.447  33.665  36.328  1.00  0.00     0.074 A 
ATOM     31  C   UNL A   1      44.367  35.015  31.393  1.00  0.00     0.029 A 
ATOM     32  N   UNL A   1      42.568  34.555  32.625  1.00  0.00    -0.354 N 
ATOM     33  N   UNL A   1      41.138  33.949  35.247  1.00  0.00    -0.248 NA
ATOM     34  C   UNL A   1      41.251  33.560  37.548  1.00  0.00     0.031 C 
ATOM     35  C   UNL A   1      44.759  34.837  32.725  1.00  0.00     0.029 A 
ATOM     36  C   UNL A   1      43.633  34.584  33.499  1.00  0.00     0.049 A 
ATOM     37  H   UNL A   1      41.634  34.379  32.881  1.00  0.00     0.167 HD
ATOM     38  C   UNL A   1      42.454  34.096  35.659  1.00  0.00     0.074 A 
ATOM     39  C   UNL A   1      42.461  33.865  37.092  1.00  0.00     0.031 C 
ATOM     40  C   UNL A   1      43.558  34.394  34.929  1.00  0.00     0.034 A 
BRANCH  27  41
ATOM     41  C   UNL A   1      42.699  35.013  28.800  1.00  0.00     0.023 A 
ATOM     42  C   UNL A   1      42.512  36.228  28.108  1.00  0.00     0.012 A 
ATOM     43  C   UNL A   1      43.344  33.943  28.150  1.00  0.00     0.148 A 
ATOM     44  C   UNL A   1      42.901  36.351  26.772  1.00  0.00     0.002 A 
ATOM     45  C   UNL A   1      43.778  34.091  26.840  1.00  0.00     0.091 A 
ATOM     46  F   UNL A   1      43.479  32.783  28.808  1.00  0.00    -0.205 F 
ATOM     47  C   UNL A   1      43.539  35.286  26.142  1.00  0.00     0.022 A 
BRANCH  45  48
ATOM     48  S   UNL A   1      44.671  32.801  25.968  1.00  0.00     0.127 S 
ATOM     49  O   UNL A   1      46.001  32.906  26.567  1.00  0.00    -0.237 OA
ATOM     50  O   UNL A   1      43.924  31.603  26.351  1.00  0.00    -0.237 OA
ATOM     51  O   UNL A   1      44.592  33.140  24.555  1.00  0.00    -0.744 OA
ENDBRANCH  45  48
ENDBRANCH  27  41
BRANCH  28  52
ATOM     52  C   UNL A   1      38.313  33.070  37.746  1.00  0.00     0.023 A 
ATOM     53  C   UNL A   1      37.697  31.813  37.876  1.00  0.00     0.012 A 
ATOM     54  C   UNL A   1      38.383  33.921  38.871  1.00  0.00     0.148 A 
ATOM     55  C   UNL A   1      37.151  31.413  39.098  1.00  0.00     0.002 A 
ATOM     56  C   UNL A   1      37.888  33.494  40.096  1.00  0.00     0.091 A 
ATOM     57  F   UNL A   1      38.972  35.115  38.726  1.00  0.00    -0.205 F 
ATOM     58  C   UNL A   1      37.257  32.246  40.209  1.00  0.00     0.022 A 
BRANCH  56  59
ATOM     59  S   UNL A   1      38.098  34.440  41.610  1.00  0.00     0.127 S 
ATOM     60  O   UNL A   1      39.528  34.284  41.864  1.00  0.00    -0.237 OA
ATOM     61  O   UNL A   1      37.689  35.779  41.185  1.00  0.00    -0.237 OA
ATOM     62  O   UNL A   1      37.216  33.823  42.591  1.00  0.00    -0.744 OA
ENDBRANCH  56  59
ENDBRANCH  28  52
BRANCH  40  63
ATOM     63  C   UNL A   1      44.849  34.569  35.674  1.00  0.00     0.023 A 
ATOM     64  C   UNL A   1      45.225  35.837  36.154  1.00  0.00     0.012 A 
ATOM     65  C   UNL A   1      45.600  33.431  36.024  1.00  0.00     0.148 A 
ATOM     66  C   UNL A   1      46.344  35.968  36.972  1.00  0.00     0.002 A 
ATOM     67  C   UNL A   1      46.674  33.562  36.888  1.00  0.00     0.091 A 
ATOM     68  F   UNL A   1      45.221  32.242  35.533  1.00  0.00    -0.205 F 
ATOM     69  C   UNL A   1      47.054  34.831  37.355  1.00  0.00     0.022 A 
BRANCH  67  70
ATOM     70  S   UNL A   1      47.561  32.141  37.531  1.00  0.00     0.127 S 
ATOM     71  O   UNL A   1      46.469  31.210  37.807  1.00  0.00    -0.237 OA
ATOM     72  O   UNL A   1      48.410  31.772  36.398  1.00  0.00    -0.237 OA
ATOM     73  O   UNL A   1      48.286  32.612  38.704  1.00  0.00    -0.744 OA
ENDBRANCH  67  70
ENDBRANCH  40  63
ENDBRANCH  14  15
ENDBRANCH   7   9
ENDBRANCH   6   7
ENDBRANCH   5   6
ENDBRANCH   4   5
ENDBRANCH   3   4
ENDBRANCH   2   3
ENDBRANCH   1   2
BRANCH   1  74
ATOM     74  O   UNL A   1      34.320  25.259  25.051  1.00  0.00    -0.377 OA
BRANCH  74  75
ATOM     75  C   UNL A   1      34.402  23.853  24.851  1.00  0.00     0.188 C 
BRANCH  75  76
ATOM     76  C   UNL A   1      35.653  23.081  25.340  1.00  0.00     0.188 C 
BRANCH  76  77
ATOM     77  O   UNL A   1      36.819  23.869  25.541  1.00  0.00    -0.376 OA
BRANCH  77  78
ATOM     78  C   UNL A   1      37.840  23.242  26.321  1.00  0.00     0.202 C 
BRANCH  78  79
ATOM     79  C   UNL A   1      39.148  24.044  26.473  1.00  0.00     0.261 C 
BRANCH  79  80
ATOM     80  O   UNL A   1      38.991  25.293  27.167  1.00  0.00    -0.463 OA
BRANCH  80  81
ATOM     81  C   UNL A   1      39.970  26.223  27.070  1.00  0.00     0.309 C 
ATOM     82  O   UNL A   1      40.819  26.273  26.185  1.00  0.00    -0.252 OA
BRANCH  81  83
ATOM     83  C   UNL A   1      39.767  27.290  28.135  1.00  0.00     0.110 C 
ATOM     84  C   UNL A   1      39.716  28.682  27.473  1.00  0.00     0.077 C 
ATOM     85  C   UNL A   1      40.739  27.185  29.296  1.00  0.00     0.077 C 
ATOM     86  C   UNL A   1      41.078  29.336  27.321  1.00  0.00     0.263 C 
ATOM     87  C   UNL A   1      42.051  27.882  28.992  1.00  0.00     0.263 C 
ATOM     88  N   UNL A   1      41.891  29.261  28.529  1.00  0.00    -0.324 N 
ATOM     89  H   UNL A   1      42.849  29.515  28.290  1.00  0.00     0.348 HD
BRANCH  88  90
ATOM     90  C   UNL A   1      41.647  30.336  29.508  1.00  0.00     0.284 C 
ATOM     91  C   UNL A   1      40.227  30.712  29.905  1.00  0.00     0.176 C 
ATOM     92  C   UNL A   1      42.308  30.028  30.842  1.00  0.00     0.292 C 
ATOM     93  C   UNL A   1      40.075  30.209  31.300  1.00  0.00     0.240 C 
ATOM     94  N   UNL A   1      41.309  29.844  31.771  1.00  0.00    -0.245 N 
ATOM     95  O   UNL A   1      43.517  29.901  31.004  1.00  0.00    -0.267 OA
ATOM     96  O   UNL A   1      39.009  30.242  31.896  1.00  0.00    -0.274 OA
BRANCH  94  97
ATOM     97  C   UNL A   1      41.519  29.387  33.085  1.00  0.00     0.056 A 
ATOM     98  C   UNL A   1      41.563  30.295  34.149  1.00  0.00     0.031 A 
ATOM     99  C   UNL A   1      41.668  28.018  33.339  1.00  0.00     0.077 A 
ATOM    100  C   UNL A   1      41.706  29.837  35.457  1.00  0.00     0.052 A 
ATOM    101  C   UNL A   1      41.857  27.567  34.641  1.00  0.00     0.163 A 
ATOM    102  C   UNL A   1      41.869  28.477  35.701  1.00  0.00     0.161 A 
ATOM    103  O   UNL A   1      42.045  26.219  34.800  1.00  0.00    -0.486 OA
ATOM    104  O   UNL A   1      42.028  28.104  37.009  1.00  0.00    -0.486 OA
ATOM    105  C   UNL A   1      41.882  25.826  36.166  1.00  0.00     0.271 C 
ATOM    106  C   UNL A   1      42.590  26.792  37.103  1.00  0.00     0.271 C 
ENDBRANCH  94  97
ENDBRANCH  88  90
ENDBRANCH  81  83
ENDBRANCH  80  81
ENDBRANCH  79  80
ENDBRANCH  78  79
ENDBRANCH  77  78
ENDBRANCH  76  77
ENDBRANCH  75  76
ENDBRANCH  74  75
ENDBRANCH   1  74
TORSDOF 25
ENDMDL
MODEL 2
REMARK VINA RESULT:      -8.3      4.121      8.377
REMARK SMILES O=C(OCCOCCOCCOCCOC(=O)C1CC[NH+]([C@H]2CC(=O)N(c3ccc4c(c3)OCCO4)C2=O)CC1)c1ccc(-c2c3nc(c(-c4cccc(S(=O)(=O)[O-])c4F)c4ccc([nH]4)c(-c4cccc(S(=O)(=O)[O-])c4F)c4nc(c(-c5cccc(S(=O)(=O)[O-])c5F)c5ccc2[nH]5)C=C4)C=C3)cc1
REMARK SMILES IDX 8 1 7 2 6 3 5 4 4 5 3 6 2 7 1 8 41 9 42 10 103 11 43 12
REMARK SMILES IDX 102 13 44 14 45 15 46 16 96 17 47 18 101 19 95 20 97 21
REMARK SMILES IDX 48 22 100 23 94 24 93 25 49 27 81 28 61 29 80 30 62 31 65 32
REMARK SMILES IDX 79 33 98 34 63 35 64 36 78 38 99 39 66 40 50 41 51 42 59 43
REMARK SMILES IDX 52 44 54 45 60 46 53 47 55 48 56 49 57 50 58 51 82 52 83 53
REMARK SMILES IDX 91 54 84 55 86 56 92 57 85 58 87 59 88 60 89 61 90 62 67 63
REMARK SMILES IDX 68 64 76 65 69 66 71 67 77 68 70 69 72 70 73 71 74 72 75 73
REMARK SMILES IDX 9 74 10 75 11 76 12 77 13 78 14 79 15 80 16 81 17 82 18 83
REMARK SMILES IDX 19 84 40 85 20 86 39 87 21 88 22 90 23 91 37 92 24 93 26 94
REMARK SMILES IDX 38 95 25 96 27 97 28 98 32 99 29 100 31 101 30 102 33 103
REMARK SMILES IDX 36 104 34 105 35 106
REMARK H PARENT 97 26 65 37 21 89
REMARK Flexibility Score: inf
ROOT
ATOM      1  C   UNL A   1      42.218  28.524  27.527  1.00  0.00     0.188 C 
ENDROOT
BRANCH   1   2
ATOM      2  C   UNL A   1      41.786  28.947  28.937  1.00  0.00     0.188 C 
BRANCH   2   3
ATOM      3  O   UNL A   1      40.420  28.647  29.195  1.00  0.00    -0.376 OA
BRANCH   3   4
ATOM      4  C   UNL A   1      39.944  27.319  29.001  1.00  0.00     0.202 C 
BRANCH   4   5
ATOM      5  C   UNL A   1      38.929  26.821  30.012  1.00  0.00     0.261 C 
BRANCH   5   6
ATOM      6  O   UNL A   1      38.278  27.838  30.782  1.00  0.00    -0.460 OA
BRANCH   6   7
ATOM      7  C   UNL A   1      38.433  28.216  32.068  1.00  0.00     0.338 C 
ATOM      8  O   UNL A   1      38.143  27.394  32.939  1.00  0.00    -0.246 OA
BRANCH   7   9
ATOM      9  C   UNL A   1      38.970  29.531  32.522  1.00  0.00     0.060 A 
ATOM     10  C   UNL A   1      38.251  30.718  32.677  1.00  0.00     0.016 A 
ATOM     11  C   UNL A   1      40.311  29.524  32.935  1.00  0.00     0.016 A 
ATOM     12  C   UNL A   1      38.829  31.874  33.165  1.00  0.00     0.010 A 
ATOM     13  C   UNL A   1      40.911  30.678  33.430  1.00  0.00     0.010 A 
ATOM     14  C   UNL A   1      40.169  31.862  33.506  1.00  0.00    -0.014 A 
BRANCH  14  15
ATOM     15  C   UNL A   1      40.823  33.158  33.668  1.00  0.00     0.031 A 
ATOM     16  C   UNL A   1      41.321  33.808  32.421  1.00  0.00     0.074 A 
ATOM     17  C   UNL A   1      40.859  33.753  34.869  1.00  0.00     0.049 A 
ATOM     18  N   UNL A   1      42.098  34.839  32.281  1.00  0.00    -0.248 NA
ATOM     19  C   UNL A   1      40.877  33.203  31.150  1.00  0.00     0.031 C 
ATOM     20  C   UNL A   1      40.231  33.237  36.087  1.00  0.00     0.029 A 
ATOM     21  N   UNL A   1      41.463  34.912  35.261  1.00  0.00    -0.354 N 
ATOM     22  C   UNL A   1      42.320  34.944  30.915  1.00  0.00     0.074 A 
ATOM     23  C   UNL A   1      41.562  33.905  30.264  1.00  0.00     0.031 C 
ATOM     24  C   UNL A   1      40.528  34.055  37.108  1.00  0.00     0.029 A 
ATOM     25  C   UNL A   1      41.434  35.089  36.623  1.00  0.00     0.049 A 
ATOM     26  H   UNL A   1      41.876  35.552  34.636  1.00  0.00     0.167 HD
ATOM     27  C   UNL A   1      43.125  35.824  30.282  1.00  0.00     0.034 A 
ATOM     28  C   UNL A   1      42.144  35.939  37.384  1.00  0.00     0.034 A 
ATOM     29  C   UNL A   1      43.856  36.829  30.995  1.00  0.00     0.049 A 
ATOM     30  C   UNL A   1      43.089  36.870  36.675  1.00  0.00     0.074 A 
ATOM     31  C   UNL A   1      44.732  37.775  30.508  1.00  0.00     0.029 A 
ATOM     32  N   UNL A   1      43.796  36.998  32.375  1.00  0.00    -0.354 N 
ATOM     33  N   UNL A   1      43.333  36.965  35.386  1.00  0.00    -0.248 NA
ATOM     34  C   UNL A   1      43.845  37.813  37.503  1.00  0.00     0.031 C 
ATOM     35  C   UNL A   1      45.239  38.484  31.603  1.00  0.00     0.029 A 
ATOM     36  C   UNL A   1      44.630  38.023  32.764  1.00  0.00     0.049 A 
ATOM     37  H   UNL A   1      43.240  36.462  32.985  1.00  0.00     0.167 HD
ATOM     38  C   UNL A   1      44.240  38.003  35.242  1.00  0.00     0.074 A 
ATOM     39  C   UNL A   1      44.504  38.503  36.579  1.00  0.00     0.031 C 
ATOM     40  C   UNL A   1      44.806  38.503  34.115  1.00  0.00     0.034 A 
BRANCH  27  41
ATOM     41  C   UNL A   1      43.306  35.639  28.800  1.00  0.00     0.023 A 
ATOM     42  C   UNL A   1      42.517  36.360  27.880  1.00  0.00     0.012 A 
ATOM     43  C   UNL A   1      44.217  34.678  28.321  1.00  0.00     0.148 A 
ATOM     44  C   UNL A   1      42.588  36.081  26.513  1.00  0.00     0.002 A 
ATOM     45  C   UNL A   1      44.322  34.445  26.957  1.00  0.00     0.091 A 
ATOM     46  F   UNL A   1      44.931  33.974  29.211  1.00  0.00    -0.205 F 
ATOM     47  C   UNL A   1      43.493  35.129  26.053  1.00  0.00     0.022 A 
BRANCH  45  48
ATOM     48  S   UNL A   1      45.508  33.290  26.264  1.00  0.00     0.127 S 
ATOM     49  O   UNL A   1      44.651  32.156  25.920  1.00  0.00    -0.237 OA
ATOM     50  O   UNL A   1      46.024  34.035  25.116  1.00  0.00    -0.237 OA
ATOM     51  O   UNL A   1      46.486  33.039  27.313  1.00  0.00    -0.744 OA
ENDBRANCH  45  48
ENDBRANCH  27  41
BRANCH  28  52
ATOM     52  C   UNL A   1      42.008  35.894  38.865  1.00  0.00     0.023 A 
ATOM     53  C   UNL A   1      42.862  35.075  39.624  1.00  0.00     0.012 A 
ATOM     54  C   UNL A   1      41.091  36.735  39.532  1.00  0.00     0.148 A 
ATOM     55  C   UNL A   1      42.798  35.082  41.020  1.00  0.00     0.002 A 
ATOM     56  C   UNL A   1      41.071  36.779  40.920  1.00  0.00     0.091 A 
ATOM     57  F   UNL A   1      40.285  37.507  38.791  1.00  0.00    -0.205 F 
ATOM     58  C   UNL A   1      41.913  35.941  41.667  1.00  0.00     0.022 A 
BRANCH  56  59
ATOM     59  S   UNL A   1      40.062  37.948  41.840  1.00  0.00     0.127 S 
ATOM     60  O   UNL A   1      39.708  37.170  43.024  1.00  0.00    -0.237 OA
ATOM     61  O   UNL A   1      41.009  39.038  42.077  1.00  0.00    -0.237 OA
ATOM     62  O   UNL A   1      38.953  38.293  40.961  1.00  0.00    -0.744 OA
ENDBRANCH  56  59
ENDBRANCH  28  52
BRANCH  40  63
ATOM     63  C   UNL A   1      45.701  39.698  34.265  1.00  0.00     0.023 A 
ATOM     64  C   UNL A   1      47.096  39.535  34.350  1.00  0.00     0.012 A 
ATOM     65  C   UNL A   1      45.146  40.988  34.162  1.00  0.00     0.148 A 
ATOM     66  C   UNL A   1      47.929  40.651  34.337  1.00  0.00     0.002 A 
ATOM     67  C   UNL A   1      45.984  42.087  34.087  1.00  0.00     0.091 A 
ATOM     68  F   UNL A   1      43.811  41.105  34.101  1.00  0.00    -0.205 F 
ATOM     69  C   UNL A   1      47.376  41.922  34.185  1.00  0.00     0.022 A 
BRANCH  67  70
ATOM     70  S   UNL A   1      45.366  43.740  33.764  1.00  0.00     0.127 S 
ATOM     71  O   UNL A   1      44.809  43.591  32.422  1.00  0.00    -0.237 OA
ATOM     72  O   UNL A   1      44.373  43.908  34.825  1.00  0.00    -0.237 OA
ATOM     73  O   UNL A   1      46.515  44.630  33.863  1.00  0.00    -0.744 OA
ENDBRANCH  67  70
ENDBRANCH  40  63
ENDBRANCH  14  15
ENDBRANCH   7   9
ENDBRANCH   6   7
ENDBRANCH   5   6
ENDBRANCH   4   5
ENDBRANCH   3   4
ENDBRANCH   2   3
ENDBRANCH   1   2
BRANCH   1  74
ATOM     74  O   UNL A   1      42.639  27.165  27.393  1.00  0.00    -0.377 OA
BRANCH  74  75
ATOM     75  C   UNL A   1      42.426  26.586  26.111  1.00  0.00     0.188 C 
BRANCH  75  76
ATOM     76  C   UNL A   1      41.720  25.212  25.998  1.00  0.00     0.188 C 
BRANCH  76  77
ATOM     77  O   UNL A   1      41.445  24.562  27.232  1.00  0.00    -0.376 OA
BRANCH  77  78
ATOM     78  C   UNL A   1      40.350  23.643  27.195  1.00  0.00     0.202 C 
BRANCH  78  79
ATOM     79  C   UNL A   1      38.947  24.279  27.207  1.00  0.00     0.261 C 
BRANCH  79  80
ATOM     80  O   UNL A   1      38.225  24.127  25.973  1.00  0.00    -0.463 OA
BRANCH  80  81
ATOM     81  C   UNL A   1      37.542  22.979  25.751  1.00  0.00     0.309 C 
ATOM     82  O   UNL A   1      38.042  21.904  25.432  1.00  0.00    -0.252 OA
BRANCH  81  83
ATOM     83  C   UNL A   1      36.077  23.180  26.107  1.00  0.00     0.110 C 
ATOM     84  C   UNL A   1      35.322  21.843  25.971  1.00  0.00     0.077 C 
ATOM     85  C   UNL A   1      35.427  24.343  25.380  1.00  0.00     0.077 C 
ATOM     86  C   UNL A   1      34.771  21.592  24.579  1.00  0.00     0.263 C 
ATOM     87  C   UNL A   1      34.932  23.936  24.006  1.00  0.00     0.263 C 
ATOM     88  N   UNL A   1      34.081  22.746  24.015  1.00  0.00    -0.324 N 
ATOM     89  H   UNL A   1      33.938  22.582  23.019  1.00  0.00     0.348 HD
BRANCH  88  90
ATOM     90  C   UNL A   1      32.662  22.866  24.394  1.00  0.00     0.284 C 
ATOM     91  C   UNL A   1      32.268  23.118  25.842  1.00  0.00     0.176 C 
ATOM     92  C   UNL A   1      31.985  24.006  23.649  1.00  0.00     0.292 C 
ATOM     93  C   UNL A   1      31.787  24.529  25.867  1.00  0.00     0.240 C 
ATOM     94  N   UNL A   1      31.642  24.965  24.576  1.00  0.00    -0.245 N 
ATOM     95  O   UNL A   1      31.857  24.058  22.431  1.00  0.00    -0.267 OA
ATOM     96  O   UNL A   1      31.493  25.104  26.905  1.00  0.00    -0.274 OA
BRANCH  94  97
ATOM     97  C   UNL A   1      31.139  26.238  24.253  1.00  0.00     0.056 A 
ATOM     98  C   UNL A   1      31.990  27.350  24.236  1.00  0.00     0.031 A 
ATOM     99  C   UNL A   1      29.786  26.400  23.928  1.00  0.00     0.077 A 
ATOM    100  C   UNL A   1      31.506  28.599  23.853  1.00  0.00     0.052 A 
ATOM    101  C   UNL A   1      29.296  27.656  23.591  1.00  0.00     0.163 A 
ATOM    102  C   UNL A   1      30.158  28.755  23.547  1.00  0.00     0.161 A 
ATOM    103  O   UNL A   1      27.952  27.740  23.336  1.00  0.00    -0.486 OA
ATOM    104  O   UNL A   1      29.750  30.016  23.202  1.00  0.00    -0.486 OA
ATOM    105  C   UNL A   1      27.620  28.964  22.674  1.00  0.00     0.271 C 
ATOM    106  C   UNL A   1      28.331  30.145  23.318  1.00  0.00     0.271 C 
ENDBRANCH  94  97
ENDBRANCH  88  90
ENDBRANCH  81  83
ENDBRANCH  80  81
ENDBRANCH  79  80
ENDBRANCH  78  79
ENDBRANCH  77  78
ENDBRANCH  76  77
ENDBRANCH  75  76
ENDBRANCH  74  75
ENDBRANCH   1  74
TORSDOF 25
ENDMDL
MODEL 3
REMARK VINA RESULT:      -8.3      4.376      8.626
REMARK SMILES O=C(OCCOCCOCCOCCOC(=O)C1CC[NH+]([C@H]2CC(=O)N(c3ccc4c(c3)OCCO4)C2=O)CC1)c1ccc(-c2c3nc(c(-c4cccc(S(=O)(=O)[O-])c4F)c4ccc([nH]4)c(-c4cccc(S(=O)(=O)[O-])c4F)c4nc(c(-c5cccc(S(=O)(=O)[O-])c5F)c5ccc2[nH]5)C=C4)C=C3)cc1
REMARK SMILES IDX 8 1 7 2 6 3 5 4 4 5 3 6 2 7 1 8 41 9 42 10 103 11 43 12
REMARK SMILES IDX 102 13 44 14 45 15 46 16 96 17 47 18 101 19 95 20 97 21
REMARK SMILES IDX 48 22 100 23 94 24 93 25 49 27 81 28 61 29 80 30 62 31 65 32
REMARK SMILES IDX 79 33 98 34 63 35 64 36 78 38 99 39 66 40 50 41 51 42 59 43
REMARK SMILES IDX 52 44 54 45 60 46 53 47 55 48 56 49 57 50 58 51 82 52 83 53
REMARK SMILES IDX 91 54 84 55 86 56 92 57 85 58 87 59 88 60 89 61 90 62 67 63
REMARK SMILES IDX 68 64 76 65 69 66 71 67 77 68 70 69 72 70 73 71 74 72 75 73
REMARK SMILES IDX 9 74 10 75 11 76 12 77 13 78 14 79 15 80 16 81 17 82 18 83
REMARK SMILES IDX 19 84 40 85 20 86 39 87 21 88 22 90 23 91 37 92 24 93 26 94
REMARK SMILES IDX 38 95 25 96 27 97 28 98 32 99 29 100 31 101 30 102 33 103
REMARK SMILES IDX 36 104 34 105 35 106
REMARK H PARENT 97 26 65 37 21 89
REMARK Flexibility Score: inf
ROOT
ATOM      1  C   UNL A   1      36.040  33.972  29.006  1.00  0.00     0.188 C 
ENDROOT
BRANCH   1   2
ATOM      2  C   UNL A   1      34.553  34.139  29.344  1.00  0.00     0.188 C 
BRANCH   2   3
ATOM      3  O   UNL A   1      34.327  34.235  30.745  1.00  0.00    -0.376 OA
BRANCH   3   4
ATOM      4  C   UNL A   1      35.432  34.420  31.624  1.00  0.00     0.202 C 
BRANCH   4   5
ATOM      5  C   UNL A   1      35.150  35.196  32.896  1.00  0.00     0.261 C 
BRANCH   5   6
ATOM      6  O   UNL A   1      36.048  34.943  33.982  1.00  0.00    -0.460 OA
BRANCH   6   7
ATOM      7  C   UNL A   1      36.584  33.794  34.445  1.00  0.00     0.338 C 
ATOM      8  O   UNL A   1      35.900  33.122  35.218  1.00  0.00    -0.246 OA
BRANCH   7   9
ATOM      9  C   UNL A   1      37.917  33.248  34.061  1.00  0.00     0.060 A 
ATOM     10  C   UNL A   1      39.139  33.517  34.682  1.00  0.00     0.016 A 
ATOM     11  C   UNL A   1      37.903  32.284  33.042  1.00  0.00     0.016 A 
ATOM     12  C   UNL A   1      40.317  32.911  34.288  1.00  0.00     0.010 A 
ATOM     13  C   UNL A   1      39.079  31.661  32.632  1.00  0.00     0.010 A 
ATOM     14  C   UNL A   1      40.290  32.011  33.239  1.00  0.00    -0.014 A 
BRANCH  14  15
ATOM     15  C   UNL A   1      41.572  31.672  32.624  1.00  0.00     0.031 A 
ATOM     16  C   UNL A   1      42.124  32.664  31.657  1.00  0.00     0.074 A 
ATOM     17  C   UNL A   1      42.241  30.578  33.012  1.00  0.00     0.049 A 
ATOM     18  N   UNL A   1      43.117  32.546  30.829  1.00  0.00    -0.248 NA
ATOM     19  C   UNL A   1      41.454  33.980  31.619  1.00  0.00     0.031 C 
ATOM     20  C   UNL A   1      41.825  29.668  34.082  1.00  0.00     0.029 A 
ATOM     21  N   UNL A   1      43.402  30.040  32.538  1.00  0.00    -0.354 N 
ATOM     22  C   UNL A   1      43.127  33.728  30.101  1.00  0.00     0.074 A 
ATOM     23  C   UNL A   1      42.073  34.570  30.612  1.00  0.00     0.031 C 
ATOM     24  C   UNL A   1      42.697  28.650  34.149  1.00  0.00     0.029 A 
ATOM     25  C   UNL A   1      43.667  28.801  33.071  1.00  0.00     0.049 A 
ATOM     26  H   UNL A   1      43.986  30.489  31.885  1.00  0.00     0.167 HD
ATOM     27  C   UNL A   1      43.936  34.047  29.069  1.00  0.00     0.034 A 
ATOM     28  C   UNL A   1      44.540  27.867  32.655  1.00  0.00     0.034 A 
ATOM     29  C   UNL A   1      44.961  33.157  28.608  1.00  0.00     0.049 A 
ATOM     30  C   UNL A   1      45.391  28.206  31.462  1.00  0.00     0.074 A 
ATOM     31  C   UNL A   1      45.844  33.317  27.561  1.00  0.00     0.029 A 
ATOM     32  N   UNL A   1      45.219  31.913  29.176  1.00  0.00    -0.354 N 
ATOM     33  N   UNL A   1      45.395  29.307  30.745  1.00  0.00    -0.248 NA
ATOM     34  C   UNL A   1      46.359  27.197  31.025  1.00  0.00     0.031 C 
ATOM     35  C   UNL A   1      46.604  32.146  27.468  1.00  0.00     0.029 A 
ATOM     36  C   UNL A   1      46.239  31.284  28.495  1.00  0.00     0.049 A 
ATOM     37  H   UNL A   1      44.742  31.537  29.950  1.00  0.00     0.167 HD
ATOM     38  C   UNL A   1      46.391  29.144  29.794  1.00  0.00     0.074 A 
ATOM     39  C   UNL A   1      46.966  27.831  30.028  1.00  0.00     0.031 C 
ATOM     40  C   UNL A   1      46.798  29.992  28.817  1.00  0.00     0.034 A 
BRANCH  27  41
ATOM     41  C   UNL A   1      43.652  35.337  28.351  1.00  0.00     0.023 A 
ATOM     42  C   UNL A   1      42.775  35.372  27.247  1.00  0.00     0.012 A 
ATOM     43  C   UNL A   1      44.328  36.513  28.731  1.00  0.00     0.148 A 
ATOM     44  C   UNL A   1      42.626  36.540  26.496  1.00  0.00     0.002 A 
ATOM     45  C   UNL A   1      44.132  37.685  28.012  1.00  0.00     0.091 A 
ATOM     46  F   UNL A   1      45.187  36.453  29.758  1.00  0.00    -0.205 F 
ATOM     47  C   UNL A   1      43.299  37.696  26.882  1.00  0.00     0.022 A 
BRANCH  45  48
ATOM     48  S   UNL A   1      44.900  39.240  28.476  1.00  0.00     0.127 S 
ATOM     49  O   UNL A   1      44.414  40.134  27.427  1.00  0.00    -0.237 OA
ATOM     50  O   UNL A   1      44.323  39.481  29.799  1.00  0.00    -0.237 OA
ATOM     51  O   UNL A   1      46.335  38.996  28.476  1.00  0.00    -0.744 OA
ENDBRANCH  45  48
ENDBRANCH  27  41
BRANCH  28  52
ATOM     52  C   UNL A   1      44.594  26.549  33.344  1.00  0.00     0.023 A 
ATOM     53  C   UNL A   1      44.070  25.406  32.715  1.00  0.00     0.012 A 
ATOM     54  C   UNL A   1      45.249  26.411  34.587  1.00  0.00     0.148 A 
ATOM     55  C   UNL A   1      44.185  24.150  33.315  1.00  0.00     0.002 A 
ATOM     56  C   UNL A   1      45.409  25.151  35.151  1.00  0.00     0.091 A 
ATOM     57  F   UNL A   1      45.740  27.512  35.171  1.00  0.00    -0.205 F 
ATOM     58  C   UNL A   1      44.864  24.020  34.525  1.00  0.00     0.022 A 
BRANCH  56  59
ATOM     59  S   UNL A   1      46.382  24.870  36.636  1.00  0.00     0.127 S 
ATOM     60  O   UNL A   1      47.014  23.586  36.340  1.00  0.00    -0.237 OA
ATOM     61  O   UNL A   1      47.286  26.021  36.623  1.00  0.00    -0.237 OA
ATOM     62  O   UNL A   1      45.431  24.862  37.740  1.00  0.00    -0.744 OA
ENDBRANCH  56  59
ENDBRANCH  28  52
BRANCH  40  63
ATOM     63  C   UNL A   1      47.970  29.568  27.981  1.00  0.00     0.023 A 
ATOM     64  C   UNL A   1      49.282  29.827  28.416  1.00  0.00     0.012 A 
ATOM     65  C   UNL A   1      47.748  28.771  26.842  1.00  0.00     0.148 A 
ATOM     66  C   UNL A   1      50.364  29.301  27.716  1.00  0.00     0.002 A 
ATOM     67  C   UNL A   1      48.827  28.201  26.188  1.00  0.00     0.091 A 
ATOM     68  F   UNL A   1      46.484  28.560  26.448  1.00  0.00    -0.205 F 
ATOM     69  C   UNL A   1      50.137  28.472  26.617  1.00  0.00     0.022 A 
BRANCH  67  70
ATOM     70  S   UNL A   1      48.621  27.024  24.849  1.00  0.00     0.127 S 
ATOM     71  O   UNL A   1      48.976  27.834  23.686  1.00  0.00    -0.237 OA
ATOM     72  O   UNL A   1      49.596  25.991  25.197  1.00  0.00    -0.237 OA
ATOM     73  O   UNL A   1      47.231  26.589  24.901  1.00  0.00    -0.744 OA
ENDBRANCH  67  70
ENDBRANCH  40  63
ENDBRANCH  14  15
ENDBRANCH   7   9
ENDBRANCH   6   7
ENDBRANCH   5   6
ENDBRANCH   4   5
ENDBRANCH   3   4
ENDBRANCH   2   3
ENDBRANCH   1   2
BRANCH   1  74
ATOM     74  O   UNL A   1      36.483  32.626  28.822  1.00  0.00    -0.377 OA
BRANCH  74  75
ATOM     75  C   UNL A   1      35.649  31.819  27.998  1.00  0.00     0.188 C 
BRANCH  75  76
ATOM     76  C   UNL A   1      35.225  30.411  28.484  1.00  0.00     0.188 C 
BRANCH  76  77
ATOM     77  O   UNL A   1      36.291  29.536  28.830  1.00  0.00    -0.376 OA
BRANCH  77  78
ATOM     78  C   UNL A   1      37.410  29.572  27.941  1.00  0.00     0.202 C 
BRANCH  78  79
ATOM     79  C   UNL A   1      38.505  28.520  28.207  1.00  0.00     0.261 C 
BRANCH  79  80
ATOM     80  O   UNL A   1      39.222  28.719  29.436  1.00  0.00    -0.463 OA
BRANCH  80  81
ATOM     81  C   UNL A   1      40.250  29.600  29.459  1.00  0.00     0.309 C 
ATOM     82  O   UNL A   1      40.140  30.821  29.521  1.00  0.00    -0.252 OA
BRANCH  81  83
ATOM     83  C   UNL A   1      41.567  28.845  29.552  1.00  0.00     0.110 C 
ATOM     84  C   UNL A   1      42.611  29.505  28.630  1.00  0.00     0.077 C 
ATOM     85  C   UNL A   1      41.426  27.346  29.364  1.00  0.00     0.077 C 
ATOM     86  C   UNL A   1      42.600  28.965  27.210  1.00  0.00     0.263 C 
ATOM     87  C   UNL A   1      41.428  26.964  27.897  1.00  0.00     0.263 C 
ATOM     88  N   UNL A   1      42.561  27.509  27.149  1.00  0.00    -0.324 N 
ATOM     89  H   UNL A   1      42.335  27.232  26.194  1.00  0.00     0.348 HD
BRANCH  88  90
ATOM     90  C   UNL A   1      43.876  26.849  27.232  1.00  0.00     0.284 C 
ATOM     91  C   UNL A   1      44.358  26.251  28.546  1.00  0.00     0.176 C 
ATOM     92  C   UNL A   1      43.971  25.680  26.265  1.00  0.00     0.292 C 
ATOM     93  C   UNL A   1      44.286  24.776  28.343  1.00  0.00     0.240 C 
ATOM     94  N   UNL A   1      44.070  24.527  27.012  1.00  0.00    -0.245 N 
ATOM     95  O   UNL A   1      43.891  25.780  25.046  1.00  0.00    -0.267 OA
ATOM     96  O   UNL A   1      44.497  23.979  29.244  1.00  0.00    -0.274 OA
BRANCH  94  97
ATOM     97  C   UNL A   1      44.018  23.227  26.478  1.00  0.00     0.056 A 
ATOM     98  C   UNL A   1      42.790  22.568  26.343  1.00  0.00     0.031 A 
ATOM     99  C   UNL A   1      45.193  22.589  26.061  1.00  0.00     0.077 A 
ATOM    100  C   UNL A   1      42.731  21.307  25.755  1.00  0.00     0.052 A 
ATOM    101  C   UNL A   1      45.136  21.310  25.517  1.00  0.00     0.163 A 
ATOM    102  C   UNL A   1      43.903  20.673  25.357  1.00  0.00     0.161 A 
ATOM    103  O   UNL A   1      46.334  20.735  25.181  1.00  0.00    -0.486 OA
ATOM    104  O   UNL A   1      43.770  19.425  24.809  1.00  0.00    -0.486 OA
ATOM    105  C   UNL A   1      46.149  19.601  24.329  1.00  0.00     0.271 C 
ATOM    106  C   UNL A   1      45.014  18.720  24.828  1.00  0.00     0.271 C 
ENDBRANCH  94  97
ENDBRANCH  88  90
ENDBRANCH  81  83
ENDBRANCH  80  81
ENDBRANCH  79  80
ENDBRANCH  78  79
ENDBRANCH  77  78
ENDBRANCH  76  77
ENDBRANCH  75  76
ENDBRANCH  74  75
ENDBRANCH   1  74
TORSDOF 25
ENDMDL
