MODEL 1
REMARK VINA RESULT:      -8.5      0.000      0.000
REMARK SMILES C[NH+](C)CCc1nc(Nc2ccc(O)c(C(=O)OCCOCCOCCOCCOC(=O)c3ccc(-c4c5nc(c(-c6cccc(S(=O)(=O)[O-])c6F)c6ccc([nH]6)c(-c6cccc(S(=O)(=O)[O-])c6F)c6nc(c(-c7cccc(S(=O)(=O)[O-])c7F)c7ccc4[nH]7)C=C6)C=C5)cc3)c2)c2ccccc2n1
REMARK SMILES IDX 23 1 22 2 21 3 20 4 19 5 18 6 16 7 17 8 15 9 10 10 11 11
REMARK SMILES IDX 96 12 12 13 13 14 9 15 8 17 6 18 7 19 103 20 102 21 97 22
REMARK SMILES IDX 101 23 98 24 100 25 99 26 5 27 4 28 2 29 1 30 3 31 14 33
REMARK SMILES IDX 24 35 25 36 26 37 27 38 28 39 29 40 30 41 31 42 32 43 33 44
REMARK SMILES IDX 34 45 95 46 35 47 94 48 36 49 37 50 38 51 88 52 39 53 93 54
REMARK SMILES IDX 87 55 89 56 40 57 92 58 86 59 85 60 41 62 73 63 53 64 72 65
REMARK SMILES IDX 54 66 57 67 71 68 90 69 55 70 56 71 70 73 91 74 58 75 42 76
REMARK SMILES IDX 43 77 51 78 44 79 46 80 52 81 45 82 47 83 48 84 49 85 50 86
REMARK SMILES IDX 74 87 75 88 83 89 76 90 78 91 84 92 77 93 79 94 80 95 81 96
REMARK SMILES IDX 82 97 59 98 60 99 68 100 61 101 63 102 69 103 62 104 64 105
REMARK SMILES IDX 65 106 66 107 67 108
REMARK H PARENT 9 16 2 32 14 34 89 61 57 72
REMARK Flexibility Score: inf
ROOT
ATOM      1  C   UNL A   1      41.131  33.463  31.899  1.00  0.00     0.188 C 
ENDROOT
BRANCH   1   2
ATOM      2  C   UNL A   1      40.906  32.099  32.607  1.00  0.00     0.188 C 
BRANCH   2   3
ATOM      3  O   UNL A   1      39.556  31.758  32.865  1.00  0.00    -0.376 OA
BRANCH   3   4
ATOM      4  C   UNL A   1      38.702  32.690  33.498  1.00  0.00     0.202 C 
BRANCH   4   5
ATOM      5  C   UNL A   1      37.190  32.492  33.352  1.00  0.00     0.261 C 
BRANCH   5   6
ATOM      6  O   UNL A   1      36.471  33.667  32.979  1.00  0.00    -0.460 OA
BRANCH   6   7
ATOM      7  C   UNL A   1      35.131  33.657  33.148  1.00  0.00     0.342 C 
ATOM      8  O   UNL A   1      34.535  33.449  34.193  1.00  0.00    -0.246 OA
BRANCH   7   9
ATOM      9  C   UNL A   1      34.507  34.228  31.932  1.00  0.00     0.103 A 
ATOM     10  C   UNL A   1      34.268  34.072  29.517  1.00  0.00     0.041 A 
ATOM     11  C   UNL A   1      33.327  35.107  29.561  1.00  0.00     0.030 A 
ATOM     12  C   UNL A   1      34.868  33.650  30.707  1.00  0.00     0.045 A 
ATOM     13  C   UNL A   1      32.942  35.672  30.782  1.00  0.00     0.049 A 
ATOM     14  C   UNL A   1      33.528  35.227  31.966  1.00  0.00     0.130 A 
BRANCH  10  15
ATOM     15  N   UNL A   1      34.738  33.574  28.281  1.00  0.00    -0.340 N 
ATOM     16  H   UNL A   1      35.035  34.210  27.591  1.00  0.00     0.168 HD
BRANCH  15  17
ATOM     17  C   UNL A   1      34.795  32.185  28.007  1.00  0.00     0.142 A 
ATOM     18  C   UNL A   1      33.700  30.300  27.280  1.00  0.00     0.137 A 
ATOM     19  N   UNL A   1      33.661  31.596  27.589  1.00  0.00    -0.215 NA
ATOM     20  N   UNL A   1      34.812  29.551  27.305  1.00  0.00    -0.233 NA
ATOM     21  C   UNL A   1      35.918  30.117  27.792  1.00  0.00     0.076 A 
ATOM     22  C   UNL A   1      35.981  31.459  28.193  1.00  0.00     0.043 A 
ATOM     23  C   UNL A   1      37.043  29.319  27.945  1.00  0.00     0.029 A 
ATOM     24  C   UNL A   1      37.185  31.962  28.750  1.00  0.00     0.014 A 
ATOM     25  C   UNL A   1      38.225  29.810  28.503  1.00  0.00     0.002 A 
ATOM     26  C   UNL A   1      38.297  31.135  28.909  1.00  0.00     0.001 A 
BRANCH  18  27
ATOM     27  C   UNL A   1      32.388  29.642  26.976  1.00  0.00     0.138 C 
BRANCH  27  28
ATOM     28  C   UNL A   1      31.763  30.075  25.637  1.00  0.00     0.269 C 
BRANCH  28  29
ATOM     29  N   UNL A   1      31.652  29.124  24.512  1.00  0.00    -0.339 N 
ATOM     30  C   UNL A   1      32.881  28.999  23.732  1.00  0.00     0.332 C 
ATOM     31  C   UNL A   1      31.168  27.808  24.921  1.00  0.00     0.332 C 
ATOM     32  H   UNL A   1      30.947  29.538  23.902  1.00  0.00     0.347 HD
ENDBRANCH  28  29
ENDBRANCH  27  28
ENDBRANCH  18  27
ENDBRANCH  15  17
ENDBRANCH  10  15
BRANCH  14  33
ATOM     33  O   UNL A   1      33.152  35.781  33.154  1.00  0.00    -0.507 OA
ATOM     34  H   UNL A   1      33.801  36.011  33.790  1.00  0.00     0.293 HD
ENDBRANCH  14  33
ENDBRANCH   7   9
ENDBRANCH   6   7
ENDBRANCH   5   6
ENDBRANCH   4   5
ENDBRANCH   3   4
ENDBRANCH   2   3
ENDBRANCH   1   2
BRANCH   1  35
ATOM     35  O   UNL A   1      42.005  34.478  32.381  1.00  0.00    -0.377 OA
BRANCH  35  36
ATOM     36  C   UNL A   1      42.699  35.296  31.452  1.00  0.00     0.188 C 
BRANCH  36  37
ATOM     37  C   UNL A   1      43.080  34.588  30.138  1.00  0.00     0.188 C 
BRANCH  37  38
ATOM     38  O   UNL A   1      42.512  35.207  28.990  1.00  0.00    -0.376 OA
BRANCH  38  39
ATOM     39  C   UNL A   1      43.392  35.574  27.939  1.00  0.00     0.202 C 
BRANCH  39  40
ATOM     40  C   UNL A   1      43.685  34.582  26.800  1.00  0.00     0.261 C 
BRANCH  40  41
ATOM     41  O   UNL A   1      43.697  33.187  27.128  1.00  0.00    -0.460 OA
BRANCH  41  42
ATOM     42  C   UNL A   1      44.394  32.349  26.329  1.00  0.00     0.338 C 
ATOM     43  O   UNL A   1      44.622  32.484  25.145  1.00  0.00    -0.246 OA
BRANCH  42  44
ATOM     44  C   UNL A   1      45.003  31.326  27.209  1.00  0.00     0.060 A 
ATOM     45  C   UNL A   1      45.407  31.685  28.502  1.00  0.00     0.016 A 
ATOM     46  C   UNL A   1      45.145  30.009  26.763  1.00  0.00     0.016 A 
ATOM     47  C   UNL A   1      45.984  30.734  29.342  1.00  0.00     0.010 A 
ATOM     48  C   UNL A   1      45.745  29.064  27.597  1.00  0.00     0.010 A 
ATOM     49  C   UNL A   1      46.198  29.430  28.877  1.00  0.00    -0.014 A 
BRANCH  49  50
ATOM     50  C   UNL A   1      47.074  28.507  29.638  1.00  0.00     0.031 A 
ATOM     51  C   UNL A   1      46.446  27.665  30.715  1.00  0.00     0.074 A 
ATOM     52  C   UNL A   1      48.392  28.424  29.392  1.00  0.00     0.049 A 
ATOM     53  N   UNL A   1      47.007  26.830  31.549  1.00  0.00    -0.248 NA
ATOM     54  C   UNL A   1      44.986  27.786  30.874  1.00  0.00     0.031 C 
ATOM     55  C   UNL A   1      49.112  29.178  28.369  1.00  0.00     0.029 A 
ATOM     56  N   UNL A   1      49.366  27.681  30.013  1.00  0.00    -0.354 N 
ATOM     57  C   UNL A   1      45.979  26.351  32.351  1.00  0.00     0.074 A 
ATOM     58  C   UNL A   1      44.762  26.996  31.913  1.00  0.00     0.031 C 
ATOM     59  C   UNL A   1      50.422  28.882  28.452  1.00  0.00     0.029 A 
ATOM     60  C   UNL A   1      50.634  27.941  29.550  1.00  0.00     0.049 A 
ATOM     61  H   UNL A   1      49.174  27.024  30.720  1.00  0.00     0.167 HD
ATOM     62  C   UNL A   1      46.039  25.446  33.356  1.00  0.00     0.034 A 
ATOM     63  C   UNL A   1      51.829  27.493  29.986  1.00  0.00     0.034 A 
ATOM     64  C   UNL A   1      47.250  24.801  33.783  1.00  0.00     0.049 A 
ATOM     65  C   UNL A   1      51.875  26.514  31.135  1.00  0.00     0.074 A 
ATOM     66  C   UNL A   1      47.409  23.838  34.764  1.00  0.00     0.029 A 
ATOM     67  N   UNL A   1      48.509  25.064  33.269  1.00  0.00    -0.354 N 
ATOM     68  N   UNL A   1      50.884  25.987  31.812  1.00  0.00    -0.248 NA
ATOM     69  C   UNL A   1      53.203  26.045  31.557  1.00  0.00     0.031 C 
ATOM     70  C   UNL A   1      48.774  23.549  34.870  1.00  0.00     0.029 A 
ATOM     71  C   UNL A   1      49.456  24.296  33.923  1.00  0.00     0.049 A 
ATOM     72  H   UNL A   1      48.703  25.704  32.547  1.00  0.00     0.167 HD
ATOM     73  C   UNL A   1      51.464  25.095  32.709  1.00  0.00     0.074 A 
ATOM     74  C   UNL A   1      52.892  25.143  32.478  1.00  0.00     0.031 C 
ATOM     75  C   UNL A   1      50.870  24.314  33.646  1.00  0.00     0.034 A 
BRANCH  62  76
ATOM     76  C   UNL A   1      44.754  25.099  34.058  1.00  0.00     0.023 A 
ATOM     77  C   UNL A   1      44.110  23.875  33.781  1.00  0.00     0.012 A 
ATOM     78  C   UNL A   1      44.206  25.963  35.025  1.00  0.00     0.148 A 
ATOM     79  C   UNL A   1      42.922  23.535  34.430  1.00  0.00     0.002 A 
ATOM     80  C   UNL A   1      43.051  25.596  35.703  1.00  0.00     0.091 A 
ATOM     81  F   UNL A   1      44.820  27.133  35.257  1.00  0.00    -0.205 F 
ATOM     82  C   UNL A   1      42.400  24.389  35.396  1.00  0.00     0.022 A 
BRANCH  80  83
ATOM     83  S   UNL A   1      42.343  26.588  37.021  1.00  0.00     0.127 S 
ATOM     84  O   UNL A   1      42.529  27.943  36.503  1.00  0.00    -0.237 OA
ATOM     85  O   UNL A   1      40.955  26.128  37.040  1.00  0.00    -0.237 OA
ATOM     86  O   UNL A   1      43.106  26.270  38.219  1.00  0.00    -0.744 OA
ENDBRANCH  80  83
ENDBRANCH  62  76
BRANCH  63  87
ATOM     87  C   UNL A   1      53.086  27.943  29.325  1.00  0.00     0.023 A 
ATOM     88  C   UNL A   1      53.523  27.304  28.148  1.00  0.00     0.012 A 
ATOM     89  C   UNL A   1      53.852  29.000  29.855  1.00  0.00     0.148 A 
ATOM     90  C   UNL A   1      54.716  27.685  27.531  1.00  0.00     0.002 A 
ATOM     91  C   UNL A   1      55.008  29.412  29.205  1.00  0.00     0.091 A 
ATOM     92  F   UNL A   1      53.429  29.585  30.984  1.00  0.00    -0.205 F 
ATOM     93  C   UNL A   1      55.453  28.744  28.054  1.00  0.00     0.022 A 
BRANCH  91  94
ATOM     94  S   UNL A   1      55.957  30.842  29.736  1.00  0.00     0.127 S 
ATOM     95  O   UNL A   1      57.020  30.884  28.736  1.00  0.00    -0.237 OA
ATOM     96  O   UNL A   1      54.966  31.915  29.628  1.00  0.00    -0.237 OA
ATOM     97  O   UNL A   1      56.382  30.551  31.098  1.00  0.00    -0.744 OA
ENDBRANCH  91  94
ENDBRANCH  63  87
BRANCH  75  98
ATOM     98  C   UNL A   1      51.749  23.399  34.462  1.00  0.00     0.023 A 
ATOM     99  C   UNL A   1      52.177  23.787  35.747  1.00  0.00     0.012 A 
ATOM    100  C   UNL A   1      52.082  22.117  33.981  1.00  0.00     0.148 A 
ATOM    101  C   UNL A   1      52.952  22.928  36.525  1.00  0.00     0.002 A 
ATOM    102  C   UNL A   1      52.808  21.245  34.783  1.00  0.00     0.091 A 
ATOM    103  F   UNL A   1      51.678  21.771  32.750  1.00  0.00    -0.205 F 
ATOM    104  C   UNL A   1      53.257  21.654  36.049  1.00  0.00     0.022 A 
BRANCH 102 105
ATOM    105  S   UNL A   1      53.160  19.551  34.297  1.00  0.00     0.127 S 
ATOM    106  O   UNL A   1      54.068  19.120  35.358  1.00  0.00    -0.237 OA
ATOM    107  O   UNL A   1      51.833  18.936  34.341  1.00  0.00    -0.237 OA
ATOM    108  O   UNL A   1      53.748  19.628  32.967  1.00  0.00    -0.744 OA
ENDBRANCH 102 105
ENDBRANCH  75  98
ENDBRANCH  49  50
ENDBRANCH  42  44
ENDBRANCH  41  42
ENDBRANCH  40  41
ENDBRANCH  39  40
ENDBRANCH  38  39
ENDBRANCH  37  38
ENDBRANCH  36  37
ENDBRANCH  35  36
ENDBRANCH   1  35
TORSDOF 29
ENDMDL
MODEL 2
REMARK VINA RESULT:      -8.4      4.873     11.532
REMARK SMILES C[NH+](C)CCc1nc(Nc2ccc(O)c(C(=O)OCCOCCOCCOCCOC(=O)c3ccc(-c4c5nc(c(-c6cccc(S(=O)(=O)[O-])c6F)c6ccc([nH]6)c(-c6cccc(S(=O)(=O)[O-])c6F)c6nc(c(-c7cccc(S(=O)(=O)[O-])c7F)c7ccc4[nH]7)C=C6)C=C5)cc3)c2)c2ccccc2n1
REMARK SMILES IDX 23 1 22 2 21 3 20 4 19 5 18 6 16 7 17 8 15 9 10 10 11 11
REMARK SMILES IDX 96 12 12 13 13 14 9 15 8 17 6 18 7 19 103 20 102 21 97 22
REMARK SMILES IDX 101 23 98 24 100 25 99 26 5 27 4 28 2 29 1 30 3 31 14 33
REMARK SMILES IDX 24 35 25 36 26 37 27 38 28 39 29 40 30 41 31 42 32 43 33 44
REMARK SMILES IDX 34 45 95 46 35 47 94 48 36 49 37 50 38 51 88 52 39 53 93 54
REMARK SMILES IDX 87 55 89 56 40 57 92 58 86 59 85 60 41 62 73 63 53 64 72 65
REMARK SMILES IDX 54 66 57 67 71 68 90 69 55 70 56 71 70 73 91 74 58 75 42 76
REMARK SMILES IDX 43 77 51 78 44 79 46 80 52 81 45 82 47 83 48 84 49 85 50 86
REMARK SMILES IDX 74 87 75 88 83 89 76 90 78 91 84 92 77 93 79 94 80 95 81 96
REMARK SMILES IDX 82 97 59 98 60 99 68 100 61 101 63 102 69 103 62 104 64 105
REMARK SMILES IDX 65 106 66 107 67 108
REMARK H PARENT 9 16 2 32 14 34 89 61 57 72
REMARK Flexibility Score: inf
ROOT
ATOM      1  C   UNL A   1      37.545  29.491  28.437  1.00  0.00     0.188 C 
ENDROOT
BRANCH   1   2
ATOM      2  C   UNL A   1      38.889  30.145  28.861  1.00  0.00     0.188 C 
BRANCH   2   3
ATOM      3  O   UNL A   1      40.056  29.412  28.536  1.00  0.00    -0.376 OA
BRANCH   3   4
ATOM      4  C   UNL A   1      40.440  29.259  27.184  1.00  0.00     0.202 C 
BRANCH   4   5
ATOM      5  C   UNL A   1      40.456  27.844  26.598  1.00  0.00     0.261 C 
BRANCH   5   6
ATOM      6  O   UNL A   1      41.407  27.645  25.553  1.00  0.00    -0.460 OA
BRANCH   6   7
ATOM      7  C   UNL A   1      42.662  28.097  25.758  1.00  0.00     0.342 C 
ATOM      8  O   UNL A   1      42.997  29.262  25.907  1.00  0.00    -0.246 OA
BRANCH   7   9
ATOM      9  C   UNL A   1      43.528  26.936  26.068  1.00  0.00     0.103 A 
ATOM     10  C   UNL A   1      44.319  24.754  25.344  1.00  0.00     0.041 A 
ATOM     11  C   UNL A   1      45.188  24.725  26.441  1.00  0.00     0.030 A 
ATOM     12  C   UNL A   1      43.478  25.857  25.174  1.00  0.00     0.045 A 
ATOM     13  C   UNL A   1      45.263  25.808  27.323  1.00  0.00     0.049 A 
ATOM     14  C   UNL A   1      44.437  26.915  27.130  1.00  0.00     0.130 A 
BRANCH  10  15
ATOM     15  N   UNL A   1      44.163  23.620  24.515  1.00  0.00    -0.340 N 
ATOM     16  H   UNL A   1      44.433  23.677  23.570  1.00  0.00     0.168 HD
BRANCH  15  17
ATOM     17  C   UNL A   1      43.628  22.403  25.005  1.00  0.00     0.142 A 
ATOM     18  C   UNL A   1      41.825  21.289  25.894  1.00  0.00     0.137 A 
ATOM     19  N   UNL A   1      42.368  22.431  25.471  1.00  0.00    -0.215 NA
ATOM     20  N   UNL A   1      42.435  20.096  25.835  1.00  0.00    -0.233 NA
ATOM     21  C   UNL A   1      43.711  20.082  25.444  1.00  0.00     0.076 A 
ATOM     22  C   UNL A   1      44.397  21.230  25.023  1.00  0.00     0.043 A 
ATOM     23  C   UNL A   1      44.394  18.876  25.499  1.00  0.00     0.029 A 
ATOM     24  C   UNL A   1      45.769  21.130  24.675  1.00  0.00     0.014 A 
ATOM     25  C   UNL A   1      45.747  18.778  25.168  1.00  0.00     0.002 A 
ATOM     26  C   UNL A   1      46.438  19.909  24.756  1.00  0.00     0.001 A 
BRANCH  18  27
ATOM     27  C   UNL A   1      40.484  21.387  26.557  1.00  0.00     0.138 C 
BRANCH  27  28
ATOM     28  C   UNL A   1      40.286  22.668  27.388  1.00  0.00     0.269 C 
BRANCH  28  29
ATOM     29  N   UNL A   1      39.001  23.396  27.360  1.00  0.00    -0.339 N 
ATOM     30  C   UNL A   1      39.105  24.779  27.821  1.00  0.00     0.332 C 
ATOM     31  C   UNL A   1      38.339  23.336  26.060  1.00  0.00     0.332 C 
ATOM     32  H   UNL A   1      38.415  22.897  28.029  1.00  0.00     0.347 HD
ENDBRANCH  28  29
ENDBRANCH  27  28
ENDBRANCH  18  27
ENDBRANCH  15  17
ENDBRANCH  10  15
BRANCH  14  33
ATOM     33  O   UNL A   1      44.512  27.970  27.993  1.00  0.00    -0.507 OA
ATOM     34  H   UNL A   1      43.735  28.440  28.225  1.00  0.00     0.293 HD
ENDBRANCH  14  33
ENDBRANCH   7   9
ENDBRANCH   6   7
ENDBRANCH   5   6
ENDBRANCH   4   5
ENDBRANCH   3   4
ENDBRANCH   2   3
ENDBRANCH   1   2
BRANCH   1  35
ATOM     35  O   UNL A   1      36.263  30.024  28.751  1.00  0.00    -0.377 OA
BRANCH  35  36
ATOM     36  C   UNL A   1      35.926  31.330  28.311  1.00  0.00     0.188 C 
BRANCH  36  37
ATOM     37  C   UNL A   1      34.530  31.811  28.751  1.00  0.00     0.188 C 
BRANCH  37  38
ATOM     38  O   UNL A   1      34.197  33.094  28.233  1.00  0.00    -0.376 OA
BRANCH  38  39
ATOM     39  C   UNL A   1      33.983  34.142  29.165  1.00  0.00     0.202 C 
BRANCH  39  40
ATOM     40  C   UNL A   1      34.994  34.382  30.299  1.00  0.00     0.261 C 
BRANCH  40  41
ATOM     41  O   UNL A   1      34.475  34.512  31.629  1.00  0.00    -0.460 OA
BRANCH  41  42
ATOM     42  C   UNL A   1      34.525  33.434  32.442  1.00  0.00     0.338 C 
ATOM     43  O   UNL A   1      33.586  32.817  32.902  1.00  0.00    -0.246 OA
BRANCH  42  44
ATOM     44  C   UNL A   1      35.943  33.016  32.514  1.00  0.00     0.060 A 
ATOM     45  C   UNL A   1      36.860  33.819  33.207  1.00  0.00     0.016 A 
ATOM     46  C   UNL A   1      36.356  31.820  31.921  1.00  0.00     0.016 A 
ATOM     47  C   UNL A   1      38.200  33.441  33.281  1.00  0.00     0.010 A 
ATOM     48  C   UNL A   1      37.702  31.456  31.977  1.00  0.00     0.010 A 
ATOM     49  C   UNL A   1      38.637  32.282  32.627  1.00  0.00    -0.014 A 
BRANCH  49  50
ATOM     50  C   UNL A   1      40.087  32.037  32.445  1.00  0.00     0.031 A 
ATOM     51  C   UNL A   1      40.841  32.932  31.500  1.00  0.00     0.074 A 
ATOM     52  C   UNL A   1      40.719  31.041  33.089  1.00  0.00     0.049 A 
ATOM     53  N   UNL A   1      42.094  32.883  31.133  1.00  0.00    -0.248 NA
ATOM     54  C   UNL A   1      40.074  34.028  30.882  1.00  0.00     0.031 C 
ATOM     55  C   UNL A   1      40.100  30.117  34.037  1.00  0.00     0.029 A 
ATOM     56  N   UNL A   1      42.026  30.626  33.016  1.00  0.00    -0.354 N 
ATOM     57  C   UNL A   1      42.259  33.918  30.219  1.00  0.00     0.074 A 
ATOM     58  C   UNL A   1      40.977  34.570  30.079  1.00  0.00     0.031 C 
ATOM     59  C   UNL A   1      41.022  29.222  34.435  1.00  0.00     0.029 A 
ATOM     60  C   UNL A   1      42.284  29.492  33.750  1.00  0.00     0.049 A 
ATOM     61  H   UNL A   1      42.713  31.096  32.490  1.00  0.00     0.167 HD
ATOM     62  C   UNL A   1      43.380  34.298  29.564  1.00  0.00     0.034 A 
ATOM     63  C   UNL A   1      43.403  28.744  33.832  1.00  0.00     0.034 A 
ATOM     64  C   UNL A   1      44.655  33.653  29.713  1.00  0.00     0.049 A 
ATOM     65  C   UNL A   1      44.631  29.167  33.061  1.00  0.00     0.074 A 
ATOM     66  C   UNL A   1      45.862  33.990  29.125  1.00  0.00     0.029 A 
ATOM     67  N   UNL A   1      44.887  32.530  30.490  1.00  0.00    -0.354 N 
ATOM     68  N   UNL A   1      44.803  30.210  32.286  1.00  0.00    -0.248 NA
ATOM     69  C   UNL A   1      45.827  28.324  33.201  1.00  0.00     0.031 C 
ATOM     70  C   UNL A   1      46.814  33.044  29.516  1.00  0.00     0.029 A 
ATOM     71  C   UNL A   1      46.212  32.147  30.385  1.00  0.00     0.049 A 
ATOM     72  H   UNL A   1      44.208  32.070  31.035  1.00  0.00     0.167 HD
ATOM     73  C   UNL A   1      46.133  30.174  31.882  1.00  0.00     0.074 A 
ATOM     74  C   UNL A   1      46.726  29.012  32.510  1.00  0.00     0.031 C 
ATOM     75  C   UNL A   1      46.802  31.019  31.059  1.00  0.00     0.034 A 
BRANCH  62  76
ATOM     76  C   UNL A   1      43.275  35.475  28.630  1.00  0.00     0.023 A 
ATOM     77  C   UNL A   1      42.804  35.287  27.314  1.00  0.00     0.012 A 
ATOM     78  C   UNL A   1      43.601  36.772  29.068  1.00  0.00     0.148 A 
ATOM     79  C   UNL A   1      42.693  36.368  26.439  1.00  0.00     0.002 A 
ATOM     80  C   UNL A   1      43.441  37.851  28.207  1.00  0.00     0.091 A 
ATOM     81  F   UNL A   1      44.070  36.926  30.316  1.00  0.00    -0.205 F 
ATOM     82  C   UNL A   1      43.002  37.649  26.888  1.00  0.00     0.022 A 
BRANCH  80  83
ATOM     83  S   UNL A   1      43.733  39.548  28.716  1.00  0.00     0.127 S 
ATOM     84  O   UNL A   1      43.191  40.294  27.580  1.00  0.00    -0.237 OA
ATOM     85  O   UNL A   1      42.941  39.641  29.941  1.00  0.00    -0.237 OA
ATOM     86  O   UNL A   1      45.171  39.668  28.910  1.00  0.00    -0.744 OA
ENDBRANCH  80  83
ENDBRANCH  62  76
BRANCH  63  87
ATOM     87  C   UNL A   1      43.432  27.528  34.693  1.00  0.00     0.023 A 
ATOM     88  C   UNL A   1      42.848  26.332  34.231  1.00  0.00     0.012 A 
ATOM     89  C   UNL A   1      44.034  27.550  35.967  1.00  0.00     0.148 A 
ATOM     90  C   UNL A   1      42.831  25.191  35.035  1.00  0.00     0.002 A 
ATOM     91  C   UNL A   1      44.064  26.395  36.738  1.00  0.00     0.091 A 
ATOM     92  F   UNL A   1      44.570  28.701  36.395  1.00  0.00    -0.205 F 
ATOM     93  C   UNL A   1      43.447  25.220  36.283  1.00  0.00     0.022 A 
BRANCH  91  94
ATOM     94  S   UNL A   1      44.938  26.304  38.305  1.00  0.00     0.127 S 
ATOM     95  O   UNL A   1      46.321  26.516  37.889  1.00  0.00    -0.237 OA
ATOM     96  O   UNL A   1      44.340  27.415  39.047  1.00  0.00    -0.237 OA
ATOM     97  O   UNL A   1      44.638  24.987  38.849  1.00  0.00    -0.744 OA
ENDBRANCH  91  94
ENDBRANCH  63  87
BRANCH  75  98
ATOM     98  C   UNL A   1      48.270  30.761  30.825  1.00  0.00     0.023 A 
ATOM     99  C   UNL A   1      48.687  29.975  29.734  1.00  0.00     0.012 A 
ATOM    100  C   UNL A   1      49.239  31.371  31.647  1.00  0.00     0.148 A 
ATOM    101  C   UNL A   1      50.045  29.770  29.485  1.00  0.00     0.002 A 
ATOM    102  C   UNL A   1      50.590  31.208  31.361  1.00  0.00     0.091 A 
ATOM    103  F   UNL A   1      48.824  32.105  32.689  1.00  0.00    -0.205 F 
ATOM    104  C   UNL A   1      50.994  30.395  30.290  1.00  0.00     0.022 A 
BRANCH 102 105
ATOM    105  S   UNL A   1      51.881  32.056  32.279  1.00  0.00     0.127 S 
ATOM    106  O   UNL A   1      51.507  33.457  32.093  1.00  0.00    -0.237 OA
ATOM    107  O   UNL A   1      51.680  31.545  33.636  1.00  0.00    -0.237 OA
ATOM    108  O   UNL A   1      53.140  31.659  31.664  1.00  0.00    -0.744 OA
ENDBRANCH 102 105
ENDBRANCH  75  98
ENDBRANCH  49  50
ENDBRANCH  42  44
ENDBRANCH  41  42
ENDBRANCH  40  41
ENDBRANCH  39  40
ENDBRANCH  38  39
ENDBRANCH  37  38
ENDBRANCH  36  37
ENDBRANCH  35  36
ENDBRANCH   1  35
TORSDOF 29
ENDMDL
MODEL 3
REMARK VINA RESULT:      -8.2      5.235      8.373
REMARK SMILES C[NH+](C)CCc1nc(Nc2ccc(O)c(C(=O)OCCOCCOCCOCCOC(=O)c3ccc(-c4c5nc(c(-c6cccc(S(=O)(=O)[O-])c6F)c6ccc([nH]6)c(-c6cccc(S(=O)(=O)[O-])c6F)c6nc(c(-c7cccc(S(=O)(=O)[O-])c7F)c7ccc4[nH]7)C=C6)C=C5)cc3)c2)c2ccccc2n1
REMARK SMILES IDX 23 1 22 2 21 3 20 4 19 5 18 6 16 7 17 8 15 9 10 10 11 11
REMARK SMILES IDX 96 12 12 13 13 14 9 15 8 17 6 18 7 19 103 20 102 21 97 22
REMARK SMILES IDX 101 23 98 24 100 25 99 26 5 27 4 28 2 29 1 30 3 31 14 33
REMARK SMILES IDX 24 35 25 36 26 37 27 38 28 39 29 40 30 41 31 42 32 43 33 44
REMARK SMILES IDX 34 45 95 46 35 47 94 48 36 49 37 50 38 51 88 52 39 53 93 54
REMARK SMILES IDX 87 55 89 56 40 57 92 58 86 59 85 60 41 62 73 63 53 64 72 65
REMARK SMILES IDX 54 66 57 67 71 68 90 69 55 70 56 71 70 73 91 74 58 75 42 76
REMARK SMILES IDX 43 77 51 78 44 79 46 80 52 81 45 82 47 83 48 84 49 85 50 86
REMARK SMILES IDX 74 87 75 88 83 89 76 90 78 91 84 92 77 93 79 94 80 95 81 96
REMARK SMILES IDX 82 97 59 98 60 99 68 100 61 101 63 102 69 103 62 104 64 105
REMARK SMILES IDX 65 106 66 107 67 108
REMARK H PARENT 9 16 2 32 14 34 89 61 57 72
REMARK Flexibility Score: inf
ROOT
ATOM      1  C   UNL A   1      39.790  29.267  28.287  1.00  0.00     0.188 C 
ENDROOT
BRANCH   1   2
ATOM      2  C   UNL A   1      40.027  28.650  26.882  1.00  0.00     0.188 C 
BRANCH   2   3
ATOM      3  O   UNL A   1      40.739  27.427  26.861  1.00  0.00    -0.376 OA
BRANCH   3   4
ATOM      4  C   UNL A   1      41.592  27.090  27.937  1.00  0.00     0.202 C 
BRANCH   4   5
ATOM      5  C   UNL A   1      41.583  25.641  28.433  1.00  0.00     0.261 C 
BRANCH   5   6
ATOM      6  O   UNL A   1      41.182  24.681  27.456  1.00  0.00    -0.460 OA
BRANCH   6   7
ATOM      7  C   UNL A   1      39.955  24.133  27.587  1.00  0.00     0.342 C 
ATOM      8  O   UNL A   1      38.904  24.737  27.734  1.00  0.00    -0.246 OA
BRANCH   7   9
ATOM      9  C   UNL A   1      40.048  22.698  27.232  1.00  0.00     0.103 A 
ATOM     10  C   UNL A   1      39.200  20.904  25.827  1.00  0.00     0.041 A 
ATOM     11  C   UNL A   1      40.170  20.049  26.364  1.00  0.00     0.030 A 
ATOM     12  C   UNL A   1      39.133  22.224  26.281  1.00  0.00     0.045 A 
ATOM     13  C   UNL A   1      41.102  20.521  27.294  1.00  0.00     0.049 A 
ATOM     14  C   UNL A   1      41.044  21.846  27.721  1.00  0.00     0.130 A 
BRANCH  10  15
ATOM     15  N   UNL A   1      38.192  20.406  24.971  1.00  0.00    -0.340 N 
ATOM     16  H   UNL A   1      38.428  19.729  24.297  1.00  0.00     0.168 HD
BRANCH  15  17
ATOM     17  C   UNL A   1      36.851  20.854  25.055  1.00  0.00     0.142 A 
ATOM     18  C   UNL A   1      35.402  22.604  25.405  1.00  0.00     0.137 A 
ATOM     19  N   UNL A   1      36.654  22.147  25.366  1.00  0.00    -0.215 NA
ATOM     20  N   UNL A   1      34.321  21.871  25.101  1.00  0.00    -0.233 NA
ATOM     21  C   UNL A   1      34.511  20.570  24.868  1.00  0.00     0.076 A 
ATOM     22  C   UNL A   1      35.779  19.972  24.848  1.00  0.00     0.043 A 
ATOM     23  C   UNL A   1      33.392  19.774  24.678  1.00  0.00     0.029 A 
ATOM     24  C   UNL A   1      35.882  18.572  24.645  1.00  0.00     0.014 A 
ATOM     25  C   UNL A   1      33.491  18.394  24.489  1.00  0.00     0.002 A 
ATOM     26  C   UNL A   1      34.741  17.790  24.474  1.00  0.00     0.001 A 
BRANCH  18  27
ATOM     27  C   UNL A   1      35.213  24.002  25.913  1.00  0.00     0.138 C 
BRANCH  27  28
ATOM     28  C   UNL A   1      34.388  24.904  24.976  1.00  0.00     0.269 C 
BRANCH  28  29
ATOM     29  N   UNL A   1      33.359  24.329  24.087  1.00  0.00    -0.339 N 
ATOM     30  C   UNL A   1      31.994  24.684  24.470  1.00  0.00     0.332 C 
ATOM     31  C   UNL A   1      33.590  24.625  22.676  1.00  0.00     0.332 C 
ATOM     32  H   UNL A   1      33.454  23.321  24.211  1.00  0.00     0.347 HD
ENDBRANCH  28  29
ENDBRANCH  27  28
ENDBRANCH  18  27
ENDBRANCH  15  17
ENDBRANCH  10  15
BRANCH  14  33
ATOM     33  O   UNL A   1      41.953  22.302  28.631  1.00  0.00    -0.507 OA
ATOM     34  H   UNL A   1      41.687  22.478  29.512  1.00  0.00     0.293 HD
ENDBRANCH  14  33
ENDBRANCH   7   9
ENDBRANCH   6   7
ENDBRANCH   5   6
ENDBRANCH   4   5
ENDBRANCH   3   4
ENDBRANCH   2   3
ENDBRANCH   1   2
BRANCH   1  35
ATOM     35  O   UNL A   1      38.524  29.313  28.937  1.00  0.00    -0.377 OA
BRANCH  35  36
ATOM     36  C   UNL A   1      37.375  29.688  28.196  1.00  0.00     0.188 C 
BRANCH  36  37
ATOM     37  C   UNL A   1      36.572  30.851  28.809  1.00  0.00     0.188 C 
BRANCH  37  38
ATOM     38  O   UNL A   1      36.818  31.022  30.200  1.00  0.00    -0.376 OA
BRANCH  38  39
ATOM     39  C   UNL A   1      36.705  32.333  30.730  1.00  0.00     0.202 C 
BRANCH  39  40
ATOM     40  C   UNL A   1      36.734  32.552  32.253  1.00  0.00     0.261 C 
BRANCH  40  41
ATOM     41  O   UNL A   1      38.019  32.621  32.885  1.00  0.00    -0.460 OA
BRANCH  41  42
ATOM     42  C   UNL A   1      38.233  31.860  33.980  1.00  0.00     0.338 C 
ATOM     43  O   UNL A   1      37.483  31.699  34.920  1.00  0.00    -0.246 OA
BRANCH  42  44
ATOM     44  C   UNL A   1      39.476  31.094  33.734  1.00  0.00     0.060 A 
ATOM     45  C   UNL A   1      39.400  29.707  33.542  1.00  0.00     0.016 A 
ATOM     46  C   UNL A   1      40.706  31.753  33.664  1.00  0.00     0.016 A 
ATOM     47  C   UNL A   1      40.562  28.971  33.312  1.00  0.00     0.010 A 
ATOM     48  C   UNL A   1      41.870  31.011  33.456  1.00  0.00     0.010 A 
ATOM     49  C   UNL A   1      41.808  29.613  33.314  1.00  0.00    -0.014 A 
BRANCH  49  50
ATOM     50  C   UNL A   1      43.053  28.812  33.374  1.00  0.00     0.031 A 
ATOM     51  C   UNL A   1      43.583  28.431  34.729  1.00  0.00     0.074 A 
ATOM     52  C   UNL A   1      43.705  28.439  32.260  1.00  0.00     0.049 A 
ATOM     53  N   UNL A   1      44.676  27.786  35.042  1.00  0.00    -0.248 NA
ATOM     54  C   UNL A   1      42.771  28.839  35.890  1.00  0.00     0.031 C 
ATOM     55  C   UNL A   1      43.284  28.735  30.892  1.00  0.00     0.029 A 
ATOM     56  N   UNL A   1      44.883  27.749  32.109  1.00  0.00    -0.354 N 
ATOM     57  C   UNL A   1      44.701  27.739  36.431  1.00  0.00     0.074 A 
ATOM     58  C   UNL A   1      43.521  28.429  36.901  1.00  0.00     0.031 C 
ATOM     59  C   UNL A   1      44.208  28.256  30.040  1.00  0.00     0.029 A 
ATOM     60  C   UNL A   1      45.296  27.647  30.802  1.00  0.00     0.049 A 
ATOM     61  H   UNL A   1      45.382  27.364  32.865  1.00  0.00     0.167 HD
ATOM     62  C   UNL A   1      45.617  27.163  37.243  1.00  0.00     0.034 A 
ATOM     63  C   UNL A   1      46.437  27.145  30.287  1.00  0.00     0.034 A 
ATOM     64  C   UNL A   1      46.784  26.470  36.771  1.00  0.00     0.049 A 
ATOM     65  C   UNL A   1      47.463  26.542  31.215  1.00  0.00     0.074 A 
ATOM     66  C   UNL A   1      47.752  25.815  37.512  1.00  0.00     0.029 A 
ATOM     67  N   UNL A   1      47.152  26.357  35.441  1.00  0.00    -0.354 N 
ATOM     68  N   UNL A   1      47.421  26.407  32.518  1.00  0.00    -0.248 NA
ATOM     69  C   UNL A   1      48.680  25.995  30.597  1.00  0.00     0.031 C 
ATOM     70  C   UNL A   1      48.727  25.340  36.630  1.00  0.00     0.029 A 
ATOM     71  C   UNL A   1      48.342  25.658  35.337  1.00  0.00     0.049 A 
ATOM     72  H   UNL A   1      46.644  26.721  34.680  1.00  0.00     0.167 HD
ATOM     73  C   UNL A   1      48.581  25.724  32.871  1.00  0.00     0.074 A 
ATOM     74  C   UNL A   1      49.298  25.460  31.641  1.00  0.00     0.031 C 
ATOM     75  C   UNL A   1      49.018  25.355  34.101  1.00  0.00     0.034 A 
BRANCH  62  76
ATOM     76  C   UNL A   1      45.387  27.254  38.728  1.00  0.00     0.023 A 
ATOM     77  C   UNL A   1      44.703  26.218  39.398  1.00  0.00     0.012 A 
ATOM     78  C   UNL A   1      45.886  28.343  39.467  1.00  0.00     0.148 A 
ATOM     79  C   UNL A   1      44.490  26.285  40.776  1.00  0.00     0.002 A 
ATOM     80  C   UNL A   1      45.713  28.378  40.845  1.00  0.00     0.091 A 
ATOM     81  F   UNL A   1      46.513  29.329  38.807  1.00  0.00    -0.205 F 
ATOM     82  C   UNL A   1      45.003  27.358  41.498  1.00  0.00     0.022 A 
BRANCH  80  83
ATOM     83  S   UNL A   1      46.406  29.675  41.876  1.00  0.00     0.127 S 
ATOM     84  O   UNL A   1      45.859  30.877  41.246  1.00  0.00    -0.237 OA
ATOM     85  O   UNL A   1      45.836  29.361  43.186  1.00  0.00    -0.237 OA
ATOM     86  O   UNL A   1      47.852  29.530  41.789  1.00  0.00    -0.744 OA
ENDBRANCH  80  83
ENDBRANCH  62  76
BRANCH  63  87
ATOM     87  C   UNL A   1      46.668  27.167  28.814  1.00  0.00     0.023 A 
ATOM     88  C   UNL A   1      47.236  28.307  28.214  1.00  0.00     0.012 A 
ATOM     89  C   UNL A   1      46.329  26.063  28.006  1.00  0.00     0.148 A 
ATOM     90  C   UNL A   1      47.429  28.363  26.832  1.00  0.00     0.002 A 
ATOM     91  C   UNL A   1      46.575  26.104  26.640  1.00  0.00     0.091 A 
ATOM     92  F   UNL A   1      45.775  24.994  28.594  1.00  0.00    -0.205 F 
ATOM     93  C   UNL A   1      47.107  27.259  26.047  1.00  0.00     0.022 A 
BRANCH  91  94
ATOM     94  S   UNL A   1      46.306  24.688  25.568  1.00  0.00     0.127 S 
ATOM     95  O   UNL A   1      44.850  24.659  25.469  1.00  0.00    -0.237 OA
ATOM     96  O   UNL A   1      47.000  25.100  24.347  1.00  0.00    -0.237 OA
ATOM     97  O   UNL A   1      46.914  23.554  26.251  1.00  0.00    -0.744 OA
ENDBRANCH  91  94
ENDBRANCH  63  87
BRANCH  75  98
ATOM     98  C   UNL A   1      50.306  24.576  34.188  1.00  0.00     0.023 A 
ATOM     99  C   UNL A   1      51.528  25.246  34.393  1.00  0.00     0.012 A 
ATOM    100  C   UNL A   1      50.290  23.167  34.146  1.00  0.00     0.148 A 
ATOM    101  C   UNL A   1      52.718  24.529  34.519  1.00  0.00     0.002 A 
ATOM    102  C   UNL A   1      51.471  22.457  34.328  1.00  0.00     0.091 A 
ATOM    103  F   UNL A   1      49.120  22.547  33.936  1.00  0.00    -0.205 F 
ATOM    104  C   UNL A   1      52.688  23.136  34.499  1.00  0.00     0.022 A 
BRANCH 102 105
ATOM    105  S   UNL A   1      51.514  20.663  34.419  1.00  0.00     0.127 S 
ATOM    106  O   UNL A   1      51.025  20.286  33.094  1.00  0.00    -0.237 OA
ATOM    107  O   UNL A   1      52.937  20.400  34.642  1.00  0.00    -0.237 OA
ATOM    108  O   UNL A   1      50.649  20.295  35.531  1.00  0.00    -0.744 OA
ENDBRANCH 102 105
ENDBRANCH  75  98
ENDBRANCH  49  50
ENDBRANCH  42  44
ENDBRANCH  41  42
ENDBRANCH  40  41
ENDBRANCH  39  40
ENDBRANCH  38  39
ENDBRANCH  37  38
ENDBRANCH  36  37
ENDBRANCH  35  36
ENDBRANCH   1  35
TORSDOF 29
ENDMDL
