MODEL 1
REMARK VINA RESULT:      -8.5      0.000      0.000
REMARK SMILES CC(C)C(=O)Nc1ccc(NC(=O)[C@@H]2[C@@H](C(=O)OCCOCCOCCOCCOC(=O)c3ccc(-c4c5nc(c(-c6cccc(S(=O)(=O)[O-])c6F)c6ccc([nH]6)c(-c6cccc(S(=O)(=O)[O-])c6F)c6nc(c(-c7cccc(S(=O)(=O)[O-])c7F)c7ccc4[nH]7)C=C6)C=C5)cc3)C2(C)C)cc1Cl
REMARK SMILES IDX 23 1 22 2 21 3 20 4 19 5 18 6 16 7 17 8 15 9 14 10 96 11
REMARK SMILES IDX 97 12 98 13 12 14 11 15 13 17 10 18 7 19 8 20 100 21 9 22
REMARK SMILES IDX 99 23 101 24 6 25 4 26 5 27 2 29 1 30 3 31 24 32 25 33 26 34
REMARK SMILES IDX 27 35 28 36 29 37 30 38 31 39 32 40 33 41 34 42 95 43 35 44
REMARK SMILES IDX 94 45 36 46 37 47 38 48 88 49 39 50 93 51 87 52 89 53 40 54
REMARK SMILES IDX 92 55 86 56 85 57 41 59 73 60 53 61 72 62 54 63 57 64 71 65
REMARK SMILES IDX 90 66 55 67 56 68 70 70 91 71 58 72 42 73 43 74 51 75 44 76
REMARK SMILES IDX 46 77 52 78 45 79 47 80 48 81 49 82 50 83 74 84 75 85 83 86
REMARK SMILES IDX 76 87 78 88 84 89 77 90 79 91 80 92 81 93 82 94 59 95 60 96
REMARK SMILES IDX 68 97 61 98 63 99 69 100 62 101 64 102 65 103 66 104 67 105
REMARK H PARENT 11 16 6 28 89 58 57 69
REMARK Flexibility Score: inf
ROOT
ATOM      1  C   UNL A   1      34.622  22.418  27.705  1.00  0.00     0.188 C 
ENDROOT
BRANCH   1   2
ATOM      2  C   UNL A   1      33.299  21.868  27.164  1.00  0.00     0.188 C 
BRANCH   2   3
ATOM      3  O   UNL A   1      33.417  20.653  26.454  1.00  0.00    -0.376 OA
BRANCH   3   4
ATOM      4  C   UNL A   1      32.934  20.514  25.127  1.00  0.00     0.202 C 
BRANCH   4   5
ATOM      5  C   UNL A   1      33.404  21.318  23.896  1.00  0.00     0.261 C 
BRANCH   5   6
ATOM      6  O   UNL A   1      32.497  21.456  22.808  1.00  0.00    -0.463 OA
BRANCH   6   7
ATOM      7  C   UNL A   1      31.628  22.480  22.847  1.00  0.00     0.310 C 
ATOM      8  O   UNL A   1      30.432  22.414  22.596  1.00  0.00    -0.252 OA
BRANCH   7   9
ATOM      9  C   UNL A   1      32.253  23.758  23.277  1.00  0.00     0.118 C 
ATOM     10  C   UNL A   1      31.261  24.853  23.550  1.00  0.00     0.100 C 
ATOM     11  C   UNL A   1      32.380  25.115  22.551  1.00  0.00    -0.009 C 
ATOM     12  C   UNL A   1      31.939  25.428  21.134  1.00  0.00     0.013 C 
ATOM     13  C   UNL A   1      33.568  25.967  22.958  1.00  0.00     0.013 C 
BRANCH  10  14
ATOM     14  C   UNL A   1      31.181  25.553  24.844  1.00  0.00     0.228 C 
ATOM     15  N   UNL A   1      30.544  26.772  24.894  1.00  0.00    -0.326 N 
ATOM     16  H   UNL A   1      30.349  27.087  25.807  1.00  0.00     0.169 HD
ATOM     17  O   UNL A   1      31.620  25.034  25.865  1.00  0.00    -0.274 OA
BRANCH  15  18
ATOM     18  C   UNL A   1      30.121  27.650  23.874  1.00  0.00     0.042 A 
ATOM     19  C   UNL A   1      29.150  29.586  22.078  1.00  0.00     0.060 A 
ATOM     20  C   UNL A   1      30.512  29.348  22.165  1.00  0.00     0.030 A 
ATOM     21  C   UNL A   1      28.264  28.743  22.757  1.00  0.00     0.066 A 
ATOM     22  C   UNL A   1      30.977  28.408  23.079  1.00  0.00     0.028 A 
ATOM     23  C   UNL A   1      28.749  27.804  23.680  1.00  0.00     0.048 A 
ATOM     24  Cl  UNL A   1      26.563  28.773  22.458  1.00  0.00    -0.082 Cl
BRANCH  19  25
ATOM     25  N   UNL A   1      28.759  30.716  21.351  1.00  0.00    -0.325 N 
ATOM     26  C   UNL A   1      28.575  31.973  21.867  1.00  0.00     0.226 C 
ATOM     27  O   UNL A   1      28.593  32.930  21.085  1.00  0.00    -0.274 OA
ATOM     28  H   UNL A   1      28.602  30.599  20.387  1.00  0.00     0.169 HD
BRANCH  26  29
ATOM     29  C   UNL A   1      28.382  32.258  23.365  1.00  0.00     0.072 C 
ATOM     30  C   UNL A   1      27.237  31.495  24.013  1.00  0.00     0.018 C 
ATOM     31  C   UNL A   1      29.657  32.194  24.200  1.00  0.00     0.018 C 
ENDBRANCH  26  29
ENDBRANCH  19  25
ENDBRANCH  15  18
ENDBRANCH  10  14
ENDBRANCH   7   9
ENDBRANCH   6   7
ENDBRANCH   5   6
ENDBRANCH   4   5
ENDBRANCH   3   4
ENDBRANCH   2   3
ENDBRANCH   1   2
BRANCH   1  32
ATOM     32  O   UNL A   1      35.334  23.264  26.819  1.00  0.00    -0.377 OA
BRANCH  32  33
ATOM     33  C   UNL A   1      34.621  24.100  25.915  1.00  0.00     0.188 C 
BRANCH  33  34
ATOM     34  C   UNL A   1      34.958  25.597  25.773  1.00  0.00     0.188 C 
BRANCH  34  35
ATOM     35  O   UNL A   1      34.016  26.487  26.352  1.00  0.00    -0.376 OA
BRANCH  35  36
ATOM     36  C   UNL A   1      34.107  27.868  26.041  1.00  0.00     0.202 C 
BRANCH  36  37
ATOM     37  C   UNL A   1      33.824  28.871  27.171  1.00  0.00     0.261 C 
BRANCH  37  38
ATOM     38  O   UNL A   1      34.282  30.213  26.955  1.00  0.00    -0.460 OA
BRANCH  38  39
ATOM     39  C   UNL A   1      34.804  30.876  28.008  1.00  0.00     0.338 C 
ATOM     40  O   UNL A   1      34.277  31.760  28.658  1.00  0.00    -0.246 OA
BRANCH  39  41
ATOM     41  C   UNL A   1      36.070  30.209  28.369  1.00  0.00     0.060 A 
ATOM     42  C   UNL A   1      36.160  29.546  29.600  1.00  0.00     0.016 A 
ATOM     43  C   UNL A   1      37.159  30.241  27.497  1.00  0.00     0.016 A 
ATOM     44  C   UNL A   1      37.361  28.950  29.981  1.00  0.00     0.010 A 
ATOM     45  C   UNL A   1      38.365  29.660  27.887  1.00  0.00     0.010 A 
ATOM     46  C   UNL A   1      38.482  29.047  29.148  1.00  0.00    -0.014 A 
BRANCH  46  47
ATOM     47  C   UNL A   1      39.822  28.696  29.673  1.00  0.00     0.031 A 
ATOM     48  C   UNL A   1      40.587  27.593  28.993  1.00  0.00     0.074 A 
ATOM     49  C   UNL A   1      40.352  29.338  30.728  1.00  0.00     0.049 A 
ATOM     50  N   UNL A   1      41.759  27.096  29.281  1.00  0.00    -0.248 NA
ATOM     51  C   UNL A   1      39.932  26.965  27.834  1.00  0.00     0.031 C 
ATOM     52  C   UNL A   1      39.720  30.435  31.456  1.00  0.00     0.029 A 
ATOM     53  N   UNL A   1      41.543  29.139  31.379  1.00  0.00    -0.354 N 
ATOM     54  C   UNL A   1      41.973  26.078  28.360  1.00  0.00     0.074 A 
ATOM     55  C   UNL A   1      40.799  26.016  27.518  1.00  0.00     0.031 C 
ATOM     56  C   UNL A   1      40.525  30.805  32.467  1.00  0.00     0.029 A 
ATOM     57  C   UNL A   1      41.712  29.952  32.475  1.00  0.00     0.049 A 
ATOM     58  H   UNL A   1      42.212  28.477  31.091  1.00  0.00     0.167 HD
ATOM     59  C   UNL A   1      43.053  25.274  28.215  1.00  0.00     0.034 A 
ATOM     60  C   UNL A   1      42.706  29.990  33.384  1.00  0.00     0.034 A 
ATOM     61  C   UNL A   1      44.219  25.337  29.056  1.00  0.00     0.049 A 
ATOM     62  C   UNL A   1      43.874  29.047  33.240  1.00  0.00     0.074 A 
ATOM     63  C   UNL A   1      45.383  24.597  28.971  1.00  0.00     0.029 A 
ATOM     64  N   UNL A   1      44.356  26.176  30.152  1.00  0.00    -0.354 N 
ATOM     65  N   UNL A   1      44.114  28.164  32.301  1.00  0.00    -0.248 NA
ATOM     66  C   UNL A   1      44.922  29.128  34.268  1.00  0.00     0.031 C 
ATOM     67  C   UNL A   1      46.208  24.957  30.042  1.00  0.00     0.029 A 
ATOM     68  C   UNL A   1      45.577  25.956  30.768  1.00  0.00     0.049 A 
ATOM     69  H   UNL A   1      43.685  26.832  30.449  1.00  0.00     0.167 HD
ATOM     70  C   UNL A   1      45.358  27.615  32.599  1.00  0.00     0.074 A 
ATOM     71  C   UNL A   1      45.826  28.276  33.800  1.00  0.00     0.031 C 
ATOM     72  C   UNL A   1      46.049  26.650  31.941  1.00  0.00     0.034 A 
BRANCH  59  73
ATOM     73  C   UNL A   1      43.010  24.259  27.102  1.00  0.00     0.023 A 
ATOM     74  C   UNL A   1      43.604  24.552  25.856  1.00  0.00     0.012 A 
ATOM     75  C   UNL A   1      42.375  23.015  27.286  1.00  0.00     0.148 A 
ATOM     76  C   UNL A   1      43.518  23.649  24.797  1.00  0.00     0.002 A 
ATOM     77  C   UNL A   1      42.339  22.099  26.241  1.00  0.00     0.091 A 
ATOM     78  F   UNL A   1      41.793  22.761  28.467  1.00  0.00    -0.205 F 
ATOM     79  C   UNL A   1      42.893  22.421  24.992  1.00  0.00     0.022 A 
BRANCH  77  80
ATOM     80  S   UNL A   1      41.627  20.460  26.421  1.00  0.00     0.127 S 
ATOM     81  O   UNL A   1      42.119  20.068  27.740  1.00  0.00    -0.237 OA
ATOM     82  O   UNL A   1      40.192  20.740  26.364  1.00  0.00    -0.237 OA
ATOM     83  O   UNL A   1      42.136  19.680  25.302  1.00  0.00    -0.744 OA
ENDBRANCH  77  80
ENDBRANCH  59  73
BRANCH  60  84
ATOM     84  C   UNL A   1      42.668  30.998  34.481  1.00  0.00     0.023 A 
ATOM     85  C   UNL A   1      42.183  30.620  35.747  1.00  0.00     0.012 A 
ATOM     86  C   UNL A   1      43.141  32.312  34.289  1.00  0.00     0.148 A 
ATOM     87  C   UNL A   1      42.146  31.538  36.798  1.00  0.00     0.002 A 
ATOM     88  C   UNL A   1      43.156  33.204  35.355  1.00  0.00     0.091 A 
ATOM     89  F   UNL A   1      43.587  32.655  33.072  1.00  0.00    -0.205 F 
ATOM     90  C   UNL A   1      42.641  32.825  36.605  1.00  0.00     0.022 A 
BRANCH  88  91
ATOM     91  S   UNL A   1      43.900  34.835  35.242  1.00  0.00     0.127 S 
ATOM     92  O   UNL A   1      43.772  35.317  36.616  1.00  0.00    -0.237 OA
ATOM     93  O   UNL A   1      45.265  34.512  34.826  1.00  0.00    -0.237 OA
ATOM     94  O   UNL A   1      43.126  35.559  34.244  1.00  0.00    -0.744 OA
ENDBRANCH  88  91
ENDBRANCH  60  84
BRANCH  72  95
ATOM     95  C   UNL A   1      47.410  26.272  32.472  1.00  0.00     0.023 A 
ATOM     96  C   UNL A   1      48.544  27.034  32.125  1.00  0.00     0.012 A 
ATOM     97  C   UNL A   1      47.551  25.200  33.376  1.00  0.00     0.148 A 
ATOM     98  C   UNL A   1      49.800  26.712  32.641  1.00  0.00     0.002 A 
ATOM     99  C   UNL A   1      48.795  24.919  33.928  1.00  0.00     0.091 A 
ATOM    100  F   UNL A   1      46.465  24.476  33.683  1.00  0.00    -0.205 F 
ATOM    101  C   UNL A   1      49.923  25.665  33.549  1.00  0.00     0.022 A 
BRANCH  99 102
ATOM    102  S   UNL A   1      49.034  23.655  35.183  1.00  0.00     0.127 S 
ATOM    103  O   UNL A   1      50.490  23.536  35.212  1.00  0.00    -0.237 OA
ATOM    104  O   UNL A   1      48.447  24.281  36.368  1.00  0.00    -0.237 OA
ATOM    105  O   UNL A   1      48.322  22.477  34.707  1.00  0.00    -0.744 OA
ENDBRANCH  99 102
ENDBRANCH  72  95
ENDBRANCH  46  47
ENDBRANCH  39  41
ENDBRANCH  38  39
ENDBRANCH  37  38
ENDBRANCH  36  37
ENDBRANCH  35  36
ENDBRANCH  34  35
ENDBRANCH  33  34
ENDBRANCH  32  33
ENDBRANCH   1  32
TORSDOF 27
ENDMDL
MODEL 2
REMARK VINA RESULT:      -8.4      4.629      7.776
REMARK SMILES CC(C)C(=O)Nc1ccc(NC(=O)[C@@H]2[C@@H](C(=O)OCCOCCOCCOCCOC(=O)c3ccc(-c4c5nc(c(-c6cccc(S(=O)(=O)[O-])c6F)c6ccc([nH]6)c(-c6cccc(S(=O)(=O)[O-])c6F)c6nc(c(-c7cccc(S(=O)(=O)[O-])c7F)c7ccc4[nH]7)C=C6)C=C5)cc3)C2(C)C)cc1Cl
REMARK SMILES IDX 23 1 22 2 21 3 20 4 19 5 18 6 16 7 17 8 15 9 14 10 96 11
REMARK SMILES IDX 97 12 98 13 12 14 11 15 13 17 10 18 7 19 8 20 100 21 9 22
REMARK SMILES IDX 99 23 101 24 6 25 4 26 5 27 2 29 1 30 3 31 24 32 25 33 26 34
REMARK SMILES IDX 27 35 28 36 29 37 30 38 31 39 32 40 33 41 34 42 95 43 35 44
REMARK SMILES IDX 94 45 36 46 37 47 38 48 88 49 39 50 93 51 87 52 89 53 40 54
REMARK SMILES IDX 92 55 86 56 85 57 41 59 73 60 53 61 72 62 54 63 57 64 71 65
REMARK SMILES IDX 90 66 55 67 56 68 70 70 91 71 58 72 42 73 43 74 51 75 44 76
REMARK SMILES IDX 46 77 52 78 45 79 47 80 48 81 49 82 50 83 74 84 75 85 83 86
REMARK SMILES IDX 76 87 78 88 84 89 77 90 79 91 80 92 81 93 82 94 59 95 60 96
REMARK SMILES IDX 68 97 61 98 63 99 69 100 62 101 64 102 65 103 66 104 67 105
REMARK H PARENT 11 16 6 28 89 58 57 69
REMARK Flexibility Score: inf
ROOT
ATOM      1  C   UNL A   1      32.596  23.124  27.177  1.00  0.00     0.188 C 
ENDROOT
BRANCH   1   2
ATOM      2  C   UNL A   1      31.740  24.266  26.622  1.00  0.00     0.188 C 
BRANCH   2   3
ATOM      3  O   UNL A   1      32.417  25.123  25.727  1.00  0.00    -0.376 OA
BRANCH   3   4
ATOM      4  C   UNL A   1      31.864  25.475  24.469  1.00  0.00     0.202 C 
BRANCH   4   5
ATOM      5  C   UNL A   1      31.918  26.868  23.806  1.00  0.00     0.261 C 
BRANCH   5   6
ATOM      6  O   UNL A   1      33.185  27.510  23.710  1.00  0.00    -0.463 OA
BRANCH   6   7
ATOM      7  C   UNL A   1      33.262  28.796  24.091  1.00  0.00     0.310 C 
ATOM      8  O   UNL A   1      33.706  29.716  23.418  1.00  0.00    -0.252 OA
BRANCH   7   9
ATOM      9  C   UNL A   1      32.705  29.036  25.448  1.00  0.00     0.118 C 
ATOM     10  C   UNL A   1      33.334  30.200  26.161  1.00  0.00     0.100 C 
ATOM     11  C   UNL A   1      33.331  28.840  26.846  1.00  0.00    -0.009 C 
ATOM     12  C   UNL A   1      34.695  28.253  27.153  1.00  0.00     0.013 C 
ATOM     13  C   UNL A   1      32.348  28.567  27.971  1.00  0.00     0.013 C 
BRANCH  10  14
ATOM     14  C   UNL A   1      32.552  31.341  26.670  1.00  0.00     0.228 C 
ATOM     15  N   UNL A   1      33.186  32.272  27.459  1.00  0.00    -0.326 N 
ATOM     16  H   UNL A   1      32.672  33.101  27.597  1.00  0.00     0.169 HD
ATOM     17  O   UNL A   1      31.377  31.488  26.349  1.00  0.00    -0.274 OA
BRANCH  15  18
ATOM     18  C   UNL A   1      34.440  32.255  28.105  1.00  0.00     0.042 A 
ATOM     19  C   UNL A   1      36.978  31.918  29.274  1.00  0.00     0.060 A 
ATOM     20  C   UNL A   1      36.779  32.916  28.334  1.00  0.00     0.030 A 
ATOM     21  C   UNL A   1      35.876  31.204  29.756  1.00  0.00     0.066 A 
ATOM     22  C   UNL A   1      35.526  33.050  27.745  1.00  0.00     0.028 A 
ATOM     23  C   UNL A   1      34.620  31.346  29.147  1.00  0.00     0.048 A 
ATOM     24  Cl  UNL A   1      35.989  30.172  31.137  1.00  0.00    -0.082 Cl
BRANCH  19  25
ATOM     25  N   UNL A   1      38.305  31.652  29.631  1.00  0.00    -0.325 N 
ATOM     26  C   UNL A   1      39.109  30.698  29.063  1.00  0.00     0.226 C 
ATOM     27  O   UNL A   1      40.331  30.810  29.204  1.00  0.00    -0.274 OA
ATOM     28  H   UNL A   1      38.694  32.196  30.352  1.00  0.00     0.169 HD
BRANCH  26  29
ATOM     29  C   UNL A   1      38.574  29.518  28.233  1.00  0.00     0.072 C 
ATOM     30  C   UNL A   1      39.477  29.092  27.086  1.00  0.00     0.018 C 
ATOM     31  C   UNL A   1      38.087  28.327  29.052  1.00  0.00     0.018 C 
ENDBRANCH  26  29
ENDBRANCH  19  25
ENDBRANCH  15  18
ENDBRANCH  10  14
ENDBRANCH   7   9
ENDBRANCH   6   7
ENDBRANCH   5   6
ENDBRANCH   4   5
ENDBRANCH   3   4
ENDBRANCH   2   3
ENDBRANCH   1   2
BRANCH   1  32
ATOM     32  O   UNL A   1      33.113  22.228  26.208  1.00  0.00    -0.377 OA
BRANCH  32  33
ATOM     33  C   UNL A   1      34.463  22.354  25.779  1.00  0.00     0.188 C 
BRANCH  33  34
ATOM     34  C   UNL A   1      34.971  21.640  24.511  1.00  0.00     0.188 C 
BRANCH  34  35
ATOM     35  O   UNL A   1      36.286  21.990  24.105  1.00  0.00    -0.376 OA
BRANCH  35  36
ATOM     36  C   UNL A   1      37.379  21.275  24.660  1.00  0.00     0.202 C 
BRANCH  36  37
ATOM     37  C   UNL A   1      37.987  21.809  25.967  1.00  0.00     0.261 C 
BRANCH  37  38
ATOM     38  O   UNL A   1      39.356  22.233  25.901  1.00  0.00    -0.460 OA
BRANCH  38  39
ATOM     39  C   UNL A   1      40.183  21.841  26.893  1.00  0.00     0.338 C 
ATOM     40  O   UNL A   1      40.521  20.703  27.164  1.00  0.00    -0.246 OA
BRANCH  39  41
ATOM     41  C   UNL A   1      40.773  23.056  27.486  1.00  0.00     0.060 A 
ATOM     42  C   UNL A   1      40.323  24.310  27.052  1.00  0.00     0.016 A 
ATOM     43  C   UNL A   1      41.766  22.955  28.462  1.00  0.00     0.016 A 
ATOM     44  C   UNL A   1      40.901  25.470  27.564  1.00  0.00     0.010 A 
ATOM     45  C   UNL A   1      42.355  24.117  28.961  1.00  0.00     0.010 A 
ATOM     46  C   UNL A   1      41.953  25.378  28.484  1.00  0.00    -0.014 A 
BRANCH  46  47
ATOM     47  C   UNL A   1      42.769  26.575  28.792  1.00  0.00     0.031 A 
ATOM     48  C   UNL A   1      44.048  26.781  28.026  1.00  0.00     0.074 A 
ATOM     49  C   UNL A   1      42.389  27.460  29.728  1.00  0.00     0.049 A 
ATOM     50  N   UNL A   1      44.934  27.734  28.132  1.00  0.00    -0.248 NA
ATOM     51  C   UNL A   1      44.368  25.768  27.007  1.00  0.00     0.031 C 
ATOM     52  C   UNL A   1      41.164  27.382  30.520  1.00  0.00     0.029 A 
ATOM     53  N   UNL A   1      43.015  28.594  30.181  1.00  0.00    -0.354 N 
ATOM     54  C   UNL A   1      45.932  27.423  27.216  1.00  0.00     0.074 A 
ATOM     55  C   UNL A   1      45.550  26.182  26.580  1.00  0.00     0.031 C 
ATOM     56  C   UNL A   1      41.133  28.418  31.375  1.00  0.00     0.029 A 
ATOM     57  C   UNL A   1      42.348  29.215  31.211  1.00  0.00     0.049 A 
ATOM     58  H   UNL A   1      43.859  28.931  29.805  1.00  0.00     0.167 HD
ATOM     59  C   UNL A   1      47.059  28.113  26.919  1.00  0.00     0.034 A 
ATOM     60  C   UNL A   1      42.692  30.292  31.945  1.00  0.00     0.034 A 
ATOM     61  C   UNL A   1      47.436  29.347  27.555  1.00  0.00     0.049 A 
ATOM     62  C   UNL A   1      43.979  31.013  31.637  1.00  0.00     0.074 A 
ATOM     63  C   UNL A   1      48.535  30.146  27.301  1.00  0.00     0.029 A 
ATOM     64  N   UNL A   1      46.735  29.947  28.591  1.00  0.00    -0.354 N 
ATOM     65  N   UNL A   1      44.860  30.772  30.696  1.00  0.00    -0.248 NA
ATOM     66  C   UNL A   1      44.305  32.175  32.477  1.00  0.00     0.031 C 
ATOM     67  C   UNL A   1      48.522  31.208  28.213  1.00  0.00     0.029 A 
ATOM     68  C   UNL A   1      47.389  31.095  29.004  1.00  0.00     0.049 A 
ATOM     69  H   UNL A   1      45.896  29.607  28.976  1.00  0.00     0.167 HD
ATOM     70  C   UNL A   1      45.820  31.774  30.801  1.00  0.00     0.074 A 
ATOM     71  C   UNL A   1      45.404  32.633  31.891  1.00  0.00     0.031 C 
ATOM     72  C   UNL A   1      46.944  31.965  30.065  1.00  0.00     0.034 A 
BRANCH  59  73
ATOM     73  C   UNL A   1      47.958  27.535  25.856  1.00  0.00     0.023 A 
ATOM     74  C   UNL A   1      48.982  26.633  26.213  1.00  0.00     0.012 A 
ATOM     75  C   UNL A   1      47.793  27.888  24.502  1.00  0.00     0.148 A 
ATOM     76  C   UNL A   1      49.862  26.138  25.251  1.00  0.00     0.002 A 
ATOM     77  C   UNL A   1      48.641  27.349  23.542  1.00  0.00     0.091 A 
ATOM     78  F   UNL A   1      46.832  28.765  24.181  1.00  0.00    -0.205 F 
ATOM     79  C   UNL A   1      49.687  26.490  23.916  1.00  0.00     0.022 A 
BRANCH  77  80
ATOM     80  S   UNL A   1      48.443  27.680  21.788  1.00  0.00     0.127 S 
ATOM     81  O   UNL A   1      48.562  26.339  21.220  1.00  0.00    -0.237 OA
ATOM     82  O   UNL A   1      47.096  28.248  21.732  1.00  0.00    -0.237 OA
ATOM     83  O   UNL A   1      49.506  28.610  21.436  1.00  0.00    -0.744 OA
ENDBRANCH  77  80
ENDBRANCH  59  73
BRANCH  60  84
ATOM     84  C   UNL A   1      41.770  30.790  33.005  1.00  0.00     0.023 A 
ATOM     85  C   UNL A   1      41.834  30.225  34.293  1.00  0.00     0.012 A 
ATOM     86  C   UNL A   1      40.861  31.838  32.757  1.00  0.00     0.148 A 
ATOM     87  C   UNL A   1      40.994  30.678  35.311  1.00  0.00     0.002 A 
ATOM     88  C   UNL A   1      40.068  32.324  33.789  1.00  0.00     0.091 A 
ATOM     89  F   UNL A   1      40.808  32.352  31.520  1.00  0.00    -0.205 F 
ATOM     90  C   UNL A   1      40.119  31.733  35.062  1.00  0.00     0.022 A 
BRANCH  88  91
ATOM     91  S   UNL A   1      39.013  33.766  33.604  1.00  0.00     0.127 S 
ATOM     92  O   UNL A   1      38.448  33.897  34.945  1.00  0.00    -0.237 OA
ATOM     93  O   UNL A   1      39.983  34.800  33.240  1.00  0.00    -0.237 OA
ATOM     94  O   UNL A   1      38.067  33.436  32.548  1.00  0.00    -0.744 OA
ENDBRANCH  88  91
ENDBRANCH  60  84
BRANCH  72  95
ATOM     95  C   UNL A   1      47.793  33.173  30.377  1.00  0.00     0.023 A 
ATOM     96  C   UNL A   1      48.819  33.089  31.339  1.00  0.00     0.012 A 
ATOM     97  C   UNL A   1      47.617  34.374  29.660  1.00  0.00     0.148 A 
ATOM     98  C   UNL A   1      49.631  34.191  31.609  1.00  0.00     0.002 A 
ATOM     99  C   UNL A   1      48.464  35.450  29.895  1.00  0.00     0.091 A 
ATOM    100  F   UNL A   1      46.626  34.442  28.760  1.00  0.00    -0.205 F 
ATOM    101  C   UNL A   1      49.462  35.365  30.879  1.00  0.00     0.022 A 
BRANCH  99 102
ATOM    102  S   UNL A   1      48.389  36.967  28.935  1.00  0.00     0.127 S 
ATOM    103  O   UNL A   1      48.803  36.503  27.612  1.00  0.00    -0.237 OA
ATOM    104  O   UNL A   1      46.976  37.331  29.040  1.00  0.00    -0.237 OA
ATOM    105  O   UNL A   1      49.303  37.898  29.581  1.00  0.00    -0.744 OA
ENDBRANCH  99 102
ENDBRANCH  72  95
ENDBRANCH  46  47
ENDBRANCH  39  41
ENDBRANCH  38  39
ENDBRANCH  37  38
ENDBRANCH  36  37
ENDBRANCH  35  36
ENDBRANCH  34  35
ENDBRANCH  33  34
ENDBRANCH  32  33
ENDBRANCH   1  32
TORSDOF 27
ENDMDL
MODEL 3
REMARK VINA RESULT:      -8.4      1.722      1.990
REMARK SMILES CC(C)C(=O)Nc1ccc(NC(=O)[C@@H]2[C@@H](C(=O)OCCOCCOCCOCCOC(=O)c3ccc(-c4c5nc(c(-c6cccc(S(=O)(=O)[O-])c6F)c6ccc([nH]6)c(-c6cccc(S(=O)(=O)[O-])c6F)c6nc(c(-c7cccc(S(=O)(=O)[O-])c7F)c7ccc4[nH]7)C=C6)C=C5)cc3)C2(C)C)cc1Cl
REMARK SMILES IDX 23 1 22 2 21 3 20 4 19 5 18 6 16 7 17 8 15 9 14 10 96 11
REMARK SMILES IDX 97 12 98 13 12 14 11 15 13 17 10 18 7 19 8 20 100 21 9 22
REMARK SMILES IDX 99 23 101 24 6 25 4 26 5 27 2 29 1 30 3 31 24 32 25 33 26 34
REMARK SMILES IDX 27 35 28 36 29 37 30 38 31 39 32 40 33 41 34 42 95 43 35 44
REMARK SMILES IDX 94 45 36 46 37 47 38 48 88 49 39 50 93 51 87 52 89 53 40 54
REMARK SMILES IDX 92 55 86 56 85 57 41 59 73 60 53 61 72 62 54 63 57 64 71 65
REMARK SMILES IDX 90 66 55 67 56 68 70 70 91 71 58 72 42 73 43 74 51 75 44 76
REMARK SMILES IDX 46 77 52 78 45 79 47 80 48 81 49 82 50 83 74 84 75 85 83 86
REMARK SMILES IDX 76 87 78 88 84 89 77 90 79 91 80 92 81 93 82 94 59 95 60 96
REMARK SMILES IDX 68 97 61 98 63 99 69 100 62 101 64 102 65 103 66 104 67 105
REMARK H PARENT 11 16 6 28 89 58 57 69
REMARK Flexibility Score: inf
ROOT
ATOM      1  C   UNL A   1      34.548  22.353  27.884  1.00  0.00     0.188 C 
ENDROOT
BRANCH   1   2
ATOM      2  C   UNL A   1      33.222  21.858  27.299  1.00  0.00     0.188 C 
BRANCH   2   3
ATOM      3  O   UNL A   1      33.336  20.716  26.477  1.00  0.00    -0.376 OA
BRANCH   3   4
ATOM      4  C   UNL A   1      32.685  20.634  25.219  1.00  0.00     0.202 C 
BRANCH   4   5
ATOM      5  C   UNL A   1      33.272  21.061  23.857  1.00  0.00     0.261 C 
BRANCH   5   6
ATOM      6  O   UNL A   1      32.377  21.186  22.757  1.00  0.00    -0.463 OA
BRANCH   6   7
ATOM      7  C   UNL A   1      31.550  22.245  22.744  1.00  0.00     0.310 C 
ATOM      8  O   UNL A   1      30.378  22.233  22.392  1.00  0.00    -0.252 OA
BRANCH   7   9
ATOM      9  C   UNL A   1      32.188  23.488  23.250  1.00  0.00     0.118 C 
ATOM     10  C   UNL A   1      31.210  24.591  23.543  1.00  0.00     0.100 C 
ATOM     11  C   UNL A   1      32.364  24.873  22.591  1.00  0.00    -0.009 C 
ATOM     12  C   UNL A   1      31.973  25.259  21.177  1.00  0.00     0.013 C 
ATOM     13  C   UNL A   1      33.556  25.680  23.072  1.00  0.00     0.013 C 
BRANCH  10  14
ATOM     14  C   UNL A   1      31.105  25.233  24.865  1.00  0.00     0.228 C 
ATOM     15  N   UNL A   1      30.541  26.486  24.945  1.00  0.00    -0.326 N 
ATOM     16  H   UNL A   1      30.317  26.770  25.861  1.00  0.00     0.169 HD
ATOM     17  O   UNL A   1      31.457  24.640  25.880  1.00  0.00    -0.274 OA
BRANCH  15  18
ATOM     18  C   UNL A   1      30.226  27.435  23.950  1.00  0.00     0.042 A 
ATOM     19  C   UNL A   1      29.464  29.508  22.205  1.00  0.00     0.060 A 
ATOM     20  C   UNL A   1      30.805  29.198  22.363  1.00  0.00     0.030 A 
ATOM     21  C   UNL A   1      28.498  28.677  22.781  1.00  0.00     0.066 A 
ATOM     22  C   UNL A   1      31.166  28.190  23.252  1.00  0.00     0.028 A 
ATOM     23  C   UNL A   1      28.878  27.668  23.680  1.00  0.00     0.048 A 
ATOM     24  Cl  UNL A   1      26.823  28.808  22.380  1.00  0.00    -0.082 Cl
BRANCH  19  25
ATOM     25  N   UNL A   1      29.174  30.693  21.519  1.00  0.00    -0.325 N 
ATOM     26  C   UNL A   1      28.952  31.916  22.096  1.00  0.00     0.226 C 
ATOM     27  O   UNL A   1      29.073  32.922  21.388  1.00  0.00    -0.274 OA
ATOM     28  H   UNL A   1      29.125  30.643  20.537  1.00  0.00     0.169 HD
BRANCH  26  29
ATOM     29  C   UNL A   1      28.597  32.106  23.579  1.00  0.00     0.072 C 
ATOM     30  C   UNL A   1      27.244  31.542  23.983  1.00  0.00     0.018 C 
ATOM     31  C   UNL A   1      29.697  31.708  24.559  1.00  0.00     0.018 C 
ENDBRANCH  26  29
ENDBRANCH  19  25
ENDBRANCH  15  18
ENDBRANCH  10  14
ENDBRANCH   7   9
ENDBRANCH   6   7
ENDBRANCH   5   6
ENDBRANCH   4   5
ENDBRANCH   3   4
ENDBRANCH   2   3
ENDBRANCH   1   2
BRANCH   1  32
ATOM     32  O   UNL A   1      35.229  23.323  27.108  1.00  0.00    -0.377 OA
BRANCH  32  33
ATOM     33  C   UNL A   1      34.531  24.028  26.089  1.00  0.00     0.188 C 
BRANCH  33  34
ATOM     34  C   UNL A   1      34.760  25.535  25.856  1.00  0.00     0.188 C 
BRANCH  34  35
ATOM     35  O   UNL A   1      33.743  26.386  26.363  1.00  0.00    -0.376 OA
BRANCH  35  36
ATOM     36  C   UNL A   1      33.823  27.776  26.088  1.00  0.00     0.202 C 
BRANCH  36  37
ATOM     37  C   UNL A   1      33.868  28.736  27.287  1.00  0.00     0.261 C 
BRANCH  37  38
ATOM     38  O   UNL A   1      34.340  30.064  27.017  1.00  0.00    -0.460 OA
BRANCH  38  39
ATOM     39  C   UNL A   1      34.890  30.755  28.038  1.00  0.00     0.338 C 
ATOM     40  O   UNL A   1      34.367  31.630  28.702  1.00  0.00    -0.246 OA
BRANCH  39  41
ATOM     41  C   UNL A   1      36.191  30.130  28.347  1.00  0.00     0.060 A 
ATOM     42  C   UNL A   1      36.369  29.513  29.592  1.00  0.00     0.016 A 
ATOM     43  C   UNL A   1      37.227  30.157  27.411  1.00  0.00     0.016 A 
ATOM     44  C   UNL A   1      37.605  28.959  29.922  1.00  0.00     0.010 A 
ATOM     45  C   UNL A   1      38.468  29.617  27.750  1.00  0.00     0.010 A 
ATOM     46  C   UNL A   1      38.673  29.053  29.022  1.00  0.00    -0.014 A 
BRANCH  46  47
ATOM     47  C   UNL A   1      40.050  28.752  29.479  1.00  0.00     0.031 A 
ATOM     48  C   UNL A   1      40.779  27.604  28.835  1.00  0.00     0.074 A 
ATOM     49  C   UNL A   1      40.642  29.476  30.443  1.00  0.00     0.049 A 
ATOM     50  N   UNL A   1      41.974  27.138  29.079  1.00  0.00    -0.248 NA
ATOM     51  C   UNL A   1      40.054  26.884  27.775  1.00  0.00     0.031 C 
ATOM     52  C   UNL A   1      40.049  30.623  31.126  1.00  0.00     0.029 A 
ATOM     53  N   UNL A   1      41.877  29.335  31.024  1.00  0.00    -0.354 N 
ATOM     54  C   UNL A   1      42.135  26.053  28.226  1.00  0.00     0.074 A 
ATOM     55  C   UNL A   1      40.908  25.918  27.474  1.00  0.00     0.031 C 
ATOM     56  C   UNL A   1      40.917  31.075  32.047  1.00  0.00     0.029 A 
ATOM     57  C   UNL A   1      42.112  30.233  32.039  1.00  0.00     0.049 A 
ATOM     58  H   UNL A   1      42.532  28.658  30.742  1.00  0.00     0.167 HD
ATOM     59  C   UNL A   1      43.213  25.247  28.070  1.00  0.00     0.034 A 
ATOM     60  C   UNL A   1      43.164  30.346  32.873  1.00  0.00     0.034 A 
ATOM     61  C   UNL A   1      44.432  25.382  28.821  1.00  0.00     0.049 A 
ATOM     62  C   UNL A   1      44.330  29.402  32.721  1.00  0.00     0.074 A 
ATOM     63  C   UNL A   1      45.596  24.644  28.713  1.00  0.00     0.029 A 
ATOM     64  N   UNL A   1      44.634  26.304  29.838  1.00  0.00    -0.354 N 
ATOM     65  N   UNL A   1      44.516  28.451  31.839  1.00  0.00    -0.248 NA
ATOM     66  C   UNL A   1      45.445  29.570  33.665  1.00  0.00     0.031 C 
ATOM     67  C   UNL A   1      46.488  25.092  29.695  1.00  0.00     0.029 A 
ATOM     68  C   UNL A   1      45.897  26.140  30.383  1.00  0.00     0.049 A 
ATOM     69  H   UNL A   1      43.977  26.977  30.129  1.00  0.00     0.167 HD
ATOM     70  C   UNL A   1      45.784  27.934  32.092  1.00  0.00     0.074 A 
ATOM     71  C   UNL A   1      46.324  28.689  33.204  1.00  0.00     0.031 C 
ATOM     72  C   UNL A   1      46.439  26.926  31.464  1.00  0.00     0.034 A 
BRANCH  59  73
ATOM     73  C   UNL A   1      43.105  24.148  27.044  1.00  0.00     0.023 A 
ATOM     74  C   UNL A   1      43.684  24.315  25.768  1.00  0.00     0.012 A 
ATOM     75  C   UNL A   1      42.426  22.950  27.340  1.00  0.00     0.148 A 
ATOM     76  C   UNL A   1      43.539  23.335  24.787  1.00  0.00     0.002 A 
ATOM     77  C   UNL A   1      42.331  21.955  26.374  1.00  0.00     0.091 A 
ATOM     78  F   UNL A   1      41.860  22.815  28.548  1.00  0.00    -0.205 F 
ATOM     79  C   UNL A   1      42.870  22.153  25.092  1.00  0.00     0.022 A 
BRANCH  77  80
ATOM     80  S   UNL A   1      41.560  20.367  26.699  1.00  0.00     0.127 S 
ATOM     81  O   UNL A   1      42.316  19.903  27.860  1.00  0.00    -0.237 OA
ATOM     82  O   UNL A   1      40.176  20.750  26.986  1.00  0.00    -0.237 OA
ATOM     83  O   UNL A   1      41.730  19.585  25.483  1.00  0.00    -0.744 OA
ENDBRANCH  77  80
ENDBRANCH  59  73
BRANCH  60  84
ATOM     84  C   UNL A   1      43.190  31.437  33.889  1.00  0.00     0.023 A 
ATOM     85  C   UNL A   1      43.856  32.640  33.590  1.00  0.00     0.012 A 
ATOM     86  C   UNL A   1      42.532  31.303  35.128  1.00  0.00     0.148 A 
ATOM     87  C   UNL A   1      43.887  33.685  34.515  1.00  0.00     0.002 A 
ATOM     88  C   UNL A   1      42.517  32.368  36.021  1.00  0.00     0.091 A 
ATOM     89  F   UNL A   1      41.915  30.144  35.397  1.00  0.00    -0.205 F 
ATOM     90  C   UNL A   1      43.210  33.552  35.725  1.00  0.00     0.022 A 
BRANCH  88  91
ATOM     91  S   UNL A   1      41.559  32.345  37.541  1.00  0.00     0.127 S 
ATOM     92  O   UNL A   1      42.345  31.439  38.375  1.00  0.00    -0.237 OA
ATOM     93  O   UNL A   1      41.604  33.751  37.943  1.00  0.00    -0.237 OA
ATOM     94  O   UNL A   1      40.233  31.872  37.169  1.00  0.00    -0.744 OA
ENDBRANCH  88  91
ENDBRANCH  60  84
BRANCH  72  95
ATOM     95  C   UNL A   1      47.837  26.598  31.928  1.00  0.00     0.023 A 
ATOM     96  C   UNL A   1      48.048  25.582  32.882  1.00  0.00     0.012 A 
ATOM     97  C   UNL A   1      48.950  27.253  31.362  1.00  0.00     0.148 A 
ATOM     98  C   UNL A   1      49.340  25.249  33.290  1.00  0.00     0.002 A 
ATOM     99  C   UNL A   1      50.236  26.880  31.734  1.00  0.00     0.091 A 
ATOM    100  F   UNL A   1      48.731  28.229  30.469  1.00  0.00    -0.205 F 
ATOM    101  C   UNL A   1      50.432  25.888  32.709  1.00  0.00     0.022 A 
BRANCH  99 102
ATOM    102  S   UNL A   1      51.704  27.574  30.966  1.00  0.00     0.127 S 
ATOM    103  O   UNL A   1      51.486  29.008  31.150  1.00  0.00    -0.237 OA
ATOM    104  O   UNL A   1      52.778  27.009  31.783  1.00  0.00    -0.237 OA
ATOM    105  O   UNL A   1      51.691  27.115  29.584  1.00  0.00    -0.744 OA
ENDBRANCH  99 102
ENDBRANCH  72  95
ENDBRANCH  46  47
ENDBRANCH  39  41
ENDBRANCH  38  39
ENDBRANCH  37  38
ENDBRANCH  36  37
ENDBRANCH  35  36
ENDBRANCH  34  35
ENDBRANCH  33  34
ENDBRANCH  32  33
ENDBRANCH   1  32
TORSDOF 27
ENDMDL
