MODEL 1
REMARK VINA RESULT:     -10.8      0.000      0.000
REMARK SMILES C[C@@H](C(=O)OCCOCCOCCOCCOC(=O)c1ccc(-c2c3nc(c(-c4cccc(S(=O)(=O)[O-])c4F)c4ccc([nH]4)c(-c4cccc(S(=O)(=O)[O-])c4F)c4nc(c(-c5cccc(S(=O)(=O)[O-])c5F)c5ccc2[nH]5)C=C4)C=C3)cc1)c1ccc2c3cc(Cl)ccc3n(C(=O)c3cocn3)c2c1
REMARK SMILES IDX 11 1 10 2 9 3 8 4 7 5 6 6 5 7 3 8 4 9 2 10 1 11 83 12 84 13
REMARK SMILES IDX 103 14 85 15 102 16 86 17 94 18 87 19 93 20 88 21 92 22
REMARK SMILES IDX 89 23 91 24 90 25 95 26 96 27 97 28 98 29 101 30 99 31
REMARK SMILES IDX 100 32 12 33 13 34 14 35 15 36 16 37 17 38 18 39 19 40 20 41
REMARK SMILES IDX 21 42 82 43 22 44 81 45 23 46 24 47 25 48 75 49 26 50 80 51
REMARK SMILES IDX 74 52 76 53 27 54 79 55 73 56 72 57 28 59 60 60 40 61 59 62
REMARK SMILES IDX 41 63 44 64 58 65 77 66 42 67 43 68 57 70 78 71 45 72 29 73
REMARK SMILES IDX 30 74 38 75 31 76 33 77 39 78 32 79 34 80 35 81 36 82 37 83
REMARK SMILES IDX 61 84 62 85 70 86 63 87 65 88 71 89 64 90 66 91 67 92 68 93
REMARK SMILES IDX 69 94 46 95 47 96 55 97 48 98 50 99 56 100 49 101 51 102
REMARK SMILES IDX 52 103 53 104 54 105
REMARK H PARENT 76 58 44 69
REMARK Flexibility Score: inf
ROOT
ATOM      1  O   UNL A   1      32.415  28.913  23.654  1.00  0.00    -0.377 OA
ENDROOT
BRANCH   1   2
ATOM      2  C   UNL A   1      33.389  28.520  22.700  1.00  0.00     0.188 C 
BRANCH   2   3
ATOM      3  C   UNL A   1      33.360  27.066  22.204  1.00  0.00     0.188 C 
BRANCH   3   4
ATOM      4  O   UNL A   1      32.591  26.209  23.023  1.00  0.00    -0.376 OA
BRANCH   4   5
ATOM      5  C   UNL A   1      31.409  25.635  22.495  1.00  0.00     0.202 C 
BRANCH   5   6
ATOM      6  C   UNL A   1      30.374  24.900  23.372  1.00  0.00     0.261 C 
BRANCH   6   7
ATOM      7  O   UNL A   1      29.854  25.629  24.491  1.00  0.00    -0.463 OA
BRANCH   7   8
ATOM      8  C   UNL A   1      30.273  25.292  25.734  1.00  0.00     0.313 C 
ATOM      9  O   UNL A   1      30.356  26.078  26.673  1.00  0.00    -0.252 OA
BRANCH   8  10
ATOM     10  C   UNL A   1      30.528  23.785  25.884  1.00  0.00     0.126 C 
ATOM     11  C   UNL A   1      29.894  23.195  27.157  1.00  0.00     0.025 C 
BRANCH  10  12
ATOM     12  C   UNL A   1      31.983  23.355  25.620  1.00  0.00    -0.032 A 
ATOM     13  C   UNL A   1      33.030  24.282  25.700  1.00  0.00     0.005 A 
ATOM     14  C   UNL A   1      32.313  22.010  25.363  1.00  0.00     0.032 A 
ATOM     15  C   UNL A   1      34.372  23.879  25.631  1.00  0.00     0.011 A 
ATOM     16  C   UNL A   1      33.659  21.627  25.179  1.00  0.00     0.058 A 
ATOM     17  C   UNL A   1      34.689  22.523  25.414  1.00  0.00     0.008 A 
ATOM     18  N   UNL A   1      34.216  20.402  24.783  1.00  0.00    -0.274 N 
ATOM     19  C   UNL A   1      35.895  21.771  25.425  1.00  0.00     0.009 A 
ATOM     20  C   UNL A   1      35.607  20.476  24.964  1.00  0.00     0.057 A 
ATOM     21  C   UNL A   1      37.218  22.112  25.781  1.00  0.00     0.031 A 
ATOM     22  C   UNL A   1      36.656  19.573  24.696  1.00  0.00     0.029 A 
ATOM     23  C   UNL A   1      38.235  21.180  25.609  1.00  0.00     0.041 A 
ATOM     24  C   UNL A   1      37.967  19.942  25.039  1.00  0.00     0.023 A 
ATOM     25  Cl  UNL A   1      39.839  21.579  26.089  1.00  0.00    -0.084 Cl
BRANCH  18  26
ATOM     26  C   UNL A   1      33.442  19.348  24.224  1.00  0.00     0.284 C 
ATOM     27  O   UNL A   1      32.782  19.657  23.235  1.00  0.00    -0.266 OA
BRANCH  26  28
ATOM     28  C   UNL A   1      33.337  17.986  24.742  1.00  0.00     0.167 A 
ATOM     29  C   UNL A   1      32.713  17.519  25.878  1.00  0.00     0.231 A 
ATOM     30  N   UNL A   1      33.756  16.889  23.996  1.00  0.00    -0.211 NA
ATOM     31  O   UNL A   1      32.725  16.153  25.850  1.00  0.00    -0.451 OA
ATOM     32  C   UNL A   1      33.346  15.851  24.680  1.00  0.00     0.308 A 
ENDBRANCH  26  28
ENDBRANCH  18  26
ENDBRANCH  10  12
ENDBRANCH   8  10
ENDBRANCH   7   8
ENDBRANCH   6   7
ENDBRANCH   5   6
ENDBRANCH   4   5
ENDBRANCH   3   4
ENDBRANCH   2   3
ENDBRANCH   1   2
BRANCH   1  33
ATOM     33  C   UNL A   1      32.826  29.276  24.971  1.00  0.00     0.188 C 
BRANCH  33  34
ATOM     34  C   UNL A   1      31.932  30.136  25.897  1.00  0.00     0.188 C 
BRANCH  34  35
ATOM     35  O   UNL A   1      32.346  30.208  27.252  1.00  0.00    -0.376 OA
BRANCH  35  36
ATOM     36  C   UNL A   1      33.500  30.976  27.552  1.00  0.00     0.202 C 
BRANCH  36  37
ATOM     37  C   UNL A   1      33.430  32.490  27.301  1.00  0.00     0.261 C 
BRANCH  37  38
ATOM     38  O   UNL A   1      32.815  33.276  28.333  1.00  0.00    -0.460 OA
BRANCH  38  39
ATOM     39  C   UNL A   1      33.425  34.421  28.703  1.00  0.00     0.338 C 
ATOM     40  O   UNL A   1      33.030  35.563  28.512  1.00  0.00    -0.246 OA
BRANCH  39  41
ATOM     41  C   UNL A   1      34.569  34.064  29.565  1.00  0.00     0.060 A 
ATOM     42  C   UNL A   1      35.865  34.397  29.151  1.00  0.00     0.016 A 
ATOM     43  C   UNL A   1      34.358  33.411  30.781  1.00  0.00     0.016 A 
ATOM     44  C   UNL A   1      36.962  34.040  29.935  1.00  0.00     0.010 A 
ATOM     45  C   UNL A   1      35.459  33.034  31.554  1.00  0.00     0.010 A 
ATOM     46  C   UNL A   1      36.766  33.313  31.115  1.00  0.00    -0.014 A 
BRANCH  46  47
ATOM     47  C   UNL A   1      37.924  32.666  31.778  1.00  0.00     0.031 A 
ATOM     48  C   UNL A   1      38.576  31.498  31.090  1.00  0.00     0.074 A 
ATOM     49  C   UNL A   1      38.390  33.101  32.961  1.00  0.00     0.049 A 
ATOM     50  N   UNL A   1      39.562  30.741  31.492  1.00  0.00    -0.248 NA
ATOM     51  C   UNL A   1      38.038  31.133  29.767  1.00  0.00     0.031 C 
ATOM     52  C   UNL A   1      37.854  34.230  33.719  1.00  0.00     0.029 A 
ATOM     53  N   UNL A   1      39.410  32.620  33.745  1.00  0.00    -0.354 N 
ATOM     54  C   UNL A   1      39.743  29.793  30.492  1.00  0.00     0.074 A 
ATOM     55  C   UNL A   1      38.756  30.061  29.469  1.00  0.00     0.031 C 
ATOM     56  C   UNL A   1      38.529  34.333  34.878  1.00  0.00     0.029 A 
ATOM     57  C   UNL A   1      39.520  33.262  34.955  1.00  0.00     0.049 A 
ATOM     58  H   UNL A   1      40.004  31.886  33.467  1.00  0.00     0.167 HD
ATOM     59  C   UNL A   1      40.655  28.796  30.424  1.00  0.00     0.034 A 
ATOM     60  C   UNL A   1      40.308  32.992  36.016  1.00  0.00     0.034 A 
ATOM     61  C   UNL A   1      41.639  28.536  31.439  1.00  0.00     0.049 A 
ATOM     62  C   UNL A   1      41.290  31.850  35.934  1.00  0.00     0.074 A 
ATOM     63  C   UNL A   1      42.633  27.573  31.446  1.00  0.00     0.029 A 
ATOM     64  N   UNL A   1      41.743  29.228  32.636  1.00  0.00    -0.354 N 
ATOM     65  N   UNL A   1      41.520  31.026  34.941  1.00  0.00    -0.248 NA
ATOM     66  C   UNL A   1      42.146  31.623  37.109  1.00  0.00     0.031 C 
ATOM     67  C   UNL A   1      43.311  27.657  32.666  1.00  0.00     0.029 A 
ATOM     68  C   UNL A   1      42.773  28.704  33.397  1.00  0.00     0.049 A 
ATOM     69  H   UNL A   1      41.169  29.981  32.904  1.00  0.00     0.167 HD
ATOM     70  C   UNL A   1      42.570  30.210  35.355  1.00  0.00     0.074 A 
ATOM     71  C   UNL A   1      42.941  30.651  36.682  1.00  0.00     0.031 C 
ATOM     72  C   UNL A   1      43.165  29.183  34.698  1.00  0.00     0.034 A 
BRANCH  59  73
ATOM     73  C   UNL A   1      40.634  27.914  29.202  1.00  0.00     0.023 A 
ATOM     74  C   UNL A   1      39.667  26.895  29.088  1.00  0.00     0.012 A 
ATOM     75  C   UNL A   1      41.547  28.123  28.150  1.00  0.00     0.148 A 
ATOM     76  C   UNL A   1      39.633  26.071  27.963  1.00  0.00     0.002 A 
ATOM     77  C   UNL A   1      41.475  27.331  27.011  1.00  0.00     0.091 A 
ATOM     78  F   UNL A   1      42.473  29.082  28.287  1.00  0.00    -0.205 F 
ATOM     79  C   UNL A   1      40.529  26.296  26.921  1.00  0.00     0.022 A 
BRANCH  77  80
ATOM     80  S   UNL A   1      42.530  27.593  25.581  1.00  0.00     0.127 S 
ATOM     81  O   UNL A   1      42.208  26.427  24.759  1.00  0.00    -0.237 OA
ATOM     82  O   UNL A   1      42.027  28.864  25.059  1.00  0.00    -0.237 OA
ATOM     83  O   UNL A   1      43.894  27.640  26.089  1.00  0.00    -0.744 OA
ENDBRANCH  77  80
ENDBRANCH  59  73
BRANCH  60  84
ATOM     84  C   UNL A   1      40.211  33.825  37.249  1.00  0.00     0.023 A 
ATOM     85  C   UNL A   1      39.253  33.512  38.232  1.00  0.00     0.012 A 
ATOM     86  C   UNL A   1      41.069  34.923  37.451  1.00  0.00     0.148 A 
ATOM     87  C   UNL A   1      39.129  34.297  39.380  1.00  0.00     0.002 A 
ATOM     88  C   UNL A   1      40.980  35.666  38.622  1.00  0.00     0.091 A 
ATOM     89  F   UNL A   1      41.963  35.214  36.496  1.00  0.00    -0.205 F 
ATOM     90  C   UNL A   1      39.998  35.367  39.580  1.00  0.00     0.022 A 
BRANCH  88  91
ATOM     91  S   UNL A   1      42.135  36.981  39.022  1.00  0.00     0.127 S 
ATOM     92  O   UNL A   1      42.830  37.167  37.750  1.00  0.00    -0.237 OA
ATOM     93  O   UNL A   1      41.232  38.070  39.395  1.00  0.00    -0.237 OA
ATOM     94  O   UNL A   1      42.952  36.473  40.116  1.00  0.00    -0.744 OA
ENDBRANCH  88  91
ENDBRANCH  60  84
BRANCH  72  95
ATOM     95  C   UNL A   1      44.321  28.490  35.376  1.00  0.00     0.023 A 
ATOM     96  C   UNL A   1      45.646  28.860  35.073  1.00  0.00     0.012 A 
ATOM     97  C   UNL A   1      44.085  27.522  36.374  1.00  0.00     0.148 A 
ATOM     98  C   UNL A   1      46.719  28.251  35.725  1.00  0.00     0.002 A 
ATOM     99  C   UNL A   1      45.157  26.959  37.057  1.00  0.00     0.091 A 
ATOM    100  F   UNL A   1      42.818  27.172  36.638  1.00  0.00    -0.205 F 
ATOM    101  C   UNL A   1      46.473  27.311  36.724  1.00  0.00     0.022 A 
BRANCH  99 102
ATOM    102  S   UNL A   1      44.935  25.816  38.426  1.00  0.00     0.127 S 
ATOM    103  O   UNL A   1      43.872  26.468  39.188  1.00  0.00    -0.237 OA
ATOM    104  O   UNL A   1      44.530  24.590  37.739  1.00  0.00    -0.237 OA
ATOM    105  O   UNL A   1      46.225  25.736  39.098  1.00  0.00    -0.744 OA
ENDBRANCH  99 102
ENDBRANCH  72  95
ENDBRANCH  46  47
ENDBRANCH  39  41
ENDBRANCH  38  39
ENDBRANCH  37  38
ENDBRANCH  36  37
ENDBRANCH  35  36
ENDBRANCH  34  35
ENDBRANCH  33  34
ENDBRANCH   1  33
TORSDOF 26
ENDMDL
MODEL 2
REMARK VINA RESULT:     -10.1      1.588      7.097
REMARK SMILES C[C@@H](C(=O)OCCOCCOCCOCCOC(=O)c1ccc(-c2c3nc(c(-c4cccc(S(=O)(=O)[O-])c4F)c4ccc([nH]4)c(-c4cccc(S(=O)(=O)[O-])c4F)c4nc(c(-c5cccc(S(=O)(=O)[O-])c5F)c5ccc2[nH]5)C=C4)C=C3)cc1)c1ccc2c3cc(Cl)ccc3n(C(=O)c3cocn3)c2c1
REMARK SMILES IDX 11 1 10 2 9 3 8 4 7 5 6 6 5 7 3 8 4 9 2 10 1 11 83 12 84 13
REMARK SMILES IDX 103 14 85 15 102 16 86 17 94 18 87 19 93 20 88 21 92 22
REMARK SMILES IDX 89 23 91 24 90 25 95 26 96 27 97 28 98 29 101 30 99 31
REMARK SMILES IDX 100 32 12 33 13 34 14 35 15 36 16 37 17 38 18 39 19 40 20 41
REMARK SMILES IDX 21 42 82 43 22 44 81 45 23 46 24 47 25 48 75 49 26 50 80 51
REMARK SMILES IDX 74 52 76 53 27 54 79 55 73 56 72 57 28 59 60 60 40 61 59 62
REMARK SMILES IDX 41 63 44 64 58 65 77 66 42 67 43 68 57 70 78 71 45 72 29 73
REMARK SMILES IDX 30 74 38 75 31 76 33 77 39 78 32 79 34 80 35 81 36 82 37 83
REMARK SMILES IDX 61 84 62 85 70 86 63 87 65 88 71 89 64 90 66 91 67 92 68 93
REMARK SMILES IDX 69 94 46 95 47 96 55 97 48 98 50 99 56 100 49 101 51 102
REMARK SMILES IDX 52 103 53 104 54 105
REMARK H PARENT 76 58 44 69
REMARK Flexibility Score: inf
ROOT
ATOM      1  O   UNL A   1      32.715  27.867  23.062  1.00  0.00    -0.377 OA
ENDROOT
BRANCH   1   2
ATOM      2  C   UNL A   1      33.630  27.219  22.192  1.00  0.00     0.188 C 
BRANCH   2   3
ATOM      3  C   UNL A   1      33.487  25.701  22.004  1.00  0.00     0.188 C 
BRANCH   3   4
ATOM      4  O   UNL A   1      32.533  25.116  22.867  1.00  0.00    -0.376 OA
BRANCH   4   5
ATOM      5  C   UNL A   1      31.156  25.318  22.603  1.00  0.00     0.202 C 
BRANCH   5   6
ATOM      6  C   UNL A   1      30.043  24.832  23.555  1.00  0.00     0.261 C 
BRANCH   6   7
ATOM      7  O   UNL A   1      29.800  25.637  24.716  1.00  0.00    -0.463 OA
BRANCH   7   8
ATOM      8  C   UNL A   1      30.299  25.225  25.906  1.00  0.00     0.313 C 
ATOM      9  O   UNL A   1      30.486  25.960  26.870  1.00  0.00    -0.252 OA
BRANCH   8  10
ATOM     10  C   UNL A   1      30.504  23.703  25.965  1.00  0.00     0.126 C 
ATOM     11  C   UNL A   1      29.842  23.059  27.197  1.00  0.00     0.025 C 
BRANCH  10  12
ATOM     12  C   UNL A   1      31.946  23.243  25.684  1.00  0.00    -0.032 A 
ATOM     13  C   UNL A   1      33.020  24.132  25.811  1.00  0.00     0.005 A 
ATOM     14  C   UNL A   1      32.237  21.902  25.364  1.00  0.00     0.032 A 
ATOM     15  C   UNL A   1      34.350  23.692  25.725  1.00  0.00     0.011 A 
ATOM     16  C   UNL A   1      33.571  21.488  25.164  1.00  0.00     0.058 A 
ATOM     17  C   UNL A   1      34.627  22.339  25.444  1.00  0.00     0.008 A 
ATOM     18  N   UNL A   1      34.092  20.266  24.710  1.00  0.00    -0.274 N 
ATOM     19  C   UNL A   1      35.809  21.551  25.421  1.00  0.00     0.009 A 
ATOM     20  C   UNL A   1      35.483  20.289  24.898  1.00  0.00     0.057 A 
ATOM     21  C   UNL A   1      37.140  21.834  25.796  1.00  0.00     0.031 A 
ATOM     22  C   UNL A   1      36.505  19.368  24.589  1.00  0.00     0.029 A 
ATOM     23  C   UNL A   1      38.129  20.881  25.581  1.00  0.00     0.041 A 
ATOM     24  C   UNL A   1      37.825  19.680  24.952  1.00  0.00     0.023 A 
ATOM     25  Cl  UNL A   1      39.743  21.207  26.083  1.00  0.00    -0.084 Cl
BRANCH  18  26
ATOM     26  C   UNL A   1      33.288  19.265  24.101  1.00  0.00     0.284 C 
ATOM     27  O   UNL A   1      32.541  19.668  23.212  1.00  0.00    -0.266 OA
BRANCH  26  28
ATOM     28  C   UNL A   1      33.247  17.850  24.465  1.00  0.00     0.167 A 
ATOM     29  C   UNL A   1      33.711  16.749  23.780  1.00  0.00     0.231 A 
ATOM     30  N   UNL A   1      32.845  17.436  25.730  1.00  0.00    -0.211 NA
ATOM     31  O   UNL A   1      33.614  15.656  24.596  1.00  0.00    -0.451 OA
ATOM     32  C   UNL A   1      33.110  16.153  25.756  1.00  0.00     0.308 A 
ENDBRANCH  26  28
ENDBRANCH  18  26
ENDBRANCH  10  12
ENDBRANCH   8  10
ENDBRANCH   7   8
ENDBRANCH   6   7
ENDBRANCH   5   6
ENDBRANCH   4   5
ENDBRANCH   3   4
ENDBRANCH   2   3
ENDBRANCH   1   2
BRANCH   1  33
ATOM     33  C   UNL A   1      32.891  27.760  24.475  1.00  0.00     0.188 C 
BRANCH  33  34
ATOM     34  C   UNL A   1      31.966  28.501  25.470  1.00  0.00     0.188 C 
BRANCH  34  35
ATOM     35  O   UNL A   1      32.455  28.606  26.797  1.00  0.00    -0.376 OA
BRANCH  35  36
ATOM     36  C   UNL A   1      33.809  28.984  26.976  1.00  0.00     0.202 C 
BRANCH  36  37
ATOM     37  C   UNL A   1      34.172  30.459  26.742  1.00  0.00     0.261 C 
BRANCH  37  38
ATOM     38  O   UNL A   1      33.472  31.420  27.548  1.00  0.00    -0.460 OA
BRANCH  38  39
ATOM     39  C   UNL A   1      34.200  32.356  28.190  1.00  0.00     0.338 C 
ATOM     40  O   UNL A   1      33.864  33.503  28.447  1.00  0.00    -0.246 OA
BRANCH  39  41
ATOM     41  C   UNL A   1      35.413  31.700  28.715  1.00  0.00     0.060 A 
ATOM     42  C   UNL A   1      35.280  30.560  29.518  1.00  0.00     0.016 A 
ATOM     43  C   UNL A   1      36.677  32.207  28.407  1.00  0.00     0.016 A 
ATOM     44  C   UNL A   1      36.413  29.945  30.051  1.00  0.00     0.010 A 
ATOM     45  C   UNL A   1      37.809  31.603  28.961  1.00  0.00     0.010 A 
ATOM     46  C   UNL A   1      37.678  30.495  29.816  1.00  0.00    -0.014 A 
BRANCH  46  47
ATOM     47  C   UNL A   1      38.836  30.042  30.624  1.00  0.00     0.031 A 
ATOM     48  C   UNL A   1      39.032  30.648  31.987  1.00  0.00     0.074 A 
ATOM     49  C   UNL A   1      39.694  29.115  30.165  1.00  0.00     0.049 A 
ATOM     50  N   UNL A   1      39.992  30.454  32.852  1.00  0.00    -0.248 NA
ATOM     51  C   UNL A   1      38.007  31.608  32.431  1.00  0.00     0.031 C 
ATOM     52  C   UNL A   1      39.603  28.444  28.870  1.00  0.00     0.029 A 
ATOM     53  N   UNL A   1      40.833  28.599  30.735  1.00  0.00    -0.354 N 
ATOM     54  C   UNL A   1      39.705  31.287  33.927  1.00  0.00     0.074 A 
ATOM     55  C   UNL A   1      38.490  31.999  33.601  1.00  0.00     0.031 C 
ATOM     56  C   UNL A   1      40.663  27.629  28.729  1.00  0.00     0.029 A 
ATOM     57  C   UNL A   1      41.520  27.744  29.907  1.00  0.00     0.049 A 
ATOM     58  H   UNL A   1      41.127  28.821  31.647  1.00  0.00     0.167 HD
ATOM     59  C   UNL A   1      40.385  31.438  35.087  1.00  0.00     0.034 A 
ATOM     60  C   UNL A   1      42.721  27.151  30.071  1.00  0.00     0.034 A 
ATOM     61  C   UNL A   1      41.590  30.725  35.412  1.00  0.00     0.049 A 
ATOM     62  C   UNL A   1      43.481  27.365  31.356  1.00  0.00     0.074 A 
ATOM     63  C   UNL A   1      42.333  30.779  36.578  1.00  0.00     0.029 A 
ATOM     64  N   UNL A   1      42.239  29.841  34.564  1.00  0.00    -0.354 N 
ATOM     65  N   UNL A   1      43.147  28.076  32.406  1.00  0.00    -0.248 NA
ATOM     66  C   UNL A   1      44.769  26.668  31.491  1.00  0.00     0.031 C 
ATOM     67  C   UNL A   1      43.455  29.960  36.417  1.00  0.00     0.029 A 
ATOM     68  C   UNL A   1      43.383  29.355  35.172  1.00  0.00     0.049 A 
ATOM     69  H   UNL A   1      41.931  29.596  33.661  1.00  0.00     0.167 HD
ATOM     70  C   UNL A   1      44.162  27.881  33.339  1.00  0.00     0.074 A 
ATOM     71  C   UNL A   1      45.112  26.972  32.735  1.00  0.00     0.031 C 
ATOM     72  C   UNL A   1      44.298  28.413  34.579  1.00  0.00     0.034 A 
BRANCH  59  73
ATOM     73  C   UNL A   1      39.833  32.412  36.096  1.00  0.00     0.023 A 
ATOM     74  C   UNL A   1      38.941  31.963  37.091  1.00  0.00     0.012 A 
ATOM     75  C   UNL A   1      40.231  33.763  36.082  1.00  0.00     0.148 A 
ATOM     76  C   UNL A   1      38.423  32.852  38.033  1.00  0.00     0.002 A 
ATOM     77  C   UNL A   1      39.749  34.631  37.054  1.00  0.00     0.091 A 
ATOM     78  F   UNL A   1      41.062  34.175  35.115  1.00  0.00    -0.205 F 
ATOM     79  C   UNL A   1      38.835  34.182  38.021  1.00  0.00     0.022 A 
BRANCH  77  80
ATOM     80  S   UNL A   1      40.282  36.342  37.173  1.00  0.00     0.127 S 
ATOM     81  O   UNL A   1      39.932  36.853  35.849  1.00  0.00    -0.237 OA
ATOM     82  O   UNL A   1      39.446  36.848  38.262  1.00  0.00    -0.237 OA
ATOM     83  O   UNL A   1      41.707  36.302  37.469  1.00  0.00    -0.744 OA
ENDBRANCH  77  80
ENDBRANCH  59  73
BRANCH  60  84
ATOM     84  C   UNL A   1      43.278  26.285  28.992  1.00  0.00     0.023 A 
ATOM     85  C   UNL A   1      42.971  24.912  28.967  1.00  0.00     0.012 A 
ATOM     86  C   UNL A   1      44.107  26.823  27.988  1.00  0.00     0.148 A 
ATOM     87  C   UNL A   1      43.506  24.081  27.980  1.00  0.00     0.002 A 
ATOM     88  C   UNL A   1      44.589  26.002  26.976  1.00  0.00     0.091 A 
ATOM     89  F   UNL A   1      44.400  28.130  28.039  1.00  0.00    -0.205 F 
ATOM     90  C   UNL A   1      44.306  24.628  26.980  1.00  0.00     0.022 A 
BRANCH  88  91
ATOM     91  S   UNL A   1      45.522  26.638  25.579  1.00  0.00     0.127 S 
ATOM     92  O   UNL A   1      45.649  25.451  24.737  1.00  0.00    -0.237 OA
ATOM     93  O   UNL A   1      44.620  27.668  25.062  1.00  0.00    -0.237 OA
ATOM     94  O   UNL A   1      46.767  27.151  26.134  1.00  0.00    -0.744 OA
ENDBRANCH  88  91
ENDBRANCH  60  84
BRANCH  72  95
ATOM     95  C   UNL A   1      45.491  27.991  35.400  1.00  0.00     0.023 A 
ATOM     96  C   UNL A   1      46.682  28.743  35.358  1.00  0.00     0.012 A 
ATOM     97  C   UNL A   1      45.400  26.888  36.273  1.00  0.00     0.148 A 
ATOM     98  C   UNL A   1      47.777  28.381  36.145  1.00  0.00     0.002 A 
ATOM     99  C   UNL A   1      46.475  26.567  37.094  1.00  0.00     0.091 A 
ATOM    100  F   UNL A   1      44.264  26.177  36.288  1.00  0.00    -0.205 F 
ATOM    101  C   UNL A   1      47.668  27.302  37.020  1.00  0.00     0.022 A 
BRANCH  99 102
ATOM    102  S   UNL A   1      46.394  25.258  38.323  1.00  0.00     0.127 S 
ATOM    103  O   UNL A   1      45.712  25.930  39.427  1.00  0.00    -0.237 OA
ATOM    104  O   UNL A   1      45.594  24.243  37.638  1.00  0.00    -0.237 OA
ATOM    105  O   UNL A   1      47.772  24.866  38.588  1.00  0.00    -0.744 OA
ENDBRANCH  99 102
ENDBRANCH  72  95
ENDBRANCH  46  47
ENDBRANCH  39  41
ENDBRANCH  38  39
ENDBRANCH  37  38
ENDBRANCH  36  37
ENDBRANCH  35  36
ENDBRANCH  34  35
ENDBRANCH  33  34
ENDBRANCH   1  33
TORSDOF 26
ENDMDL
MODEL 3
REMARK VINA RESULT:      -8.7      8.254     13.245
REMARK SMILES C[C@@H](C(=O)OCCOCCOCCOCCOC(=O)c1ccc(-c2c3nc(c(-c4cccc(S(=O)(=O)[O-])c4F)c4ccc([nH]4)c(-c4cccc(S(=O)(=O)[O-])c4F)c4nc(c(-c5cccc(S(=O)(=O)[O-])c5F)c5ccc2[nH]5)C=C4)C=C3)cc1)c1ccc2c3cc(Cl)ccc3n(C(=O)c3cocn3)c2c1
REMARK SMILES IDX 11 1 10 2 9 3 8 4 7 5 6 6 5 7 3 8 4 9 2 10 1 11 83 12 84 13
REMARK SMILES IDX 103 14 85 15 102 16 86 17 94 18 87 19 93 20 88 21 92 22
REMARK SMILES IDX 89 23 91 24 90 25 95 26 96 27 97 28 98 29 101 30 99 31
REMARK SMILES IDX 100 32 12 33 13 34 14 35 15 36 16 37 17 38 18 39 19 40 20 41
REMARK SMILES IDX 21 42 82 43 22 44 81 45 23 46 24 47 25 48 75 49 26 50 80 51
REMARK SMILES IDX 74 52 76 53 27 54 79 55 73 56 72 57 28 59 60 60 40 61 59 62
REMARK SMILES IDX 41 63 44 64 58 65 77 66 42 67 43 68 57 70 78 71 45 72 29 73
REMARK SMILES IDX 30 74 38 75 31 76 33 77 39 78 32 79 34 80 35 81 36 82 37 83
REMARK SMILES IDX 61 84 62 85 70 86 63 87 65 88 71 89 64 90 66 91 67 92 68 93
REMARK SMILES IDX 69 94 46 95 47 96 55 97 48 98 50 99 56 100 49 101 51 102
REMARK SMILES IDX 52 103 53 104 54 105
REMARK H PARENT 76 58 44 69
REMARK Flexibility Score: inf
ROOT
ATOM      1  O   UNL A   1      43.137  26.900  35.822  1.00  0.00    -0.377 OA
ENDROOT
BRANCH   1   2
ATOM      2  C   UNL A   1      43.171  27.854  34.772  1.00  0.00     0.188 C 
BRANCH   2   3
ATOM      3  C   UNL A   1      42.079  27.771  33.694  1.00  0.00     0.188 C 
BRANCH   3   4
ATOM      4  O   UNL A   1      41.684  29.034  33.198  1.00  0.00    -0.376 OA
BRANCH   4   5
ATOM      5  C   UNL A   1      41.101  29.113  31.910  1.00  0.00     0.202 C 
BRANCH   5   6
ATOM      6  C   UNL A   1      41.630  28.307  30.704  1.00  0.00     0.261 C 
BRANCH   6   7
ATOM      7  O   UNL A   1      41.723  29.010  29.459  1.00  0.00    -0.463 OA
BRANCH   7   8
ATOM      8  C   UNL A   1      40.675  28.951  28.603  1.00  0.00     0.313 C 
ATOM      9  O   UNL A   1      39.740  29.746  28.597  1.00  0.00    -0.252 OA
BRANCH   8  10
ATOM     10  C   UNL A   1      40.833  27.842  27.551  1.00  0.00     0.126 C 
ATOM     11  C   UNL A   1      40.011  26.583  27.883  1.00  0.00     0.025 C 
BRANCH  10  12
ATOM     12  C   UNL A   1      42.285  27.578  27.116  1.00  0.00    -0.032 A 
ATOM     13  C   UNL A   1      43.009  28.545  26.408  1.00  0.00     0.005 A 
ATOM     14  C   UNL A   1      42.953  26.391  27.479  1.00  0.00     0.032 A 
ATOM     15  C   UNL A   1      44.381  28.393  26.151  1.00  0.00     0.011 A 
ATOM     16  C   UNL A   1      44.303  26.192  27.117  1.00  0.00     0.058 A 
ATOM     17  C   UNL A   1      45.045  27.218  26.556  1.00  0.00     0.008 A 
ATOM     18  N   UNL A   1      45.126  25.062  27.239  1.00  0.00    -0.274 N 
ATOM     19  C   UNL A   1      46.405  26.804  26.580  1.00  0.00     0.009 A 
ATOM     20  C   UNL A   1      46.442  25.446  26.935  1.00  0.00     0.057 A 
ATOM     21  C   UNL A   1      47.606  27.491  26.305  1.00  0.00     0.031 A 
ATOM     22  C   UNL A   1      47.653  24.728  26.854  1.00  0.00     0.029 A 
ATOM     23  C   UNL A   1      48.811  26.799  26.326  1.00  0.00     0.041 A 
ATOM     24  C   UNL A   1      48.833  25.430  26.558  1.00  0.00     0.023 A 
ATOM     25  Cl  UNL A   1      50.281  27.648  26.040  1.00  0.00    -0.084 Cl
BRANCH  18  26
ATOM     26  C   UNL A   1      44.618  23.768  27.540  1.00  0.00     0.284 C 
ATOM     27  O   UNL A   1      45.076  23.255  28.558  1.00  0.00    -0.266 OA
BRANCH  26  28
ATOM     28  C   UNL A   1      43.663  23.008  26.738  1.00  0.00     0.167 A 
ATOM     29  C   UNL A   1      43.610  22.815  25.375  1.00  0.00     0.231 A 
ATOM     30  N   UNL A   1      42.707  22.187  27.328  1.00  0.00    -0.211 NA
ATOM     31  O   UNL A   1      42.647  21.884  25.104  1.00  0.00    -0.451 OA
ATOM     32  C   UNL A   1      42.168  21.537  26.327  1.00  0.00     0.308 A 
ENDBRANCH  26  28
ENDBRANCH  18  26
ENDBRANCH  10  12
ENDBRANCH   8  10
ENDBRANCH   7   8
ENDBRANCH   6   7
ENDBRANCH   5   6
ENDBRANCH   4   5
ENDBRANCH   3   4
ENDBRANCH   2   3
ENDBRANCH   1   2
BRANCH   1  33
ATOM     33  C   UNL A   1      41.879  26.463  36.336  1.00  0.00     0.188 C 
BRANCH  33  34
ATOM     34  C   UNL A   1      41.516  24.962  36.434  1.00  0.00     0.188 C 
BRANCH  34  35
ATOM     35  O   UNL A   1      41.731  24.202  35.257  1.00  0.00    -0.376 OA
BRANCH  35  36
ATOM     36  C   UNL A   1      42.970  23.526  35.122  1.00  0.00     0.202 C 
BRANCH  36  37
ATOM     37  C   UNL A   1      43.561  23.401  33.709  1.00  0.00     0.261 C 
BRANCH  37  38
ATOM     38  O   UNL A   1      44.129  24.596  33.151  1.00  0.00    -0.460 OA
BRANCH  38  39
ATOM     39  C   UNL A   1      45.446  24.817  33.341  1.00  0.00     0.338 C 
ATOM     40  O   UNL A   1      46.214  24.156  34.027  1.00  0.00    -0.246 OA
BRANCH  39  41
ATOM     41  C   UNL A   1      45.861  25.887  32.414  1.00  0.00     0.060 A 
ATOM     42  C   UNL A   1      45.986  25.597  31.049  1.00  0.00     0.016 A 
ATOM     43  C   UNL A   1      46.118  27.174  32.892  1.00  0.00     0.016 A 
ATOM     44  C   UNL A   1      46.409  26.587  30.160  1.00  0.00     0.010 A 
ATOM     45  C   UNL A   1      46.563  28.157  32.005  1.00  0.00     0.010 A 
ATOM     46  C   UNL A   1      46.747  27.856  30.644  1.00  0.00    -0.014 A 
BRANCH  46  47
ATOM     47  C   UNL A   1      47.486  28.799  29.770  1.00  0.00     0.031 A 
ATOM     48  C   UNL A   1      48.978  28.642  29.656  1.00  0.00     0.074 A 
ATOM     49  C   UNL A   1      46.854  29.772  29.091  1.00  0.00     0.049 A 
ATOM     50  N   UNL A   1      49.843  29.371  29.002  1.00  0.00    -0.248 NA
ATOM     51  C   UNL A   1      49.576  27.510  30.385  1.00  0.00     0.031 C 
ATOM     52  C   UNL A   1      45.414  30.017  29.108  1.00  0.00     0.029 A 
ATOM     53  N   UNL A   1      47.356  30.756  28.275  1.00  0.00    -0.354 N 
ATOM     54  C   UNL A   1      51.086  28.808  29.263  1.00  0.00     0.074 A 
ATOM     55  C   UNL A   1      50.867  27.684  30.146  1.00  0.00     0.031 C 
ATOM     56  C   UNL A   1      45.150  31.105  28.363  1.00  0.00     0.029 A 
ATOM     57  C   UNL A   1      46.404  31.649  27.845  1.00  0.00     0.049 A 
ATOM     58  H   UNL A   1      48.305  30.815  28.022  1.00  0.00     0.167 HD
ATOM     59  C   UNL A   1      52.301  29.183  28.800  1.00  0.00     0.034 A 
ATOM     60  C   UNL A   1      46.537  32.794  27.143  1.00  0.00     0.034 A 
ATOM     61  C   UNL A   1      52.517  30.296  27.917  1.00  0.00     0.049 A 
ATOM     62  C   UNL A   1      47.907  33.215  26.672  1.00  0.00     0.074 A 
ATOM     63  C   UNL A   1      53.705  30.736  27.360  1.00  0.00     0.029 A 
ATOM     64  N   UNL A   1      51.525  31.159  27.475  1.00  0.00    -0.354 N 
ATOM     65  N   UNL A   1      49.061  32.615  26.840  1.00  0.00    -0.248 NA
ATOM     66  C   UNL A   1      47.987  34.454  25.883  1.00  0.00     0.031 C 
ATOM     67  C   UNL A   1      53.437  31.888  26.616  1.00  0.00     0.029 A 
ATOM     68  C   UNL A   1      52.075  32.138  26.666  1.00  0.00     0.049 A 
ATOM     69  H   UNL A   1      50.570  31.085  27.703  1.00  0.00     0.167 HD
ATOM     70  C   UNL A   1      49.995  33.382  26.148  1.00  0.00     0.074 A 
ATOM     71  C   UNL A   1      49.269  34.478  25.545  1.00  0.00     0.031 C 
ATOM     72  C   UNL A   1      51.334  33.198  26.032  1.00  0.00     0.034 A 
BRANCH  59  73
ATOM     73  C   UNL A   1      53.494  28.374  29.238  1.00  0.00     0.023 A 
ATOM     74  C   UNL A   1      53.906  27.259  28.479  1.00  0.00     0.012 A 
ATOM     75  C   UNL A   1      54.232  28.742  30.380  1.00  0.00     0.148 A 
ATOM     76  C   UNL A   1      55.008  26.501  28.871  1.00  0.00     0.002 A 
ATOM     77  C   UNL A   1      55.358  28.012  30.736  1.00  0.00     0.091 A 
ATOM     78  F   UNL A   1      53.811  29.791  31.101  1.00  0.00    -0.205 F 
ATOM     79  C   UNL A   1      55.740  26.884  29.992  1.00  0.00     0.022 A 
BRANCH  77  80
ATOM     80  S   UNL A   1      56.414  28.471  32.114  1.00  0.00     0.127 S 
ATOM     81  O   UNL A   1      56.757  29.852  31.776  1.00  0.00    -0.237 OA
ATOM     82  O   UNL A   1      55.508  28.330  33.255  1.00  0.00    -0.237 OA
ATOM     83  O   UNL A   1      57.527  27.532  32.102  1.00  0.00    -0.744 OA
ENDBRANCH  77  80
ENDBRANCH  59  73
BRANCH  60  84
ATOM     84  C   UNL A   1      45.337  33.622  26.832  1.00  0.00     0.023 A 
ATOM     85  C   UNL A   1      44.624  33.401  25.639  1.00  0.00     0.012 A 
ATOM     86  C   UNL A   1      44.898  34.623  27.720  1.00  0.00     0.148 A 
ATOM     87  C   UNL A   1      43.514  34.185  25.318  1.00  0.00     0.002 A 
ATOM     88  C   UNL A   1      43.759  35.361  27.423  1.00  0.00     0.091 A 
ATOM     89  F   UNL A   1      45.600  34.827  28.844  1.00  0.00    -0.205 F 
ATOM     90  C   UNL A   1      43.076  35.157  26.214  1.00  0.00     0.022 A 
BRANCH  88  91
ATOM     91  S   UNL A   1      43.049  36.545  28.571  1.00  0.00     0.127 S 
ATOM     92  O   UNL A   1      43.896  37.716  28.356  1.00  0.00    -0.237 OA
ATOM     93  O   UNL A   1      41.682  36.671  28.064  1.00  0.00    -0.237 OA
ATOM     94  O   UNL A   1      43.149  35.931  29.888  1.00  0.00    -0.744 OA
ENDBRANCH  88  91
ENDBRANCH  60  84
BRANCH  72  95
ATOM     95  C   UNL A   1      52.106  34.172  25.177  1.00  0.00     0.023 A 
ATOM     96  C   UNL A   1      52.269  33.931  23.798  1.00  0.00     0.012 A 
ATOM     97  C   UNL A   1      52.605  35.368  25.732  1.00  0.00     0.148 A 
ATOM     98  C   UNL A   1      52.947  34.847  22.993  1.00  0.00     0.002 A 
ATOM     99  C   UNL A   1      53.232  36.301  24.914  1.00  0.00     0.091 A 
ATOM    100  F   UNL A   1      52.454  35.573  27.049  1.00  0.00    -0.205 F 
ATOM    101  C   UNL A   1      53.417  36.036  23.549  1.00  0.00     0.022 A 
BRANCH  99 102
ATOM    102  S   UNL A   1      53.780  37.901  25.520  1.00  0.00     0.127 S 
ATOM    103  O   UNL A   1      52.513  38.529  25.891  1.00  0.00    -0.237 OA
ATOM    104  O   UNL A   1      54.630  37.528  26.651  1.00  0.00    -0.237 OA
ATOM    105  O   UNL A   1      54.487  38.532  24.414  1.00  0.00    -0.744 OA
ENDBRANCH  99 102
ENDBRANCH  72  95
ENDBRANCH  46  47
ENDBRANCH  39  41
ENDBRANCH  38  39
ENDBRANCH  37  38
ENDBRANCH  36  37
ENDBRANCH  35  36
ENDBRANCH  34  35
ENDBRANCH  33  34
ENDBRANCH   1  33
TORSDOF 26
ENDMDL
