MODEL 1
REMARK VINA RESULT:     -11.3      0.000      0.000
REMARK SMILES Cc1sc(NC(=O)c2ccc(Br)nc2)c(C(=O)OCCOCCOCCOCCOC(=O)c2ccc(-c3c4nc(c(-c5cccc(S(=O)(=O)[O-])c5F)c5ccc([nH]5)c(-c5cccc(S(=O)(=O)[O-])c5F)c5nc(c(-c6cccc(S(=O)(=O)[O-])c6F)c6ccc3[nH]6)C=C5)C=C4)cc2)c1C
REMARK SMILES IDX 25 1 24 2 23 3 22 4 21 5 20 6 19 7 18 8 16 9 17 10 15 11
REMARK SMILES IDX 1 12 2 13 3 14 96 15 4 16 97 17 5 18 6 19 7 21 8 22 9 23
REMARK SMILES IDX 14 24 10 25 13 26 11 27 12 28 26 29 27 30 28 31 29 32 30 33
REMARK SMILES IDX 31 34 32 35 33 36 34 37 95 38 35 39 94 40 36 41 37 42 38 43
REMARK SMILES IDX 88 44 39 45 93 46 87 47 89 48 40 49 92 50 86 51 85 52 41 54
REMARK SMILES IDX 73 55 53 56 72 57 54 58 57 59 71 60 90 61 55 62 56 63 70 65
REMARK SMILES IDX 91 66 58 67 42 68 43 69 51 70 44 71 46 72 52 73 45 74 47 75
REMARK SMILES IDX 48 76 49 77 50 78 74 79 75 80 83 81 76 82 78 83 84 84 77 85
REMARK SMILES IDX 79 86 80 87 81 88 82 89 59 90 60 91 68 92 61 93 63 94 69 95
REMARK SMILES IDX 62 96 64 97 65 98 66 99 67 100
REMARK H PARENT 5 20 89 53 57 64
REMARK Flexibility Score: inf
ROOT
ATOM      1  C   UNL A   1      36.005  22.416  25.626  1.00  0.00     0.188 C 
ENDROOT
BRANCH   1   2
ATOM      2  O   UNL A   1      35.052  21.589  26.275  1.00  0.00    -0.377 OA
BRANCH   2   3
ATOM      3  C   UNL A   1      34.372  20.581  25.530  1.00  0.00     0.188 C 
BRANCH   3   4
ATOM      4  C   UNL A   1      32.981  20.088  25.989  1.00  0.00     0.188 C 
BRANCH   4   5
ATOM      5  O   UNL A   1      32.268  19.345  25.005  1.00  0.00    -0.376 OA
BRANCH   5   6
ATOM      6  C   UNL A   1      32.394  19.344  23.589  1.00  0.00     0.202 C 
BRANCH   6   7
ATOM      7  C   UNL A   1      32.087  20.477  22.363  1.00  0.00     0.261 C 
BRANCH   7   8
ATOM      8  O   UNL A   1      32.837  22.347  22.136  1.00  0.00    -0.460 OA
BRANCH   8   9
ATOM      9  C   UNL A   1      33.066  23.712  22.448  1.00  0.00     0.341 C 
ATOM     10  O   UNL A   1      34.225  24.123  22.565  1.00  0.00    -0.246 OA
BRANCH   9  11
ATOM     11  C   UNL A   1      31.936  24.619  22.711  1.00  0.00     0.098 A 
ATOM     12  C   UNL A   1      30.636  28.146  22.198  1.00  0.00     0.057 C 
ATOM     13  C   UNL A   1      30.891  26.716  22.542  1.00  0.00     0.007 A 
ATOM     14  S   UNL A   1      30.087  25.986  23.854  1.00  0.00    -0.122 S 
ATOM     15  C   UNL A   1      31.751  25.833  21.916  1.00  0.00    -0.021 A 
ATOM     16  C   UNL A   1      30.959  24.525  23.693  1.00  0.00     0.110 A 
ATOM     17  C   UNL A   1      32.459  26.103  20.619  1.00  0.00     0.046 C 
BRANCH  16  18
ATOM     18  N   UNL A   1      30.505  23.588  24.607  1.00  0.00    -0.313 N 
ATOM     19  C   UNL A   1      30.595  23.575  25.979  1.00  0.00     0.257 C 
ATOM     20  H   UNL A   1      30.047  22.810  24.213  1.00  0.00     0.171 HD
ATOM     21  O   UNL A   1      30.010  22.756  26.672  1.00  0.00    -0.269 OA
BRANCH  19  22
ATOM     22  C   UNL A   1      31.437  24.564  26.628  1.00  0.00     0.058 A 
ATOM     23  C   UNL A   1      30.714  26.138  27.078  1.00  0.00     0.018 A 
ATOM     24  C   UNL A   1      33.154  24.495  26.191  1.00  0.00     0.126 A 
ATOM     25  C   UNL A   1      31.674  27.651  26.996  1.00  0.00     0.037 A 
ATOM     26  N   UNL A   1      34.103  26.001  26.057  1.00  0.00    -0.249 NA
ATOM     27  C   UNL A   1      33.371  27.560  26.492  1.00  0.00     0.106 A 
ATOM     28  Br  UNL A   1      34.405  29.130  26.333  1.00  0.00    -0.029 Br
ENDBRANCH  19  22
ENDBRANCH  16  18
ENDBRANCH   9  11
ENDBRANCH   8   9
ENDBRANCH   7   8
ENDBRANCH   6   7
ENDBRANCH   5   6
ENDBRANCH   4   5
ENDBRANCH   3   4
ENDBRANCH   2   3
ENDBRANCH   1   2
BRANCH   1  29
ATOM     29  C   UNL A   1      37.100  21.726  24.786  1.00  0.00     0.188 C 
BRANCH  29  30
ATOM     30  O   UNL A   1      38.241  21.128  25.392  1.00  0.00    -0.376 OA
BRANCH  30  31
ATOM     31  C   UNL A   1      38.466  19.736  25.296  1.00  0.00     0.202 C 
BRANCH  31  32
ATOM     32  C   UNL A   1      39.824  19.161  25.705  1.00  0.00     0.261 C 
BRANCH  32  33
ATOM     33  O   UNL A   1      40.461  19.803  26.812  1.00  0.00    -0.460 OA
BRANCH  33  34
ATOM     34  C   UNL A   1      41.602  20.466  26.507  1.00  0.00     0.338 C 
ATOM     35  O   UNL A   1      42.534  20.059  25.836  1.00  0.00    -0.246 OA
BRANCH  34  36
ATOM     36  C   UNL A   1      41.496  21.857  26.989  1.00  0.00     0.060 A 
ATOM     37  C   UNL A   1      40.961  22.828  26.130  1.00  0.00     0.016 A 
ATOM     38  C   UNL A   1      41.974  22.213  28.252  1.00  0.00     0.016 A 
ATOM     39  C   UNL A   1      40.943  24.165  26.509  1.00  0.00     0.010 A 
ATOM     40  C   UNL A   1      41.990  23.559  28.618  1.00  0.00     0.010 A 
ATOM     41  C   UNL A   1      41.520  24.539  27.726  1.00  0.00    -0.014 A 
BRANCH  41  42
ATOM     42  C   UNL A   1      41.878  25.958  27.940  1.00  0.00     0.031 A 
ATOM     43  C   UNL A   1      43.253  26.402  27.522  1.00  0.00     0.074 A 
ATOM     44  C   UNL A   1      41.009  26.827  28.480  1.00  0.00     0.049 A 
ATOM     45  N   UNL A   1      43.829  27.566  27.665  1.00  0.00    -0.248 NA
ATOM     46  C   UNL A   1      44.096  25.391  26.861  1.00  0.00     0.031 C 
ATOM     47  C   UNL A   1      39.644  26.514  28.892  1.00  0.00     0.029 A 
ATOM     48  N   UNL A   1      41.169  28.151  28.802  1.00  0.00    -0.354 N 
ATOM     49  C   UNL A   1      45.110  27.416  27.149  1.00  0.00     0.074 A 
ATOM     50  C   UNL A   1      45.231  26.049  26.695  1.00  0.00     0.031 C 
ATOM     51  C   UNL A   1      39.099  27.608  29.453  1.00  0.00     0.029 A 
ATOM     52  C   UNL A   1      40.090  28.683  29.464  1.00  0.00     0.049 A 
ATOM     53  H   UNL A   1      41.976  28.669  28.580  1.00  0.00     0.167 HD
ATOM     54  C   UNL A   1      46.097  28.336  27.054  1.00  0.00     0.034 A 
ATOM     55  C   UNL A   1      39.938  29.892  30.042  1.00  0.00     0.034 A 
ATOM     56  C   UNL A   1      45.964  29.696  27.500  1.00  0.00     0.049 A 
ATOM     57  C   UNL A   1      41.063  30.891  29.958  1.00  0.00     0.074 A 
ATOM     58  C   UNL A   1      46.885  30.723  27.416  1.00  0.00     0.029 A 
ATOM     59  N   UNL A   1      44.844  30.212  28.134  1.00  0.00    -0.354 N 
ATOM     60  N   UNL A   1      42.235  30.772  29.380  1.00  0.00    -0.248 NA
ATOM     61  C   UNL A   1      40.834  32.203  30.581  1.00  0.00     0.031 C 
ATOM     62  C   UNL A   1      46.337  31.851  28.034  1.00  0.00     0.029 A 
ATOM     63  C   UNL A   1      45.055  31.540  28.462  1.00  0.00     0.049 A 
ATOM     64  H   UNL A   1      44.019  29.709  28.323  1.00  0.00     0.167 HD
ATOM     65  C   UNL A   1      42.866  32.002  29.535  1.00  0.00     0.074 A 
ATOM     66  C   UNL A   1      41.939  32.857  30.249  1.00  0.00     0.031 C 
ATOM     67  C   UNL A   1      44.102  32.389  29.131  1.00  0.00     0.034 A 
BRANCH  54  68
ATOM     68  C   UNL A   1      47.403  27.896  26.449  1.00  0.00     0.023 A 
ATOM     69  C   UNL A   1      48.467  27.494  27.283  1.00  0.00     0.012 A 
ATOM     70  C   UNL A   1      47.569  27.859  25.051  1.00  0.00     0.148 A 
ATOM     71  C   UNL A   1      49.688  27.101  26.736  1.00  0.00     0.002 A 
ATOM     72  C   UNL A   1      48.772  27.419  24.512  1.00  0.00     0.091 A 
ATOM     73  F   UNL A   1      46.557  28.271  24.275  1.00  0.00    -0.205 F 
ATOM     74  C   UNL A   1      49.837  27.054  25.353  1.00  0.00     0.022 A 
BRANCH  72  75
ATOM     75  S   UNL A   1      49.033  27.247  22.744  1.00  0.00     0.127 S 
ATOM     76  O   UNL A   1      48.277  28.383  22.221  1.00  0.00    -0.237 OA
ATOM     77  O   UNL A   1      50.486  27.380  22.635  1.00  0.00    -0.237 OA
ATOM     78  O   UNL A   1      48.516  25.933  22.388  1.00  0.00    -0.744 OA
ENDBRANCH  72  75
ENDBRANCH  54  68
BRANCH  55  79
ATOM     79  C   UNL A   1      38.663  30.229  30.733  1.00  0.00     0.023 A 
ATOM     80  C   UNL A   1      38.449  29.786  32.053  1.00  0.00     0.012 A 
ATOM     81  C   UNL A   1      37.673  31.004  30.098  1.00  0.00     0.148 A 
ATOM     82  C   UNL A   1      37.259  30.087  32.718  1.00  0.00     0.002 A 
ATOM     83  C   UNL A   1      36.514  31.343  30.784  1.00  0.00     0.091 A 
ATOM     84  F   UNL A   1      37.894  31.402  28.837  1.00  0.00    -0.205 F 
ATOM     85  C   UNL A   1      36.298  30.873  32.089  1.00  0.00     0.022 A 
BRANCH  83  86
ATOM     86  S   UNL A   1      35.271  32.444  30.100  1.00  0.00     0.127 S 
ATOM     87  O   UNL A   1      34.734  31.643  29.002  1.00  0.00    -0.237 OA
ATOM     88  O   UNL A   1      34.366  32.611  31.239  1.00  0.00    -0.237 OA
ATOM     89  O   UNL A   1      35.985  33.650  29.707  1.00  0.00    -0.744 OA
ENDBRANCH  83  86
ENDBRANCH  55  79
BRANCH  67  90
ATOM     90  C   UNL A   1      44.517  33.813  29.403  1.00  0.00     0.023 A 
ATOM     91  C   UNL A   1      45.089  34.160  30.642  1.00  0.00     0.012 A 
ATOM     92  C   UNL A   1      44.413  34.790  28.392  1.00  0.00     0.148 A 
ATOM     93  C   UNL A   1      45.519  35.463  30.884  1.00  0.00     0.002 A 
ATOM     94  C   UNL A   1      44.892  36.073  28.621  1.00  0.00     0.091 A 
ATOM     95  F   UNL A   1      43.852  34.444  27.224  1.00  0.00    -0.205 F 
ATOM     96  C   UNL A   1      45.432  36.416  29.870  1.00  0.00     0.022 A 
BRANCH  94  97
ATOM     97  S   UNL A   1      44.916  37.336  27.343  1.00  0.00     0.127 S 
ATOM     98  O   UNL A   1      43.505  37.404  26.966  1.00  0.00    -0.237 OA
ATOM     99  O   UNL A   1      45.410  38.504  28.071  1.00  0.00    -0.237 OA
ATOM    100  O   UNL A   1      45.814  36.844  26.307  1.00  0.00    -0.744 OA
ENDBRANCH  94  97
ENDBRANCH  67  90
ENDBRANCH  41  42
ENDBRANCH  34  36
ENDBRANCH  33  34
ENDBRANCH  32  33
ENDBRANCH  31  32
ENDBRANCH  30  31
ENDBRANCH  29  30
ENDBRANCH   1  29
TORSDOF 25
ENDMDL
MODEL 2
REMARK VINA RESULT:     -11.0      1.442      2.350
REMARK SMILES Cc1sc(NC(=O)c2ccc(Br)nc2)c(C(=O)OCCOCCOCCOCCOC(=O)c2ccc(-c3c4nc(c(-c5cccc(S(=O)(=O)[O-])c5F)c5ccc([nH]5)c(-c5cccc(S(=O)(=O)[O-])c5F)c5nc(c(-c6cccc(S(=O)(=O)[O-])c6F)c6ccc3[nH]6)C=C5)C=C4)cc2)c1C
REMARK SMILES IDX 25 1 24 2 23 3 22 4 21 5 20 6 19 7 18 8 16 9 17 10 15 11
REMARK SMILES IDX 1 12 2 13 3 14 96 15 4 16 97 17 5 18 6 19 7 21 8 22 9 23
REMARK SMILES IDX 14 24 10 25 13 26 11 27 12 28 26 29 27 30 28 31 29 32 30 33
REMARK SMILES IDX 31 34 32 35 33 36 34 37 95 38 35 39 94 40 36 41 37 42 38 43
REMARK SMILES IDX 88 44 39 45 93 46 87 47 89 48 40 49 92 50 86 51 85 52 41 54
REMARK SMILES IDX 73 55 53 56 72 57 54 58 57 59 71 60 90 61 55 62 56 63 70 65
REMARK SMILES IDX 91 66 58 67 42 68 43 69 51 70 44 71 46 72 52 73 45 74 47 75
REMARK SMILES IDX 48 76 49 77 50 78 74 79 75 80 83 81 76 82 78 83 84 84 77 85
REMARK SMILES IDX 79 86 80 87 81 88 82 89 59 90 60 91 68 92 61 93 63 94 69 95
REMARK SMILES IDX 62 96 64 97 65 98 66 99 67 100
REMARK H PARENT 5 20 89 53 57 64
REMARK Flexibility Score: inf
ROOT
ATOM      1  C   UNL A   1      35.278  22.159  26.198  1.00  0.00     0.188 C 
ENDROOT
BRANCH   1   2
ATOM      2  O   UNL A   1      34.422  21.029  26.136  1.00  0.00    -0.377 OA
BRANCH   2   3
ATOM      3  C   UNL A   1      34.431  20.203  24.973  1.00  0.00     0.188 C 
BRANCH   3   4
ATOM      4  C   UNL A   1      33.118  19.554  24.477  1.00  0.00     0.188 C 
BRANCH   4   5
ATOM      5  O   UNL A   1      32.175  20.476  23.939  1.00  0.00    -0.376 OA
BRANCH   5   6
ATOM      6  C   UNL A   1      32.219  21.895  23.867  1.00  0.00     0.202 C 
BRANCH   6   7
ATOM      7  C   UNL A   1      31.109  23.102  23.431  1.00  0.00     0.261 C 
BRANCH   7   8
ATOM      8  O   UNL A   1      30.405  24.648  24.539  1.00  0.00    -0.460 OA
BRANCH   8   9
ATOM      9  C   UNL A   1      30.448  25.715  25.474  1.00  0.00     0.341 C 
ATOM     10  O   UNL A   1      30.513  25.462  26.681  1.00  0.00    -0.246 OA
BRANCH   9  11
ATOM     11  C   UNL A   1      30.334  27.111  25.021  1.00  0.00     0.098 A 
ATOM     12  C   UNL A   1      28.805  29.382  22.394  1.00  0.00     0.057 C 
ATOM     13  C   UNL A   1      29.522  28.740  23.536  1.00  0.00     0.007 A 
ATOM     14  S   UNL A   1      30.861  29.506  24.257  1.00  0.00    -0.122 S 
ATOM     15  C   UNL A   1      29.246  27.524  24.134  1.00  0.00    -0.021 A 
ATOM     16  C   UNL A   1      31.177  28.182  25.290  1.00  0.00     0.110 A 
ATOM     17  C   UNL A   1      28.022  26.695  23.865  1.00  0.00     0.046 C 
BRANCH  16  18
ATOM     18  N   UNL A   1      32.230  28.473  26.142  1.00  0.00    -0.313 N 
ATOM     19  C   UNL A   1      33.587  28.380  25.935  1.00  0.00     0.257 C 
ATOM     20  H   UNL A   1      31.966  28.798  27.033  1.00  0.00     0.171 HD
ATOM     21  O   UNL A   1      34.407  28.822  26.726  1.00  0.00    -0.269 OA
BRANCH  19  22
ATOM     22  C   UNL A   1      34.061  27.712  24.737  1.00  0.00     0.058 A 
ATOM     23  C   UNL A   1      33.933  28.569  23.172  1.00  0.00     0.018 A 
ATOM     24  C   UNL A   1      33.944  25.942  24.766  1.00  0.00     0.126 A 
ATOM     25  C   UNL A   1      33.589  27.674  21.657  1.00  0.00     0.037 A 
ATOM     26  N   UNL A   1      33.551  25.050  23.271  1.00  0.00    -0.249 NA
ATOM     27  C   UNL A   1      33.411  25.912  21.725  1.00  0.00     0.106 A 
ATOM     28  Br  UNL A   1      32.990  24.934  20.168  1.00  0.00    -0.029 Br
ENDBRANCH  19  22
ENDBRANCH  16  18
ENDBRANCH   9  11
ENDBRANCH   8   9
ENDBRANCH   7   8
ENDBRANCH   6   7
ENDBRANCH   5   6
ENDBRANCH   4   5
ENDBRANCH   3   4
ENDBRANCH   2   3
ENDBRANCH   1   2
BRANCH   1  29
ATOM     29  C   UNL A   1      36.578  22.121  25.368  1.00  0.00     0.188 C 
BRANCH  29  30
ATOM     30  O   UNL A   1      37.731  21.418  25.817  1.00  0.00    -0.376 OA
BRANCH  30  31
ATOM     31  C   UNL A   1      38.161  20.240  25.164  1.00  0.00     0.202 C 
BRANCH  31  32
ATOM     32  C   UNL A   1      39.489  19.595  25.568  1.00  0.00     0.261 C 
BRANCH  32  33
ATOM     33  O   UNL A   1      40.054  20.057  26.796  1.00  0.00    -0.460 OA
BRANCH  33  34
ATOM     34  C   UNL A   1      41.297  20.585  26.689  1.00  0.00     0.338 C 
ATOM     35  O   UNL A   1      42.260  20.096  26.125  1.00  0.00    -0.246 OA
BRANCH  34  36
ATOM     36  C   UNL A   1      41.289  21.955  27.239  1.00  0.00     0.060 A 
ATOM     37  C   UNL A   1      40.520  22.934  26.594  1.00  0.00     0.016 A 
ATOM     38  C   UNL A   1      42.078  22.284  28.343  1.00  0.00     0.016 A 
ATOM     39  C   UNL A   1      40.571  24.257  27.020  1.00  0.00     0.010 A 
ATOM     40  C   UNL A   1      42.159  23.618  28.746  1.00  0.00     0.010 A 
ATOM     41  C   UNL A   1      41.443  24.610  28.053  1.00  0.00    -0.014 A 
BRANCH  41  42
ATOM     42  C   UNL A   1      41.810  26.033  28.222  1.00  0.00     0.031 A 
ATOM     43  C   UNL A   1      43.193  26.452  27.808  1.00  0.00     0.074 A 
ATOM     44  C   UNL A   1      40.941  26.927  28.721  1.00  0.00     0.049 A 
ATOM     45  N   UNL A   1      43.777  27.615  27.917  1.00  0.00    -0.248 NA
ATOM     46  C   UNL A   1      44.036  25.411  27.192  1.00  0.00     0.031 C 
ATOM     47  C   UNL A   1      39.569  26.638  29.127  1.00  0.00     0.029 A 
ATOM     48  N   UNL A   1      41.108  28.259  28.999  1.00  0.00    -0.354 N 
ATOM     49  C   UNL A   1      45.063  27.437  27.423  1.00  0.00     0.074 A 
ATOM     50  C   UNL A   1      45.179  26.055  27.018  1.00  0.00     0.031 C 
ATOM     51  C   UNL A   1      39.025  27.755  29.643  1.00  0.00     0.029 A 
ATOM     52  C   UNL A   1      40.025  28.823  29.629  1.00  0.00     0.049 A 
ATOM     53  H   UNL A   1      41.922  28.763  28.770  1.00  0.00     0.167 HD
ATOM     54  C   UNL A   1      46.058  28.347  27.309  1.00  0.00     0.034 A 
ATOM     55  C   UNL A   1      39.875  30.052  30.163  1.00  0.00     0.034 A 
ATOM     56  C   UNL A   1      45.931  29.722  27.706  1.00  0.00     0.049 A 
ATOM     57  C   UNL A   1      41.009  31.039  30.059  1.00  0.00     0.074 A 
ATOM     58  C   UNL A   1      46.861  30.738  27.598  1.00  0.00     0.029 A 
ATOM     59  N   UNL A   1      44.807  30.268  28.307  1.00  0.00    -0.354 N 
ATOM     60  N   UNL A   1      42.187  30.890  29.500  1.00  0.00    -0.248 NA
ATOM     61  C   UNL A   1      40.783  32.373  30.633  1.00  0.00     0.031 C 
ATOM     62  C   UNL A   1      46.315  31.891  28.170  1.00  0.00     0.029 A 
ATOM     63  C   UNL A   1      45.025  31.605  28.592  1.00  0.00     0.049 A 
ATOM     64  H   UNL A   1      43.976  29.778  28.503  1.00  0.00     0.167 HD
ATOM     65  C   UNL A   1      42.827  32.120  29.620  1.00  0.00     0.074 A 
ATOM     66  C   UNL A   1      41.898  33.007  30.292  1.00  0.00     0.031 C 
ATOM     67  C   UNL A   1      44.071  32.484  29.219  1.00  0.00     0.034 A 
BRANCH  54  68
ATOM     68  C   UNL A   1      47.368  27.875  26.736  1.00  0.00     0.023 A 
ATOM     69  C   UNL A   1      48.413  27.481  27.596  1.00  0.00     0.012 A 
ATOM     70  C   UNL A   1      47.556  27.802  25.342  1.00  0.00     0.148 A 
ATOM     71  C   UNL A   1      49.638  27.060  27.079  1.00  0.00     0.002 A 
ATOM     72  C   UNL A   1      48.761  27.335  24.834  1.00  0.00     0.091 A 
ATOM     73  F   UNL A   1      46.561  28.208  24.540  1.00  0.00    -0.205 F 
ATOM     74  C   UNL A   1      49.809  26.978  25.700  1.00  0.00     0.022 A 
BRANCH  72  75
ATOM     75  S   UNL A   1      49.049  27.115  23.075  1.00  0.00     0.127 S 
ATOM     76  O   UNL A   1      50.496  26.910  23.035  1.00  0.00    -0.237 OA
ATOM     77  O   UNL A   1      48.256  25.921  22.782  1.00  0.00    -0.237 OA
ATOM     78  O   UNL A   1      48.571  28.332  22.435  1.00  0.00    -0.744 OA
ENDBRANCH  72  75
ENDBRANCH  54  68
BRANCH  55  79
ATOM     79  C   UNL A   1      38.594  30.422  30.826  1.00  0.00     0.023 A 
ATOM     80  C   UNL A   1      38.378  30.064  32.171  1.00  0.00     0.012 A 
ATOM     81  C   UNL A   1      37.601  31.145  30.137  1.00  0.00     0.148 A 
ATOM     82  C   UNL A   1      37.184  30.398  32.810  1.00  0.00     0.002 A 
ATOM     83  C   UNL A   1      36.436  31.518  30.795  1.00  0.00     0.091 A 
ATOM     84  F   UNL A   1      37.824  31.462  28.854  1.00  0.00    -0.205 F 
ATOM     85  C   UNL A   1      36.218  31.133  32.127  1.00  0.00     0.022 A 
BRANCH  83  86
ATOM     86  S   UNL A   1      35.187  32.562  30.037  1.00  0.00     0.127 S 
ATOM     87  O   UNL A   1      34.672  31.692  28.981  1.00  0.00    -0.237 OA
ATOM     88  O   UNL A   1      34.268  32.782  31.154  1.00  0.00    -0.237 OA
ATOM     89  O   UNL A   1      35.890  33.753  29.582  1.00  0.00    -0.744 OA
ENDBRANCH  83  86
ENDBRANCH  55  79
BRANCH  67  90
ATOM     90  C   UNL A   1      44.493  33.913  29.447  1.00  0.00     0.023 A 
ATOM     91  C   UNL A   1      45.087  34.290  30.667  1.00  0.00     0.012 A 
ATOM     92  C   UNL A   1      44.375  34.863  28.413  1.00  0.00     0.148 A 
ATOM     93  C   UNL A   1      45.524  35.598  30.867  1.00  0.00     0.002 A 
ATOM     94  C   UNL A   1      44.861  36.151  28.600  1.00  0.00     0.091 A 
ATOM     95  F   UNL A   1      43.793  34.489  27.263  1.00  0.00    -0.205 F 
ATOM     96  C   UNL A   1      45.423  36.525  29.831  1.00  0.00     0.022 A 
BRANCH  94  97
ATOM     97  S   UNL A   1      44.866  37.380  27.289  1.00  0.00     0.127 S 
ATOM     98  O   UNL A   1      45.772  36.772  26.316  1.00  0.00    -0.237 OA
ATOM     99  O   UNL A   1      43.462  37.407  26.883  1.00  0.00    -0.237 OA
ATOM    100  O   UNL A   1      45.343  38.615  27.898  1.00  0.00    -0.744 OA
ENDBRANCH  94  97
ENDBRANCH  67  90
ENDBRANCH  41  42
ENDBRANCH  34  36
ENDBRANCH  33  34
ENDBRANCH  32  33
ENDBRANCH  31  32
ENDBRANCH  30  31
ENDBRANCH  29  30
ENDBRANCH   1  29
TORSDOF 25
ENDMDL
MODEL 3
REMARK VINA RESULT:     -10.5      1.912      7.670
REMARK SMILES Cc1sc(NC(=O)c2ccc(Br)nc2)c(C(=O)OCCOCCOCCOCCOC(=O)c2ccc(-c3c4nc(c(-c5cccc(S(=O)(=O)[O-])c5F)c5ccc([nH]5)c(-c5cccc(S(=O)(=O)[O-])c5F)c5nc(c(-c6cccc(S(=O)(=O)[O-])c6F)c6ccc3[nH]6)C=C5)C=C4)cc2)c1C
REMARK SMILES IDX 25 1 24 2 23 3 22 4 21 5 20 6 19 7 18 8 16 9 17 10 15 11
REMARK SMILES IDX 1 12 2 13 3 14 96 15 4 16 97 17 5 18 6 19 7 21 8 22 9 23
REMARK SMILES IDX 14 24 10 25 13 26 11 27 12 28 26 29 27 30 28 31 29 32 30 33
REMARK SMILES IDX 31 34 32 35 33 36 34 37 95 38 35 39 94 40 36 41 37 42 38 43
REMARK SMILES IDX 88 44 39 45 93 46 87 47 89 48 40 49 92 50 86 51 85 52 41 54
REMARK SMILES IDX 73 55 53 56 72 57 54 58 57 59 71 60 90 61 55 62 56 63 70 65
REMARK SMILES IDX 91 66 58 67 42 68 43 69 51 70 44 71 46 72 52 73 45 74 47 75
REMARK SMILES IDX 48 76 49 77 50 78 74 79 75 80 83 81 76 82 78 83 84 84 77 85
REMARK SMILES IDX 79 86 80 87 81 88 82 89 59 90 60 91 68 92 61 93 63 94 69 95
REMARK SMILES IDX 62 96 64 97 65 98 66 99 67 100
REMARK H PARENT 5 20 89 53 57 64
REMARK Flexibility Score: inf
ROOT
ATOM      1  C   UNL A   1      35.900  22.580  25.959  1.00  0.00     0.188 C 
ENDROOT
BRANCH   1   2
ATOM      2  O   UNL A   1      34.684  21.875  26.152  1.00  0.00    -0.377 OA
BRANCH   2   3
ATOM      3  C   UNL A   1      34.478  20.633  25.481  1.00  0.00     0.188 C 
BRANCH   3   4
ATOM      4  C   UNL A   1      33.116  19.910  25.596  1.00  0.00     0.188 C 
BRANCH   4   5
ATOM      5  O   UNL A   1      32.041  20.576  24.942  1.00  0.00    -0.376 OA
BRANCH   5   6
ATOM      6  C   UNL A   1      32.020  21.814  24.243  1.00  0.00     0.202 C 
BRANCH   6   7
ATOM      7  C   UNL A   1      30.814  22.941  23.849  1.00  0.00     0.261 C 
BRANCH   7   8
ATOM      8  O   UNL A   1      30.573  24.839  24.519  1.00  0.00    -0.460 OA
BRANCH   8   9
ATOM      9  C   UNL A   1      30.688  25.937  25.410  1.00  0.00     0.341 C 
ATOM     10  O   UNL A   1      30.912  25.728  26.607  1.00  0.00    -0.246 OA
BRANCH   9  11
ATOM     11  C   UNL A   1      30.463  27.313  24.936  1.00  0.00     0.098 A 
ATOM     12  C   UNL A   1      28.797  29.410  22.249  1.00  0.00     0.057 C 
ATOM     13  C   UNL A   1      29.543  28.847  23.413  1.00  0.00     0.007 A 
ATOM     14  S   UNL A   1      30.797  29.735  24.148  1.00  0.00    -0.122 S 
ATOM     15  C   UNL A   1      29.362  27.619  24.023  1.00  0.00    -0.021 A 
ATOM     16  C   UNL A   1      31.205  28.456  25.206  1.00  0.00     0.110 A 
ATOM     17  C   UNL A   1      28.220  26.684  23.742  1.00  0.00     0.046 C 
BRANCH  16  18
ATOM     18  N   UNL A   1      32.212  28.848  26.074  1.00  0.00    -0.313 N 
ATOM     19  C   UNL A   1      33.572  28.661  25.993  1.00  0.00     0.257 C 
ATOM     20  H   UNL A   1      31.905  29.337  26.871  1.00  0.00     0.171 HD
ATOM     21  O   UNL A   1      34.359  29.200  26.757  1.00  0.00    -0.269 OA
BRANCH  19  22
ATOM     22  C   UNL A   1      34.089  27.769  24.971  1.00  0.00     0.058 A 
ATOM     23  C   UNL A   1      33.854  28.211  23.253  1.00  0.00     0.018 A 
ATOM     24  C   UNL A   1      34.144  26.055  25.423  1.00  0.00     0.126 A 
ATOM     25  C   UNL A   1      33.573  26.951  22.008  1.00  0.00     0.037 A 
ATOM     26  N   UNL A   1      33.815  24.799  24.199  1.00  0.00    -0.249 NA
ATOM     27  C   UNL A   1      33.567  25.248  22.500  1.00  0.00     0.106 A 
ATOM     28  Br  UNL A   1      33.218  23.891  21.237  1.00  0.00    -0.029 Br
ENDBRANCH  19  22
ENDBRANCH  16  18
ENDBRANCH   9  11
ENDBRANCH   8   9
ENDBRANCH   7   8
ENDBRANCH   6   7
ENDBRANCH   5   6
ENDBRANCH   4   5
ENDBRANCH   3   4
ENDBRANCH   2   3
ENDBRANCH   1   2
BRANCH   1  29
ATOM     29  C   UNL A   1      36.851  22.083  24.851  1.00  0.00     0.188 C 
BRANCH  29  30
ATOM     30  O   UNL A   1      38.056  21.388  25.155  1.00  0.00    -0.376 OA
BRANCH  30  31
ATOM     31  C   UNL A   1      38.164  19.996  24.936  1.00  0.00     0.202 C 
BRANCH  31  32
ATOM     32  C   UNL A   1      39.304  19.216  25.595  1.00  0.00     0.261 C 
BRANCH  32  33
ATOM     33  O   UNL A   1      39.921  19.849  26.717  1.00  0.00    -0.460 OA
BRANCH  33  34
ATOM     34  C   UNL A   1      41.190  20.274  26.506  1.00  0.00     0.338 C 
ATOM     35  O   UNL A   1      42.075  19.684  25.911  1.00  0.00    -0.246 OA
BRANCH  34  36
ATOM     36  C   UNL A   1      41.319  21.666  26.979  1.00  0.00     0.060 A 
ATOM     37  C   UNL A   1      41.018  22.709  26.091  1.00  0.00     0.016 A 
ATOM     38  C   UNL A   1      41.789  21.941  28.265  1.00  0.00     0.016 A 
ATOM     39  C   UNL A   1      41.229  24.031  26.467  1.00  0.00     0.010 A 
ATOM     40  C   UNL A   1      42.036  23.265  28.629  1.00  0.00     0.010 A 
ATOM     41  C   UNL A   1      41.802  24.305  27.712  1.00  0.00    -0.014 A 
BRANCH  41  42
ATOM     42  C   UNL A   1      42.405  25.636  27.943  1.00  0.00     0.031 A 
ATOM     43  C   UNL A   1      41.554  26.683  28.606  1.00  0.00     0.074 A 
ATOM     44  C   UNL A   1      43.669  25.904  27.581  1.00  0.00     0.049 A 
ATOM     45  N   UNL A   1      41.824  27.937  28.855  1.00  0.00    -0.248 NA
ATOM     46  C   UNL A   1      40.211  26.259  29.041  1.00  0.00     0.031 C 
ATOM     47  C   UNL A   1      44.591  24.958  26.959  1.00  0.00     0.029 A 
ATOM     48  N   UNL A   1      44.381  27.074  27.660  1.00  0.00    -0.354 N 
ATOM     49  C   UNL A   1      40.675  28.459  29.437  1.00  0.00     0.074 A 
ATOM     50  C   UNL A   1      39.704  27.390  29.500  1.00  0.00     0.031 C 
ATOM     51  C   UNL A   1      45.740  25.596  26.674  1.00  0.00     0.029 A 
ATOM     52  C   UNL A   1      45.617  27.000  27.067  1.00  0.00     0.049 A 
ATOM     53  H   UNL A   1      44.040  27.887  28.100  1.00  0.00     0.167 HD
ATOM     54  C   UNL A   1      40.452  29.715  29.887  1.00  0.00     0.034 A 
ATOM     55  C   UNL A   1      46.528  27.967  26.838  1.00  0.00     0.034 A 
ATOM     56  C   UNL A   1      41.427  30.769  29.828  1.00  0.00     0.049 A 
ATOM     57  C   UNL A   1      46.244  29.369  27.313  1.00  0.00     0.074 A 
ATOM     58  C   UNL A   1      41.320  32.067  30.291  1.00  0.00     0.029 A 
ATOM     59  N   UNL A   1      42.683  30.649  29.253  1.00  0.00    -0.354 N 
ATOM     60  N   UNL A   1      45.195  29.829  27.952  1.00  0.00    -0.248 NA
ATOM     61  C   UNL A   1      47.283  30.379  27.063  1.00  0.00     0.031 C 
ATOM     62  C   UNL A   1      42.497  32.745  29.961  1.00  0.00     0.029 A 
ATOM     63  C   UNL A   1      43.357  31.855  29.333  1.00  0.00     0.049 A 
ATOM     64  H   UNL A   1      43.043  29.828  28.847  1.00  0.00     0.167 HD
ATOM     65  C   UNL A   1      45.462  31.170  28.214  1.00  0.00     0.074 A 
ATOM     66  C   UNL A   1      46.780  31.442  27.677  1.00  0.00     0.031 C 
ATOM     67  C   UNL A   1      44.687  32.094  28.834  1.00  0.00     0.034 A 
BRANCH  54  68
ATOM     68  C   UNL A   1      39.098  30.012  30.475  1.00  0.00     0.023 A 
ATOM     69  C   UNL A   1      38.735  29.463  31.723  1.00  0.00     0.012 A 
ATOM     70  C   UNL A   1      38.192  30.854  29.802  1.00  0.00     0.148 A 
ATOM     71  C   UNL A   1      37.478  29.714  32.270  1.00  0.00     0.002 A 
ATOM     72  C   UNL A   1      36.960  31.140  30.377  1.00  0.00     0.091 A 
ATOM     73  F   UNL A   1      38.543  31.343  28.604  1.00  0.00    -0.205 F 
ATOM     74  C   UNL A   1      36.595  30.559  31.604  1.00  0.00     0.022 A 
BRANCH  72  75
ATOM     75  S   UNL A   1      35.789  32.280  29.635  1.00  0.00     0.127 S 
ATOM     76  O   UNL A   1      36.548  33.530  29.640  1.00  0.00    -0.237 OA
ATOM     77  O   UNL A   1      35.589  31.695  28.308  1.00  0.00    -0.237 OA
ATOM     78  O   UNL A   1      34.611  32.260  30.490  1.00  0.00    -0.744 OA
ENDBRANCH  72  75
ENDBRANCH  54  68
BRANCH  55  79
ATOM     79  C   UNL A   1      47.802  27.637  26.142  1.00  0.00     0.023 A 
ATOM     80  C   UNL A   1      48.921  27.232  26.895  1.00  0.00     0.012 A 
ATOM     81  C   UNL A   1      47.902  27.700  24.738  1.00  0.00     0.148 A 
ATOM     82  C   UNL A   1      50.126  26.921  26.263  1.00  0.00     0.002 A 
ATOM     83  C   UNL A   1      49.089  27.339  24.113  1.00  0.00     0.091 A 
ATOM     84  F   UNL A   1      46.828  28.101  24.044  1.00  0.00    -0.205 F 
ATOM     85  C   UNL A   1      50.207  26.964  24.873  1.00  0.00     0.022 A 
BRANCH  83  86
ATOM     86  S   UNL A   1      49.255  27.253  22.326  1.00  0.00     0.127 S 
ATOM     87  O   UNL A   1      48.433  26.089  22.006  1.00  0.00    -0.237 OA
ATOM     88  O   UNL A   1      48.689  28.538  21.915  1.00  0.00    -0.237 OA
ATOM     89  O   UNL A   1      50.680  27.105  22.069  1.00  0.00    -0.744 OA
ENDBRANCH  83  86
ENDBRANCH  55  79
BRANCH  67  90
ATOM     90  C   UNL A   1      45.255  33.480  29.017  1.00  0.00     0.023 A 
ATOM     91  C   UNL A   1      45.021  34.474  28.047  1.00  0.00     0.012 A 
ATOM     92  C   UNL A   1      45.952  33.814  30.195  1.00  0.00     0.148 A 
ATOM     93  C   UNL A   1      45.501  35.769  28.231  1.00  0.00     0.002 A 
ATOM     94  C   UNL A   1      46.382  35.119  30.396  1.00  0.00     0.091 A 
ATOM     95  F   UNL A   1      46.178  32.850  31.100  1.00  0.00    -0.205 F 
ATOM     96  C   UNL A   1      46.170  36.095  29.409  1.00  0.00     0.022 A 
BRANCH  94  97
ATOM     97  S   UNL A   1      47.160  35.655  31.925  1.00  0.00     0.127 S 
ATOM     98  O   UNL A   1      47.538  37.029  31.600  1.00  0.00    -0.237 OA
ATOM     99  O   UNL A   1      46.065  35.534  32.888  1.00  0.00    -0.237 OA
ATOM    100  O   UNL A   1      48.270  34.740  32.153  1.00  0.00    -0.744 OA
ENDBRANCH  94  97
ENDBRANCH  67  90
ENDBRANCH  41  42
ENDBRANCH  34  36
ENDBRANCH  33  34
ENDBRANCH  32  33
ENDBRANCH  31  32
ENDBRANCH  30  31
ENDBRANCH  29  30
ENDBRANCH   1  29
TORSDOF 25
ENDMDL
