MODEL 1
REMARK VINA RESULT:      -6.8      0.000      0.000
REMARK SMILES C[C@@H]([NH3+])CCC(=O)N[C@H]1C=C[C@@H](C(=O)OCCOCCOCCOCCOC(=O)c2ccc(-c3c4nc(c(-c5cccc(S(=O)(=O)[O-])c5F)c5ccc([nH]5)c(-c5cccc(S(=O)(=O)[O-])c5F)c5nc(c(-c6cccc(S(=O)(=O)[O-])c6F)c6ccc3[nH]6)C=C5)C=C4)cc2)C1
REMARK SMILES IDX 20 1 19 2 18 3 17 4 16 5 15 6 13 7 14 8 12 9 9 10 10 11
REMARK SMILES IDX 93 12 11 13 8 14 6 15 7 16 5 18 4 19 2 20 1 21 3 22 21 26
REMARK SMILES IDX 22 27 23 28 24 29 25 30 26 31 27 32 28 33 29 34 30 35 31 36
REMARK SMILES IDX 92 37 32 38 91 39 33 40 34 41 35 42 85 43 36 44 90 45 84 46
REMARK SMILES IDX 86 47 37 48 89 49 83 50 82 51 38 53 70 54 50 55 69 56 51 57
REMARK SMILES IDX 54 58 68 59 87 60 52 61 53 62 67 64 88 65 55 66 39 67 40 68
REMARK SMILES IDX 48 69 41 70 43 71 49 72 42 73 44 74 45 75 46 76 47 77 71 78
REMARK SMILES IDX 72 79 80 80 73 81 75 82 81 83 74 84 76 85 77 86 78 87 79 88
REMARK SMILES IDX 56 89 57 90 65 91 58 92 60 93 66 94 59 95 61 96 62 97 63 98
REMARK SMILES IDX 64 99
REMARK H PARENT 8 17 3 23 3 24 3 25 86 52 54 63
REMARK Flexibility Score: inf
ROOT
ATOM      1  C   UNL A   1      32.553  36.298  30.147  1.00  0.00     0.188 C 
ENDROOT
BRANCH   1   2
ATOM      2  C   UNL A   1      33.056  35.664  28.844  1.00  0.00     0.188 C 
BRANCH   2   3
ATOM      3  O   UNL A   1      33.654  34.369  28.860  1.00  0.00    -0.376 OA
BRANCH   3   4
ATOM      4  C   UNL A   1      34.912  34.176  28.233  1.00  0.00     0.202 C 
BRANCH   4   5
ATOM      5  C   UNL A   1      36.073  33.623  29.070  1.00  0.00     0.261 C 
BRANCH   5   6
ATOM      6  O   UNL A   1      36.227  32.176  29.194  1.00  0.00    -0.463 OA
BRANCH   6   7
ATOM      7  C   UNL A   1      37.509  31.742  29.332  1.00  0.00     0.312 C 
ATOM      8  O   UNL A   1      38.413  32.465  29.753  1.00  0.00    -0.252 OA
BRANCH   7   9
ATOM      9  C   UNL A   1      37.836  30.306  28.845  1.00  0.00     0.124 C 
ATOM     10  C   UNL A   1      39.527  29.036  27.516  1.00  0.00     0.106 C 
ATOM     11  C   UNL A   1      39.981  29.234  28.911  1.00  0.00    -0.006 C 
ATOM     12  C   UNL A   1      38.208  29.875  27.401  1.00  0.00     0.048 C 
ATOM     13  C   UNL A   1      39.035  29.838  29.644  1.00  0.00    -0.014 C 
BRANCH  10  14
ATOM     14  N   UNL A   1      40.585  28.966  26.485  1.00  0.00    -0.350 N 
ATOM     15  C   UNL A   1      41.896  28.859  26.169  1.00  0.00     0.220 C 
ATOM     16  O   UNL A   1      42.079  28.831  24.940  1.00  0.00    -0.275 OA
ATOM     17  H   UNL A   1      40.113  29.029  25.623  1.00  0.00     0.164 HD
BRANCH  15  18
ATOM     18  C   UNL A   1      43.130  28.711  27.054  1.00  0.00     0.106 C 
BRANCH  18  19
ATOM     19  C   UNL A   1      44.197  27.761  26.550  1.00  0.00     0.074 C 
BRANCH  19  20
ATOM     20  C   UNL A   1      44.127  26.487  27.342  1.00  0.00     0.178 C 
ATOM     21  C   UNL A   1      45.248  25.505  27.039  1.00  0.00     0.075 C 
BRANCH  20  22
ATOM     22  N   UNL A   1      43.979  26.821  28.736  1.00  0.00    -0.355 N 
ATOM     23  H   UNL A   1      44.193  26.003  29.305  1.00  0.00     0.344 HD
ATOM     24  H   UNL A   1      43.021  27.120  28.915  1.00  0.00     0.344 HD
ATOM     25  H   UNL A   1      44.621  27.577  28.974  1.00  0.00     0.344 HD
ENDBRANCH  20  22
ENDBRANCH  19  20
ENDBRANCH  18  19
ENDBRANCH  15  18
ENDBRANCH  10  14
ENDBRANCH   7   9
ENDBRANCH   6   7
ENDBRANCH   5   6
ENDBRANCH   4   5
ENDBRANCH   3   4
ENDBRANCH   2   3
ENDBRANCH   1   2
BRANCH   1  26
ATOM     26  O   UNL A   1      33.609  36.928  30.837  1.00  0.00    -0.377 OA
BRANCH  26  27
ATOM     27  C   UNL A   1      33.889  36.562  32.172  1.00  0.00     0.188 C 
BRANCH  27  28
ATOM     28  C   UNL A   1      32.782  35.712  32.795  1.00  0.00     0.188 C 
BRANCH  28  29
ATOM     29  O   UNL A   1      33.214  34.390  33.098  1.00  0.00    -0.376 OA
BRANCH  29  30
ATOM     30  C   UNL A   1      34.149  33.774  32.218  1.00  0.00     0.202 C 
BRANCH  30  31
ATOM     31  C   UNL A   1      35.055  32.644  32.753  1.00  0.00     0.261 C 
BRANCH  31  32
ATOM     32  O   UNL A   1      36.453  32.929  32.931  1.00  0.00    -0.460 OA
BRANCH  32  33
ATOM     33  C   UNL A   1      37.029  32.633  34.111  1.00  0.00     0.338 C 
ATOM     34  O   UNL A   1      36.572  32.846  35.225  1.00  0.00    -0.246 OA
BRANCH  33  35
ATOM     35  C   UNL A   1      38.242  31.835  33.847  1.00  0.00     0.060 A 
ATOM     36  C   UNL A   1      39.471  32.282  34.349  1.00  0.00     0.016 A 
ATOM     37  C   UNL A   1      38.176  30.680  33.065  1.00  0.00     0.016 A 
ATOM     38  C   UNL A   1      40.647  31.604  34.027  1.00  0.00     0.010 A 
ATOM     39  C   UNL A   1      39.358  30.012  32.728  1.00  0.00     0.010 A 
ATOM     40  C   UNL A   1      40.602  30.497  33.171  1.00  0.00    -0.014 A 
BRANCH  40  41
ATOM     41  C   UNL A   1      41.861  29.982  32.580  1.00  0.00     0.031 A 
ATOM     42  C   UNL A   1      42.489  30.756  31.450  1.00  0.00     0.074 A 
ATOM     43  C   UNL A   1      42.447  28.861  33.039  1.00  0.00     0.049 A 
ATOM     44  N   UNL A   1      43.564  30.490  30.758  1.00  0.00    -0.248 NA
ATOM     45  C   UNL A   1      41.810  32.002  31.048  1.00  0.00     0.031 C 
ATOM     46  C   UNL A   1      41.956  28.042  34.145  1.00  0.00     0.029 A 
ATOM     47  N   UNL A   1      43.577  28.209  32.611  1.00  0.00    -0.354 N 
ATOM     48  C   UNL A   1      43.668  31.503  29.812  1.00  0.00     0.074 A 
ATOM     49  C   UNL A   1      42.550  32.397  30.022  1.00  0.00     0.031 C 
ATOM     50  C   UNL A   1      42.768  26.979  34.293  1.00  0.00     0.029 A 
ATOM     51  C   UNL A   1      43.813  27.027  33.272  1.00  0.00     0.049 A 
ATOM     52  H   UNL A   1      44.163  28.556  31.900  1.00  0.00     0.167 HD
ATOM     53  C   UNL A   1      44.611  31.678  28.857  1.00  0.00     0.034 A 
ATOM     54  C   UNL A   1      44.749  26.081  33.056  1.00  0.00     0.034 A 
ATOM     55  C   UNL A   1      45.734  30.802  28.665  1.00  0.00     0.049 A 
ATOM     56  C   UNL A   1      45.763  26.284  31.955  1.00  0.00     0.074 A 
ATOM     57  C   UNL A   1      46.775  30.930  27.764  1.00  0.00     0.029 A 
ATOM     58  N   UNL A   1      45.950  29.626  29.364  1.00  0.00    -0.354 N 
ATOM     59  N   UNL A   1      45.919  27.307  31.150  1.00  0.00    -0.248 NA
ATOM     60  C   UNL A   1      46.748  25.210  31.751  1.00  0.00     0.031 C 
ATOM     61  C   UNL A   1      47.595  29.804  27.884  1.00  0.00     0.029 A 
ATOM     62  C   UNL A   1      47.093  29.004  28.897  1.00  0.00     0.049 A 
ATOM     63  H   UNL A   1      45.375  29.285  30.087  1.00  0.00     0.167 HD
ATOM     64  C   UNL A   1      47.043  27.022  30.381  1.00  0.00     0.074 A 
ATOM     65  C   UNL A   1      47.539  25.737  30.827  1.00  0.00     0.031 C 
ATOM     66  C   UNL A   1      47.609  27.752  29.389  1.00  0.00     0.034 A 
BRANCH  53  67
ATOM     67  C   UNL A   1      44.471  32.858  27.933  1.00  0.00     0.023 A 
ATOM     68  C   UNL A   1      44.047  32.670  26.602  1.00  0.00     0.012 A 
ATOM     69  C   UNL A   1      44.688  34.164  28.414  1.00  0.00     0.148 A 
ATOM     70  C   UNL A   1      43.866  33.765  25.757  1.00  0.00     0.002 A 
ATOM     71  C   UNL A   1      44.459  35.251  27.580  1.00  0.00     0.091 A 
ATOM     72  F   UNL A   1      45.113  34.318  29.675  1.00  0.00    -0.205 F 
ATOM     73  C   UNL A   1      44.059  35.054  26.249  1.00  0.00     0.022 A 
BRANCH  71  74
ATOM     74  S   UNL A   1      44.599  36.951  28.144  1.00  0.00     0.127 S 
ATOM     75  O   UNL A   1      44.177  37.691  26.955  1.00  0.00    -0.237 OA
ATOM     76  O   UNL A   1      43.648  36.983  29.254  1.00  0.00    -0.237 OA
ATOM     77  O   UNL A   1      45.992  37.137  28.528  1.00  0.00    -0.744 OA
ENDBRANCH  71  74
ENDBRANCH  53  67
BRANCH  54  78
ATOM     78  C   UNL A   1      44.796  24.852  33.901  1.00  0.00     0.023 A 
ATOM     79  C   UNL A   1      44.163  23.675  33.454  1.00  0.00     0.012 A 
ATOM     80  C   UNL A   1      45.439  24.849  35.155  1.00  0.00     0.148 A 
ATOM     81  C   UNL A   1      44.128  22.534  34.258  1.00  0.00     0.002 A 
ATOM     82  C   UNL A   1      45.453  23.692  35.924  1.00  0.00     0.091 A 
ATOM     83  F   UNL A   1      46.020  25.982  35.573  1.00  0.00    -0.205 F 
ATOM     84  C   UNL A   1      44.779  22.540  35.489  1.00  0.00     0.022 A 
BRANCH  82  85
ATOM     85  S   UNL A   1      46.367  23.568  37.465  1.00  0.00     0.127 S 
ATOM     86  O   UNL A   1      45.586  24.431  38.347  1.00  0.00    -0.237 OA
ATOM     87  O   UNL A   1      46.271  22.137  37.758  1.00  0.00    -0.237 OA
ATOM     88  O   UNL A   1      47.715  24.028  37.161  1.00  0.00    -0.744 OA
ENDBRANCH  82  85
ENDBRANCH  54  78
BRANCH  66  89
ATOM     89  C   UNL A   1      48.866  27.219  28.747  1.00  0.00     0.023 A 
ATOM     90  C   UNL A   1      48.794  26.477  27.553  1.00  0.00     0.012 A 
ATOM     91  C   UNL A   1      50.129  27.526  29.294  1.00  0.00     0.148 A 
ATOM     92  C   UNL A   1      49.955  26.017  26.932  1.00  0.00     0.002 A 
ATOM     93  C   UNL A   1      51.283  27.112  28.641  1.00  0.00     0.091 A 
ATOM     94  F   UNL A   1      50.178  28.222  30.439  1.00  0.00    -0.205 F 
ATOM     95  C   UNL A   1      51.198  26.345  27.469  1.00  0.00     0.022 A 
BRANCH  93  96
ATOM     96  S   UNL A   1      52.927  27.575  29.200  1.00  0.00     0.127 S 
ATOM     97  O   UNL A   1      52.848  29.036  29.178  1.00  0.00    -0.237 OA
ATOM     98  O   UNL A   1      52.976  26.988  30.539  1.00  0.00    -0.237 OA
ATOM     99  O   UNL A   1      53.859  26.989  28.247  1.00  0.00    -0.744 OA
ENDBRANCH  93  96
ENDBRANCH  66  89
ENDBRANCH  40  41
ENDBRANCH  33  35
ENDBRANCH  32  33
ENDBRANCH  31  32
ENDBRANCH  30  31
ENDBRANCH  29  30
ENDBRANCH  28  29
ENDBRANCH  27  28
ENDBRANCH  26  27
ENDBRANCH   1  26
TORSDOF 28
ENDMDL
MODEL 2
REMARK VINA RESULT:      -6.7      5.815     10.876
REMARK SMILES C[C@@H]([NH3+])CCC(=O)N[C@H]1C=C[C@@H](C(=O)OCCOCCOCCOCCOC(=O)c2ccc(-c3c4nc(c(-c5cccc(S(=O)(=O)[O-])c5F)c5ccc([nH]5)c(-c5cccc(S(=O)(=O)[O-])c5F)c5nc(c(-c6cccc(S(=O)(=O)[O-])c6F)c6ccc3[nH]6)C=C5)C=C4)cc2)C1
REMARK SMILES IDX 20 1 19 2 18 3 17 4 16 5 15 6 13 7 14 8 12 9 9 10 10 11
REMARK SMILES IDX 93 12 11 13 8 14 6 15 7 16 5 18 4 19 2 20 1 21 3 22 21 26
REMARK SMILES IDX 22 27 23 28 24 29 25 30 26 31 27 32 28 33 29 34 30 35 31 36
REMARK SMILES IDX 92 37 32 38 91 39 33 40 34 41 35 42 85 43 36 44 90 45 84 46
REMARK SMILES IDX 86 47 37 48 89 49 83 50 82 51 38 53 70 54 50 55 69 56 51 57
REMARK SMILES IDX 54 58 68 59 87 60 52 61 53 62 67 64 88 65 55 66 39 67 40 68
REMARK SMILES IDX 48 69 41 70 43 71 49 72 42 73 44 74 45 75 46 76 47 77 71 78
REMARK SMILES IDX 72 79 80 80 73 81 75 82 81 83 74 84 76 85 77 86 78 87 79 88
REMARK SMILES IDX 56 89 57 90 65 91 58 92 60 93 66 94 59 95 61 96 62 97 63 98
REMARK SMILES IDX 64 99
REMARK H PARENT 8 17 3 23 3 24 3 25 86 52 54 63
REMARK Flexibility Score: inf
ROOT
ATOM      1  C   UNL A   1      35.631  21.980  25.957  1.00  0.00     0.188 C 
ENDROOT
BRANCH   1   2
ATOM      2  C   UNL A   1      35.136  20.975  24.909  1.00  0.00     0.188 C 
BRANCH   2   3
ATOM      3  O   UNL A   1      33.968  21.257  24.139  1.00  0.00    -0.376 OA
BRANCH   3   4
ATOM      4  C   UNL A   1      32.730  20.678  24.517  1.00  0.00     0.202 C 
BRANCH   4   5
ATOM      5  C   UNL A   1      31.813  21.460  25.468  1.00  0.00     0.261 C 
BRANCH   5   6
ATOM      6  O   UNL A   1      31.776  22.917  25.374  1.00  0.00    -0.463 OA
BRANCH   6   7
ATOM      7  C   UNL A   1      31.774  23.572  26.565  1.00  0.00     0.312 C 
ATOM      8  O   UNL A   1      32.026  23.010  27.632  1.00  0.00    -0.252 OA
BRANCH   7   9
ATOM      9  C   UNL A   1      31.343  25.063  26.564  1.00  0.00     0.124 C 
ATOM     10  C   UNL A   1      31.587  27.162  25.233  1.00  0.00     0.106 C 
ATOM     11  C   UNL A   1      30.512  26.304  24.688  1.00  0.00    -0.006 C 
ATOM     12  C   UNL A   1      32.260  26.297  26.353  1.00  0.00     0.048 C 
ATOM     13  C   UNL A   1      30.324  25.221  25.455  1.00  0.00    -0.014 C 
BRANCH  10  14
ATOM     14  N   UNL A   1      32.311  28.007  24.259  1.00  0.00    -0.350 N 
ATOM     15  C   UNL A   1      33.037  28.110  23.122  1.00  0.00     0.220 C 
ATOM     16  O   UNL A   1      33.319  29.291  22.854  1.00  0.00    -0.275 OA
ATOM     17  H   UNL A   1      32.226  28.927  24.599  1.00  0.00     0.164 HD
BRANCH  15  18
ATOM     18  C   UNL A   1      33.492  27.048  22.126  1.00  0.00     0.106 C 
BRANCH  18  19
ATOM     19  C   UNL A   1      32.478  25.970  21.797  1.00  0.00     0.074 C 
BRANCH  19  20
ATOM     20  C   UNL A   1      33.019  24.643  22.245  1.00  0.00     0.178 C 
ATOM     21  C   UNL A   1      33.940  24.724  23.454  1.00  0.00     0.075 C 
BRANCH  20  22
ATOM     22  N   UNL A   1      31.919  23.724  22.388  1.00  0.00    -0.355 N 
ATOM     23  H   UNL A   1      31.082  24.236  22.665  1.00  0.00     0.344 HD
ATOM     24  H   UNL A   1      32.145  23.030  23.100  1.00  0.00     0.344 HD
ATOM     25  H   UNL A   1      31.750  23.254  21.497  1.00  0.00     0.344 HD
ENDBRANCH  20  22
ENDBRANCH  19  20
ENDBRANCH  18  19
ENDBRANCH  15  18
ENDBRANCH  10  14
ENDBRANCH   7   9
ENDBRANCH   6   7
ENDBRANCH   5   6
ENDBRANCH   4   5
ENDBRANCH   3   4
ENDBRANCH   2   3
ENDBRANCH   1   2
BRANCH   1  26
ATOM     26  O   UNL A   1      36.322  23.043  25.342  1.00  0.00    -0.377 OA
BRANCH  26  27
ATOM     27  C   UNL A   1      37.522  23.522  25.914  1.00  0.00     0.188 C 
BRANCH  27  28
ATOM     28  C   UNL A   1      38.654  22.497  25.849  1.00  0.00     0.188 C 
BRANCH  28  29
ATOM     29  O   UNL A   1      39.560  22.614  26.941  1.00  0.00    -0.376 OA
BRANCH  29  30
ATOM     30  C   UNL A   1      40.926  22.888  26.649  1.00  0.00     0.202 C 
BRANCH  30  31
ATOM     31  C   UNL A   1      41.478  24.310  26.891  1.00  0.00     0.261 C 
BRANCH  31  32
ATOM     32  O   UNL A   1      41.837  25.098  25.743  1.00  0.00    -0.460 OA
BRANCH  32  33
ATOM     33  C   UNL A   1      43.134  25.388  25.535  1.00  0.00     0.338 C 
ATOM     34  O   UNL A   1      43.953  24.702  24.939  1.00  0.00    -0.246 OA
BRANCH  33  35
ATOM     35  C   UNL A   1      43.380  26.768  25.993  1.00  0.00     0.060 A 
ATOM     36  C   UNL A   1      44.421  27.008  26.899  1.00  0.00     0.016 A 
ATOM     37  C   UNL A   1      42.556  27.813  25.571  1.00  0.00     0.016 A 
ATOM     38  C   UNL A   1      44.610  28.285  27.427  1.00  0.00     0.010 A 
ATOM     39  C   UNL A   1      42.734  29.089  26.117  1.00  0.00     0.010 A 
ATOM     40  C   UNL A   1      43.733  29.319  27.080  1.00  0.00    -0.014 A 
BRANCH  40  41
ATOM     41  C   UNL A   1      43.735  30.573  27.874  1.00  0.00     0.031 A 
ATOM     42  C   UNL A   1      44.794  31.603  27.580  1.00  0.00     0.074 A 
ATOM     43  C   UNL A   1      42.813  30.804  28.825  1.00  0.00     0.049 A 
ATOM     44  N   UNL A   1      45.016  32.753  28.157  1.00  0.00    -0.248 NA
ATOM     45  C   UNL A   1      45.730  31.292  26.484  1.00  0.00     0.031 C 
ATOM     46  C   UNL A   1      41.720  29.901  29.182  1.00  0.00     0.029 A 
ATOM     47  N   UNL A   1      42.665  31.867  29.682  1.00  0.00    -0.354 N 
ATOM     48  C   UNL A   1      46.138  33.283  27.530  1.00  0.00     0.074 A 
ATOM     49  C   UNL A   1      46.549  32.332  26.521  1.00  0.00     0.031 C 
ATOM     50  C   UNL A   1      41.028  30.438  30.203  1.00  0.00     0.029 A 
ATOM     51  C   UNL A   1      41.648  31.703  30.593  1.00  0.00     0.049 A 
ATOM     52  H   UNL A   1      43.233  32.670  29.646  1.00  0.00     0.167 HD
ATOM     53  C   UNL A   1      46.767  34.457  27.769  1.00  0.00     0.034 A 
ATOM     54  C   UNL A   1      41.282  32.473  31.637  1.00  0.00     0.034 A 
ATOM     55  C   UNL A   1      46.343  35.411  28.757  1.00  0.00     0.049 A 
ATOM     56  C   UNL A   1      42.031  33.757  31.904  1.00  0.00     0.074 A 
ATOM     57  C   UNL A   1      46.880  36.657  29.031  1.00  0.00     0.029 A 
ATOM     58  N   UNL A   1      45.300  35.219  29.647  1.00  0.00    -0.354 N 
ATOM     59  N   UNL A   1      43.012  34.301  31.226  1.00  0.00    -0.248 NA
ATOM     60  C   UNL A   1      41.602  34.548  33.068  1.00  0.00     0.031 C 
ATOM     61  C   UNL A   1      46.192  37.196  30.121  1.00  0.00     0.029 A 
ATOM     62  C   UNL A   1      45.193  36.310  30.490  1.00  0.00     0.049 A 
ATOM     63  H   UNL A   1      44.720  34.424  29.675  1.00  0.00     0.167 HD
ATOM     64  C   UNL A   1      43.283  35.515  31.851  1.00  0.00     0.074 A 
ATOM     65  C   UNL A   1      42.352  35.634  32.953  1.00  0.00     0.031 C 
ATOM     66  C   UNL A   1      44.224  36.443  31.547  1.00  0.00     0.034 A 
BRANCH  53  67
ATOM     67  C   UNL A   1      47.993  34.780  26.957  1.00  0.00     0.023 A 
ATOM     68  C   UNL A   1      47.872  35.481  25.740  1.00  0.00     0.012 A 
ATOM     69  C   UNL A   1      49.272  34.452  27.445  1.00  0.00     0.148 A 
ATOM     70  C   UNL A   1      49.009  35.827  25.009  1.00  0.00     0.002 A 
ATOM     71  C   UNL A   1      50.400  34.844  26.735  1.00  0.00     0.091 A 
ATOM     72  F   UNL A   1      49.362  33.767  28.593  1.00  0.00    -0.205 F 
ATOM     73  C   UNL A   1      50.271  35.521  25.512  1.00  0.00     0.022 A 
BRANCH  71  74
ATOM     74  S   UNL A   1      52.070  34.570  27.341  1.00  0.00     0.127 S 
ATOM     75  O   UNL A   1      51.997  35.155  28.679  1.00  0.00    -0.237 OA
ATOM     76  O   UNL A   1      52.168  33.112  27.316  1.00  0.00    -0.237 OA
ATOM     77  O   UNL A   1      52.955  35.258  26.411  1.00  0.00    -0.744 OA
ENDBRANCH  71  74
ENDBRANCH  53  67
BRANCH  54  78
ATOM     78  C   UNL A   1      40.143  32.073  32.513  1.00  0.00     0.023 A 
ATOM     79  C   UNL A   1      40.383  31.269  33.645  1.00  0.00     0.012 A 
ATOM     80  C   UNL A   1      38.821  32.460  32.218  1.00  0.00     0.148 A 
ATOM     81  C   UNL A   1      39.327  30.820  34.438  1.00  0.00     0.002 A 
ATOM     82  C   UNL A   1      37.779  32.059  33.046  1.00  0.00     0.091 A 
ATOM     83  F   UNL A   1      38.607  33.209  31.127  1.00  0.00    -0.205 F 
ATOM     84  C   UNL A   1      38.027  31.220  34.144  1.00  0.00     0.022 A 
BRANCH  82  85
ATOM     85  S   UNL A   1      36.090  32.625  32.816  1.00  0.00     0.127 S 
ATOM     86  O   UNL A   1      35.644  32.805  34.195  1.00  0.00    -0.237 OA
ATOM     87  O   UNL A   1      36.289  33.865  32.064  1.00  0.00    -0.237 OA
ATOM     88  O   UNL A   1      35.421  31.571  32.066  1.00  0.00    -0.744 OA
ENDBRANCH  82  85
ENDBRANCH  54  78
BRANCH  66  89
ATOM     89  C   UNL A   1      44.266  37.704  32.374  1.00  0.00     0.023 A 
ATOM     90  C   UNL A   1      44.886  37.703  33.639  1.00  0.00     0.012 A 
ATOM     91  C   UNL A   1      43.756  38.913  31.856  1.00  0.00     0.148 A 
ATOM     92  C   UNL A   1      44.966  38.875  34.390  1.00  0.00     0.002 A 
ATOM     93  C   UNL A   1      43.889  40.087  32.586  1.00  0.00     0.091 A 
ATOM     94  F   UNL A   1      43.158  38.892  30.656  1.00  0.00    -0.205 F 
ATOM     95  C   UNL A   1      44.479  40.068  33.860  1.00  0.00     0.022 A 
BRANCH  93  96
ATOM     96  S   UNL A   1      43.387  41.686  31.940  1.00  0.00     0.127 S 
ATOM     97  O   UNL A   1      43.209  42.461  33.167  1.00  0.00    -0.237 OA
ATOM     98  O   UNL A   1      44.548  42.074  31.137  1.00  0.00    -0.237 OA
ATOM     99  O   UNL A   1      42.172  41.449  31.172  1.00  0.00    -0.744 OA
ENDBRANCH  93  96
ENDBRANCH  66  89
ENDBRANCH  40  41
ENDBRANCH  33  35
ENDBRANCH  32  33
ENDBRANCH  31  32
ENDBRANCH  30  31
ENDBRANCH  29  30
ENDBRANCH  28  29
ENDBRANCH  27  28
ENDBRANCH  26  27
ENDBRANCH   1  26
TORSDOF 28
ENDMDL
MODEL 3
REMARK VINA RESULT:      -6.5      5.728      9.727
REMARK SMILES C[C@@H]([NH3+])CCC(=O)N[C@H]1C=C[C@@H](C(=O)OCCOCCOCCOCCOC(=O)c2ccc(-c3c4nc(c(-c5cccc(S(=O)(=O)[O-])c5F)c5ccc([nH]5)c(-c5cccc(S(=O)(=O)[O-])c5F)c5nc(c(-c6cccc(S(=O)(=O)[O-])c6F)c6ccc3[nH]6)C=C5)C=C4)cc2)C1
REMARK SMILES IDX 20 1 19 2 18 3 17 4 16 5 15 6 13 7 14 8 12 9 9 10 10 11
REMARK SMILES IDX 93 12 11 13 8 14 6 15 7 16 5 18 4 19 2 20 1 21 3 22 21 26
REMARK SMILES IDX 22 27 23 28 24 29 25 30 26 31 27 32 28 33 29 34 30 35 31 36
REMARK SMILES IDX 92 37 32 38 91 39 33 40 34 41 35 42 85 43 36 44 90 45 84 46
REMARK SMILES IDX 86 47 37 48 89 49 83 50 82 51 38 53 70 54 50 55 69 56 51 57
REMARK SMILES IDX 54 58 68 59 87 60 52 61 53 62 67 64 88 65 55 66 39 67 40 68
REMARK SMILES IDX 48 69 41 70 43 71 49 72 42 73 44 74 45 75 46 76 47 77 71 78
REMARK SMILES IDX 72 79 80 80 73 81 75 82 81 83 74 84 76 85 77 86 78 87 79 88
REMARK SMILES IDX 56 89 57 90 65 91 58 92 60 93 66 94 59 95 61 96 62 97 63 98
REMARK SMILES IDX 64 99
REMARK H PARENT 8 17 3 23 3 24 3 25 86 52 54 63
REMARK Flexibility Score: inf
ROOT
ATOM      1  C   UNL A   1      33.648  28.792  27.204  1.00  0.00     0.188 C 
ENDROOT
BRANCH   1   2
ATOM      2  C   UNL A   1      33.950  27.605  26.281  1.00  0.00     0.188 C 
BRANCH   2   3
ATOM      3  O   UNL A   1      33.301  26.352  26.487  1.00  0.00    -0.376 OA
BRANCH   3   4
ATOM      4  C   UNL A   1      33.394  25.349  25.488  1.00  0.00     0.202 C 
BRANCH   4   5
ATOM      5  C   UNL A   1      34.660  24.483  25.434  1.00  0.00     0.261 C 
BRANCH   5   6
ATOM      6  O   UNL A   1      34.592  23.174  24.787  1.00  0.00    -0.463 OA
BRANCH   6   7
ATOM      7  C   UNL A   1      34.588  23.203  23.427  1.00  0.00     0.312 C 
ATOM      8  O   UNL A   1      35.621  23.303  22.763  1.00  0.00    -0.252 OA
BRANCH   7   9
ATOM      9  C   UNL A   1      33.212  23.200  22.713  1.00  0.00     0.124 C 
ATOM     10  C   UNL A   1      30.966  24.289  22.803  1.00  0.00     0.106 C 
ATOM     11  C   UNL A   1      31.938  25.127  22.067  1.00  0.00    -0.006 C 
ATOM     12  C   UNL A   1      31.815  23.106  23.383  1.00  0.00     0.048 C 
ATOM     13  C   UNL A   1      33.118  24.501  21.944  1.00  0.00    -0.014 C 
BRANCH  10  14
ATOM     14  N   UNL A   1      29.898  25.007  23.530  1.00  0.00    -0.350 N 
ATOM     15  C   UNL A   1      29.357  26.176  23.947  1.00  0.00     0.220 C 
ATOM     16  O   UNL A   1      28.296  26.002  24.572  1.00  0.00    -0.275 OA
ATOM     17  H   UNL A   1      29.300  24.305  23.875  1.00  0.00     0.164 HD
BRANCH  15  18
ATOM     18  C   UNL A   1      29.799  27.618  23.725  1.00  0.00     0.106 C 
BRANCH  18  19
ATOM     19  C   UNL A   1      30.744  28.189  24.764  1.00  0.00     0.074 C 
BRANCH  19  20
ATOM     20  C   UNL A   1      31.217  29.537  24.301  1.00  0.00     0.178 C 
ATOM     21  C   UNL A   1      31.387  30.553  25.420  1.00  0.00     0.075 C 
BRANCH  20  22
ATOM     22  N   UNL A   1      32.382  29.354  23.473  1.00  0.00    -0.355 N 
ATOM     23  H   UNL A   1      32.428  28.384  23.161  1.00  0.00     0.344 HD
ATOM     24  H   UNL A   1      33.219  29.579  24.008  1.00  0.00     0.344 HD
ATOM     25  H   UNL A   1      32.322  29.969  22.661  1.00  0.00     0.344 HD
ENDBRANCH  20  22
ENDBRANCH  19  20
ENDBRANCH  18  19
ENDBRANCH  15  18
ENDBRANCH  10  14
ENDBRANCH   7   9
ENDBRANCH   6   7
ENDBRANCH   5   6
ENDBRANCH   4   5
ENDBRANCH   3   4
ENDBRANCH   2   3
ENDBRANCH   1   2
BRANCH   1  26
ATOM     26  O   UNL A   1      34.527  29.863  26.945  1.00  0.00    -0.377 OA
BRANCH  26  27
ATOM     27  C   UNL A   1      35.138  30.543  28.022  1.00  0.00     0.188 C 
BRANCH  27  28
ATOM     28  C   UNL A   1      35.394  32.019  27.716  1.00  0.00     0.188 C 
BRANCH  28  29
ATOM     29  O   UNL A   1      34.723  32.889  28.622  1.00  0.00    -0.376 OA
BRANCH  29  30
ATOM     30  C   UNL A   1      33.812  33.840  28.083  1.00  0.00     0.202 C 
BRANCH  30  31
ATOM     31  C   UNL A   1      33.311  34.994  28.979  1.00  0.00     0.261 C 
BRANCH  31  32
ATOM     32  O   UNL A   1      32.637  34.654  30.203  1.00  0.00    -0.460 OA
BRANCH  32  33
ATOM     33  C   UNL A   1      33.140  35.103  31.367  1.00  0.00     0.338 C 
ATOM     34  O   UNL A   1      32.582  35.831  32.176  1.00  0.00    -0.246 OA
BRANCH  33  35
ATOM     35  C   UNL A   1      34.429  34.426  31.606  1.00  0.00     0.060 A 
ATOM     36  C   UNL A   1      34.429  33.151  32.185  1.00  0.00     0.016 A 
ATOM     37  C   UNL A   1      35.634  35.066  31.306  1.00  0.00     0.016 A 
ATOM     38  C   UNL A   1      35.634  32.532  32.516  1.00  0.00     0.010 A 
ATOM     39  C   UNL A   1      36.841  34.453  31.658  1.00  0.00     0.010 A 
ATOM     40  C   UNL A   1      36.844  33.203  32.304  1.00  0.00    -0.014 A 
BRANCH  40  41
ATOM     41  C   UNL A   1      38.082  32.692  32.941  1.00  0.00     0.031 A 
ATOM     42  C   UNL A   1      38.322  33.012  34.394  1.00  0.00     0.074 A 
ATOM     43  C   UNL A   1      38.971  31.950  32.257  1.00  0.00     0.049 A 
ATOM     44  N   UNL A   1      39.338  32.704  35.155  1.00  0.00    -0.248 NA
ATOM     45  C   UNL A   1      37.270  33.782  35.081  1.00  0.00     0.031 C 
ATOM     46  C   UNL A   1      38.839  31.548  30.858  1.00  0.00     0.029 A 
ATOM     47  N   UNL A   1      40.176  31.421  32.648  1.00  0.00    -0.354 N 
ATOM     48  C   UNL A   1      39.073  33.278  36.392  1.00  0.00     0.074 A 
ATOM     49  C   UNL A   1      37.796  33.948  36.286  1.00  0.00     0.031 C 
ATOM     50  C   UNL A   1      39.935  30.855  30.499  1.00  0.00     0.029 A 
ATOM     51  C   UNL A   1      40.858  30.794  31.631  1.00  0.00     0.049 A 
ATOM     52  H   UNL A   1      40.519  31.483  33.568  1.00  0.00     0.167 HD
ATOM     53  C   UNL A   1      39.823  33.247  37.519  1.00  0.00     0.034 A 
ATOM     54  C   UNL A   1      42.096  30.261  31.612  1.00  0.00     0.034 A 
ATOM     55  C   UNL A   1      41.081  32.562  37.630  1.00  0.00     0.049 A 
ATOM     56  C   UNL A   1      42.926  30.279  32.874  1.00  0.00     0.074 A 
ATOM     57  C   UNL A   1      41.885  32.422  38.747  1.00  0.00     0.029 A 
ATOM     58  N   UNL A   1      41.730  31.924  36.586  1.00  0.00    -0.354 N 
ATOM     59  N   UNL A   1      42.609  30.719  34.067  1.00  0.00    -0.248 NA
ATOM     60  C   UNL A   1      44.276  29.701  32.790  1.00  0.00     0.031 C 
ATOM     61  C   UNL A   1      43.045  31.742  38.366  1.00  0.00     0.029 A 
ATOM     62  C   UNL A   1      42.938  31.412  37.025  1.00  0.00     0.049 A 
ATOM     63  H   UNL A   1      41.382  31.846  35.668  1.00  0.00     0.167 HD
ATOM     64  C   UNL A   1      43.699  30.428  34.884  1.00  0.00     0.074 A 
ATOM     65  C   UNL A   1      44.678  29.760  34.052  1.00  0.00     0.031 C 
ATOM     66  C   UNL A   1      43.878  30.698  36.201  1.00  0.00     0.034 A 
BRANCH  53  67
ATOM     67  C   UNL A   1      39.312  33.985  38.728  1.00  0.00     0.023 A 
ATOM     68  C   UNL A   1      38.680  33.281  39.773  1.00  0.00     0.012 A 
ATOM     69  C   UNL A   1      39.531  35.370  38.858  1.00  0.00     0.148 A 
ATOM     70  C   UNL A   1      38.251  33.953  40.918  1.00  0.00     0.002 A 
ATOM     71  C   UNL A   1      39.145  36.022  40.022  1.00  0.00     0.091 A 
ATOM     72  F   UNL A   1      40.114  36.022  37.843  1.00  0.00    -0.205 F 
ATOM     73  C   UNL A   1      38.494  35.317  41.048  1.00  0.00     0.022 A 
BRANCH  71  74
ATOM     74  S   UNL A   1      39.490  37.759  40.320  1.00  0.00     0.127 S 
ATOM     75  O   UNL A   1      38.490  38.408  39.471  1.00  0.00    -0.237 OA
ATOM     76  O   UNL A   1      39.240  37.878  41.755  1.00  0.00    -0.237 OA
ATOM     77  O   UNL A   1      40.874  37.972  39.921  1.00  0.00    -0.744 OA
ENDBRANCH  71  74
ENDBRANCH  53  67
BRANCH  54  78
ATOM     78  C   UNL A   1      42.639  29.646  30.366  1.00  0.00     0.023 A 
ATOM     79  C   UNL A   1      43.359  30.442  29.453  1.00  0.00     0.012 A 
ATOM     80  C   UNL A   1      42.424  28.286  30.066  1.00  0.00     0.148 A 
ATOM     81  C   UNL A   1      43.814  29.909  28.246  1.00  0.00     0.002 A 
ATOM     82  C   UNL A   1      42.931  27.747  28.890  1.00  0.00     0.091 A 
ATOM     83  F   UNL A   1      41.721  27.547  30.936  1.00  0.00    -0.205 F 
ATOM     84  C   UNL A   1      43.606  28.561  27.967  1.00  0.00     0.022 A 
BRANCH  82  85
ATOM     85  S   UNL A   1      42.819  25.996  28.504  1.00  0.00     0.127 S 
ATOM     86  O   UNL A   1      41.373  25.799  28.424  1.00  0.00    -0.237 OA
ATOM     87  O   UNL A   1      43.524  25.925  27.223  1.00  0.00    -0.237 OA
ATOM     88  O   UNL A   1      43.492  25.308  29.597  1.00  0.00    -0.744 OA
ENDBRANCH  82  85
ENDBRANCH  54  78
BRANCH  66  89
ATOM     89  C   UNL A   1      45.153  30.223  36.852  1.00  0.00     0.023 A 
ATOM     90  C   UNL A   1      46.279  31.067  36.907  1.00  0.00     0.012 A 
ATOM     91  C   UNL A   1      45.204  28.962  37.482  1.00  0.00     0.148 A 
ATOM     92  C   UNL A   1      47.447  30.649  37.545  1.00  0.00     0.002 A 
ATOM     93  C   UNL A   1      46.351  28.576  38.163  1.00  0.00     0.091 A 
ATOM     94  F   UNL A   1      44.126  28.167  37.408  1.00  0.00    -0.205 F 
ATOM     95  C   UNL A   1      47.479  29.411  38.183  1.00  0.00     0.022 A 
BRANCH  93  96
ATOM     96  S   UNL A   1      46.447  27.047  39.101  1.00  0.00     0.127 S 
ATOM     97  O   UNL A   1      47.810  27.106  39.629  1.00  0.00    -0.237 OA
ATOM     98  O   UNL A   1      45.397  27.232  40.104  1.00  0.00    -0.237 OA
ATOM     99  O   UNL A   1      46.194  25.972  38.151  1.00  0.00    -0.744 OA
ENDBRANCH  93  96
ENDBRANCH  66  89
ENDBRANCH  40  41
ENDBRANCH  33  35
ENDBRANCH  32  33
ENDBRANCH  31  32
ENDBRANCH  30  31
ENDBRANCH  29  30
ENDBRANCH  28  29
ENDBRANCH  27  28
ENDBRANCH  26  27
ENDBRANCH   1  26
TORSDOF 28
ENDMDL
