MODEL 1
REMARK VINA RESULT:      -7.4      0.000      0.000
REMARK SMILES COC(=O)[C@H]1Sc2nnc(CCC(=O)OCCOCCOCCOCCOC(=O)c3ccc(-c4c5nc(c(-c6cccc(S(=O)(=O)[O-])c6F)c6ccc([nH]6)c(-c6cccc(S(=O)(=O)[O-])c6F)c6nc(c(-c7cccc(S(=O)(=O)[O-])c7F)c7ccc4[nH]7)C=C6)C=C5)cc3)c(=O)n2N=C1C
REMARK SMILES IDX 20 1 19 2 18 3 17 4 16 5 15 6 13 7 14 8 12 9 11 10 10 11
REMARK SMILES IDX 5 12 6 13 97 14 7 15 96 16 98 17 8 18 95 19 9 20 93 21 94 22
REMARK SMILES IDX 3 23 4 24 2 25 1 26 21 27 22 28 23 29 24 30 25 31 26 32
REMARK SMILES IDX 27 33 28 34 29 35 30 36 31 37 92 38 32 39 91 40 33 41 34 42
REMARK SMILES IDX 35 43 85 44 36 45 90 46 84 47 86 48 37 49 89 50 83 51 82 52
REMARK SMILES IDX 38 54 70 55 50 56 69 57 51 58 54 59 68 60 87 61 52 62 53 63
REMARK SMILES IDX 67 65 88 66 55 67 39 68 40 69 48 70 41 71 43 72 49 73 42 74
REMARK SMILES IDX 44 75 45 76 46 77 47 78 71 79 72 80 80 81 73 82 75 83 81 84
REMARK SMILES IDX 74 85 76 86 77 87 78 88 79 89 56 90 57 91 65 92 58 93 60 94
REMARK SMILES IDX 66 95 59 96 61 97 62 98 63 99 64 100
REMARK H PARENT 86 53 54 64
REMARK Flexibility Score: inf
ROOT
ATOM      1  C   UNL A   1      38.082  20.809  25.155  1.00  0.00     0.188 C 
ENDROOT
BRANCH   1   2
ATOM      2  C   UNL A   1      36.911  21.779  24.919  1.00  0.00     0.188 C 
BRANCH   2   3
ATOM      3  O   UNL A   1      36.573  22.747  25.878  1.00  0.00    -0.376 OA
BRANCH   3   4
ATOM      4  C   UNL A   1      37.327  23.924  26.123  1.00  0.00     0.202 C 
BRANCH   4   5
ATOM      5  C   UNL A   1      38.420  24.140  27.188  1.00  0.00     0.261 C 
BRANCH   5   6
ATOM      6  O   UNL A   1      39.304  25.265  27.056  1.00  0.00    -0.463 OA
BRANCH   6   7
ATOM      7  C   UNL A   1      40.270  25.396  27.989  1.00  0.00     0.306 C 
ATOM      8  O   UNL A   1      41.000  24.473  28.347  1.00  0.00    -0.252 OA
BRANCH   7   9
ATOM      9  C   UNL A   1      40.338  26.757  28.668  1.00  0.00     0.129 C 
BRANCH   9  10
ATOM     10  C   UNL A   1      39.411  27.219  29.793  1.00  0.00     0.076 C 
BRANCH  10  11
ATOM     11  C   UNL A   1      39.344  28.700  30.109  1.00  0.00     0.131 A 
ATOM     12  C   UNL A   1      37.136  33.085  31.433  1.00  0.00     0.210 C 
ATOM     13  S   UNL A   1      38.878  33.004  30.966  1.00  0.00    -0.063 SA
ATOM     14  C   UNL A   1      36.282  32.200  30.562  1.00  0.00     0.061 C 
ATOM     15  C   UNL A   1      39.031  31.306  30.674  1.00  0.00     0.214 A 
ATOM     16  N   UNL A   1      36.690  31.151  29.934  1.00  0.00    -0.171 NA
ATOM     17  C   UNL A   1      34.776  32.390  30.515  1.00  0.00     0.065 C 
ATOM     18  N   UNL A   1      40.162  30.719  30.920  1.00  0.00    -0.123 NA
ATOM     19  N   UNL A   1      37.957  30.675  30.118  1.00  0.00    -0.169 N 
ATOM     20  N   UNL A   1      40.306  29.327  30.713  1.00  0.00    -0.147 NA
ATOM     21  C   UNL A   1      38.142  29.422  29.645  1.00  0.00     0.296 A 
ATOM     22  O   UNL A   1      37.391  28.825  28.885  1.00  0.00    -0.265 OA
BRANCH  12  23
ATOM     23  C   UNL A   1      36.826  32.835  32.885  1.00  0.00     0.325 C 
ATOM     24  O   UNL A   1      36.508  31.722  33.300  1.00  0.00    -0.250 OA
BRANCH  23  25
ATOM     25  O   UNL A   1      36.854  33.948  33.645  1.00  0.00    -0.468 OA
ATOM     26  C   UNL A   1      35.650  34.152  34.382  1.00  0.00     0.282 C 
ENDBRANCH  23  25
ENDBRANCH  12  23
ENDBRANCH  10  11
ENDBRANCH   9  10
ENDBRANCH   7   9
ENDBRANCH   6   7
ENDBRANCH   5   6
ENDBRANCH   4   5
ENDBRANCH   3   4
ENDBRANCH   2   3
ENDBRANCH   1   2
BRANCH   1  27
ATOM     27  O   UNL A   1      39.435  21.178  25.314  1.00  0.00    -0.377 OA
BRANCH  27  28
ATOM     28  C   UNL A   1      40.192  20.683  26.395  1.00  0.00     0.188 C 
BRANCH  28  29
ATOM     29  C   UNL A   1      41.657  21.131  26.378  1.00  0.00     0.188 C 
BRANCH  29  30
ATOM     30  O   UNL A   1      42.660  20.407  25.679  1.00  0.00    -0.376 OA
BRANCH  30  31
ATOM     31  C   UNL A   1      43.918  20.983  25.382  1.00  0.00     0.202 C 
BRANCH  31  32
ATOM     32  C   UNL A   1      44.316  22.381  25.904  1.00  0.00     0.261 C 
BRANCH  32  33
ATOM     33  O   UNL A   1      44.177  23.500  25.021  1.00  0.00    -0.460 OA
BRANCH  33  34
ATOM     34  C   UNL A   1      45.213  24.365  25.007  1.00  0.00     0.338 C 
ATOM     35  O   UNL A   1      46.247  24.261  24.368  1.00  0.00    -0.246 OA
BRANCH  34  36
ATOM     36  C   UNL A   1      44.867  25.560  25.808  1.00  0.00     0.060 A 
ATOM     37  C   UNL A   1      45.900  26.219  26.486  1.00  0.00     0.016 A 
ATOM     38  C   UNL A   1      43.541  25.965  25.985  1.00  0.00     0.016 A 
ATOM     39  C   UNL A   1      45.610  27.240  27.389  1.00  0.00     0.010 A 
ATOM     40  C   UNL A   1      43.246  26.966  26.922  1.00  0.00     0.010 A 
ATOM     41  C   UNL A   1      44.277  27.566  27.666  1.00  0.00    -0.014 A 
BRANCH  41  42
ATOM     42  C   UNL A   1      43.977  28.314  28.917  1.00  0.00     0.031 A 
ATOM     43  C   UNL A   1      43.998  27.553  30.201  1.00  0.00     0.074 A 
ATOM     44  C   UNL A   1      43.766  29.640  28.938  1.00  0.00     0.049 A 
ATOM     45  N   UNL A   1      43.746  27.985  31.404  1.00  0.00    -0.248 NA
ATOM     46  C   UNL A   1      44.346  26.125  30.120  1.00  0.00     0.031 C 
ATOM     47  C   UNL A   1      43.783  30.462  27.750  1.00  0.00     0.029 A 
ATOM     48  N   UNL A   1      43.511  30.536  29.943  1.00  0.00    -0.354 N 
ATOM     49  C   UNL A   1      43.864  26.875  32.223  1.00  0.00     0.074 A 
ATOM     50  C   UNL A   1      44.213  25.751  31.384  1.00  0.00     0.031 C 
ATOM     51  C   UNL A   1      43.586  31.750  28.072  1.00  0.00     0.029 A 
ATOM     52  C   UNL A   1      43.345  31.832  29.500  1.00  0.00     0.049 A 
ATOM     53  H   UNL A   1      43.451  30.280  30.891  1.00  0.00     0.167 HD
ATOM     54  C   UNL A   1      43.696  26.811  33.561  1.00  0.00     0.034 A 
ATOM     55  C   UNL A   1      43.009  32.955  30.164  1.00  0.00     0.034 A 
ATOM     56  C   UNL A   1      43.345  27.942  34.375  1.00  0.00     0.049 A 
ATOM     57  C   UNL A   1      42.765  32.835  31.639  1.00  0.00     0.074 A 
ATOM     58  C   UNL A   1      43.131  27.979  35.740  1.00  0.00     0.029 A 
ATOM     59  N   UNL A   1      43.145  29.232  33.902  1.00  0.00    -0.354 N 
ATOM     60  N   UNL A   1      42.911  31.784  32.408  1.00  0.00    -0.248 NA
ATOM     61  C   UNL A   1      42.325  34.047  32.341  1.00  0.00     0.031 C 
ATOM     62  C   UNL A   1      42.770  29.283  36.087  1.00  0.00     0.029 A 
ATOM     63  C   UNL A   1      42.798  30.072  34.947  1.00  0.00     0.049 A 
ATOM     64  H   UNL A   1      43.236  29.509  32.962  1.00  0.00     0.167 HD
ATOM     65  C   UNL A   1      42.587  32.204  33.688  1.00  0.00     0.074 A 
ATOM     66  C   UNL A   1      42.286  33.621  33.595  1.00  0.00     0.031 C 
ATOM     67  C   UNL A   1      42.520  31.481  34.832  1.00  0.00     0.034 A 
BRANCH  54  68
ATOM     68  C   UNL A   1      43.873  25.470  34.211  1.00  0.00     0.023 A 
ATOM     69  C   UNL A   1      42.762  24.621  34.386  1.00  0.00     0.012 A 
ATOM     70  C   UNL A   1      45.149  25.040  34.618  1.00  0.00     0.148 A 
ATOM     71  C   UNL A   1      42.917  23.368  34.976  1.00  0.00     0.002 A 
ATOM     72  C   UNL A   1      45.305  23.770  35.154  1.00  0.00     0.091 A 
ATOM     73  F   UNL A   1      46.181  25.884  34.476  1.00  0.00    -0.205 F 
ATOM     74  C   UNL A   1      44.189  22.938  35.346  1.00  0.00     0.022 A 
BRANCH  72  75
ATOM     75  S   UNL A   1      46.909  23.090  35.582  1.00  0.00     0.127 S 
ATOM     76  O   UNL A   1      46.593  21.672  35.755  1.00  0.00    -0.237 OA
ATOM     77  O   UNL A   1      47.695  23.401  34.389  1.00  0.00    -0.237 OA
ATOM     78  O   UNL A   1      47.331  23.780  36.793  1.00  0.00    -0.744 OA
ENDBRANCH  72  75
ENDBRANCH  54  68
BRANCH  55  79
ATOM     79  C   UNL A   1      42.889  34.276  29.477  1.00  0.00     0.023 A 
ATOM     80  C   UNL A   1      41.621  34.714  29.049  1.00  0.00     0.012 A 
ATOM     81  C   UNL A   1      44.013  35.078  29.199  1.00  0.00     0.148 A 
ATOM     82  C   UNL A   1      41.477  35.908  28.337  1.00  0.00     0.002 A 
ATOM     83  C   UNL A   1      43.861  36.274  28.499  1.00  0.00     0.091 A 
ATOM     84  F   UNL A   1      45.217  34.653  29.607  1.00  0.00    -0.205 F 
ATOM     85  C   UNL A   1      42.594  36.690  28.066  1.00  0.00     0.022 A 
BRANCH  83  86
ATOM     86  S   UNL A   1      45.258  37.349  28.149  1.00  0.00     0.127 S 
ATOM     87  O   UNL A   1      44.600  38.569  27.698  1.00  0.00    -0.237 OA
ATOM     88  O   UNL A   1      45.914  37.448  29.455  1.00  0.00    -0.237 OA
ATOM     89  O   UNL A   1      46.035  36.623  27.153  1.00  0.00    -0.744 OA
ENDBRANCH  83  86
ENDBRANCH  55  79
BRANCH  67  90
ATOM     90  C   UNL A   1      42.097  32.214  36.075  1.00  0.00     0.023 A 
ATOM     91  C   UNL A   1      43.042  32.973  36.794  1.00  0.00     0.012 A 
ATOM     92  C   UNL A   1      40.754  32.198  36.497  1.00  0.00     0.148 A 
ATOM     93  C   UNL A   1      42.665  33.671  37.938  1.00  0.00     0.002 A 
ATOM     94  C   UNL A   1      40.374  32.947  37.602  1.00  0.00     0.091 A 
ATOM     95  F   UNL A   1      39.876  31.453  35.810  1.00  0.00    -0.205 F 
ATOM     96  C   UNL A   1      41.330  33.670  38.334  1.00  0.00     0.022 A 
BRANCH  94  97
ATOM     97  S   UNL A   1      38.661  33.096  38.120  1.00  0.00     0.127 S 
ATOM     98  O   UNL A   1      38.686  34.348  38.873  1.00  0.00    -0.237 OA
ATOM     99  O   UNL A   1      37.958  33.166  36.839  1.00  0.00    -0.237 OA
ATOM    100  O   UNL A   1      38.372  31.902  38.904  1.00  0.00    -0.744 OA
ENDBRANCH  94  97
ENDBRANCH  67  90
ENDBRANCH  41  42
ENDBRANCH  34  36
ENDBRANCH  33  34
ENDBRANCH  32  33
ENDBRANCH  31  32
ENDBRANCH  30  31
ENDBRANCH  29  30
ENDBRANCH  28  29
ENDBRANCH  27  28
ENDBRANCH   1  27
TORSDOF 27
ENDMDL
MODEL 2
REMARK VINA RESULT:      -6.3      5.210     12.069
REMARK SMILES COC(=O)[C@H]1Sc2nnc(CCC(=O)OCCOCCOCCOCCOC(=O)c3ccc(-c4c5nc(c(-c6cccc(S(=O)(=O)[O-])c6F)c6ccc([nH]6)c(-c6cccc(S(=O)(=O)[O-])c6F)c6nc(c(-c7cccc(S(=O)(=O)[O-])c7F)c7ccc4[nH]7)C=C6)C=C5)cc3)c(=O)n2N=C1C
REMARK SMILES IDX 20 1 19 2 18 3 17 4 16 5 15 6 13 7 14 8 12 9 11 10 10 11
REMARK SMILES IDX 5 12 6 13 97 14 7 15 96 16 98 17 8 18 95 19 9 20 93 21 94 22
REMARK SMILES IDX 3 23 4 24 2 25 1 26 21 27 22 28 23 29 24 30 25 31 26 32
REMARK SMILES IDX 27 33 28 34 29 35 30 36 31 37 92 38 32 39 91 40 33 41 34 42
REMARK SMILES IDX 35 43 85 44 36 45 90 46 84 47 86 48 37 49 89 50 83 51 82 52
REMARK SMILES IDX 38 54 70 55 50 56 69 57 51 58 54 59 68 60 87 61 52 62 53 63
REMARK SMILES IDX 67 65 88 66 55 67 39 68 40 69 48 70 41 71 43 72 49 73 42 74
REMARK SMILES IDX 44 75 45 76 46 77 47 78 71 79 72 80 80 81 73 82 75 83 81 84
REMARK SMILES IDX 74 85 76 86 77 87 78 88 79 89 56 90 57 91 65 92 58 93 60 94
REMARK SMILES IDX 66 95 59 96 61 97 62 98 63 99 64 100
REMARK H PARENT 86 53 54 64
REMARK Flexibility Score: inf
ROOT
ATOM      1  C   UNL A   1      37.076  32.402  33.961  1.00  0.00     0.188 C 
ENDROOT
BRANCH   1   2
ATOM      2  C   UNL A   1      38.158  32.982  34.888  1.00  0.00     0.188 C 
BRANCH   2   3
ATOM      3  O   UNL A   1      37.809  33.733  36.021  1.00  0.00    -0.376 OA
BRANCH   3   4
ATOM      4  C   UNL A   1      37.366  33.169  37.246  1.00  0.00     0.202 C 
BRANCH   4   5
ATOM      5  C   UNL A   1      38.011  33.313  38.639  1.00  0.00     0.261 C 
BRANCH   5   6
ATOM      6  O   UNL A   1      39.273  33.989  38.753  1.00  0.00    -0.463 OA
BRANCH   6   7
ATOM      7  C   UNL A   1      39.471  34.730  39.863  1.00  0.00     0.306 C 
ATOM      8  O   UNL A   1      38.804  34.612  40.889  1.00  0.00    -0.252 OA
BRANCH   7   9
ATOM      9  C   UNL A   1      40.525  35.822  39.735  1.00  0.00     0.129 C 
BRANCH   9  10
ATOM     10  C   UNL A   1      40.257  37.239  39.228  1.00  0.00     0.076 C 
BRANCH  10  11
ATOM     11  C   UNL A   1      40.264  38.377  40.229  1.00  0.00     0.131 A 
ATOM     12  C   UNL A   1      41.251  43.058  41.954  1.00  0.00     0.210 C 
ATOM     13  S   UNL A   1      40.502  41.798  43.008  1.00  0.00    -0.063 SA
ATOM     14  C   UNL A   1      42.331  42.481  41.075  1.00  0.00     0.061 C 
ATOM     15  C   UNL A   1      40.392  40.491  41.880  1.00  0.00     0.214 A 
ATOM     16  N   UNL A   1      42.409  41.252  40.694  1.00  0.00    -0.171 NA
ATOM     17  C   UNL A   1      43.341  43.392  40.399  1.00  0.00     0.065 C 
ATOM     18  N   UNL A   1      39.411  39.648  41.979  1.00  0.00    -0.123 NA
ATOM     19  N   UNL A   1      41.405  40.370  40.973  1.00  0.00    -0.169 N 
ATOM     20  N   UNL A   1      39.285  38.584  41.054  1.00  0.00    -0.147 NA
ATOM     21  C   UNL A   1      41.475  39.221  40.262  1.00  0.00     0.296 A 
ATOM     22  O   UNL A   1      42.446  38.831  39.627  1.00  0.00    -0.265 OA
BRANCH  12  23
ATOM     23  C   UNL A   1      40.301  43.885  41.130  1.00  0.00     0.325 C 
ATOM     24  O   UNL A   1      39.532  43.375  40.317  1.00  0.00    -0.250 OA
BRANCH  23  25
ATOM     25  O   UNL A   1      40.435  45.213  41.317  1.00  0.00    -0.468 OA
ATOM     26  C   UNL A   1      40.895  45.550  42.624  1.00  0.00     0.282 C 
ENDBRANCH  23  25
ENDBRANCH  12  23
ENDBRANCH  10  11
ENDBRANCH   9  10
ENDBRANCH   7   9
ENDBRANCH   6   7
ENDBRANCH   5   6
ENDBRANCH   4   5
ENDBRANCH   3   4
ENDBRANCH   2   3
ENDBRANCH   1   2
BRANCH   1  27
ATOM     27  O   UNL A   1      37.184  32.261  32.560  1.00  0.00    -0.377 OA
BRANCH  27  28
ATOM     28  C   UNL A   1      36.566  33.189  31.697  1.00  0.00     0.188 C 
BRANCH  28  29
ATOM     29  C   UNL A   1      37.092  33.137  30.259  1.00  0.00     0.188 C 
BRANCH  29  30
ATOM     30  O   UNL A   1      36.320  33.592  29.156  1.00  0.00    -0.376 OA
BRANCH  30  31
ATOM     31  C   UNL A   1      34.954  33.251  29.016  1.00  0.00     0.202 C 
BRANCH  31  32
ATOM     32  C   UNL A   1      34.484  32.156  28.033  1.00  0.00     0.261 C 
BRANCH  32  33
ATOM     33  O   UNL A   1      34.328  30.821  28.530  1.00  0.00    -0.460 OA
BRANCH  33  34
ATOM     34  C   UNL A   1      35.096  29.884  27.936  1.00  0.00     0.338 C 
ATOM     35  O   UNL A   1      34.812  29.215  26.957  1.00  0.00    -0.246 OA
BRANCH  34  36
ATOM     36  C   UNL A   1      36.428  29.859  28.581  1.00  0.00     0.060 A 
ATOM     37  C   UNL A   1      37.515  30.381  27.867  1.00  0.00     0.016 A 
ATOM     38  C   UNL A   1      36.633  29.235  29.814  1.00  0.00     0.016 A 
ATOM     39  C   UNL A   1      38.812  30.227  28.349  1.00  0.00     0.010 A 
ATOM     40  C   UNL A   1      37.943  29.047  30.281  1.00  0.00     0.010 A 
ATOM     41  C   UNL A   1      39.037  29.494  29.520  1.00  0.00    -0.014 A 
BRANCH  41  42
ATOM     42  C   UNL A   1      40.406  28.968  29.774  1.00  0.00     0.031 A 
ATOM     43  C   UNL A   1      41.212  29.623  30.846  1.00  0.00     0.074 A 
ATOM     44  C   UNL A   1      40.903  27.896  29.135  1.00  0.00     0.049 A 
ATOM     45  N   UNL A   1      42.429  29.354  31.224  1.00  0.00    -0.248 NA
ATOM     46  C   UNL A   1      40.567  30.721  31.584  1.00  0.00     0.031 C 
ATOM     47  C   UNL A   1      40.169  27.168  28.125  1.00  0.00     0.029 A 
ATOM     48  N   UNL A   1      42.091  27.219  29.217  1.00  0.00    -0.354 N 
ATOM     49  C   UNL A   1      42.715  30.274  32.218  1.00  0.00     0.074 A 
ATOM     50  C   UNL A   1      41.546  31.107  32.388  1.00  0.00     0.031 C 
ATOM     51  C   UNL A   1      40.889  26.121  27.691  1.00  0.00     0.029 A 
ATOM     52  C   UNL A   1      42.184  26.154  28.345  1.00  0.00     0.049 A 
ATOM     53  H   UNL A   1      42.812  27.469  29.840  1.00  0.00     0.167 HD
ATOM     54  C   UNL A   1      43.858  30.403  32.924  1.00  0.00     0.034 A 
ATOM     55  C   UNL A   1      43.205  25.318  28.080  1.00  0.00     0.034 A 
ATOM     56  C   UNL A   1      45.011  29.565  32.736  1.00  0.00     0.049 A 
ATOM     57  C   UNL A   1      44.483  25.530  28.836  1.00  0.00     0.074 A 
ATOM     58  C   UNL A   1      46.227  29.625  33.388  1.00  0.00     0.029 A 
ATOM     59  N   UNL A   1      45.096  28.522  31.823  1.00  0.00    -0.354 N 
ATOM     60  N   UNL A   1      44.730  26.386  29.797  1.00  0.00    -0.248 NA
ATOM     61  C   UNL A   1      45.615  24.663  28.486  1.00  0.00     0.031 C 
ATOM     62  C   UNL A   1      47.059  28.642  32.846  1.00  0.00     0.029 A 
ATOM     63  C   UNL A   1      46.349  27.938  31.886  1.00  0.00     0.049 A 
ATOM     64  H   UNL A   1      44.371  28.239  31.220  1.00  0.00     0.167 HD
ATOM     65  C   UNL A   1      46.044  26.160  30.176  1.00  0.00     0.074 A 
ATOM     66  C   UNL A   1      46.522  25.051  29.372  1.00  0.00     0.031 C 
ATOM     67  C   UNL A   1      46.795  26.825  31.086  1.00  0.00     0.034 A 
BRANCH  54  68
ATOM     68  C   UNL A   1      43.913  31.500  33.946  1.00  0.00     0.023 A 
ATOM     69  C   UNL A   1      44.293  32.802  33.561  1.00  0.00     0.012 A 
ATOM     70  C   UNL A   1      43.556  31.246  35.283  1.00  0.00     0.148 A 
ATOM     71  C   UNL A   1      44.335  33.832  34.499  1.00  0.00     0.002 A 
ATOM     72  C   UNL A   1      43.546  32.288  36.199  1.00  0.00     0.091 A 
ATOM     73  F   UNL A   1      43.238  29.991  35.630  1.00  0.00    -0.205 F 
ATOM     74  C   UNL A   1      43.948  33.578  35.812  1.00  0.00     0.022 A 
BRANCH  72  75
ATOM     75  S   UNL A   1      42.984  32.085  37.890  1.00  0.00     0.127 S 
ATOM     76  O   UNL A   1      42.654  33.461  38.260  1.00  0.00    -0.237 OA
ATOM     77  O   UNL A   1      41.829  31.204  37.719  1.00  0.00    -0.237 OA
ATOM     78  O   UNL A   1      44.100  31.500  38.620  1.00  0.00    -0.744 OA
ENDBRANCH  72  75
ENDBRANCH  54  68
BRANCH  55  79
ATOM     79  C   UNL A   1      43.084  24.211  27.084  1.00  0.00     0.023 A 
ATOM     80  C   UNL A   1      43.577  24.406  25.779  1.00  0.00     0.012 A 
ATOM     81  C   UNL A   1      42.449  22.993  27.394  1.00  0.00     0.148 A 
ATOM     82  C   UNL A   1      43.417  23.424  24.798  1.00  0.00     0.002 A 
ATOM     83  C   UNL A   1      42.304  22.012  26.414  1.00  0.00     0.091 A 
ATOM     84  F   UNL A   1      41.981  22.816  28.638  1.00  0.00    -0.205 F 
ATOM     85  C   UNL A   1      42.785  22.226  25.114  1.00  0.00     0.022 A 
BRANCH  83  86
ATOM     86  S   UNL A   1      41.531  20.429  26.768  1.00  0.00     0.127 S 
ATOM     87  O   UNL A   1      41.664  19.731  25.495  1.00  0.00    -0.237 OA
ATOM     88  O   UNL A   1      42.367  19.905  27.849  1.00  0.00    -0.237 OA
ATOM     89  O   UNL A   1      40.176  20.770  27.183  1.00  0.00    -0.744 OA
ENDBRANCH  83  86
ENDBRANCH  55  79
BRANCH  67  90
ATOM     90  C   UNL A   1      48.219  26.369  31.255  1.00  0.00     0.023 A 
ATOM     91  C   UNL A   1      48.533  25.403  32.232  1.00  0.00     0.012 A 
ATOM     92  C   UNL A   1      49.233  26.854  30.407  1.00  0.00     0.148 A 
ATOM     93  C   UNL A   1      49.842  24.958  32.391  1.00  0.00     0.002 A 
ATOM     94  C   UNL A   1      50.524  26.359  30.531  1.00  0.00     0.091 A 
ATOM     95  F   UNL A   1      48.916  27.787  29.498  1.00  0.00    -0.205 F 
ATOM     96  C   UNL A   1      50.834  25.425  31.532  1.00  0.00     0.022 A 
BRANCH  94  97
ATOM     97  S   UNL A   1      51.841  26.817  29.400  1.00  0.00     0.127 S 
ATOM     98  O   UNL A   1      53.002  26.188  30.027  1.00  0.00    -0.237 OA
ATOM     99  O   UNL A   1      51.406  26.190  28.151  1.00  0.00    -0.237 OA
ATOM    100  O   UNL A   1      51.860  28.273  29.372  1.00  0.00    -0.744 OA
ENDBRANCH  94  97
ENDBRANCH  67  90
ENDBRANCH  41  42
ENDBRANCH  34  36
ENDBRANCH  33  34
ENDBRANCH  32  33
ENDBRANCH  31  32
ENDBRANCH  30  31
ENDBRANCH  29  30
ENDBRANCH  28  29
ENDBRANCH  27  28
ENDBRANCH   1  27
TORSDOF 27
ENDMDL
MODEL 3
REMARK VINA RESULT:      -6.0      5.064      9.134
REMARK SMILES COC(=O)[C@H]1Sc2nnc(CCC(=O)OCCOCCOCCOCCOC(=O)c3ccc(-c4c5nc(c(-c6cccc(S(=O)(=O)[O-])c6F)c6ccc([nH]6)c(-c6cccc(S(=O)(=O)[O-])c6F)c6nc(c(-c7cccc(S(=O)(=O)[O-])c7F)c7ccc4[nH]7)C=C6)C=C5)cc3)c(=O)n2N=C1C
REMARK SMILES IDX 20 1 19 2 18 3 17 4 16 5 15 6 13 7 14 8 12 9 11 10 10 11
REMARK SMILES IDX 5 12 6 13 97 14 7 15 96 16 98 17 8 18 95 19 9 20 93 21 94 22
REMARK SMILES IDX 3 23 4 24 2 25 1 26 21 27 22 28 23 29 24 30 25 31 26 32
REMARK SMILES IDX 27 33 28 34 29 35 30 36 31 37 92 38 32 39 91 40 33 41 34 42
REMARK SMILES IDX 35 43 85 44 36 45 90 46 84 47 86 48 37 49 89 50 83 51 82 52
REMARK SMILES IDX 38 54 70 55 50 56 69 57 51 58 54 59 68 60 87 61 52 62 53 63
REMARK SMILES IDX 67 65 88 66 55 67 39 68 40 69 48 70 41 71 43 72 49 73 42 74
REMARK SMILES IDX 44 75 45 76 46 77 47 78 71 79 72 80 80 81 73 82 75 83 81 84
REMARK SMILES IDX 74 85 76 86 77 87 78 88 79 89 56 90 57 91 65 92 58 93 60 94
REMARK SMILES IDX 66 95 59 96 61 97 62 98 63 99 64 100
REMARK H PARENT 86 53 54 64
REMARK Flexibility Score: inf
ROOT
ATOM      1  C   UNL A   1      43.352  26.605  27.812  1.00  0.00     0.188 C 
ENDROOT
BRANCH   1   2
ATOM      2  C   UNL A   1      42.003  25.931  28.117  1.00  0.00     0.188 C 
BRANCH   2   3
ATOM      3  O   UNL A   1      41.310  25.224  27.121  1.00  0.00    -0.376 OA
BRANCH   3   4
ATOM      4  C   UNL A   1      40.280  24.283  27.381  1.00  0.00     0.202 C 
BRANCH   4   5
ATOM      5  C   UNL A   1      39.082  23.923  26.481  1.00  0.00     0.261 C 
BRANCH   5   6
ATOM      6  O   UNL A   1      38.556  22.587  26.528  1.00  0.00    -0.463 OA
BRANCH   6   7
ATOM      7  C   UNL A   1      37.845  22.172  25.458  1.00  0.00     0.306 C 
ATOM      8  O   UNL A   1      37.945  21.050  24.968  1.00  0.00    -0.252 OA
BRANCH   7   9
ATOM      9  C   UNL A   1      36.968  23.235  24.810  1.00  0.00     0.129 C 
BRANCH   9  10
ATOM     10  C   UNL A   1      36.193  23.052  23.505  1.00  0.00     0.076 C 
BRANCH  10  11
ATOM     11  C   UNL A   1      34.802  23.645  23.403  1.00  0.00     0.131 A 
ATOM     12  C   UNL A   1      31.041  26.906  24.442  1.00  0.00     0.210 C 
ATOM     13  S   UNL A   1      30.790  25.484  23.358  1.00  0.00    -0.063 SA
ATOM     14  C   UNL A   1      31.906  26.560  25.627  1.00  0.00     0.061 C 
ATOM     15  C   UNL A   1      32.384  24.813  23.372  1.00  0.00     0.214 A 
ATOM     16  N   UNL A   1      32.777  25.612  25.665  1.00  0.00    -0.171 NA
ATOM     17  C   UNL A   1      31.938  27.466  26.846  1.00  0.00     0.065 C 
ATOM     18  N   UNL A   1      32.825  24.203  22.315  1.00  0.00    -0.123 NA
ATOM     19  N   UNL A   1      33.080  24.896  24.543  1.00  0.00    -0.169 N 
ATOM     20  N   UNL A   1      34.135  23.667  22.292  1.00  0.00    -0.147 NA
ATOM     21  C   UNL A   1      34.208  24.158  24.655  1.00  0.00     0.296 A 
ATOM     22  O   UNL A   1      34.791  23.896  25.698  1.00  0.00    -0.265 OA
BRANCH  12  23
ATOM     23  C   UNL A   1      31.546  28.162  23.783  1.00  0.00     0.325 C 
ATOM     24  O   UNL A   1      32.429  28.137  22.928  1.00  0.00    -0.250 OA
BRANCH  23  25
ATOM     25  O   UNL A   1      30.999  29.291  24.275  1.00  0.00    -0.468 OA
ATOM     26  C   UNL A   1      29.858  29.727  23.537  1.00  0.00     0.282 C 
ENDBRANCH  23  25
ENDBRANCH  12  23
ENDBRANCH  10  11
ENDBRANCH   9  10
ENDBRANCH   7   9
ENDBRANCH   6   7
ENDBRANCH   5   6
ENDBRANCH   4   5
ENDBRANCH   3   4
ENDBRANCH   2   3
ENDBRANCH   1   2
BRANCH   1  27
ATOM     27  O   UNL A   1      43.544  27.981  27.557  1.00  0.00    -0.377 OA
BRANCH  27  28
ATOM     28  C   UNL A   1      43.489  28.919  28.607  1.00  0.00     0.188 C 
BRANCH  28  29
ATOM     29  C   UNL A   1      43.337  30.367  28.132  1.00  0.00     0.188 C 
BRANCH  29  30
ATOM     30  O   UNL A   1      43.661  30.766  26.807  1.00  0.00    -0.376 OA
BRANCH  30  31
ATOM     31  C   UNL A   1      44.422  31.932  26.549  1.00  0.00     0.202 C 
BRANCH  31  32
ATOM     32  C   UNL A   1      44.165  32.812  25.306  1.00  0.00     0.261 C 
BRANCH  32  33
ATOM     33  O   UNL A   1      44.052  34.229  25.489  1.00  0.00    -0.460 OA
BRANCH  33  34
ATOM     34  C   UNL A   1      45.165  34.849  25.935  1.00  0.00     0.338 C 
ATOM     35  O   UNL A   1      46.189  35.059  25.308  1.00  0.00    -0.246 OA
BRANCH  34  36
ATOM     36  C   UNL A   1      44.925  35.367  27.301  1.00  0.00     0.060 A 
ATOM     37  C   UNL A   1      45.650  34.798  28.357  1.00  0.00     0.016 A 
ATOM     38  C   UNL A   1      43.929  36.312  27.562  1.00  0.00     0.016 A 
ATOM     39  C   UNL A   1      45.342  35.122  29.676  1.00  0.00     0.010 A 
ATOM     40  C   UNL A   1      43.594  36.610  28.891  1.00  0.00     0.010 A 
ATOM     41  C   UNL A   1      44.264  35.972  29.951  1.00  0.00    -0.014 A 
BRANCH  41  42
ATOM     42  C   UNL A   1      43.680  35.955  31.319  1.00  0.00     0.031 A 
ATOM     43  C   UNL A   1      42.482  35.095  31.550  1.00  0.00     0.074 A 
ATOM     44  C   UNL A   1      44.229  36.615  32.353  1.00  0.00     0.049 A 
ATOM     45  N   UNL A   1      41.793  34.941  32.645  1.00  0.00    -0.248 NA
ATOM     46  C   UNL A   1      41.997  34.310  30.403  1.00  0.00     0.031 C 
ATOM     47  C   UNL A   1      45.420  37.425  32.230  1.00  0.00     0.029 A 
ATOM     48  N   UNL A   1      43.905  36.723  33.679  1.00  0.00    -0.354 N 
ATOM     49  C   UNL A   1      40.767  34.073  32.313  1.00  0.00     0.074 A 
ATOM     50  C   UNL A   1      40.923  33.731  30.917  1.00  0.00     0.031 C 
ATOM     51  C   UNL A   1      45.766  37.928  33.425  1.00  0.00     0.029 A 
ATOM     52  C   UNL A   1      44.760  37.535  34.394  1.00  0.00     0.049 A 
ATOM     53  H   UNL A   1      43.133  36.264  34.084  1.00  0.00     0.167 HD
ATOM     54  C   UNL A   1      39.785  33.607  33.113  1.00  0.00     0.034 A 
ATOM     55  C   UNL A   1      44.722  37.943  35.677  1.00  0.00     0.034 A 
ATOM     56  C   UNL A   1      39.648  33.964  34.499  1.00  0.00     0.049 A 
ATOM     57  C   UNL A   1      43.581  37.458  36.521  1.00  0.00     0.074 A 
ATOM     58  C   UNL A   1      38.675  33.559  35.392  1.00  0.00     0.029 A 
ATOM     59  N   UNL A   1      40.499  34.815  35.189  1.00  0.00    -0.354 N 
ATOM     60  N   UNL A   1      42.633  36.611  36.202  1.00  0.00    -0.248 NA
ATOM     61  C   UNL A   1      43.506  37.967  37.896  1.00  0.00     0.031 C 
ATOM     62  C   UNL A   1      38.919  34.193  36.613  1.00  0.00     0.029 A 
ATOM     63  C   UNL A   1      40.068  34.960  36.496  1.00  0.00     0.049 A 
ATOM     64  H   UNL A   1      41.294  35.252  34.805  1.00  0.00     0.167 HD
ATOM     65  C   UNL A   1      41.848  36.477  37.336  1.00  0.00     0.074 A 
ATOM     66  C   UNL A   1      42.465  37.294  38.365  1.00  0.00     0.031 C 
ATOM     67  C   UNL A   1      40.708  35.765  37.505  1.00  0.00     0.034 A 
BRANCH  54  68
ATOM     68  C   UNL A   1      38.782  32.677  32.495  1.00  0.00     0.023 A 
ATOM     69  C   UNL A   1      38.980  31.283  32.561  1.00  0.00     0.012 A 
ATOM     70  C   UNL A   1      37.625  33.187  31.879  1.00  0.00     0.148 A 
ATOM     71  C   UNL A   1      38.049  30.410  32.003  1.00  0.00     0.002 A 
ATOM     72  C   UNL A   1      36.675  32.311  31.374  1.00  0.00     0.091 A 
ATOM     73  F   UNL A   1      37.481  34.517  31.795  1.00  0.00    -0.205 F 
ATOM     74  C   UNL A   1      36.891  30.923  31.424  1.00  0.00     0.022 A 
BRANCH  72  75
ATOM     75  S   UNL A   1      35.114  32.867  30.687  1.00  0.00     0.127 S 
ATOM     76  O   UNL A   1      35.519  34.080  29.977  1.00  0.00    -0.237 OA
ATOM     77  O   UNL A   1      34.750  31.745  29.822  1.00  0.00    -0.237 OA
ATOM     78  O   UNL A   1      34.227  33.083  31.820  1.00  0.00    -0.744 OA
ENDBRANCH  72  75
ENDBRANCH  54  68
BRANCH  55  79
ATOM     79  C   UNL A   1      45.772  38.834  36.256  1.00  0.00     0.023 A 
ATOM     80  C   UNL A   1      46.917  38.257  36.839  1.00  0.00     0.012 A 
ATOM     81  C   UNL A   1      45.632  40.235  36.281  1.00  0.00     0.148 A 
ATOM     82  C   UNL A   1      47.886  39.051  37.457  1.00  0.00     0.002 A 
ATOM     83  C   UNL A   1      46.608  41.024  36.888  1.00  0.00     0.091 A 
ATOM     84  F   UNL A   1      44.538  40.777  35.726  1.00  0.00    -0.205 F 
ATOM     85  C   UNL A   1      47.735  40.434  37.479  1.00  0.00     0.022 A 
BRANCH  83  86
ATOM     86  S   UNL A   1      46.492  42.816  36.917  1.00  0.00     0.127 S 
ATOM     87  O   UNL A   1      45.851  43.102  35.639  1.00  0.00    -0.237 OA
ATOM     88  O   UNL A   1      45.656  43.060  38.094  1.00  0.00    -0.237 OA
ATOM     89  O   UNL A   1      47.869  43.269  37.068  1.00  0.00    -0.744 OA
ENDBRANCH  83  86
ENDBRANCH  55  79
BRANCH  67  90
ATOM     90  C   UNL A   1      40.051  35.846  38.856  1.00  0.00     0.023 A 
ATOM     91  C   UNL A   1      39.281  36.977  39.192  1.00  0.00     0.012 A 
ATOM     92  C   UNL A   1      40.150  34.777  39.767  1.00  0.00     0.148 A 
ATOM     93  C   UNL A   1      38.653  37.062  40.432  1.00  0.00     0.002 A 
ATOM     94  C   UNL A   1      39.469  34.843  40.976  1.00  0.00     0.091 A 
ATOM     95  F   UNL A   1      40.904  33.720  39.436  1.00  0.00    -0.205 F 
ATOM     96  C   UNL A   1      38.735  35.990  41.317  1.00  0.00     0.022 A 
BRANCH  94  97
ATOM     97  S   UNL A   1      39.425  33.467  42.129  1.00  0.00     0.127 S 
ATOM     98  O   UNL A   1      38.785  32.427  41.326  1.00  0.00    -0.237 OA
ATOM     99  O   UNL A   1      40.846  33.246  42.398  1.00  0.00    -0.237 OA
ATOM    100  O   UNL A   1      38.656  33.930  43.278  1.00  0.00    -0.744 OA
ENDBRANCH  94  97
ENDBRANCH  67  90
ENDBRANCH  41  42
ENDBRANCH  34  36
ENDBRANCH  33  34
ENDBRANCH  32  33
ENDBRANCH  31  32
ENDBRANCH  30  31
ENDBRANCH  29  30
ENDBRANCH  28  29
ENDBRANCH  27  28
ENDBRANCH   1  27
TORSDOF 27
ENDMDL
