MODEL 1
REMARK VINA RESULT:      -9.7      0.000      0.000
REMARK SMILES CC(C)[C@@H](CNC(=O)[C@@H]1CC[C@@H]2CCCC[C@@H]2[NH2+]1)C(=O)OCCOCCOCCOCCOC(=O)c1ccc(-c2c3nc(c(-c4cccc(S(=O)(=O)[O-])c4F)c4ccc([nH]4)c(-c4cccc(S(=O)(=O)[O-])c4F)c4nc(c(-c5cccc(S(=O)(=O)[O-])c5F)c5ccc2[nH]5)C=C4)C=C3)cc1
REMARK SMILES IDX 27 1 26 2 25 3 24 4 23 5 22 6 21 7 19 8 20 9 4 10 2 11 1 12
REMARK SMILES IDX 3 13 5 14 6 15 7 16 8 18 9 19 10 20 18 21 11 22 17 23 12 26
REMARK SMILES IDX 16 27 13 28 15 29 14 30 28 31 29 32 30 33 31 34 32 35 33 36
REMARK SMILES IDX 34 37 35 38 36 39 37 40 98 41 38 42 97 43 39 44 40 45 41 46
REMARK SMILES IDX 91 47 42 48 96 49 90 50 92 51 43 52 95 53 89 54 88 55 44 57
REMARK SMILES IDX 76 58 56 59 75 60 57 61 60 62 74 63 93 64 58 65 59 66 73 68
REMARK SMILES IDX 94 69 61 70 45 71 46 72 54 73 47 74 49 75 55 76 48 77 50 78
REMARK SMILES IDX 51 79 52 80 53 81 77 82 78 83 86 84 79 85 81 86 87 87 80 88
REMARK SMILES IDX 82 89 83 90 84 91 85 92 62 93 63 94 71 95 64 96 66 97 72 98
REMARK SMILES IDX 65 99 67 100 68 101 69 102 70 103
REMARK H PARENT 6 17 18 24 18 25 92 56 60 67
REMARK Flexibility Score: inf
ROOT
ATOM      1  O   UNL A   1      34.156  28.708  25.351  1.00  0.00    -0.377 OA
ENDROOT
BRANCH   1   2
ATOM      2  C   UNL A   1      33.030  29.031  24.540  1.00  0.00     0.188 C 
BRANCH   2   3
ATOM      3  C   UNL A   1      32.996  28.811  22.978  1.00  0.00     0.188 C 
BRANCH   3   4
ATOM      4  O   UNL A   1      31.909  28.377  22.140  1.00  0.00    -0.376 OA
BRANCH   4   5
ATOM      5  C   UNL A   1      30.480  28.244  22.331  1.00  0.00     0.202 C 
BRANCH   5   6
ATOM      6  C   UNL A   1      29.477  27.542  23.567  1.00  0.00     0.261 C 
BRANCH   6   7
ATOM      7  O   UNL A   1      29.650  25.922  24.658  1.00  0.00    -0.463 OA
BRANCH   7   8
ATOM      8  C   UNL A   1      29.955  25.311  25.994  1.00  0.00     0.311 C 
ATOM      9  O   UNL A   1      29.119  25.102  26.893  1.00  0.00    -0.252 OA
BRANCH   8  10
ATOM     10  C   UNL A   1      31.299  24.712  26.369  1.00  0.00     0.121 C 
BRANCH  10  11
ATOM     11  C   UNL A   1      31.583  23.176  26.230  1.00  0.00    -0.001 C 
ATOM     12  C   UNL A   1      32.306  22.642  27.489  1.00  0.00     0.008 C 
ATOM     13  C   UNL A   1      30.325  22.285  26.101  1.00  0.00     0.008 C 
ENDBRANCH  10  11
BRANCH  10  14
ATOM     14  C   UNL A   1      32.427  25.716  26.337  1.00  0.00     0.131 C 
BRANCH  14  15
ATOM     15  N   UNL A   1      33.729  25.163  26.224  1.00  0.00    -0.350 N 
ATOM     16  C   UNL A   1      34.537  25.082  25.147  1.00  0.00     0.278 C 
ATOM     17  H   UNL A   1      34.096  24.782  27.053  1.00  0.00     0.163 HD
ATOM     18  O   UNL A   1      35.725  24.838  25.401  1.00  0.00    -0.268 OA
BRANCH  16  19
ATOM     19  C   UNL A   1      34.087  25.088  23.656  1.00  0.00     0.272 C 
ATOM     20  C   UNL A   1      32.675  25.035  23.063  1.00  0.00     0.076 C 
ATOM     21  N   UNL A   1      34.981  24.190  22.923  1.00  0.00    -0.333 N 
ATOM     22  C   UNL A   1      31.989  23.704  22.687  1.00  0.00     0.016 C 
ATOM     23  C   UNL A   1      34.603  22.800  23.113  1.00  0.00     0.186 C 
ATOM     24  H   UNL A   1      35.935  24.324  23.260  1.00  0.00     0.347 HD
ATOM     25  H   UNL A   1      34.915  24.410  21.930  1.00  0.00     0.347 HD
ATOM     26  C   UNL A   1      32.873  22.452  22.481  1.00  0.00     0.048 C 
ATOM     27  C   UNL A   1      35.277  21.995  24.652  1.00  0.00     0.065 C 
ATOM     28  C   UNL A   1      32.032  20.791  23.019  1.00  0.00     0.010 C 
ATOM     29  C   UNL A   1      34.429  20.495  25.394  1.00  0.00     0.006 C 
ATOM     30  C   UNL A   1      32.741  19.922  24.665  1.00  0.00     0.001 C 
ENDBRANCH  16  19
ENDBRANCH  14  15
ENDBRANCH  10  14
ENDBRANCH   8  10
ENDBRANCH   7   8
ENDBRANCH   6   7
ENDBRANCH   5   6
ENDBRANCH   4   5
ENDBRANCH   3   4
ENDBRANCH   2   3
ENDBRANCH   1   2
BRANCH   1  31
ATOM     31  C   UNL A   1      33.983  28.643  26.757  1.00  0.00     0.188 C 
BRANCH  31  32
ATOM     32  C   UNL A   1      32.731  29.339  27.267  1.00  0.00     0.188 C 
BRANCH  32  33
ATOM     33  O   UNL A   1      32.933  30.718  27.527  1.00  0.00    -0.376 OA
BRANCH  33  34
ATOM     34  C   UNL A   1      32.047  31.658  26.934  1.00  0.00     0.202 C 
BRANCH  34  35
ATOM     35  C   UNL A   1      32.206  33.165  27.216  1.00  0.00     0.261 C 
BRANCH  35  36
ATOM     36  O   UNL A   1      33.409  33.620  27.867  1.00  0.00    -0.460 OA
BRANCH  36  37
ATOM     37  C   UNL A   1      33.327  34.457  28.922  1.00  0.00     0.338 C 
ATOM     38  O   UNL A   1      32.546  35.370  29.089  1.00  0.00    -0.246 OA
BRANCH  37  39
ATOM     39  C   UNL A   1      34.253  33.967  29.964  1.00  0.00     0.060 A 
ATOM     40  C   UNL A   1      34.880  34.899  30.803  1.00  0.00     0.016 A 
ATOM     41  C   UNL A   1      34.543  32.607  30.072  1.00  0.00     0.016 A 
ATOM     42  C   UNL A   1      35.849  34.477  31.712  1.00  0.00     0.010 A 
ATOM     43  C   UNL A   1      35.527  32.187  30.971  1.00  0.00     0.010 A 
ATOM     44  C   UNL A   1      36.218  33.127  31.757  1.00  0.00    -0.014 A 
BRANCH  44  45
ATOM     45  C   UNL A   1      37.472  32.735  32.443  1.00  0.00     0.031 A 
ATOM     46  C   UNL A   1      38.476  31.919  31.673  1.00  0.00     0.074 A 
ATOM     47  C   UNL A   1      37.721  33.091  33.715  1.00  0.00     0.049 A 
ATOM     48  N   UNL A   1      39.621  31.425  32.065  1.00  0.00    -0.248 NA
ATOM     49  C   UNL A   1      38.139  31.616  30.272  1.00  0.00     0.031 C 
ATOM     50  C   UNL A   1      36.833  33.886  34.561  1.00  0.00     0.029 A 
ATOM     51  N   UNL A   1      38.790  32.797  34.524  1.00  0.00    -0.354 N 
ATOM     52  C   UNL A   1      40.123  30.725  30.975  1.00  0.00     0.074 A 
ATOM     53  C   UNL A   1      39.156  30.850  29.907  1.00  0.00     0.031 C 
ATOM     54  C   UNL A   1      37.380  33.987  35.786  1.00  0.00     0.029 A 
ATOM     55  C   UNL A   1      38.639  33.244  35.815  1.00  0.00     0.049 A 
ATOM     56  H   UNL A   1      39.587  32.312  34.210  1.00  0.00     0.167 HD
ATOM     57  C   UNL A   1      41.289  30.047  30.865  1.00  0.00     0.034 A 
ATOM     58  C   UNL A   1      39.416  33.051  36.899  1.00  0.00     0.034 A 
ATOM     59  C   UNL A   1      42.256  29.934  31.922  1.00  0.00     0.049 A 
ATOM     60  C   UNL A   1      40.698  32.269  36.762  1.00  0.00     0.074 A 
ATOM     61  C   UNL A   1      43.491  29.314  31.894  1.00  0.00     0.029 A 
ATOM     62  N   UNL A   1      42.088  30.434  33.203  1.00  0.00    -0.354 N 
ATOM     63  N   UNL A   1      41.218  31.715  35.692  1.00  0.00    -0.248 NA
ATOM     64  C   UNL A   1      41.515  32.113  37.974  1.00  0.00     0.031 C 
ATOM     65  C   UNL A   1      44.055  29.408  33.171  1.00  0.00     0.029 A 
ATOM     66  C   UNL A   1      43.188  30.122  33.982  1.00  0.00     0.049 A 
ATOM     67  H   UNL A   1      41.301  30.938  33.515  1.00  0.00     0.167 HD
ATOM     68  C   UNL A   1      42.437  31.177  36.094  1.00  0.00     0.074 A 
ATOM     69  C   UNL A   1      42.586  31.490  37.501  1.00  0.00     0.031 C 
ATOM     70  C   UNL A   1      43.346  30.478  35.369  1.00  0.00     0.034 A 
BRANCH  57  71
ATOM     71  C   UNL A   1      41.584  29.379  29.548  1.00  0.00     0.023 A 
ATOM     72  C   UNL A   1      42.451  30.000  28.625  1.00  0.00     0.012 A 
ATOM     73  C   UNL A   1      41.034  28.120  29.241  1.00  0.00     0.148 A 
ATOM     74  C   UNL A   1      42.735  29.395  27.401  1.00  0.00     0.002 A 
ATOM     75  C   UNL A   1      41.359  27.502  28.040  1.00  0.00     0.091 A 
ATOM     76  F   UNL A   1      40.192  27.559  30.120  1.00  0.00    -0.205 F 
ATOM     77  C   UNL A   1      42.198  28.142  27.114  1.00  0.00     0.022 A 
BRANCH  75  78
ATOM     78  S   UNL A   1      40.782  25.856  27.613  1.00  0.00     0.127 S 
ATOM     79  O   UNL A   1      41.698  25.014  28.382  1.00  0.00    -0.237 OA
ATOM     80  O   UNL A   1      39.407  25.873  28.112  1.00  0.00    -0.237 OA
ATOM     81  O   UNL A   1      40.901  25.750  26.166  1.00  0.00    -0.744 OA
ENDBRANCH  75  78
ENDBRANCH  57  71
BRANCH  58  82
ATOM     82  C   UNL A   1      39.014  33.625  38.213  1.00  0.00     0.023 A 
ATOM     83  C   UNL A   1      39.534  34.868  38.621  1.00  0.00     0.012 A 
ATOM     84  C   UNL A   1      38.106  32.950  39.052  1.00  0.00     0.148 A 
ATOM     85  C   UNL A   1      39.178  35.417  39.855  1.00  0.00     0.002 A 
ATOM     86  C   UNL A   1      37.714  33.527  40.254  1.00  0.00     0.091 A 
ATOM     87  F   UNL A   1      37.638  31.760  38.652  1.00  0.00    -0.205 F 
ATOM     88  C   UNL A   1      38.260  34.753  40.665  1.00  0.00     0.022 A 
BRANCH  86  89
ATOM     89  S   UNL A   1      36.447  32.804  41.301  1.00  0.00     0.127 S 
ATOM     90  O   UNL A   1      35.763  33.992  41.805  1.00  0.00    -0.237 OA
ATOM     91  O   UNL A   1      35.684  32.012  40.337  1.00  0.00    -0.237 OA
ATOM     92  O   UNL A   1      37.162  32.016  42.297  1.00  0.00    -0.744 OA
ENDBRANCH  86  89
ENDBRANCH  58  82
BRANCH  70  93
ATOM     93  C   UNL A   1      44.608  30.033  36.064  1.00  0.00     0.023 A 
ATOM     94  C   UNL A   1      45.762  30.839  36.017  1.00  0.00     0.012 A 
ATOM     95  C   UNL A   1      44.624  28.849  36.830  1.00  0.00     0.148 A 
ATOM     96  C   UNL A   1      46.923  30.457  36.690  1.00  0.00     0.002 A 
ATOM     97  C   UNL A   1      45.766  28.502  37.541  1.00  0.00     0.091 A 
ATOM     98  F   UNL A   1      43.520  28.087  36.852  1.00  0.00    -0.205 F 
ATOM     99  C   UNL A   1      46.920  29.297  37.461  1.00  0.00     0.022 A 
BRANCH  97 100
ATOM    100  S   UNL A   1      45.823  27.080  38.638  1.00  0.00     0.127 S 
ATOM    101  O   UNL A   1      47.182  27.168  39.170  1.00  0.00    -0.237 OA
ATOM    102  O   UNL A   1      44.768  27.391  39.603  1.00  0.00    -0.237 OA
ATOM    103  O   UNL A   1      45.553  25.918  37.803  1.00  0.00    -0.744 OA
ENDBRANCH  97 100
ENDBRANCH  70  93
ENDBRANCH  44  45
ENDBRANCH  37  39
ENDBRANCH  36  37
ENDBRANCH  35  36
ENDBRANCH  34  35
ENDBRANCH  33  34
ENDBRANCH  32  33
ENDBRANCH  31  32
ENDBRANCH   1  31
TORSDOF 27
ENDMDL
MODEL 2
REMARK VINA RESULT:      -9.4      2.671      7.820
REMARK SMILES CC(C)[C@@H](CNC(=O)[C@@H]1CC[C@@H]2CCCC[C@@H]2[NH2+]1)C(=O)OCCOCCOCCOCCOC(=O)c1ccc(-c2c3nc(c(-c4cccc(S(=O)(=O)[O-])c4F)c4ccc([nH]4)c(-c4cccc(S(=O)(=O)[O-])c4F)c4nc(c(-c5cccc(S(=O)(=O)[O-])c5F)c5ccc2[nH]5)C=C4)C=C3)cc1
REMARK SMILES IDX 27 1 26 2 25 3 24 4 23 5 22 6 21 7 19 8 20 9 4 10 2 11 1 12
REMARK SMILES IDX 3 13 5 14 6 15 7 16 8 18 9 19 10 20 18 21 11 22 17 23 12 26
REMARK SMILES IDX 16 27 13 28 15 29 14 30 28 31 29 32 30 33 31 34 32 35 33 36
REMARK SMILES IDX 34 37 35 38 36 39 37 40 98 41 38 42 97 43 39 44 40 45 41 46
REMARK SMILES IDX 91 47 42 48 96 49 90 50 92 51 43 52 95 53 89 54 88 55 44 57
REMARK SMILES IDX 76 58 56 59 75 60 57 61 60 62 74 63 93 64 58 65 59 66 73 68
REMARK SMILES IDX 94 69 61 70 45 71 46 72 54 73 47 74 49 75 55 76 48 77 50 78
REMARK SMILES IDX 51 79 52 80 53 81 77 82 78 83 86 84 79 85 81 86 87 87 80 88
REMARK SMILES IDX 82 89 83 90 84 91 85 92 62 93 63 94 71 95 64 96 66 97 72 98
REMARK SMILES IDX 65 99 67 100 68 101 69 102 70 103
REMARK H PARENT 6 17 18 24 18 25 92 56 60 67
REMARK Flexibility Score: inf
ROOT
ATOM      1  O   UNL A   1      34.025  28.760  25.804  1.00  0.00    -0.377 OA
ENDROOT
BRANCH   1   2
ATOM      2  C   UNL A   1      33.401  29.319  24.652  1.00  0.00     0.188 C 
BRANCH   2   3
ATOM      3  C   UNL A   1      33.628  28.769  23.191  1.00  0.00     0.188 C 
BRANCH   3   4
ATOM      4  O   UNL A   1      32.709  28.087  22.318  1.00  0.00    -0.376 OA
BRANCH   4   5
ATOM      5  C   UNL A   1      31.265  28.020  22.228  1.00  0.00     0.202 C 
BRANCH   5   6
ATOM      6  C   UNL A   1      29.989  27.690  23.363  1.00  0.00     0.261 C 
BRANCH   6   7
ATOM      7  O   UNL A   1      29.753  26.306  24.732  1.00  0.00    -0.463 OA
BRANCH   7   8
ATOM      8  C   UNL A   1      30.239  25.673  26.002  1.00  0.00     0.311 C 
ATOM      9  O   UNL A   1      29.942  26.052  27.150  1.00  0.00    -0.252 OA
BRANCH   8  10
ATOM     10  C   UNL A   1      31.031  24.379  26.059  1.00  0.00     0.121 C 
BRANCH  10  11
ATOM     11  C   UNL A   1      31.190  23.454  24.802  1.00  0.00    -0.001 C 
ATOM     12  C   UNL A   1      30.619  22.045  25.089  1.00  0.00     0.008 C 
ATOM     13  C   UNL A   1      30.431  23.927  23.540  1.00  0.00     0.008 C 
ENDBRANCH  10  11
BRANCH  10  14
ATOM     14  C   UNL A   1      32.050  24.353  27.174  1.00  0.00     0.131 C 
BRANCH  14  15
ATOM     15  N   UNL A   1      32.813  23.161  27.273  1.00  0.00    -0.350 N 
ATOM     16  C   UNL A   1      34.120  22.954  27.010  1.00  0.00     0.278 C 
ATOM     17  H   UNL A   1      32.316  22.369  27.578  1.00  0.00     0.163 HD
ATOM     18  O   UNL A   1      34.588  21.906  27.477  1.00  0.00    -0.268 OA
BRANCH  16  19
ATOM     19  C   UNL A   1      35.011  23.797  26.051  1.00  0.00     0.272 C 
ATOM     20  C   UNL A   1      34.629  24.977  25.149  1.00  0.00     0.076 C 
ATOM     21  N   UNL A   1      35.886  22.869  25.333  1.00  0.00    -0.333 N 
ATOM     22  C   UNL A   1      34.198  24.782  23.679  1.00  0.00     0.016 C 
ATOM     23  C   UNL A   1      35.183  22.224  24.237  1.00  0.00     0.186 C 
ATOM     24  H   UNL A   1      36.217  22.155  25.983  1.00  0.00     0.347 HD
ATOM     25  H   UNL A   1      36.669  23.398  24.948  1.00  0.00     0.347 HD
ATOM     26  C   UNL A   1      34.575  23.462  22.969  1.00  0.00     0.048 C 
ATOM     27  C   UNL A   1      34.194  20.715  24.706  1.00  0.00     0.065 C 
ATOM     28  C   UNL A   1      33.266  22.859  21.674  1.00  0.00     0.010 C 
ATOM     29  C   UNL A   1      32.762  20.144  23.637  1.00  0.00     0.006 C 
ATOM     30  C   UNL A   1      32.198  21.249  22.163  1.00  0.00     0.001 C 
ENDBRANCH  16  19
ENDBRANCH  14  15
ENDBRANCH  10  14
ENDBRANCH   8  10
ENDBRANCH   7   8
ENDBRANCH   6   7
ENDBRANCH   5   6
ENDBRANCH   4   5
ENDBRANCH   3   4
ENDBRANCH   2   3
ENDBRANCH   1   2
BRANCH   1  31
ATOM     31  C   UNL A   1      33.231  28.513  26.953  1.00  0.00     0.188 C 
BRANCH  31  32
ATOM     32  C   UNL A   1      32.178  29.574  27.228  1.00  0.00     0.188 C 
BRANCH  32  33
ATOM     33  O   UNL A   1      32.726  30.877  27.351  1.00  0.00    -0.376 OA
BRANCH  33  34
ATOM     34  C   UNL A   1      31.949  31.984  26.914  1.00  0.00     0.202 C 
BRANCH  34  35
ATOM     35  C   UNL A   1      32.257  33.404  27.430  1.00  0.00     0.261 C 
BRANCH  35  36
ATOM     36  O   UNL A   1      33.625  33.746  27.731  1.00  0.00    -0.460 OA
BRANCH  36  37
ATOM     37  C   UNL A   1      34.044  33.780  29.012  1.00  0.00     0.338 C 
ATOM     38  O   UNL A   1      33.513  34.331  29.955  1.00  0.00    -0.246 OA
BRANCH  37  39
ATOM     39  C   UNL A   1      35.196  32.863  29.140  1.00  0.00     0.060 A 
ATOM     40  C   UNL A   1      35.088  31.757  29.994  1.00  0.00     0.016 A 
ATOM     41  C   UNL A   1      36.389  33.128  28.467  1.00  0.00     0.016 A 
ATOM     42  C   UNL A   1      36.198  30.946  30.227  1.00  0.00     0.010 A 
ATOM     43  C   UNL A   1      37.506  32.326  28.716  1.00  0.00     0.010 A 
ATOM     44  C   UNL A   1      37.426  31.263  29.635  1.00  0.00    -0.014 A 
BRANCH  44  45
ATOM     45  C   UNL A   1      38.668  30.640  30.151  1.00  0.00     0.031 A 
ATOM     46  C   UNL A   1      39.249  31.171  31.434  1.00  0.00     0.074 A 
ATOM     47  C   UNL A   1      39.271  29.628  29.503  1.00  0.00     0.049 A 
ATOM     48  N   UNL A   1      40.341  30.820  32.060  1.00  0.00    -0.248 NA
ATOM     49  C   UNL A   1      38.496  32.249  32.098  1.00  0.00     0.031 C 
ATOM     50  C   UNL A   1      38.802  29.021  28.259  1.00  0.00     0.029 A 
ATOM     51  N   UNL A   1      40.431  28.955  29.795  1.00  0.00    -0.354 N 
ATOM     52  C   UNL A   1      40.425  31.654  33.168  1.00  0.00     0.074 A 
ATOM     53  C   UNL A   1      39.280  32.535  33.126  1.00  0.00     0.031 C 
ATOM     54  C   UNL A   1      39.688  28.086  27.874  1.00  0.00     0.029 A 
ATOM     55  C   UNL A   1      40.795  28.048  28.829  1.00  0.00     0.049 A 
ATOM     56  H   UNL A   1      40.951  29.108  30.616  1.00  0.00     0.167 HD
ATOM     57  C   UNL A   1      41.365  31.680  34.142  1.00  0.00     0.034 A 
ATOM     58  C   UNL A   1      41.907  27.294  28.718  1.00  0.00     0.034 A 
ATOM     59  C   UNL A   1      42.497  30.796  34.190  1.00  0.00     0.049 A 
ATOM     60  C   UNL A   1      42.955  27.358  29.800  1.00  0.00     0.074 A 
ATOM     61  C   UNL A   1      43.477  30.706  35.161  1.00  0.00     0.029 A 
ATOM     62  N   UNL A   1      42.812  29.862  33.216  1.00  0.00    -0.354 N 
ATOM     63  N   UNL A   1      42.962  28.065  30.905  1.00  0.00    -0.248 NA
ATOM     64  C   UNL A   1      44.135  26.495  29.635  1.00  0.00     0.031 C 
ATOM     65  C   UNL A   1      44.406  29.742  34.757  1.00  0.00     0.029 A 
ATOM     66  C   UNL A   1      43.982  29.203  33.553  1.00  0.00     0.049 A 
ATOM     67  H   UNL A   1      42.282  29.691  32.404  1.00  0.00     0.167 HD
ATOM     68  C   UNL A   1      44.124  27.708  31.581  1.00  0.00     0.074 A 
ATOM     69  C   UNL A   1      44.786  26.706  30.771  1.00  0.00     0.031 C 
ATOM     70  C   UNL A   1      44.606  28.174  32.761  1.00  0.00     0.034 A 
BRANCH  57  71
ATOM     71  C   UNL A   1      41.202  32.697  35.239  1.00  0.00     0.023 A 
ATOM     72  C   UNL A   1      41.877  33.933  35.158  1.00  0.00     0.012 A 
ATOM     73  C   UNL A   1      40.351  32.446  36.332  1.00  0.00     0.148 A 
ATOM     74  C   UNL A   1      41.737  34.886  36.166  1.00  0.00     0.002 A 
ATOM     75  C   UNL A   1      40.180  33.419  37.309  1.00  0.00     0.091 A 
ATOM     76  F   UNL A   1      39.738  31.255  36.405  1.00  0.00    -0.205 F 
ATOM     77  C   UNL A   1      40.880  34.633  37.235  1.00  0.00     0.022 A 
BRANCH  75  78
ATOM     78  S   UNL A   1      39.039  33.220  38.681  1.00  0.00     0.127 S 
ATOM     79  O   UNL A   1      38.851  34.604  39.112  1.00  0.00    -0.237 OA
ATOM     80  O   UNL A   1      37.874  32.621  38.029  1.00  0.00    -0.237 OA
ATOM     81  O   UNL A   1      39.710  32.352  39.640  1.00  0.00    -0.744 OA
ENDBRANCH  75  78
ENDBRANCH  57  71
BRANCH  58  82
ATOM     82  C   UNL A   1      42.082  26.396  27.543  1.00  0.00     0.023 A 
ATOM     83  C   UNL A   1      42.724  26.875  26.386  1.00  0.00     0.012 A 
ATOM     84  C   UNL A   1      41.624  25.064  27.575  1.00  0.00     0.148 A 
ATOM     85  C   UNL A   1      42.886  26.051  25.270  1.00  0.00     0.002 A 
ATOM     86  C   UNL A   1      41.836  24.233  26.481  1.00  0.00     0.091 A 
ATOM     87  F   UNL A   1      40.998  24.635  28.679  1.00  0.00    -0.205 F 
ATOM     88  C   UNL A   1      42.453  24.728  25.322  1.00  0.00     0.022 A 
BRANCH  86  89
ATOM     89  S   UNL A   1      41.423  22.486  26.506  1.00  0.00     0.127 S 
ATOM     90  O   UNL A   1      42.269  21.964  25.436  1.00  0.00    -0.237 OA
ATOM     91  O   UNL A   1      41.829  22.105  27.858  1.00  0.00    -0.237 OA
ATOM     92  O   UNL A   1      39.987  22.418  26.265  1.00  0.00    -0.744 OA
ENDBRANCH  86  89
ENDBRANCH  58  82
BRANCH  70  93
ATOM     93  C   UNL A   1      45.894  27.582  33.277  1.00  0.00     0.023 A 
ATOM     94  C   UNL A   1      45.864  26.444  34.106  1.00  0.00     0.012 A 
ATOM     95  C   UNL A   1      47.137  28.110  32.875  1.00  0.00     0.148 A 
ATOM     96  C   UNL A   1      47.050  25.862  34.557  1.00  0.00     0.002 A 
ATOM     97  C   UNL A   1      48.314  27.495  33.284  1.00  0.00     0.091 A 
ATOM     98  F   UNL A   1      47.146  29.204  32.097  1.00  0.00    -0.205 F 
ATOM     99  C   UNL A   1      48.273  26.381  34.136  1.00  0.00     0.022 A 
BRANCH  97 100
ATOM    100  S   UNL A   1      49.931  28.032  32.713  1.00  0.00     0.127 S 
ATOM    101  O   UNL A   1      49.843  27.769  31.278  1.00  0.00    -0.237 OA
ATOM    102  O   UNL A   1      49.931  29.450  33.074  1.00  0.00    -0.237 OA
ATOM    103  O   UNL A   1      50.902  27.225  33.438  1.00  0.00    -0.744 OA
ENDBRANCH  97 100
ENDBRANCH  70  93
ENDBRANCH  44  45
ENDBRANCH  37  39
ENDBRANCH  36  37
ENDBRANCH  35  36
ENDBRANCH  34  35
ENDBRANCH  33  34
ENDBRANCH  32  33
ENDBRANCH  31  32
ENDBRANCH   1  31
TORSDOF 27
ENDMDL
MODEL 3
REMARK VINA RESULT:      -9.4      3.480      8.222
REMARK SMILES CC(C)[C@@H](CNC(=O)[C@@H]1CC[C@@H]2CCCC[C@@H]2[NH2+]1)C(=O)OCCOCCOCCOCCOC(=O)c1ccc(-c2c3nc(c(-c4cccc(S(=O)(=O)[O-])c4F)c4ccc([nH]4)c(-c4cccc(S(=O)(=O)[O-])c4F)c4nc(c(-c5cccc(S(=O)(=O)[O-])c5F)c5ccc2[nH]5)C=C4)C=C3)cc1
REMARK SMILES IDX 27 1 26 2 25 3 24 4 23 5 22 6 21 7 19 8 20 9 4 10 2 11 1 12
REMARK SMILES IDX 3 13 5 14 6 15 7 16 8 18 9 19 10 20 18 21 11 22 17 23 12 26
REMARK SMILES IDX 16 27 13 28 15 29 14 30 28 31 29 32 30 33 31 34 32 35 33 36
REMARK SMILES IDX 34 37 35 38 36 39 37 40 98 41 38 42 97 43 39 44 40 45 41 46
REMARK SMILES IDX 91 47 42 48 96 49 90 50 92 51 43 52 95 53 89 54 88 55 44 57
REMARK SMILES IDX 76 58 56 59 75 60 57 61 60 62 74 63 93 64 58 65 59 66 73 68
REMARK SMILES IDX 94 69 61 70 45 71 46 72 54 73 47 74 49 75 55 76 48 77 50 78
REMARK SMILES IDX 51 79 52 80 53 81 77 82 78 83 86 84 79 85 81 86 87 87 80 88
REMARK SMILES IDX 82 89 83 90 84 91 85 92 62 93 63 94 71 95 64 96 66 97 72 98
REMARK SMILES IDX 65 99 67 100 68 101 69 102 70 103
REMARK H PARENT 6 17 18 24 18 25 92 56 60 67
REMARK Flexibility Score: inf
ROOT
ATOM      1  O   UNL A   1      33.990  28.372  25.706  1.00  0.00    -0.377 OA
ENDROOT
BRANCH   1   2
ATOM      2  C   UNL A   1      33.546  29.087  24.556  1.00  0.00     0.188 C 
BRANCH   2   3
ATOM      3  C   UNL A   1      33.679  28.531  23.086  1.00  0.00     0.188 C 
BRANCH   3   4
ATOM      4  O   UNL A   1      32.728  27.789  22.300  1.00  0.00    -0.376 OA
BRANCH   4   5
ATOM      5  C   UNL A   1      31.284  27.806  22.185  1.00  0.00     0.202 C 
BRANCH   5   6
ATOM      6  C   UNL A   1      29.971  27.665  23.318  1.00  0.00     0.261 C 
BRANCH   6   7
ATOM      7  O   UNL A   1      29.486  26.286  24.625  1.00  0.00    -0.463 OA
BRANCH   7   8
ATOM      8  C   UNL A   1      29.855  25.506  25.851  1.00  0.00     0.311 C 
ATOM      9  O   UNL A   1      29.283  25.591  26.954  1.00  0.00    -0.252 OA
BRANCH   8  10
ATOM     10  C   UNL A   1      30.876  24.382  25.870  1.00  0.00     0.121 C 
BRANCH  10  11
ATOM     11  C   UNL A   1      31.107  23.458  24.623  1.00  0.00    -0.001 C 
ATOM     12  C   UNL A   1      30.653  22.012  24.928  1.00  0.00     0.008 C 
ATOM     13  C   UNL A   1      30.311  23.854  23.358  1.00  0.00     0.008 C 
ENDBRANCH  10  11
BRANCH  10  14
ATOM     14  C   UNL A   1      31.965  24.583  26.898  1.00  0.00     0.131 C 
BRANCH  14  15
ATOM     15  N   UNL A   1      32.815  23.467  27.109  1.00  0.00    -0.350 N 
ATOM     16  C   UNL A   1      34.126  23.322  26.828  1.00  0.00     0.278 C 
ATOM     17  H   UNL A   1      32.384  22.684  27.521  1.00  0.00     0.163 HD
ATOM     18  O   UNL A   1      34.681  22.371  27.398  1.00  0.00    -0.268 OA
BRANCH  16  19
ATOM     19  C   UNL A   1      34.929  24.106  25.749  1.00  0.00     0.272 C 
ATOM     20  C   UNL A   1      34.442  25.149  24.738  1.00  0.00     0.076 C 
ATOM     21  N   UNL A   1      35.841  23.159  25.105  1.00  0.00    -0.333 N 
ATOM     22  C   UNL A   1      33.980  24.764  23.316  1.00  0.00     0.016 C 
ATOM     23  C   UNL A   1      35.149  22.351  24.115  1.00  0.00     0.186 C 
ATOM     24  H   UNL A   1      36.239  22.545  25.817  1.00  0.00     0.347 HD
ATOM     25  H   UNL A   1      36.575  23.688  24.635  1.00  0.00     0.347 HD
ATOM     26  C   UNL A   1      34.421  23.398  22.742  1.00  0.00     0.048 C 
ATOM     27  C   UNL A   1      34.277  20.847  24.785  1.00  0.00     0.065 C 
ATOM     28  C   UNL A   1      33.115  22.572  21.572  1.00  0.00     0.010 C 
ATOM     29  C   UNL A   1      32.853  20.070  23.841  1.00  0.00     0.006 C 
ATOM     30  C   UNL A   1      32.172  20.965  22.277  1.00  0.00     0.001 C 
ENDBRANCH  16  19
ENDBRANCH  14  15
ENDBRANCH  10  14
ENDBRANCH   8  10
ENDBRANCH   7   8
ENDBRANCH   6   7
ENDBRANCH   5   6
ENDBRANCH   4   5
ENDBRANCH   3   4
ENDBRANCH   2   3
ENDBRANCH   1   2
BRANCH   1  31
ATOM     31  C   UNL A   1      33.033  28.000  26.684  1.00  0.00     0.188 C 
BRANCH  31  32
ATOM     32  C   UNL A   1      32.153  29.141  27.167  1.00  0.00     0.188 C 
BRANCH  32  33
ATOM     33  O   UNL A   1      32.898  30.246  27.651  1.00  0.00    -0.376 OA
BRANCH  33  34
ATOM     34  C   UNL A   1      32.574  31.545  27.174  1.00  0.00     0.202 C 
BRANCH  34  35
ATOM     35  C   UNL A   1      33.309  32.784  27.725  1.00  0.00     0.261 C 
BRANCH  35  36
ATOM     36  O   UNL A   1      34.684  32.643  28.135  1.00  0.00    -0.460 OA
BRANCH  36  37
ATOM     37  C   UNL A   1      34.977  32.363  29.421  1.00  0.00     0.338 C 
ATOM     38  O   UNL A   1      34.344  32.664  30.411  1.00  0.00    -0.246 OA
BRANCH  37  39
ATOM     39  C   UNL A   1      36.138  31.450  29.435  1.00  0.00     0.060 A 
ATOM     40  C   UNL A   1      36.040  30.244  30.144  1.00  0.00     0.016 A 
ATOM     41  C   UNL A   1      37.330  31.809  28.805  1.00  0.00     0.016 A 
ATOM     42  C   UNL A   1      37.157  29.421  30.277  1.00  0.00     0.010 A 
ATOM     43  C   UNL A   1      38.454  30.992  28.955  1.00  0.00     0.010 A 
ATOM     44  C   UNL A   1      38.384  29.822  29.733  1.00  0.00    -0.014 A 
BRANCH  44  45
ATOM     45  C   UNL A   1      39.631  29.151  30.170  1.00  0.00     0.031 A 
ATOM     46  C   UNL A   1      40.318  29.666  31.406  1.00  0.00     0.074 A 
ATOM     47  C   UNL A   1      40.146  28.110  29.492  1.00  0.00     0.049 A 
ATOM     48  N   UNL A   1      41.435  29.274  31.961  1.00  0.00    -0.248 NA
ATOM     49  C   UNL A   1      39.656  30.778  32.109  1.00  0.00     0.031 C 
ATOM     50  C   UNL A   1      39.570  27.515  28.288  1.00  0.00     0.029 A 
ATOM     51  N   UNL A   1      41.295  27.392  29.712  1.00  0.00    -0.354 N 
ATOM     52  C   UNL A   1      41.628  30.111  33.053  1.00  0.00     0.074 A 
ATOM     53  C   UNL A   1      40.519  31.039  33.079  1.00  0.00     0.031 C 
ATOM     54  C   UNL A   1      40.389  26.541  27.853  1.00  0.00     0.029 A 
ATOM     55  C   UNL A   1      41.555  26.464  28.733  1.00  0.00     0.049 A 
ATOM     56  H   UNL A   1      41.875  27.528  30.495  1.00  0.00     0.167 HD
ATOM     57  C   UNL A   1      42.631  30.104  33.961  1.00  0.00     0.034 A 
ATOM     58  C   UNL A   1      42.626  25.664  28.554  1.00  0.00     0.034 A 
ATOM     59  C   UNL A   1      43.727  29.174  33.942  1.00  0.00     0.049 A 
ATOM     60  C   UNL A   1      43.746  25.691  29.563  1.00  0.00     0.074 A 
ATOM     61  C   UNL A   1      44.765  29.050  34.846  1.00  0.00     0.029 A 
ATOM     62  N   UNL A   1      43.936  28.221  32.958  1.00  0.00    -0.354 N 
ATOM     63  N   UNL A   1      43.857  26.405  30.658  1.00  0.00    -0.248 NA
ATOM     64  C   UNL A   1      44.876  24.779  29.327  1.00  0.00     0.031 C 
ATOM     65  C   UNL A   1      45.624  28.045  34.389  1.00  0.00     0.029 A 
ATOM     66  C   UNL A   1      45.098  27.516  33.221  1.00  0.00     0.049 A 
ATOM     67  H   UNL A   1      43.346  28.067  32.185  1.00  0.00     0.167 HD
ATOM     68  C   UNL A   1      45.046  26.004  31.258  1.00  0.00     0.074 A 
ATOM     69  C   UNL A   1      45.610  24.970  30.415  1.00  0.00     0.031 C 
ATOM     70  C   UNL A   1      45.625  26.457  32.399  1.00  0.00     0.034 A 
BRANCH  57  71
ATOM     71  C   UNL A   1      42.584  31.135  35.058  1.00  0.00     0.023 A 
ATOM     72  C   UNL A   1      42.000  30.812  36.300  1.00  0.00     0.012 A 
ATOM     73  C   UNL A   1      43.153  32.409  34.871  1.00  0.00     0.148 A 
ATOM     74  C   UNL A   1      41.948  31.755  37.326  1.00  0.00     0.002 A 
ATOM     75  C   UNL A   1      43.140  33.327  35.914  1.00  0.00     0.091 A 
ATOM     76  F   UNL A   1      43.680  32.706  33.675  1.00  0.00    -0.205 F 
ATOM     77  C   UNL A   1      42.528  33.007  37.137  1.00  0.00     0.022 A 
BRANCH  75  78
ATOM     78  S   UNL A   1      43.929  34.936  35.795  1.00  0.00     0.127 S 
ATOM     79  O   UNL A   1      45.280  34.637  36.267  1.00  0.00    -0.237 OA
ATOM     80  O   UNL A   1      43.832  35.221  34.363  1.00  0.00    -0.237 OA
ATOM     81  O   UNL A   1      43.153  35.828  36.644  1.00  0.00    -0.744 OA
ENDBRANCH  75  78
ENDBRANCH  57  71
BRANCH  58  82
ATOM     82  C   UNL A   1      42.684  24.751  27.379  1.00  0.00     0.023 A 
ATOM     83  C   UNL A   1      43.268  25.195  26.177  1.00  0.00     0.012 A 
ATOM     84  C   UNL A   1      42.173  23.441  27.453  1.00  0.00     0.148 A 
ATOM     85  C   UNL A   1      43.320  24.358  25.061  1.00  0.00     0.002 A 
ATOM     86  C   UNL A   1      42.276  22.594  26.356  1.00  0.00     0.091 A 
ATOM     87  F   UNL A   1      41.604  23.046  28.601  1.00  0.00    -0.205 F 
ATOM     88  C   UNL A   1      42.835  23.055  25.154  1.00  0.00     0.022 A 
BRANCH  86  89
ATOM     89  S   UNL A   1      41.792  20.867  26.423  1.00  0.00     0.127 S 
ATOM     90  O   UNL A   1      42.198  20.496  27.776  1.00  0.00    -0.237 OA
ATOM     91  O   UNL A   1      40.348  20.956  26.213  1.00  0.00    -0.237 OA
ATOM     92  O   UNL A   1      42.519  20.212  25.344  1.00  0.00    -0.744 OA
ENDBRANCH  86  89
ENDBRANCH  58  82
BRANCH  70  93
ATOM     93  C   UNL A   1      46.919  25.815  32.833  1.00  0.00     0.023 A 
ATOM     94  C   UNL A   1      48.150  26.345  32.399  1.00  0.00     0.012 A 
ATOM     95  C   UNL A   1      46.914  24.732  33.735  1.00  0.00     0.148 A 
ATOM     96  C   UNL A   1      49.354  25.786  32.827  1.00  0.00     0.002 A 
ATOM     97  C   UNL A   1      48.116  24.213  34.199  1.00  0.00     0.091 A 
ATOM     98  F   UNL A   1      45.732  24.231  34.126  1.00  0.00    -0.205 F 
ATOM     99  C   UNL A   1      49.337  24.729  33.735  1.00  0.00     0.022 A 
BRANCH  97 100
ATOM    100  S   UNL A   1      48.192  22.920  35.443  1.00  0.00     0.127 S 
ATOM    101  O   UNL A   1      47.856  23.657  36.660  1.00  0.00    -0.237 OA
ATOM    102  O   UNL A   1      47.157  21.991  34.987  1.00  0.00    -0.237 OA
ATOM    103  O   UNL A   1      49.546  22.388  35.389  1.00  0.00    -0.744 OA
ENDBRANCH  97 100
ENDBRANCH  70  93
ENDBRANCH  44  45
ENDBRANCH  37  39
ENDBRANCH  36  37
ENDBRANCH  35  36
ENDBRANCH  34  35
ENDBRANCH  33  34
ENDBRANCH  32  33
ENDBRANCH  31  32
ENDBRANCH   1  31
TORSDOF 27
ENDMDL
