MODEL 1
REMARK VINA RESULT:      -9.1      0.000      0.000
REMARK SMILES CCOc1cc(/C=C(/F)C(=O)OCCOCCOCCOCCOC(=O)c2ccc(-c3c4nc(c(-c5cccc(S(=O)(=O)[O-])c5F)c5ccc([nH]5)c(-c5cccc(S(=O)(=O)[O-])c5F)c5nc(c(-c6cccc(S(=O)(=O)[O-])c6F)c6ccc3[nH]6)C=C5)C=C4)cc2)ccc1O
REMARK SMILES IDX 18 1 17 2 16 3 15 4 14 5 13 6 12 7 10 8 11 9 8 10 7 11 9 12
REMARK SMILES IDX 6 13 4 14 5 15 92 16 91 17 90 18 3 19 2 20 1 21 93 22 19 24
REMARK SMILES IDX 20 25 21 26 22 27 23 28 24 29 25 30 26 31 27 32 28 33 89 34
REMARK SMILES IDX 29 35 88 36 30 37 31 38 32 39 82 40 33 41 87 42 81 43 83 44
REMARK SMILES IDX 34 45 86 46 80 47 79 48 35 50 67 51 47 52 66 53 48 54 51 55
REMARK SMILES IDX 65 56 84 57 49 58 50 59 64 61 85 62 52 63 36 64 37 65 45 66
REMARK SMILES IDX 38 67 40 68 46 69 39 70 41 71 42 72 43 73 44 74 68 75 69 76
REMARK SMILES IDX 77 77 70 78 72 79 78 80 71 81 73 82 74 83 75 84 76 85 53 86
REMARK SMILES IDX 54 87 62 88 55 89 57 90 63 91 56 92 58 93 59 94 60 95 61 96
REMARK H PARENT 93 23 83 49 51 60
REMARK Flexibility Score: inf
ROOT
ATOM      1  O   UNL A   1      34.393  29.214  27.537  1.00  0.00    -0.377 OA
ENDROOT
BRANCH   1   2
ATOM      2  C   UNL A   1      33.865  28.325  26.560  1.00  0.00     0.188 C 
BRANCH   2   3
ATOM      3  C   UNL A   1      33.506  28.929  25.192  1.00  0.00     0.188 C 
BRANCH   3   4
ATOM      4  O   UNL A   1      34.271  28.392  24.109  1.00  0.00    -0.376 OA
BRANCH   4   5
ATOM      5  C   UNL A   1      33.815  28.687  22.792  1.00  0.00     0.202 C 
BRANCH   5   6
ATOM      6  C   UNL A   1      33.341  27.457  22.010  1.00  0.00     0.261 C 
BRANCH   6   7
ATOM      7  O   UNL A   1      33.696  26.230  22.669  1.00  0.00    -0.458 OA
BRANCH   7   8
ATOM      8  C   UNL A   1      32.684  25.380  22.964  1.00  0.00     0.367 C 
ATOM      9  O   UNL A   1      32.230  24.514  22.236  1.00  0.00    -0.243 OA
BRANCH   8  10
ATOM     10  C   UNL A   1      32.329  25.600  24.381  1.00  0.00     0.208 C 
ATOM     11  C   UNL A   1      31.255  26.224  24.891  1.00  0.00     0.055 C 
ATOM     12  F   UNL A   1      33.151  24.957  25.245  1.00  0.00    -0.199 F 
BRANCH  11  13
ATOM     13  C   UNL A   1      30.082  26.909  24.297  1.00  0.00    -0.019 A 
ATOM     14  C   UNL A   1      28.916  28.708  23.144  1.00  0.00     0.161 A 
ATOM     15  C   UNL A   1      30.087  28.174  23.692  1.00  0.00     0.058 A 
ATOM     16  C   UNL A   1      27.711  28.023  23.260  1.00  0.00     0.157 A 
ATOM     17  C   UNL A   1      27.676  26.767  23.834  1.00  0.00     0.051 A 
ATOM     18  C   UNL A   1      28.857  26.212  24.341  1.00  0.00     0.012 A 
BRANCH  14  19
ATOM     19  O   UNL A   1      28.925  29.953  22.572  1.00  0.00    -0.490 OA
BRANCH  19  20
ATOM     20  C   UNL A   1      28.206  30.913  23.366  1.00  0.00     0.226 C 
ATOM     21  C   UNL A   1      29.169  32.008  23.803  1.00  0.00     0.049 C 
ENDBRANCH  19  20
ENDBRANCH  14  19
BRANCH  16  22
ATOM     22  O   UNL A   1      26.541  28.590  22.848  1.00  0.00    -0.504 OA
ATOM     23  H   UNL A   1      25.733  28.126  22.953  1.00  0.00     0.293 HD
ENDBRANCH  16  22
ENDBRANCH  11  13
ENDBRANCH   8  10
ENDBRANCH   7   8
ENDBRANCH   6   7
ENDBRANCH   5   6
ENDBRANCH   4   5
ENDBRANCH   3   4
ENDBRANCH   2   3
ENDBRANCH   1   2
BRANCH   1  24
ATOM     24  C   UNL A   1      34.390  30.587  27.157  1.00  0.00     0.188 C 
BRANCH  24  25
ATOM     25  C   UNL A   1      34.681  31.510  28.355  1.00  0.00     0.188 C 
BRANCH  25  26
ATOM     26  O   UNL A   1      34.643  32.896  28.014  1.00  0.00    -0.376 OA
BRANCH  26  27
ATOM     27  C   UNL A   1      33.359  33.455  27.754  1.00  0.00     0.202 C 
BRANCH  27  28
ATOM     28  C   UNL A   1      33.032  34.828  28.368  1.00  0.00     0.261 C 
BRANCH  28  29
ATOM     29  O   UNL A   1      32.425  34.814  29.669  1.00  0.00    -0.460 OA
BRANCH  29  30
ATOM     30  C   UNL A   1      33.037  35.472  30.677  1.00  0.00     0.338 C 
ATOM     31  O   UNL A   1      32.618  36.437  31.290  1.00  0.00    -0.246 OA
BRANCH  30  32
ATOM     32  C   UNL A   1      34.220  34.669  31.064  1.00  0.00     0.060 A 
ATOM     33  C   UNL A   1      34.044  33.580  31.929  1.00  0.00     0.016 A 
ATOM     34  C   UNL A   1      35.480  34.952  30.529  1.00  0.00     0.016 A 
ATOM     35  C   UNL A   1      35.139  32.792  32.288  1.00  0.00     0.010 A 
ATOM     36  C   UNL A   1      36.578  34.176  30.905  1.00  0.00     0.010 A 
ATOM     37  C   UNL A   1      36.416  33.116  31.813  1.00  0.00    -0.014 A 
BRANCH  37  38
ATOM     38  C   UNL A   1      37.612  32.522  32.454  1.00  0.00     0.031 A 
ATOM     39  C   UNL A   1      38.275  31.369  31.750  1.00  0.00     0.074 A 
ATOM     40  C   UNL A   1      38.085  32.964  33.633  1.00  0.00     0.049 A 
ATOM     41  N   UNL A   1      39.318  30.667  32.107  1.00  0.00    -0.248 NA
ATOM     42  C   UNL A   1      37.675  30.950  30.470  1.00  0.00     0.031 C 
ATOM     43  C   UNL A   1      37.523  34.063  34.415  1.00  0.00     0.029 A 
ATOM     44  N   UNL A   1      39.137  32.513  34.390  1.00  0.00    -0.354 N 
ATOM     45  C   UNL A   1      39.488  29.717  31.108  1.00  0.00     0.074 A 
ATOM     46  C   UNL A   1      38.436  29.920  30.138  1.00  0.00     0.031 C 
ATOM     47  C   UNL A   1      38.220  34.182  35.560  1.00  0.00     0.029 A 
ATOM     48  C   UNL A   1      39.266  33.160  35.597  1.00  0.00     0.049 A 
ATOM     49  H   UNL A   1      39.743  31.794  34.098  1.00  0.00     0.167 HD
ATOM     50  C   UNL A   1      40.446  28.768  30.995  1.00  0.00     0.034 A 
ATOM     51  C   UNL A   1      40.123  32.938  36.615  1.00  0.00     0.034 A 
ATOM     52  C   UNL A   1      41.492  28.566  31.956  1.00  0.00     0.049 A 
ATOM     53  C   UNL A   1      41.166  31.856  36.478  1.00  0.00     0.074 A 
ATOM     54  C   UNL A   1      42.533  27.656  31.915  1.00  0.00     0.029 A 
ATOM     55  N   UNL A   1      41.620  29.273  33.140  1.00  0.00    -0.354 N 
ATOM     56  N   UNL A   1      41.404  31.060  35.463  1.00  0.00    -0.248 NA
ATOM     57  C   UNL A   1      42.081  31.663  37.615  1.00  0.00     0.031 C 
ATOM     58  C   UNL A   1      43.283  27.804  33.086  1.00  0.00     0.029 A 
ATOM     59  C   UNL A   1      42.718  28.816  33.846  1.00  0.00     0.049 A 
ATOM     60  H   UNL A   1      41.019  29.995  33.435  1.00  0.00     0.167 HD
ATOM     61  C   UNL A   1      42.513  30.299  35.823  1.00  0.00     0.074 A 
ATOM     62  C   UNL A   1      42.912  30.743  37.143  1.00  0.00     0.031 C 
ATOM     63  C   UNL A   1      43.136  29.312  35.131  1.00  0.00     0.034 A 
BRANCH  50  64
ATOM     64  C   UNL A   1      40.415  27.902  29.767  1.00  0.00     0.023 A 
ATOM     65  C   UNL A   1      39.534  26.802  29.719  1.00  0.00     0.012 A 
ATOM     66  C   UNL A   1      41.231  28.188  28.657  1.00  0.00     0.148 A 
ATOM     67  C   UNL A   1      39.486  25.981  28.594  1.00  0.00     0.002 A 
ATOM     68  C   UNL A   1      41.149  27.387  27.524  1.00  0.00     0.091 A 
ATOM     69  F   UNL A   1      42.085  29.217  28.737  1.00  0.00    -0.205 F 
ATOM     70  C   UNL A   1      40.286  26.279  27.494  1.00  0.00     0.022 A 
BRANCH  68  71
ATOM     71  S   UNL A   1      42.092  27.728  26.034  1.00  0.00     0.127 S 
ATOM     72  O   UNL A   1      41.752  26.576  25.199  1.00  0.00    -0.237 OA
ATOM     73  O   UNL A   1      41.517  28.996  25.587  1.00  0.00    -0.237 OA
ATOM     74  O   UNL A   1      43.485  27.810  26.453  1.00  0.00    -0.744 OA
ENDBRANCH  68  71
ENDBRANCH  50  64
BRANCH  51  75
ATOM     75  C   UNL A   1      40.066  33.786  37.841  1.00  0.00     0.023 A 
ATOM     76  C   UNL A   1      40.887  34.928  37.933  1.00  0.00     0.012 A 
ATOM     77  C   UNL A   1      39.206  33.473  38.911  1.00  0.00     0.148 A 
ATOM     78  C   UNL A   1      40.871  35.726  39.077  1.00  0.00     0.002 A 
ATOM     79  C   UNL A   1      39.158  34.302  40.027  1.00  0.00     0.091 A 
ATOM     80  F   UNL A   1      38.449  32.371  38.817  1.00  0.00    -0.205 F 
ATOM     81  C   UNL A   1      40.001  35.419  40.119  1.00  0.00     0.022 A 
BRANCH  79  82
ATOM     82  S   UNL A   1      37.982  34.051  41.362  1.00  0.00     0.127 S 
ATOM     83  O   UNL A   1      38.735  33.184  42.265  1.00  0.00    -0.237 OA
ATOM     84  O   UNL A   1      37.778  35.417  41.846  1.00  0.00    -0.237 OA
ATOM     85  O   UNL A   1      36.807  33.454  40.740  1.00  0.00    -0.744 OA
ENDBRANCH  79  82
ENDBRANCH  51  75
BRANCH  63  86
ATOM     86  C   UNL A   1      44.336  28.659  35.764  1.00  0.00     0.023 A 
ATOM     87  C   UNL A   1      45.630  29.112  35.439  1.00  0.00     0.012 A 
ATOM     88  C   UNL A   1      44.178  27.667  36.752  1.00  0.00     0.148 A 
ATOM     89  C   UNL A   1      46.749  28.571  36.070  1.00  0.00     0.002 A 
ATOM     90  C   UNL A   1      45.295  27.165  37.410  1.00  0.00     0.091 A 
ATOM     91  F   UNL A   1      42.940  27.236  37.035  1.00  0.00    -0.205 F 
ATOM     92  C   UNL A   1      46.582  27.609  37.063  1.00  0.00     0.022 A 
BRANCH  90  93
ATOM     93  S   UNL A   1      45.163  25.995  38.768  1.00  0.00     0.127 S 
ATOM     94  O   UNL A   1      44.552  24.842  38.109  1.00  0.00    -0.237 OA
ATOM     95  O   UNL A   1      46.560  25.807  39.158  1.00  0.00    -0.237 OA
ATOM     96  O   UNL A   1      44.341  26.650  39.777  1.00  0.00    -0.744 OA
ENDBRANCH  90  93
ENDBRANCH  63  86
ENDBRANCH  37  38
ENDBRANCH  30  32
ENDBRANCH  29  30
ENDBRANCH  28  29
ENDBRANCH  27  28
ENDBRANCH  26  27
ENDBRANCH  25  26
ENDBRANCH  24  25
ENDBRANCH   1  24
TORSDOF 27
ENDMDL
MODEL 2
REMARK VINA RESULT:      -9.0      2.507      8.119
REMARK SMILES CCOc1cc(/C=C(/F)C(=O)OCCOCCOCCOCCOC(=O)c2ccc(-c3c4nc(c(-c5cccc(S(=O)(=O)[O-])c5F)c5ccc([nH]5)c(-c5cccc(S(=O)(=O)[O-])c5F)c5nc(c(-c6cccc(S(=O)(=O)[O-])c6F)c6ccc3[nH]6)C=C5)C=C4)cc2)ccc1O
REMARK SMILES IDX 18 1 17 2 16 3 15 4 14 5 13 6 12 7 10 8 11 9 8 10 7 11 9 12
REMARK SMILES IDX 6 13 4 14 5 15 92 16 91 17 90 18 3 19 2 20 1 21 93 22 19 24
REMARK SMILES IDX 20 25 21 26 22 27 23 28 24 29 25 30 26 31 27 32 28 33 89 34
REMARK SMILES IDX 29 35 88 36 30 37 31 38 32 39 82 40 33 41 87 42 81 43 83 44
REMARK SMILES IDX 34 45 86 46 80 47 79 48 35 50 67 51 47 52 66 53 48 54 51 55
REMARK SMILES IDX 65 56 84 57 49 58 50 59 64 61 85 62 52 63 36 64 37 65 45 66
REMARK SMILES IDX 38 67 40 68 46 69 39 70 41 71 42 72 43 73 44 74 68 75 69 76
REMARK SMILES IDX 77 77 70 78 72 79 78 80 71 81 73 82 74 83 75 84 76 85 53 86
REMARK SMILES IDX 54 87 62 88 55 89 57 90 63 91 56 92 58 93 59 94 60 95 61 96
REMARK H PARENT 93 23 83 49 51 60
REMARK Flexibility Score: inf
ROOT
ATOM      1  O   UNL A   1      33.790  28.115  27.050  1.00  0.00    -0.377 OA
ENDROOT
BRANCH   1   2
ATOM      2  C   UNL A   1      33.013  27.102  26.422  1.00  0.00     0.188 C 
BRANCH   2   3
ATOM      3  C   UNL A   1      33.707  26.270  25.329  1.00  0.00     0.188 C 
BRANCH   3   4
ATOM      4  O   UNL A   1      33.828  24.883  25.654  1.00  0.00    -0.376 OA
BRANCH   4   5
ATOM      5  C   UNL A   1      35.150  24.373  25.809  1.00  0.00     0.202 C 
BRANCH   5   6
ATOM      6  C   UNL A   1      35.450  23.155  24.929  1.00  0.00     0.261 C 
BRANCH   6   7
ATOM      7  O   UNL A   1      34.877  21.949  25.461  1.00  0.00    -0.458 OA
BRANCH   7   8
ATOM      8  C   UNL A   1      35.384  20.779  25.008  1.00  0.00     0.367 C 
ATOM      9  O   UNL A   1      36.563  20.473  24.953  1.00  0.00    -0.243 OA
BRANCH   8  10
ATOM     10  C   UNL A   1      34.240  19.887  24.726  1.00  0.00     0.208 C 
ATOM     11  C   UNL A   1      32.950  20.210  24.544  1.00  0.00     0.055 C 
ATOM     12  F   UNL A   1      34.606  18.604  24.499  1.00  0.00    -0.199 F 
BRANCH  11  13
ATOM     13  C   UNL A   1      32.192  21.483  24.561  1.00  0.00    -0.019 A 
ATOM     14  C   UNL A   1      31.284  23.534  23.615  1.00  0.00     0.161 A 
ATOM     15  C   UNL A   1      32.046  22.368  23.483  1.00  0.00     0.058 A 
ATOM     16  C   UNL A   1      30.723  23.871  24.841  1.00  0.00     0.157 A 
ATOM     17  C   UNL A   1      30.833  23.011  25.918  1.00  0.00     0.051 A 
ATOM     18  C   UNL A   1      31.556  21.822  25.774  1.00  0.00     0.012 A 
BRANCH  14  19
ATOM     19  O   UNL A   1      31.162  24.403  22.562  1.00  0.00    -0.490 OA
BRANCH  19  20
ATOM     20  C   UNL A   1      32.422  25.005  22.216  1.00  0.00     0.226 C 
ATOM     21  C   UNL A   1      32.202  26.490  21.959  1.00  0.00     0.049 C 
ENDBRANCH  19  20
ENDBRANCH  14  19
BRANCH  16  22
ATOM     22  O   UNL A   1      30.090  25.066  25.017  1.00  0.00    -0.504 OA
ATOM     23  H   UNL A   1      29.740  25.525  24.279  1.00  0.00     0.293 HD
ENDBRANCH  16  22
ENDBRANCH  11  13
ENDBRANCH   8  10
ENDBRANCH   7   8
ENDBRANCH   6   7
ENDBRANCH   5   6
ENDBRANCH   4   5
ENDBRANCH   3   4
ENDBRANCH   2   3
ENDBRANCH   1   2
BRANCH   1  24
ATOM     24  C   UNL A   1      33.382  29.448  26.754  1.00  0.00     0.188 C 
BRANCH  24  25
ATOM     25  C   UNL A   1      34.204  30.483  27.545  1.00  0.00     0.188 C 
BRANCH  25  26
ATOM     26  O   UNL A   1      33.998  31.822  27.092  1.00  0.00    -0.376 OA
BRANCH  26  27
ATOM     27  C   UNL A   1      32.683  32.350  27.234  1.00  0.00     0.202 C 
BRANCH  27  28
ATOM     28  C   UNL A   1      32.531  33.871  27.414  1.00  0.00     0.261 C 
BRANCH  28  29
ATOM     29  O   UNL A   1      32.513  34.353  28.767  1.00  0.00    -0.460 OA
BRANCH  29  30
ATOM     30  C   UNL A   1      33.564  35.075  29.211  1.00  0.00     0.338 C 
ATOM     31  O   UNL A   1      33.579  36.261  29.489  1.00  0.00    -0.246 OA
BRANCH  30  32
ATOM     32  C   UNL A   1      34.649  34.117  29.522  1.00  0.00     0.060 A 
ATOM     33  C   UNL A   1      34.373  33.032  30.365  1.00  0.00     0.016 A 
ATOM     34  C   UNL A   1      35.911  34.254  28.935  1.00  0.00     0.016 A 
ATOM     35  C   UNL A   1      35.372  32.101  30.652  1.00  0.00     0.010 A 
ATOM     36  C   UNL A   1      36.916  33.334  29.239  1.00  0.00     0.010 A 
ATOM     37  C   UNL A   1      36.659  32.275  30.126  1.00  0.00    -0.014 A 
BRANCH  37  38
ATOM     38  C   UNL A   1      37.796  31.514  30.695  1.00  0.00     0.031 A 
ATOM     39  C   UNL A   1      38.176  31.799  32.122  1.00  0.00     0.074 A 
ATOM     40  C   UNL A   1      38.490  30.619  29.970  1.00  0.00     0.049 A 
ATOM     41  N   UNL A   1      39.136  31.286  32.844  1.00  0.00    -0.248 NA
ATOM     42  C   UNL A   1      37.363  32.806  32.829  1.00  0.00     0.031 C 
ATOM     43  C   UNL A   1      38.225  30.265  28.578  1.00  0.00     0.029 A 
ATOM     44  N   UNL A   1      39.585  29.863  30.309  1.00  0.00    -0.354 N 
ATOM     45  C   UNL A   1      39.053  31.916  34.079  1.00  0.00     0.074 A 
ATOM     46  C   UNL A   1      37.961  32.859  34.008  1.00  0.00     0.031 C 
ATOM     47  C   UNL A   1      39.154  29.381  28.169  1.00  0.00     0.029 A 
ATOM     48  C   UNL A   1      40.085  29.119  29.267  1.00  0.00     0.049 A 
ATOM     49  H   UNL A   1      39.976  29.855  31.212  1.00  0.00     0.167 HD
ATOM     50  C   UNL A   1      39.807  31.717  35.185  1.00  0.00     0.034 A 
ATOM     51  C   UNL A   1      41.177  28.329  29.208  1.00  0.00     0.034 A 
ATOM     52  C   UNL A   1      40.891  30.780  35.259  1.00  0.00     0.049 A 
ATOM     53  C   UNL A   1      42.020  28.143  30.447  1.00  0.00     0.074 A 
ATOM     54  C   UNL A   1      41.692  30.476  36.344  1.00  0.00     0.029 A 
ATOM     55  N   UNL A   1      41.337  30.006  34.199  1.00  0.00    -0.354 N 
ATOM     56  N   UNL A   1      41.843  28.637  31.649  1.00  0.00    -0.248 NA
ATOM     57  C   UNL A   1      43.195  27.265  30.330  1.00  0.00     0.031 C 
ATOM     58  C   UNL A   1      42.635  29.527  35.935  1.00  0.00     0.029 A 
ATOM     59  C   UNL A   1      42.409  29.231  34.599  1.00  0.00     0.049 A 
ATOM     60  H   UNL A   1      40.947  30.009  33.296  1.00  0.00     0.167 HD
ATOM     61  C   UNL A   1      42.858  28.103  32.437  1.00  0.00     0.074 A 
ATOM     62  C   UNL A   1      43.637  27.233  31.580  1.00  0.00     0.031 C 
ATOM     63  C   UNL A   1      43.133  28.323  33.747  1.00  0.00     0.034 A 
BRANCH  50  64
ATOM     64  C   UNL A   1      39.454  32.512  36.411  1.00  0.00     0.023 A 
ATOM     65  C   UNL A   1      40.089  33.751  36.638  1.00  0.00     0.012 A 
ATOM     66  C   UNL A   1      38.484  32.052  37.320  1.00  0.00     0.148 A 
ATOM     67  C   UNL A   1      39.783  34.507  37.767  1.00  0.00     0.002 A 
ATOM     68  C   UNL A   1      38.156  32.831  38.423  1.00  0.00     0.091 A 
ATOM     69  F   UNL A   1      37.918  30.857  37.103  1.00  0.00    -0.205 F 
ATOM     70  C   UNL A   1      38.810  34.053  38.654  1.00  0.00     0.022 A 
BRANCH  68  71
ATOM     71  S   UNL A   1      36.871  32.360  39.587  1.00  0.00     0.127 S 
ATOM     72  O   UNL A   1      37.289  31.008  39.957  1.00  0.00    -0.237 OA
ATOM     73  O   UNL A   1      37.030  33.359  40.644  1.00  0.00    -0.237 OA
ATOM     74  O   UNL A   1      35.616  32.450  38.853  1.00  0.00    -0.744 OA
ENDBRANCH  68  71
ENDBRANCH  50  64
BRANCH  51  75
ATOM     75  C   UNL A   1      41.520  27.615  27.944  1.00  0.00     0.023 A 
ATOM     76  C   UNL A   1      41.942  28.357  26.822  1.00  0.00     0.012 A 
ATOM     77  C   UNL A   1      41.435  26.214  27.846  1.00  0.00     0.148 A 
ATOM     78  C   UNL A   1      42.246  27.718  25.620  1.00  0.00     0.002 A 
ATOM     79  C   UNL A   1      41.789  25.579  26.660  1.00  0.00     0.091 A 
ATOM     80  F   UNL A   1      41.009  25.526  28.914  1.00  0.00    -0.205 F 
ATOM     81  C   UNL A   1      42.180  26.330  25.541  1.00  0.00     0.022 A 
BRANCH  79  82
ATOM     82  S   UNL A   1      41.848  23.790  26.506  1.00  0.00     0.127 S 
ATOM     83  O   UNL A   1      42.717  23.423  27.622  1.00  0.00    -0.237 OA
ATOM     84  O   UNL A   1      40.441  23.424  26.674  1.00  0.00    -0.237 OA
ATOM     85  O   UNL A   1      42.379  23.530  25.175  1.00  0.00    -0.744 OA
ENDBRANCH  79  82
ENDBRANCH  51  75
BRANCH  63  86
ATOM     86  C   UNL A   1      44.302  27.594  34.354  1.00  0.00     0.023 A 
ATOM     87  C   UNL A   1      45.541  28.252  34.488  1.00  0.00     0.012 A 
ATOM     88  C   UNL A   1      44.146  26.297  34.882  1.00  0.00     0.148 A 
ATOM     89  C   UNL A   1      46.614  27.620  35.115  1.00  0.00     0.002 A 
ATOM     90  C   UNL A   1      45.206  25.691  35.546  1.00  0.00     0.091 A 
ATOM     91  F   UNL A   1      42.965  25.681  34.729  1.00  0.00    -0.205 F 
ATOM     92  C   UNL A   1      46.444  26.347  35.655  1.00  0.00     0.022 A 
BRANCH  90  93
ATOM     93  S   UNL A   1      45.044  24.095  36.356  1.00  0.00     0.127 S 
ATOM     94  O   UNL A   1      43.878  23.534  35.676  1.00  0.00    -0.237 OA
ATOM     95  O   UNL A   1      46.313  23.446  36.028  1.00  0.00    -0.237 OA
ATOM     96  O   UNL A   1      44.866  24.385  37.772  1.00  0.00    -0.744 OA
ENDBRANCH  90  93
ENDBRANCH  63  86
ENDBRANCH  37  38
ENDBRANCH  30  32
ENDBRANCH  29  30
ENDBRANCH  28  29
ENDBRANCH  27  28
ENDBRANCH  26  27
ENDBRANCH  25  26
ENDBRANCH  24  25
ENDBRANCH   1  24
TORSDOF 27
ENDMDL
MODEL 3
REMARK VINA RESULT:      -9.0      1.297      2.121
REMARK SMILES CCOc1cc(/C=C(/F)C(=O)OCCOCCOCCOCCOC(=O)c2ccc(-c3c4nc(c(-c5cccc(S(=O)(=O)[O-])c5F)c5ccc([nH]5)c(-c5cccc(S(=O)(=O)[O-])c5F)c5nc(c(-c6cccc(S(=O)(=O)[O-])c6F)c6ccc3[nH]6)C=C5)C=C4)cc2)ccc1O
REMARK SMILES IDX 18 1 17 2 16 3 15 4 14 5 13 6 12 7 10 8 11 9 8 10 7 11 9 12
REMARK SMILES IDX 6 13 4 14 5 15 92 16 91 17 90 18 3 19 2 20 1 21 93 22 19 24
REMARK SMILES IDX 20 25 21 26 22 27 23 28 24 29 25 30 26 31 27 32 28 33 89 34
REMARK SMILES IDX 29 35 88 36 30 37 31 38 32 39 82 40 33 41 87 42 81 43 83 44
REMARK SMILES IDX 34 45 86 46 80 47 79 48 35 50 67 51 47 52 66 53 48 54 51 55
REMARK SMILES IDX 65 56 84 57 49 58 50 59 64 61 85 62 52 63 36 64 37 65 45 66
REMARK SMILES IDX 38 67 40 68 46 69 39 70 41 71 42 72 43 73 44 74 68 75 69 76
REMARK SMILES IDX 77 77 70 78 72 79 78 80 71 81 73 82 74 83 75 84 76 85 53 86
REMARK SMILES IDX 54 87 62 88 55 89 57 90 63 91 56 92 58 93 59 94 60 95 61 96
REMARK H PARENT 93 23 83 49 51 60
REMARK Flexibility Score: inf
ROOT
ATOM      1  O   UNL A   1      34.201  29.044  27.540  1.00  0.00    -0.377 OA
ENDROOT
BRANCH   1   2
ATOM      2  C   UNL A   1      33.668  28.121  26.598  1.00  0.00     0.188 C 
BRANCH   2   3
ATOM      3  C   UNL A   1      33.712  28.534  25.116  1.00  0.00     0.188 C 
BRANCH   3   4
ATOM      4  O   UNL A   1      33.794  27.428  24.214  1.00  0.00    -0.376 OA
BRANCH   4   5
ATOM      5  C   UNL A   1      33.281  27.631  22.900  1.00  0.00     0.202 C 
BRANCH   5   6
ATOM      6  C   UNL A   1      32.924  26.333  22.167  1.00  0.00     0.261 C 
BRANCH   6   7
ATOM      7  O   UNL A   1      34.068  25.483  21.989  1.00  0.00    -0.458 OA
BRANCH   7   8
ATOM      8  C   UNL A   1      33.922  24.182  22.333  1.00  0.00     0.367 C 
ATOM      9  O   UNL A   1      33.370  23.316  21.675  1.00  0.00    -0.243 OA
BRANCH   8  10
ATOM     10  C   UNL A   1      34.679  23.973  23.585  1.00  0.00     0.208 C 
ATOM     11  C   UNL A   1      34.210  23.835  24.836  1.00  0.00     0.055 C 
ATOM     12  F   UNL A   1      36.002  23.769  23.382  1.00  0.00    -0.199 F 
BRANCH  11  13
ATOM     13  C   UNL A   1      32.856  23.847  25.437  1.00  0.00    -0.019 A 
ATOM     14  C   UNL A   1      30.636  24.741  25.881  1.00  0.00     0.161 A 
ATOM     15  C   UNL A   1      31.894  24.855  25.279  1.00  0.00     0.058 A 
ATOM     16  C   UNL A   1      30.348  23.662  26.708  1.00  0.00     0.157 A 
ATOM     17  C   UNL A   1      31.268  22.643  26.868  1.00  0.00     0.051 A 
ATOM     18  C   UNL A   1      32.509  22.733  26.229  1.00  0.00     0.012 A 
BRANCH  14  19
ATOM     19  O   UNL A   1      29.709  25.740  25.737  1.00  0.00    -0.490 OA
BRANCH  19  20
ATOM     20  C   UNL A   1      30.021  26.607  24.633  1.00  0.00     0.226 C 
ATOM     21  C   UNL A   1      28.786  26.747  23.754  1.00  0.00     0.049 C 
ENDBRANCH  19  20
ENDBRANCH  14  19
BRANCH  16  22
ATOM     22  O   UNL A   1      29.176  23.605  27.403  1.00  0.00    -0.504 OA
ATOM     23  H   UNL A   1      29.149  23.189  28.243  1.00  0.00     0.293 HD
ENDBRANCH  16  22
ENDBRANCH  11  13
ENDBRANCH   8  10
ENDBRANCH   7   8
ENDBRANCH   6   7
ENDBRANCH   5   6
ENDBRANCH   4   5
ENDBRANCH   3   4
ENDBRANCH   2   3
ENDBRANCH   1   2
BRANCH   1  24
ATOM     24  C   UNL A   1      34.024  30.415  27.196  1.00  0.00     0.188 C 
BRANCH  24  25
ATOM     25  C   UNL A   1      34.852  31.341  28.107  1.00  0.00     0.188 C 
BRANCH  25  26
ATOM     26  O   UNL A   1      34.688  32.725  27.792  1.00  0.00    -0.376 OA
BRANCH  26  27
ATOM     27  C   UNL A   1      33.350  33.204  27.696  1.00  0.00     0.202 C 
BRANCH  27  28
ATOM     28  C   UNL A   1      33.042  34.602  28.261  1.00  0.00     0.261 C 
BRANCH  28  29
ATOM     29  O   UNL A   1      32.546  34.648  29.608  1.00  0.00    -0.460 OA
BRANCH  29  30
ATOM     30  C   UNL A   1      33.238  35.353  30.529  1.00  0.00     0.338 C 
ATOM     31  O   UNL A   1      32.887  36.373  31.094  1.00  0.00    -0.246 OA
BRANCH  30  32
ATOM     32  C   UNL A   1      34.417  34.539  30.903  1.00  0.00     0.060 A 
ATOM     33  C   UNL A   1      34.246  33.473  31.798  1.00  0.00     0.016 A 
ATOM     34  C   UNL A   1      35.667  34.787  30.328  1.00  0.00     0.016 A 
ATOM     35  C   UNL A   1      35.336  32.674  32.145  1.00  0.00     0.010 A 
ATOM     36  C   UNL A   1      36.761  34.001  30.693  1.00  0.00     0.010 A 
ATOM     37  C   UNL A   1      36.606  32.965  31.630  1.00  0.00    -0.014 A 
BRANCH  37  38
ATOM     38  C   UNL A   1      37.809  32.364  32.252  1.00  0.00     0.031 A 
ATOM     39  C   UNL A   1      38.468  31.223  31.527  1.00  0.00     0.074 A 
ATOM     40  C   UNL A   1      38.290  32.790  33.434  1.00  0.00     0.049 A 
ATOM     41  N   UNL A   1      39.515  30.518  31.865  1.00  0.00    -0.248 NA
ATOM     42  C   UNL A   1      37.858  30.821  30.246  1.00  0.00     0.031 C 
ATOM     43  C   UNL A   1      37.733  33.877  34.235  1.00  0.00     0.029 A 
ATOM     44  N   UNL A   1      39.349  32.331  34.176  1.00  0.00    -0.354 N 
ATOM     45  C   UNL A   1      39.679  29.582  30.852  1.00  0.00     0.074 A 
ATOM     46  C   UNL A   1      38.619  29.797  29.893  1.00  0.00     0.031 C 
ATOM     47  C   UNL A   1      38.439  33.982  35.376  1.00  0.00     0.029 A 
ATOM     48  C   UNL A   1      39.487  32.962  35.390  1.00  0.00     0.049 A 
ATOM     49  H   UNL A   1      39.954  31.618  33.868  1.00  0.00     0.167 HD
ATOM     50  C   UNL A   1      40.638  28.637  30.717  1.00  0.00     0.034 A 
ATOM     51  C   UNL A   1      40.353  32.728  36.397  1.00  0.00     0.034 A 
ATOM     52  C   UNL A   1      41.692  28.424  31.666  1.00  0.00     0.049 A 
ATOM     53  C   UNL A   1      41.397  31.650  36.237  1.00  0.00     0.074 A 
ATOM     54  C   UNL A   1      42.734  27.517  31.604  1.00  0.00     0.029 A 
ATOM     55  N   UNL A   1      41.829  29.115  32.860  1.00  0.00    -0.354 N 
ATOM     56  N   UNL A   1      41.628  30.869  35.209  1.00  0.00    -0.248 NA
ATOM     57  C   UNL A   1      42.321  31.443  37.363  1.00  0.00     0.031 C 
ATOM     58  C   UNL A   1      43.495  27.650  32.771  1.00  0.00     0.029 A 
ATOM     59  C   UNL A   1      42.933  28.651  33.549  1.00  0.00     0.049 A 
ATOM     60  H   UNL A   1      41.229  29.831  33.169  1.00  0.00     0.167 HD
ATOM     61  C   UNL A   1      42.741  30.106  35.549  1.00  0.00     0.074 A 
ATOM     62  C   UNL A   1      43.150  30.531  36.871  1.00  0.00     0.031 C 
ATOM     63  C   UNL A   1      43.361  29.130  34.838  1.00  0.00     0.034 A 
BRANCH  50  64
ATOM     64  C   UNL A   1      40.598  27.789  29.477  1.00  0.00     0.023 A 
ATOM     65  C   UNL A   1      39.688  26.714  29.404  1.00  0.00     0.012 A 
ATOM     66  C   UNL A   1      41.436  28.066  28.382  1.00  0.00     0.148 A 
ATOM     67  C   UNL A   1      39.632  25.910  28.268  1.00  0.00     0.002 A 
ATOM     68  C   UNL A   1      41.347  27.282  27.237  1.00  0.00     0.091 A 
ATOM     69  F   UNL A   1      42.317  29.070  28.486  1.00  0.00    -0.205 F 
ATOM     70  C   UNL A   1      40.454  26.199  27.182  1.00  0.00     0.022 A 
BRANCH  68  71
ATOM     71  S   UNL A   1      42.318  27.616  25.763  1.00  0.00     0.127 S 
ATOM     72  O   UNL A   1      43.682  27.503  26.277  1.00  0.00    -0.237 OA
ATOM     73  O   UNL A   1      41.909  26.531  24.871  1.00  0.00    -0.237 OA
ATOM     74  O   UNL A   1      41.923  28.946  25.319  1.00  0.00    -0.744 OA
ENDBRANCH  68  71
ENDBRANCH  50  64
BRANCH  51  75
ATOM     75  C   UNL A   1      40.304  33.558  37.636  1.00  0.00     0.023 A 
ATOM     76  C   UNL A   1      41.080  34.732  37.714  1.00  0.00     0.012 A 
ATOM     77  C   UNL A   1      39.496  33.198  38.730  1.00  0.00     0.148 A 
ATOM     78  C   UNL A   1      41.073  35.515  38.868  1.00  0.00     0.002 A 
ATOM     79  C   UNL A   1      39.453  34.011  39.858  1.00  0.00     0.091 A 
ATOM     80  F   UNL A   1      38.782  32.066  38.649  1.00  0.00    -0.205 F 
ATOM     81  C   UNL A   1      40.252  35.161  39.936  1.00  0.00     0.022 A 
BRANCH  79  82
ATOM     82  S   UNL A   1      38.336  33.696  41.230  1.00  0.00     0.127 S 
ATOM     83  O   UNL A   1      37.083  33.411  40.535  1.00  0.00    -0.237 OA
ATOM     84  O   UNL A   1      38.962  32.540  41.872  1.00  0.00    -0.237 OA
ATOM     85  O   UNL A   1      38.355  34.910  42.035  1.00  0.00    -0.744 OA
ENDBRANCH  79  82
ENDBRANCH  51  75
BRANCH  63  86
ATOM     86  C   UNL A   1      44.568  28.470  35.452  1.00  0.00     0.023 A 
ATOM     87  C   UNL A   1      45.852  28.992  35.200  1.00  0.00     0.012 A 
ATOM     88  C   UNL A   1      44.421  27.399  36.356  1.00  0.00     0.148 A 
ATOM     89  C   UNL A   1      46.974  28.441  35.818  1.00  0.00     0.002 A 
ATOM     90  C   UNL A   1      45.538  26.885  37.003  1.00  0.00     0.091 A 
ATOM     91  F   UNL A   1      43.193  26.905  36.570  1.00  0.00    -0.205 F 
ATOM     92  C   UNL A   1      46.817  27.399  36.728  1.00  0.00     0.022 A 
BRANCH  90  93
ATOM     93  S   UNL A   1      45.414  25.609  38.262  1.00  0.00     0.127 S 
ATOM     94  O   UNL A   1      44.912  26.366  39.407  1.00  0.00    -0.237 OA
ATOM     95  O   UNL A   1      44.449  24.680  37.674  1.00  0.00    -0.237 OA
ATOM     96  O   UNL A   1      46.758  25.065  38.409  1.00  0.00    -0.744 OA
ENDBRANCH  90  93
ENDBRANCH  63  86
ENDBRANCH  37  38
ENDBRANCH  30  32
ENDBRANCH  29  30
ENDBRANCH  28  29
ENDBRANCH  27  28
ENDBRANCH  26  27
ENDBRANCH  25  26
ENDBRANCH  24  25
ENDBRANCH   1  24
TORSDOF 27
ENDMDL
