MODEL 1
REMARK VINA RESULT:      -8.9      0.000      0.000
REMARK SMILES O=C(COc1ccc(N2C[C@@H](C(=O)OCCOCCOCCOCCOC(=O)c3ccc(-c4c5nc(c(-c6cccc(S(=O)(=O)[O-])c6F)c6ccc([nH]6)c(-c6cccc(S(=O)(=O)[O-])c6F)c6nc(c(-c7cccc(S(=O)(=O)[O-])c7F)c7ccc4[nH]7)C=C6)C=C5)cc3)CC2=O)cc1)Nc1ccc(Cl)cc1Cl
REMARK SMILES IDX 19 1 18 2 17 3 16 4 15 5 14 6 12 7 13 8 11 9 9 10 10 11
REMARK SMILES IDX 93 12 92 13 94 14 8 15 5 16 6 17 96 18 7 19 95 20 4 21 3 22
REMARK SMILES IDX 2 23 1 24 97 25 98 27 99 28 104 29 100 30 103 31 105 32
REMARK SMILES IDX 101 33 102 34 20 35 21 36 22 37 23 38 24 39 25 40 26 41
REMARK SMILES IDX 27 42 28 43 29 44 30 45 91 46 31 47 90 48 32 49 33 50 34 51
REMARK SMILES IDX 84 52 35 53 89 54 83 55 85 56 36 57 88 58 82 59 81 60 37 62
REMARK SMILES IDX 69 63 49 64 68 65 50 66 53 67 67 68 86 69 51 70 52 71 66 73
REMARK SMILES IDX 87 74 54 75 38 76 39 77 47 78 40 79 42 80 48 81 41 82 43 83
REMARK SMILES IDX 44 84 45 85 46 86 70 87 71 88 79 89 72 90 74 91 80 92 73 93
REMARK SMILES IDX 75 94 76 95 77 96 78 97 55 98 56 99 64 100 57 101 59 102
REMARK SMILES IDX 65 103 58 104 60 105 61 106 62 107 63 108
REMARK H PARENT 97 26 85 61 53 72
REMARK Flexibility Score: inf
ROOT
ATOM      1  C   UNL A   1      37.023  21.669  24.519  1.00  0.00     0.188 C 
ENDROOT
BRANCH   1   2
ATOM      2  C   UNL A   1      35.806  21.850  25.436  1.00  0.00     0.188 C 
BRANCH   2   3
ATOM      3  O   UNL A   1      34.714  20.943  25.428  1.00  0.00    -0.376 OA
BRANCH   3   4
ATOM      4  C   UNL A   1      33.379  21.367  25.180  1.00  0.00     0.202 C 
BRANCH   4   5
ATOM      5  C   UNL A   1      32.630  22.322  26.123  1.00  0.00     0.261 C 
BRANCH   5   6
ATOM      6  O   UNL A   1      31.772  23.269  25.478  1.00  0.00    -0.463 OA
BRANCH   6   7
ATOM      7  C   UNL A   1      31.530  24.402  26.161  1.00  0.00     0.311 C 
ATOM      8  O   UNL A   1      31.098  24.454  27.309  1.00  0.00    -0.252 OA
BRANCH   7   9
ATOM      9  C   UNL A   1      31.887  25.655  25.409  1.00  0.00     0.128 C 
ATOM     10  N   UNL A   1      32.590  27.812  25.866  1.00  0.00    -0.312 N 
ATOM     11  C   UNL A   1      32.694  26.480  26.378  1.00  0.00     0.141 C 
ATOM     12  C   UNL A   1      31.490  27.963  25.025  1.00  0.00     0.227 C 
ATOM     13  C   UNL A   1      30.817  26.630  24.921  1.00  0.00     0.117 C 
ATOM     14  O   UNL A   1      31.118  28.959  24.424  1.00  0.00    -0.274 OA
BRANCH  10  15
ATOM     15  C   UNL A   1      33.299  28.866  26.448  1.00  0.00     0.044 A 
ATOM     16  C   UNL A   1      34.597  30.919  27.808  1.00  0.00     0.120 A 
ATOM     17  C   UNL A   1      35.302  29.769  27.468  1.00  0.00     0.048 A 
ATOM     18  C   UNL A   1      33.266  31.055  27.424  1.00  0.00     0.048 A 
ATOM     19  C   UNL A   1      34.645  28.729  26.807  1.00  0.00     0.030 A 
ATOM     20  C   UNL A   1      32.622  30.041  26.745  1.00  0.00     0.030 A 
BRANCH  16  21
ATOM     21  O   UNL A   1      35.256  31.932  28.452  1.00  0.00    -0.484 OA
BRANCH  21  22
ATOM     22  C   UNL A   1      35.070  31.869  29.872  1.00  0.00     0.329 C 
BRANCH  22  23
ATOM     23  C   UNL A   1      36.217  31.219  30.657  1.00  0.00     0.262 C 
ATOM     24  O   UNL A   1      36.099  30.089  31.113  1.00  0.00    -0.271 OA
ATOM     25  N   UNL A   1      37.286  32.090  30.855  1.00  0.00    -0.322 N 
ATOM     26  H   UNL A   1      37.299  32.925  30.332  1.00  0.00     0.170 HD
BRANCH  25  27
ATOM     27  C   UNL A   1      38.357  31.859  31.754  1.00  0.00     0.060 A 
ATOM     28  C   UNL A   1      39.553  31.406  31.166  1.00  0.00     0.029 A 
ATOM     29  C   UNL A   1      38.328  32.074  33.143  1.00  0.00     0.066 A 
ATOM     30  C   UNL A   1      40.713  31.250  31.931  1.00  0.00     0.023 A 
ATOM     31  C   UNL A   1      39.496  31.928  33.903  1.00  0.00     0.043 A 
ATOM     32  Cl  UNL A   1      36.862  32.303  34.033  1.00  0.00    -0.082 Cl
ATOM     33  C   UNL A   1      40.681  31.525  33.293  1.00  0.00     0.042 A 
ATOM     34  Cl  UNL A   1      42.104  31.312  34.236  1.00  0.00    -0.084 Cl
ENDBRANCH  25  27
ENDBRANCH  22  23
ENDBRANCH  21  22
ENDBRANCH  16  21
ENDBRANCH  10  15
ENDBRANCH   7   9
ENDBRANCH   6   7
ENDBRANCH   5   6
ENDBRANCH   4   5
ENDBRANCH   3   4
ENDBRANCH   2   3
ENDBRANCH   1   2
BRANCH   1  35
ATOM     35  O   UNL A   1      38.123  21.006  25.095  1.00  0.00    -0.377 OA
BRANCH  35  36
ATOM     36  C   UNL A   1      38.899  21.739  26.036  1.00  0.00     0.188 C 
BRANCH  36  37
ATOM     37  C   UNL A   1      40.268  21.157  26.445  1.00  0.00     0.188 C 
BRANCH  37  38
ATOM     38  O   UNL A   1      41.388  21.882  25.950  1.00  0.00    -0.376 OA
BRANCH  38  39
ATOM     39  C   UNL A   1      42.696  21.376  26.183  1.00  0.00     0.202 C 
BRANCH  39  40
ATOM     40  C   UNL A   1      43.877  22.362  26.239  1.00  0.00     0.261 C 
BRANCH  40  41
ATOM     41  O   UNL A   1      43.928  23.254  27.363  1.00  0.00    -0.460 OA
BRANCH  41  42
ATOM     42  C   UNL A   1      43.404  24.488  27.224  1.00  0.00     0.338 C 
ATOM     43  O   UNL A   1      42.246  24.817  27.426  1.00  0.00    -0.246 OA
BRANCH  42  44
ATOM     44  C   UNL A   1      44.519  25.432  27.000  1.00  0.00     0.060 A 
ATOM     45  C   UNL A   1      45.210  25.938  28.110  1.00  0.00     0.016 A 
ATOM     46  C   UNL A   1      44.883  25.816  25.707  1.00  0.00     0.016 A 
ATOM     47  C   UNL A   1      46.237  26.864  27.933  1.00  0.00     0.010 A 
ATOM     48  C   UNL A   1      45.896  26.765  25.534  1.00  0.00     0.010 A 
ATOM     49  C   UNL A   1      46.549  27.322  26.648  1.00  0.00    -0.014 A 
BRANCH  49  50
ATOM     50  C   UNL A   1      47.402  28.526  26.488  1.00  0.00     0.031 A 
ATOM     51  C   UNL A   1      46.738  29.878  26.542  1.00  0.00     0.074 A 
ATOM     52  C   UNL A   1      48.731  28.430  26.309  1.00  0.00     0.049 A 
ATOM     53  N   UNL A   1      47.262  31.063  26.381  1.00  0.00    -0.248 NA
ATOM     54  C   UNL A   1      45.290  29.892  26.812  1.00  0.00     0.031 C 
ATOM     55  C   UNL A   1      49.492  27.183  26.258  1.00  0.00     0.029 A 
ATOM     56  N   UNL A   1      49.674  29.408  26.106  1.00  0.00    -0.354 N 
ATOM     57  C   UNL A   1      46.206  31.960  26.488  1.00  0.00     0.074 A 
ATOM     58  C   UNL A   1      45.011  31.185  26.732  1.00  0.00     0.031 C 
ATOM     59  C   UNL A   1      50.781  27.470  25.999  1.00  0.00     0.029 A 
ATOM     60  C   UNL A   1      50.929  28.914  25.836  1.00  0.00     0.049 A 
ATOM     61  H   UNL A   1      49.471  30.371  26.150  1.00  0.00     0.167 HD
ATOM     62  C   UNL A   1      46.230  33.310  26.397  1.00  0.00     0.034 A 
ATOM     63  C   UNL A   1      52.056  29.556  25.464  1.00  0.00     0.034 A 
ATOM     64  C   UNL A   1      47.421  34.082  26.177  1.00  0.00     0.049 A 
ATOM     65  C   UNL A   1      52.043  31.061  25.339  1.00  0.00     0.074 A 
ATOM     66  C   UNL A   1      47.553  35.459  26.129  1.00  0.00     0.029 A 
ATOM     67  N   UNL A   1      48.679  33.550  25.948  1.00  0.00    -0.354 N 
ATOM     68  N   UNL A   1      51.062  31.902  25.564  1.00  0.00    -0.248 NA
ATOM     69  C   UNL A   1      53.302  31.707  24.939  1.00  0.00     0.031 C 
ATOM     70  C   UNL A   1      48.883  35.758  25.824  1.00  0.00     0.029 A 
ATOM     71  C   UNL A   1      49.589  34.570  25.738  1.00  0.00     0.049 A 
ATOM     72  H   UNL A   1      48.893  32.589  25.938  1.00  0.00     0.167 HD
ATOM     73  C   UNL A   1      51.599  33.172  25.380  1.00  0.00     0.074 A 
ATOM     74  C   UNL A   1      52.995  32.992  25.044  1.00  0.00     0.031 C 
ATOM     75  C   UNL A   1      50.990  34.380  25.468  1.00  0.00     0.034 A 
BRANCH  62  76
ATOM     76  C   UNL A   1      44.929  34.054  26.535  1.00  0.00     0.023 A 
ATOM     77  C   UNL A   1      44.164  34.358  25.392  1.00  0.00     0.012 A 
ATOM     78  C   UNL A   1      44.421  34.360  27.813  1.00  0.00     0.148 A 
ATOM     79  C   UNL A   1      42.918  34.969  25.519  1.00  0.00     0.002 A 
ATOM     80  C   UNL A   1      43.159  34.925  27.933  1.00  0.00     0.091 A 
ATOM     81  F   UNL A   1      45.178  34.081  28.884  1.00  0.00    -0.205 F 
ATOM     82  C   UNL A   1      42.410  35.239  26.787  1.00  0.00     0.022 A 
BRANCH  80  83
ATOM     83  S   UNL A   1      42.381  35.232  29.522  1.00  0.00     0.127 S 
ATOM     84  O   UNL A   1      43.349  36.128  30.156  1.00  0.00    -0.237 OA
ATOM     85  O   UNL A   1      41.126  35.870  29.128  1.00  0.00    -0.237 OA
ATOM     86  O   UNL A   1      42.234  33.931  30.159  1.00  0.00    -0.744 OA
ENDBRANCH  80  83
ENDBRANCH  62  76
BRANCH  63  87
ATOM     87  C   UNL A   1      53.303  28.792  25.170  1.00  0.00     0.023 A 
ATOM     88  C   UNL A   1      54.113  28.334  26.229  1.00  0.00     0.012 A 
ATOM     89  C   UNL A   1      53.712  28.555  23.844  1.00  0.00     0.148 A 
ATOM     90  C   UNL A   1      55.331  27.704  25.972  1.00  0.00     0.002 A 
ATOM     91  C   UNL A   1      54.895  27.870  23.596  1.00  0.00     0.091 A 
ATOM     92  F   UNL A   1      52.940  29.014  22.849  1.00  0.00    -0.205 F 
ATOM     93  C   UNL A   1      55.719  27.464  24.657  1.00  0.00     0.022 A 
BRANCH  91  94
ATOM     94  S   UNL A   1      55.405  27.406  21.938  1.00  0.00     0.127 S 
ATOM     95  O   UNL A   1      54.344  26.480  21.550  1.00  0.00    -0.237 OA
ATOM     96  O   UNL A   1      55.383  28.696  21.248  1.00  0.00    -0.237 OA
ATOM     97  O   UNL A   1      56.732  26.826  22.087  1.00  0.00    -0.744 OA
ENDBRANCH  91  94
ENDBRANCH  63  87
BRANCH  75  98
ATOM     98  C   UNL A   1      51.833  35.614  25.270  1.00  0.00     0.023 A 
ATOM     99  C   UNL A   1      52.140  36.065  23.972  1.00  0.00     0.012 A 
ATOM    100  C   UNL A   1      52.254  36.370  26.383  1.00  0.00     0.148 A 
ATOM    101  C   UNL A   1      52.887  37.228  23.785  1.00  0.00     0.002 A 
ATOM    102  C   UNL A   1      52.949  37.557  26.188  1.00  0.00     0.091 A 
ATOM    103  F   UNL A   1      51.963  35.918  27.611  1.00  0.00    -0.205 F 
ATOM    104  C   UNL A   1      53.279  37.980  24.891  1.00  0.00     0.022 A 
BRANCH 102 105
ATOM    105  S   UNL A   1      53.404  38.642  27.546  1.00  0.00     0.127 S 
ATOM    106  O   UNL A   1      53.814  39.852  26.836  1.00  0.00    -0.237 OA
ATOM    107  O   UNL A   1      52.144  38.763  28.280  1.00  0.00    -0.237 OA
ATOM    108  O   UNL A   1      54.465  37.957  28.272  1.00  0.00    -0.744 OA
ENDBRANCH 102 105
ENDBRANCH  75  98
ENDBRANCH  49  50
ENDBRANCH  42  44
ENDBRANCH  41  42
ENDBRANCH  40  41
ENDBRANCH  39  40
ENDBRANCH  38  39
ENDBRANCH  37  38
ENDBRANCH  36  37
ENDBRANCH  35  36
ENDBRANCH   1  35
TORSDOF 28
ENDMDL
MODEL 2
REMARK VINA RESULT:      -8.9      1.690      2.113
REMARK SMILES O=C(COc1ccc(N2C[C@@H](C(=O)OCCOCCOCCOCCOC(=O)c3ccc(-c4c5nc(c(-c6cccc(S(=O)(=O)[O-])c6F)c6ccc([nH]6)c(-c6cccc(S(=O)(=O)[O-])c6F)c6nc(c(-c7cccc(S(=O)(=O)[O-])c7F)c7ccc4[nH]7)C=C6)C=C5)cc3)CC2=O)cc1)Nc1ccc(Cl)cc1Cl
REMARK SMILES IDX 19 1 18 2 17 3 16 4 15 5 14 6 12 7 13 8 11 9 9 10 10 11
REMARK SMILES IDX 93 12 92 13 94 14 8 15 5 16 6 17 96 18 7 19 95 20 4 21 3 22
REMARK SMILES IDX 2 23 1 24 97 25 98 27 99 28 104 29 100 30 103 31 105 32
REMARK SMILES IDX 101 33 102 34 20 35 21 36 22 37 23 38 24 39 25 40 26 41
REMARK SMILES IDX 27 42 28 43 29 44 30 45 91 46 31 47 90 48 32 49 33 50 34 51
REMARK SMILES IDX 84 52 35 53 89 54 83 55 85 56 36 57 88 58 82 59 81 60 37 62
REMARK SMILES IDX 69 63 49 64 68 65 50 66 53 67 67 68 86 69 51 70 52 71 66 73
REMARK SMILES IDX 87 74 54 75 38 76 39 77 47 78 40 79 42 80 48 81 41 82 43 83
REMARK SMILES IDX 44 84 45 85 46 86 70 87 71 88 79 89 72 90 74 91 80 92 73 93
REMARK SMILES IDX 75 94 76 95 77 96 78 97 55 98 56 99 64 100 57 101 59 102
REMARK SMILES IDX 65 103 58 104 60 105 61 106 62 107 63 108
REMARK H PARENT 97 26 85 61 53 72
REMARK Flexibility Score: inf
ROOT
ATOM      1  C   UNL A   1      37.224  21.531  24.857  1.00  0.00     0.188 C 
ENDROOT
BRANCH   1   2
ATOM      2  C   UNL A   1      35.950  21.642  25.707  1.00  0.00     0.188 C 
BRANCH   2   3
ATOM      3  O   UNL A   1      34.966  20.620  25.728  1.00  0.00    -0.376 OA
BRANCH   3   4
ATOM      4  C   UNL A   1      33.603  20.874  25.410  1.00  0.00     0.202 C 
BRANCH   4   5
ATOM      5  C   UNL A   1      32.705  21.761  26.286  1.00  0.00     0.261 C 
BRANCH   5   6
ATOM      6  O   UNL A   1      31.715  22.517  25.578  1.00  0.00    -0.463 OA
BRANCH   6   7
ATOM      7  C   UNL A   1      31.317  23.658  26.167  1.00  0.00     0.311 C 
ATOM      8  O   UNL A   1      30.909  23.750  27.322  1.00  0.00    -0.252 OA
BRANCH   7   9
ATOM      9  C   UNL A   1      31.457  24.874  25.294  1.00  0.00     0.128 C 
ATOM     10  N   UNL A   1      31.959  27.123  25.518  1.00  0.00    -0.312 N 
ATOM     11  C   UNL A   1      32.260  25.855  26.110  1.00  0.00     0.141 C 
ATOM     12  C   UNL A   1      30.772  27.090  24.792  1.00  0.00     0.227 C 
ATOM     13  C   UNL A   1      30.243  25.691  24.855  1.00  0.00     0.117 C 
ATOM     14  O   UNL A   1      30.234  27.991  24.165  1.00  0.00    -0.274 OA
BRANCH  10  15
ATOM     15  C   UNL A   1      32.601  28.287  25.945  1.00  0.00     0.044 A 
ATOM     16  C   UNL A   1      33.772  30.582  27.001  1.00  0.00     0.120 A 
ATOM     17  C   UNL A   1      34.550  29.446  26.801  1.00  0.00     0.048 A 
ATOM     18  C   UNL A   1      32.432  30.579  26.628  1.00  0.00     0.048 A 
ATOM     19  C   UNL A   1      33.957  28.287  26.293  1.00  0.00     0.030 A 
ATOM     20  C   UNL A   1      31.850  29.445  26.099  1.00  0.00     0.030 A 
BRANCH  16  21
ATOM     21  O   UNL A   1      34.368  31.711  27.495  1.00  0.00    -0.484 OA
BRANCH  21  22
ATOM     22  C   UNL A   1      33.961  31.981  28.842  1.00  0.00     0.329 C 
BRANCH  22  23
ATOM     23  C   UNL A   1      35.079  32.436  29.789  1.00  0.00     0.262 C 
ATOM     24  O   UNL A   1      36.246  32.441  29.418  1.00  0.00    -0.271 OA
ATOM     25  N   UNL A   1      34.611  32.711  31.072  1.00  0.00    -0.322 N 
ATOM     26  H   UNL A   1      33.637  32.782  31.199  1.00  0.00     0.170 HD
BRANCH  25  27
ATOM     27  C   UNL A   1      35.439  32.896  32.208  1.00  0.00     0.060 A 
ATOM     28  C   UNL A   1      35.442  34.195  32.749  1.00  0.00     0.029 A 
ATOM     29  C   UNL A   1      36.207  31.902  32.839  1.00  0.00     0.066 A 
ATOM     30  C   UNL A   1      36.127  34.476  33.933  1.00  0.00     0.023 A 
ATOM     31  C   UNL A   1      36.883  32.186  34.033  1.00  0.00     0.043 A 
ATOM     32  Cl  UNL A   1      36.559  30.374  32.108  1.00  0.00    -0.082 Cl
ATOM     33  C   UNL A   1      36.834  33.466  34.577  1.00  0.00     0.042 A 
ATOM     34  Cl  UNL A   1      37.694  33.820  36.024  1.00  0.00    -0.084 Cl
ENDBRANCH  25  27
ENDBRANCH  22  23
ENDBRANCH  21  22
ENDBRANCH  16  21
ENDBRANCH  10  15
ENDBRANCH   7   9
ENDBRANCH   6   7
ENDBRANCH   5   6
ENDBRANCH   4   5
ENDBRANCH   3   4
ENDBRANCH   2   3
ENDBRANCH   1   2
BRANCH   1  35
ATOM     35  O   UNL A   1      38.282  20.809  25.442  1.00  0.00    -0.377 OA
BRANCH  35  36
ATOM     36  C   UNL A   1      39.308  21.566  26.072  1.00  0.00     0.188 C 
BRANCH  36  37
ATOM     37  C   UNL A   1      40.673  20.880  26.294  1.00  0.00     0.188 C 
BRANCH  37  38
ATOM     38  O   UNL A   1      41.768  21.527  25.659  1.00  0.00    -0.376 OA
BRANCH  38  39
ATOM     39  C   UNL A   1      43.065  20.956  25.766  1.00  0.00     0.202 C 
BRANCH  39  40
ATOM     40  C   UNL A   1      44.295  21.880  25.696  1.00  0.00     0.261 C 
BRANCH  40  41
ATOM     41  O   UNL A   1      44.712  22.502  26.921  1.00  0.00    -0.460 OA
BRANCH  41  42
ATOM     42  C   UNL A   1      44.240  23.731  27.207  1.00  0.00     0.338 C 
ATOM     43  O   UNL A   1      43.204  23.997  27.796  1.00  0.00    -0.246 OA
BRANCH  42  44
ATOM     44  C   UNL A   1      45.298  24.711  26.883  1.00  0.00     0.060 A 
ATOM     45  C   UNL A   1      46.250  25.025  27.863  1.00  0.00     0.016 A 
ATOM     46  C   UNL A   1      45.354  25.316  25.626  1.00  0.00     0.016 A 
ATOM     47  C   UNL A   1      47.234  25.979  27.604  1.00  0.00     0.010 A 
ATOM     48  C   UNL A   1      46.326  26.290  25.376  1.00  0.00     0.010 A 
ATOM     49  C   UNL A   1      47.244  26.654  26.377  1.00  0.00    -0.014 A 
BRANCH  49  50
ATOM     50  C   UNL A   1      48.071  27.876  26.224  1.00  0.00     0.031 A 
ATOM     51  C   UNL A   1      47.492  29.188  26.685  1.00  0.00     0.074 A 
ATOM     52  C   UNL A   1      49.308  27.828  25.697  1.00  0.00     0.049 A 
ATOM     53  N   UNL A   1      48.001  30.389  26.609  1.00  0.00    -0.248 NA
ATOM     54  C   UNL A   1      46.160  29.138  27.313  1.00  0.00     0.031 C 
ATOM     55  C   UNL A   1      49.986  26.619  25.233  1.00  0.00     0.029 A 
ATOM     56  N   UNL A   1      50.204  28.837  25.439  1.00  0.00    -0.354 N 
ATOM     57  C   UNL A   1      47.039  31.240  27.140  1.00  0.00     0.074 A 
ATOM     58  C   UNL A   1      45.916  30.421  27.539  1.00  0.00     0.031 C 
ATOM     59  C   UNL A   1      51.177  26.962  24.710  1.00  0.00     0.029 A 
ATOM     60  C   UNL A   1      51.332  28.414  24.775  1.00  0.00     0.049 A 
ATOM     61  H   UNL A   1      50.053  29.773  25.704  1.00  0.00     0.167 HD
ATOM     62  C   UNL A   1      47.087  32.584  27.288  1.00  0.00     0.034 A 
ATOM     63  C   UNL A   1      52.351  29.125  24.249  1.00  0.00     0.034 A 
ATOM     64  C   UNL A   1      48.211  33.396  26.913  1.00  0.00     0.049 A 
ATOM     65  C   UNL A   1      52.360  30.627  24.402  1.00  0.00     0.074 A 
ATOM     66  C   UNL A   1      48.376  34.760  27.079  1.00  0.00     0.029 A 
ATOM     67  N   UNL A   1      49.351  32.927  26.281  1.00  0.00    -0.354 N 
ATOM     68  N   UNL A   1      51.500  31.403  25.015  1.00  0.00    -0.248 NA
ATOM     69  C   UNL A   1      53.501  31.348  23.816  1.00  0.00     0.031 C 
ATOM     70  C   UNL A   1      49.596  35.124  26.505  1.00  0.00     0.029 A 
ATOM     71  C   UNL A   1      50.215  33.979  26.031  1.00  0.00     0.049 A 
ATOM     72  H   UNL A   1      49.521  31.987  26.045  1.00  0.00     0.167 HD
ATOM     73  C   UNL A   1      52.018  32.691  24.930  1.00  0.00     0.074 A 
ATOM     74  C   UNL A   1      53.276  32.590  24.223  1.00  0.00     0.031 C 
ATOM     75  C   UNL A   1      51.495  33.856  25.384  1.00  0.00     0.034 A 
BRANCH  62  76
ATOM     76  C   UNL A   1      45.891  33.277  27.883  1.00  0.00     0.023 A 
ATOM     77  C   UNL A   1      45.735  33.338  29.282  1.00  0.00     0.012 A 
ATOM     78  C   UNL A   1      44.979  33.955  27.051  1.00  0.00     0.148 A 
ATOM     79  C   UNL A   1      44.678  34.052  29.844  1.00  0.00     0.002 A 
ATOM     80  C   UNL A   1      43.957  34.704  27.620  1.00  0.00     0.091 A 
ATOM     81  F   UNL A   1      45.136  33.864  25.724  1.00  0.00    -0.205 F 
ATOM     82  C   UNL A   1      43.799  34.746  29.015  1.00  0.00     0.022 A 
BRANCH  80  83
ATOM     83  S   UNL A   1      42.827  35.701  26.644  1.00  0.00     0.127 S 
ATOM     84  O   UNL A   1      42.888  35.028  25.346  1.00  0.00    -0.237 OA
ATOM     85  O   UNL A   1      41.567  35.525  27.364  1.00  0.00    -0.237 OA
ATOM     86  O   UNL A   1      43.361  37.055  26.663  1.00  0.00    -0.744 OA
ENDBRANCH  80  83
ENDBRANCH  62  76
BRANCH  63  87
ATOM     87  C   UNL A   1      53.455  28.440  23.516  1.00  0.00     0.023 A 
ATOM     88  C   UNL A   1      54.616  28.041  24.208  1.00  0.00     0.012 A 
ATOM     89  C   UNL A   1      53.377  28.222  22.127  1.00  0.00     0.148 A 
ATOM     90  C   UNL A   1      55.698  27.488  23.522  1.00  0.00     0.002 A 
ATOM     91  C   UNL A   1      54.433  27.612  21.461  1.00  0.00     0.091 A 
ATOM     92  F   UNL A   1      52.274  28.625  21.482  1.00  0.00    -0.205 F 
ATOM     93  C   UNL A   1      55.605  27.267  22.151  1.00  0.00     0.022 A 
BRANCH  91  94
ATOM     94  S   UNL A   1      54.344  27.173  19.723  1.00  0.00     0.127 S 
ATOM     95  O   UNL A   1      55.651  26.556  19.506  1.00  0.00    -0.237 OA
ATOM     96  O   UNL A   1      53.213  26.245  19.708  1.00  0.00    -0.237 OA
ATOM     97  O   UNL A   1      54.106  28.423  19.016  1.00  0.00    -0.744 OA
ENDBRANCH  91  94
ENDBRANCH  63  87
BRANCH  75  98
ATOM     98  C   UNL A   1      52.304  35.115  25.202  1.00  0.00     0.023 A 
ATOM     99  C   UNL A   1      52.085  35.945  24.085  1.00  0.00     0.012 A 
ATOM    100  C   UNL A   1      53.231  35.510  26.187  1.00  0.00     0.148 A 
ATOM    101  C   UNL A   1      52.805  37.130  23.933  1.00  0.00     0.002 A 
ATOM    102  C   UNL A   1      53.903  36.719  26.057  1.00  0.00     0.091 A 
ATOM    103  F   UNL A   1      53.435  34.699  27.235  1.00  0.00    -0.205 F 
ATOM    104  C   UNL A   1      53.703  37.523  24.924  1.00  0.00     0.022 A 
BRANCH 102 105
ATOM    105  S   UNL A   1      54.999  37.354  27.331  1.00  0.00     0.127 S 
ATOM    106  O   UNL A   1      55.971  36.270  27.455  1.00  0.00    -0.237 OA
ATOM    107  O   UNL A   1      55.521  38.573  26.710  1.00  0.00    -0.237 OA
ATOM    108  O   UNL A   1      54.167  37.582  28.504  1.00  0.00    -0.744 OA
ENDBRANCH 102 105
ENDBRANCH  75  98
ENDBRANCH  49  50
ENDBRANCH  42  44
ENDBRANCH  41  42
ENDBRANCH  40  41
ENDBRANCH  39  40
ENDBRANCH  38  39
ENDBRANCH  37  38
ENDBRANCH  36  37
ENDBRANCH  35  36
ENDBRANCH   1  35
TORSDOF 28
ENDMDL
MODEL 3
REMARK VINA RESULT:      -8.5      6.038     11.618
REMARK SMILES O=C(COc1ccc(N2C[C@@H](C(=O)OCCOCCOCCOCCOC(=O)c3ccc(-c4c5nc(c(-c6cccc(S(=O)(=O)[O-])c6F)c6ccc([nH]6)c(-c6cccc(S(=O)(=O)[O-])c6F)c6nc(c(-c7cccc(S(=O)(=O)[O-])c7F)c7ccc4[nH]7)C=C6)C=C5)cc3)CC2=O)cc1)Nc1ccc(Cl)cc1Cl
REMARK SMILES IDX 19 1 18 2 17 3 16 4 15 5 14 6 12 7 13 8 11 9 9 10 10 11
REMARK SMILES IDX 93 12 92 13 94 14 8 15 5 16 6 17 96 18 7 19 95 20 4 21 3 22
REMARK SMILES IDX 2 23 1 24 97 25 98 27 99 28 104 29 100 30 103 31 105 32
REMARK SMILES IDX 101 33 102 34 20 35 21 36 22 37 23 38 24 39 25 40 26 41
REMARK SMILES IDX 27 42 28 43 29 44 30 45 91 46 31 47 90 48 32 49 33 50 34 51
REMARK SMILES IDX 84 52 35 53 89 54 83 55 85 56 36 57 88 58 82 59 81 60 37 62
REMARK SMILES IDX 69 63 49 64 68 65 50 66 53 67 67 68 86 69 51 70 52 71 66 73
REMARK SMILES IDX 87 74 54 75 38 76 39 77 47 78 40 79 42 80 48 81 41 82 43 83
REMARK SMILES IDX 44 84 45 85 46 86 70 87 71 88 79 89 72 90 74 91 80 92 73 93
REMARK SMILES IDX 75 94 76 95 77 96 78 97 55 98 56 99 64 100 57 101 59 102
REMARK SMILES IDX 65 103 58 104 60 105 61 106 62 107 63 108
REMARK H PARENT 97 26 85 61 53 72
REMARK Flexibility Score: inf
ROOT
ATOM      1  C   UNL A   1      35.083  34.421  29.195  1.00  0.00     0.188 C 
ENDROOT
BRANCH   1   2
ATOM      2  C   UNL A   1      34.934  33.089  29.942  1.00  0.00     0.188 C 
BRANCH   2   3
ATOM      3  O   UNL A   1      36.046  32.257  30.230  1.00  0.00    -0.376 OA
BRANCH   3   4
ATOM      4  C   UNL A   1      36.623  31.399  29.253  1.00  0.00     0.202 C 
BRANCH   4   5
ATOM      5  C   UNL A   1      36.241  29.916  29.129  1.00  0.00     0.261 C 
BRANCH   5   6
ATOM      6  O   UNL A   1      37.274  28.987  29.475  1.00  0.00    -0.463 OA
BRANCH   6   7
ATOM      7  C   UNL A   1      37.743  29.074  30.732  1.00  0.00     0.311 C 
ATOM      8  O   UNL A   1      37.059  28.975  31.748  1.00  0.00    -0.252 OA
BRANCH   7   9
ATOM      9  C   UNL A   1      39.233  29.257  30.815  1.00  0.00     0.128 C 
ATOM     10  N   UNL A   1      41.118  28.724  29.581  1.00  0.00    -0.312 N 
ATOM     11  C   UNL A   1      39.734  29.048  29.409  1.00  0.00     0.141 C 
ATOM     12  C   UNL A   1      41.390  28.269  30.868  1.00  0.00     0.227 C 
ATOM     13  C   UNL A   1      40.112  28.323  31.645  1.00  0.00     0.117 C 
ATOM     14  O   UNL A   1      42.459  27.916  31.345  1.00  0.00    -0.274 OA
BRANCH  10  15
ATOM     15  C   UNL A   1      41.961  28.555  28.480  1.00  0.00     0.044 A 
ATOM     16  C   UNL A   1      43.448  28.205  26.153  1.00  0.00     0.120 A 
ATOM     17  C   UNL A   1      43.437  29.448  26.779  1.00  0.00     0.048 A 
ATOM     18  C   UNL A   1      42.760  27.137  26.720  1.00  0.00     0.048 A 
ATOM     19  C   UNL A   1      42.672  29.629  27.934  1.00  0.00     0.030 A 
ATOM     20  C   UNL A   1      42.025  27.306  27.877  1.00  0.00     0.030 A 
BRANCH  16  21
ATOM     21  O   UNL A   1      44.207  28.041  25.025  1.00  0.00    -0.484 OA
BRANCH  21  22
ATOM     22  C   UNL A   1      45.301  27.142  25.247  1.00  0.00     0.329 C 
BRANCH  22  23
ATOM     23  C   UNL A   1      46.687  27.692  24.887  1.00  0.00     0.262 C 
ATOM     24  O   UNL A   1      47.032  28.807  25.259  1.00  0.00    -0.271 OA
ATOM     25  N   UNL A   1      47.393  26.841  24.039  1.00  0.00    -0.322 N 
ATOM     26  H   UNL A   1      47.048  25.926  23.918  1.00  0.00     0.170 HD
BRANCH  25  27
ATOM     27  C   UNL A   1      48.574  27.198  23.342  1.00  0.00     0.060 A 
ATOM     28  C   UNL A   1      48.378  27.751  22.063  1.00  0.00     0.029 A 
ATOM     29  C   UNL A   1      49.888  27.077  23.829  1.00  0.00     0.066 A 
ATOM     30  C   UNL A   1      49.455  28.246  21.323  1.00  0.00     0.023 A 
ATOM     31  C   UNL A   1      50.963  27.586  23.089  1.00  0.00     0.043 A 
ATOM     32  Cl  UNL A   1      50.297  26.128  25.216  1.00  0.00    -0.082 Cl
ATOM     33  C   UNL A   1      50.741  28.173  21.847  1.00  0.00     0.042 A 
ATOM     34  Cl  UNL A   1      52.068  28.765  20.925  1.00  0.00    -0.084 Cl
ENDBRANCH  25  27
ENDBRANCH  22  23
ENDBRANCH  21  22
ENDBRANCH  16  21
ENDBRANCH  10  15
ENDBRANCH   7   9
ENDBRANCH   6   7
ENDBRANCH   5   6
ENDBRANCH   4   5
ENDBRANCH   3   4
ENDBRANCH   2   3
ENDBRANCH   1   2
BRANCH   1  35
ATOM     35  O   UNL A   1      34.110  35.395  29.491  1.00  0.00    -0.377 OA
BRANCH  35  36
ATOM     36  C   UNL A   1      33.227  35.117  30.571  1.00  0.00     0.188 C 
BRANCH  36  37
ATOM     37  C   UNL A   1      33.140  36.153  31.711  1.00  0.00     0.188 C 
BRANCH  37  38
ATOM     38  O   UNL A   1      34.362  36.367  32.407  1.00  0.00    -0.376 OA
BRANCH  38  39
ATOM     39  C   UNL A   1      34.667  35.556  33.533  1.00  0.00     0.202 C 
BRANCH  39  40
ATOM     40  C   UNL A   1      35.789  34.507  33.415  1.00  0.00     0.261 C 
BRANCH  40  41
ATOM     41  O   UNL A   1      35.674  33.336  34.238  1.00  0.00    -0.460 OA
BRANCH  41  42
ATOM     42  C   UNL A   1      36.387  33.286  35.381  1.00  0.00     0.338 C 
ATOM     43  O   UNL A   1      35.998  33.583  36.500  1.00  0.00    -0.246 OA
BRANCH  42  44
ATOM     44  C   UNL A   1      37.662  32.596  35.090  1.00  0.00     0.060 A 
ATOM     45  C   UNL A   1      38.794  32.922  35.849  1.00  0.00     0.016 A 
ATOM     46  C   UNL A   1      37.743  31.635  34.080  1.00  0.00     0.016 A 
ATOM     47  C   UNL A   1      40.022  32.322  35.570  1.00  0.00     0.010 A 
ATOM     48  C   UNL A   1      38.980  31.054  33.784  1.00  0.00     0.010 A 
ATOM     49  C   UNL A   1      40.131  31.424  34.501  1.00  0.00    -0.014 A 
BRANCH  49  50
ATOM     50  C   UNL A   1      41.476  31.040  34.005  1.00  0.00     0.031 A 
ATOM     51  C   UNL A   1      42.200  32.003  33.102  1.00  0.00     0.074 A 
ATOM     52  C   UNL A   1      42.048  29.873  34.350  1.00  0.00     0.049 A 
ATOM     53  N   UNL A   1      43.356  31.870  32.507  1.00  0.00    -0.248 NA
ATOM     54  C   UNL A   1      41.530  33.287  32.832  1.00  0.00     0.031 C 
ATOM     55  C   UNL A   1      41.458  28.867  35.232  1.00  0.00     0.029 A 
ATOM     56  N   UNL A   1      43.250  29.325  33.972  1.00  0.00    -0.354 N 
ATOM     57  C   UNL A   1      43.533  33.030  31.762  1.00  0.00     0.074 A 
ATOM     58  C   UNL A   1      42.370  33.860  31.981  1.00  0.00     0.031 C 
ATOM     59  C   UNL A   1      42.283  27.806  35.295  1.00  0.00     0.029 A 
ATOM     60  C   UNL A   1      43.441  28.046  34.438  1.00  0.00     0.049 A 
ATOM     61  H   UNL A   1      43.910  29.804  33.420  1.00  0.00     0.167 HD
ATOM     62  C   UNL A   1      44.573  33.376  30.970  1.00  0.00     0.034 A 
ATOM     63  C   UNL A   1      44.423  27.159  34.169  1.00  0.00     0.034 A 
ATOM     64  C   UNL A   1      45.740  32.561  30.770  1.00  0.00     0.049 A 
ATOM     65  C   UNL A   1      45.554  27.564  33.255  1.00  0.00     0.074 A 
ATOM     66  C   UNL A   1      46.874  32.855  30.032  1.00  0.00     0.029 A 
ATOM     67  N   UNL A   1      45.917  31.290  31.290  1.00  0.00    -0.354 N 
ATOM     68  N   UNL A   1      45.766  28.711  32.657  1.00  0.00    -0.248 NA
ATOM     69  C   UNL A   1      46.600  26.560  33.006  1.00  0.00     0.031 C 
ATOM     70  C   UNL A   1      47.716  31.741  30.068  1.00  0.00     0.029 A 
ATOM     71  C   UNL A   1      47.132  30.777  30.872  1.00  0.00     0.049 A 
ATOM     72  H   UNL A   1      45.274  30.822  31.870  1.00  0.00     0.167 HD
ATOM     73  C   UNL A   1      46.987  28.581  32.003  1.00  0.00     0.074 A 
ATOM     74  C   UNL A   1      47.478  27.251  32.293  1.00  0.00     0.031 C 
ATOM     75  C   UNL A   1      47.639  29.476  31.221  1.00  0.00     0.034 A 
BRANCH  62  76
ATOM     76  C   UNL A   1      44.512  34.697  30.253  1.00  0.00     0.023 A 
ATOM     77  C   UNL A   1      45.326  35.767  30.673  1.00  0.00     0.012 A 
ATOM     78  C   UNL A   1      43.718  34.839  29.098  1.00  0.00     0.148 A 
ATOM     79  C   UNL A   1      45.340  36.966  29.961  1.00  0.00     0.002 A 
ATOM     80  C   UNL A   1      43.774  36.019  28.367  1.00  0.00     0.091 A 
ATOM     81  F   UNL A   1      42.936  33.815  28.731  1.00  0.00    -0.205 F 
ATOM     82  C   UNL A   1      44.577  37.086  28.802  1.00  0.00     0.022 A 
BRANCH  80  83
ATOM     83  S   UNL A   1      42.896  36.242  26.817  1.00  0.00     0.127 S 
ATOM     84  O   UNL A   1      43.202  37.638  26.503  1.00  0.00    -0.237 OA
ATOM     85  O   UNL A   1      43.554  35.264  25.952  1.00  0.00    -0.237 OA
ATOM     86  O   UNL A   1      41.494  35.965  27.101  1.00  0.00    -0.744 OA
ENDBRANCH  80  83
ENDBRANCH  62  76
BRANCH  63  87
ATOM     87  C   UNL A   1      44.390  25.789  34.759  1.00  0.00     0.023 A 
ATOM     88  C   UNL A   1      43.608  24.783  34.157  1.00  0.00     0.012 A 
ATOM     89  C   UNL A   1      45.098  25.492  35.940  1.00  0.00     0.148 A 
ATOM     90  C   UNL A   1      43.489  23.525  34.749  1.00  0.00     0.002 A 
ATOM     91  C   UNL A   1      45.025  24.218  36.488  1.00  0.00     0.091 A 
ATOM     92  F   UNL A   1      45.821  26.466  36.509  1.00  0.00    -0.205 F 
ATOM     93  C   UNL A   1      44.203  23.239  35.909  1.00  0.00     0.022 A 
BRANCH  91  94
ATOM     94  S   UNL A   1      46.011  23.726  37.906  1.00  0.00     0.127 S 
ATOM     95  O   UNL A   1      45.714  22.299  37.994  1.00  0.00    -0.237 OA
ATOM     96  O   UNL A   1      47.364  24.050  37.454  1.00  0.00    -0.237 OA
ATOM     97  O   UNL A   1      45.535  24.544  39.013  1.00  0.00    -0.744 OA
ENDBRANCH  91  94
ENDBRANCH  63  87
BRANCH  75  98
ATOM     98  C   UNL A   1      48.990  29.088  30.675  1.00  0.00     0.023 A 
ATOM     99  C   UNL A   1      49.098  28.484  29.408  1.00  0.00     0.012 A 
ATOM    100  C   UNL A   1      50.161  29.398  31.396  1.00  0.00     0.148 A 
ATOM    101  C   UNL A   1      50.349  28.159  28.883  1.00  0.00     0.002 A 
ATOM    102  C   UNL A   1      51.405  29.123  30.843  1.00  0.00     0.091 A 
ATOM    103  F   UNL A   1      50.036  29.961  32.607  1.00  0.00    -0.205 F 
ATOM    104  C   UNL A   1      51.501  28.490  29.594  1.00  0.00     0.022 A 
BRANCH 102 105
ATOM    105  S   UNL A   1      52.942  29.607  31.639  1.00  0.00     0.127 S 
ATOM    106  O   UNL A   1      53.915  28.771  30.939  1.00  0.00    -0.237 OA
ATOM    107  O   UNL A   1      53.020  31.033  31.318  1.00  0.00    -0.237 OA
ATOM    108  O   UNL A   1      52.773  29.314  33.055  1.00  0.00    -0.744 OA
ENDBRANCH 102 105
ENDBRANCH  75  98
ENDBRANCH  49  50
ENDBRANCH  42  44
ENDBRANCH  41  42
ENDBRANCH  40  41
ENDBRANCH  39  40
ENDBRANCH  38  39
ENDBRANCH  37  38
ENDBRANCH  36  37
ENDBRANCH  35  36
ENDBRANCH   1  35
TORSDOF 28
ENDMDL
