MODEL 1
REMARK VINA RESULT:     -10.4      0.000      0.000
REMARK SMILES O=C(C[C@H](C1CCCCC1)N1Cc2ccccc2C1=O)OCCOCCOCCOCCOC(=O)c1ccc(-c2c3nc(c(-c4cccc(S(=O)(=O)[O-])c4F)c4ccc([nH]4)c(-c4cccc(S(=O)(=O)[O-])c4F)c4nc(c(-c5cccc(S(=O)(=O)[O-])c5F)c5ccc2[nH]5)C=C4)C=C3)cc1
REMARK SMILES IDX 28 1 27 2 26 3 25 4 24 5 23 6 22 7 21 8 2 9 1 10 3 11 4 12
REMARK SMILES IDX 11 13 12 14 19 15 13 16 18 17 20 18 14 19 17 20 15 21 16 22
REMARK SMILES IDX 5 23 6 24 10 25 7 26 9 27 8 28 29 29 30 30 31 31 32 32 33 33
REMARK SMILES IDX 34 34 35 35 36 36 37 37 98 38 38 39 97 40 39 41 40 42 41 43
REMARK SMILES IDX 91 44 42 45 96 46 90 47 92 48 43 49 95 50 89 51 88 52 44 54
REMARK SMILES IDX 76 55 56 56 75 57 57 58 60 59 74 60 93 61 58 62 59 63 73 65
REMARK SMILES IDX 94 66 61 67 45 68 46 69 54 70 47 71 49 72 55 73 48 74 50 75
REMARK SMILES IDX 51 76 52 77 53 78 77 79 78 80 86 81 79 82 81 83 87 84 80 85
REMARK SMILES IDX 82 86 83 87 84 88 85 89 62 90 63 91 71 92 64 93 66 94 72 95
REMARK SMILES IDX 65 96 67 97 68 98 69 99 70 100
REMARK H PARENT 92 53 60 64
REMARK Flexibility Score: inf
ROOT
ATOM      1  C   UNL A   1      29.914  32.013  24.560  1.00  0.00     0.188 C 
ENDROOT
BRANCH   1   2
ATOM      2  O   UNL A   1      28.729  31.627  23.872  1.00  0.00    -0.377 OA
BRANCH   2   3
ATOM      3  C   UNL A   1      28.769  31.711  22.454  1.00  0.00     0.188 C 
BRANCH   3   4
ATOM      4  C   UNL A   1      29.354  30.512  21.723  1.00  0.00     0.188 C 
BRANCH   4   5
ATOM      5  O   UNL A   1      29.423  29.262  22.398  1.00  0.00    -0.376 OA
BRANCH   5   6
ATOM      6  C   UNL A   1      30.648  28.529  22.499  1.00  0.00     0.202 C 
BRANCH   6   7
ATOM      7  C   UNL A   1      30.802  27.135  21.881  1.00  0.00     0.261 C 
BRANCH   7   8
ATOM      8  O   UNL A   1      31.834  26.243  22.362  1.00  0.00    -0.463 OA
BRANCH   8   9
ATOM      9  C   UNL A   1      33.166  26.440  22.299  1.00  0.00     0.307 C 
ATOM     10  O   UNL A   1      33.695  26.862  21.271  1.00  0.00    -0.252 OA
BRANCH   9  11
ATOM     11  C   UNL A   1      33.971  26.187  23.522  1.00  0.00     0.148 C 
BRANCH  11  12
ATOM     12  C   UNL A   1      33.165  25.399  24.547  1.00  0.00     0.100 C 
BRANCH  12  13
ATOM     13  N   UNL A   1      33.597  23.994  24.464  1.00  0.00    -0.330 N 
ATOM     14  C   UNL A   1      32.677  22.874  24.353  1.00  0.00     0.156 C 
ATOM     15  C   UNL A   1      34.860  23.570  24.879  1.00  0.00     0.254 C 
ATOM     16  C   UNL A   1      33.557  21.690  24.556  1.00  0.00    -0.016 A 
ATOM     17  C   UNL A   1      34.844  22.103  24.891  1.00  0.00     0.045 A 
ATOM     18  O   UNL A   1      35.814  24.257  25.209  1.00  0.00    -0.269 OA
ATOM     19  C   UNL A   1      33.255  20.346  24.437  1.00  0.00     0.006 A 
ATOM     20  C   UNL A   1      35.866  21.208  25.143  1.00  0.00     0.014 A 
ATOM     21  C   UNL A   1      34.281  19.422  24.650  1.00  0.00     0.000 A 
ATOM     22  C   UNL A   1      35.574  19.848  25.007  1.00  0.00     0.001 A 
ENDBRANCH  12  13
BRANCH  12  23
ATOM     23  C   UNL A   1      33.176  26.038  25.986  1.00  0.00     0.012 C 
ATOM     24  C   UNL A   1      34.041  27.315  26.068  1.00  0.00     0.006 C 
ATOM     25  C   UNL A   1      31.727  26.180  26.553  1.00  0.00     0.006 C 
ATOM     26  C   UNL A   1      33.692  28.279  27.185  1.00  0.00     0.000 C 
ATOM     27  C   UNL A   1      31.441  27.335  27.506  1.00  0.00     0.000 C 
ATOM     28  C   UNL A   1      32.213  28.596  27.167  1.00  0.00     0.000 C 
ENDBRANCH  12  23
ENDBRANCH  11  12
ENDBRANCH   9  11
ENDBRANCH   8   9
ENDBRANCH   7   8
ENDBRANCH   6   7
ENDBRANCH   5   6
ENDBRANCH   4   5
ENDBRANCH   3   4
ENDBRANCH   2   3
ENDBRANCH   1   2
BRANCH   1  29
ATOM     29  C   UNL A   1      30.680  30.904  25.328  1.00  0.00     0.188 C 
BRANCH  29  30
ATOM     30  O   UNL A   1      31.816  31.357  26.043  1.00  0.00    -0.376 OA
BRANCH  30  31
ATOM     31  C   UNL A   1      31.754  32.581  26.757  1.00  0.00     0.202 C 
BRANCH  31  32
ATOM     32  C   UNL A   1      32.926  33.133  27.603  1.00  0.00     0.261 C 
BRANCH  32  33
ATOM     33  O   UNL A   1      32.807  34.446  28.157  1.00  0.00    -0.460 OA
BRANCH  33  34
ATOM     34  C   UNL A   1      33.304  34.656  29.394  1.00  0.00     0.338 C 
ATOM     35  O   UNL A   1      32.744  35.226  30.312  1.00  0.00    -0.246 OA
BRANCH  34  36
ATOM     36  C   UNL A   1      34.530  33.827  29.532  1.00  0.00     0.060 A 
ATOM     37  C   UNL A   1      34.406  32.573  30.152  1.00  0.00     0.016 A 
ATOM     38  C   UNL A   1      35.758  34.226  28.995  1.00  0.00     0.016 A 
ATOM     39  C   UNL A   1      35.513  31.739  30.275  1.00  0.00     0.010 A 
ATOM     40  C   UNL A   1      36.883  33.409  29.166  1.00  0.00     0.010 A 
ATOM     41  C   UNL A   1      36.768  32.185  29.850  1.00  0.00    -0.014 A 
BRANCH  41  42
ATOM     42  C   UNL A   1      37.962  31.506  30.407  1.00  0.00     0.031 A 
ATOM     43  C   UNL A   1      38.333  31.829  31.830  1.00  0.00     0.074 A 
ATOM     44  C   UNL A   1      38.638  30.569  29.720  1.00  0.00     0.049 A 
ATOM     45  N   UNL A   1      39.288  31.337  32.573  1.00  0.00    -0.248 NA
ATOM     46  C   UNL A   1      37.504  32.841  32.512  1.00  0.00     0.031 C 
ATOM     47  C   UNL A   1      38.356  30.154  28.348  1.00  0.00     0.029 A 
ATOM     48  N   UNL A   1      39.715  29.804  30.092  1.00  0.00    -0.354 N 
ATOM     49  C   UNL A   1      39.182  31.984  33.799  1.00  0.00     0.074 A 
ATOM     50  C   UNL A   1      38.089  32.922  33.695  1.00  0.00     0.031 C 
ATOM     51  C   UNL A   1      39.262  29.230  27.980  1.00  0.00     0.029 A 
ATOM     52  C   UNL A   1      40.194  29.002  29.084  1.00  0.00     0.049 A 
ATOM     53  H   UNL A   1      40.105  29.828  30.995  1.00  0.00     0.167 HD
ATOM     54  C   UNL A   1      39.913  31.800  34.921  1.00  0.00     0.034 A 
ATOM     55  C   UNL A   1      41.276  28.199  29.056  1.00  0.00     0.034 A 
ATOM     56  C   UNL A   1      41.003  30.869  35.021  1.00  0.00     0.049 A 
ATOM     57  C   UNL A   1      42.108  28.046  30.306  1.00  0.00     0.074 A 
ATOM     58  C   UNL A   1      41.807  30.601  36.113  1.00  0.00     0.029 A 
ATOM     59  N   UNL A   1      41.448  30.061  33.986  1.00  0.00    -0.354 N 
ATOM     60  N   UNL A   1      41.942  28.596  31.485  1.00  0.00    -0.248 NA
ATOM     61  C   UNL A   1      43.255  27.128  30.231  1.00  0.00     0.031 C 
ATOM     62  C   UNL A   1      42.761  29.653  35.728  1.00  0.00     0.029 A 
ATOM     63  C   UNL A   1      42.519  29.297  34.411  1.00  0.00     0.049 A 
ATOM     64  H   UNL A   1      41.058  30.035  33.083  1.00  0.00     0.167 HD
ATOM     65  C   UNL A   1      42.937  28.066  32.300  1.00  0.00     0.074 A 
ATOM     66  C   UNL A   1      43.683  27.128  31.486  1.00  0.00     0.031 C 
ATOM     67  C   UNL A   1      43.220  28.336  33.599  1.00  0.00     0.034 A 
BRANCH  54  68
ATOM     68  C   UNL A   1      39.544  32.614  36.132  1.00  0.00     0.023 A 
ATOM     69  C   UNL A   1      40.096  33.900  36.305  1.00  0.00     0.012 A 
ATOM     70  C   UNL A   1      38.623  32.123  37.079  1.00  0.00     0.148 A 
ATOM     71  C   UNL A   1      39.760  34.673  37.417  1.00  0.00     0.002 A 
ATOM     72  C   UNL A   1      38.257  32.919  38.157  1.00  0.00     0.091 A 
ATOM     73  F   UNL A   1      38.132  30.887  36.910  1.00  0.00    -0.205 F 
ATOM     74  C   UNL A   1      38.833  34.188  38.334  1.00  0.00     0.022 A 
BRANCH  72  75
ATOM     75  S   UNL A   1      37.014  32.420  39.353  1.00  0.00     0.127 S 
ATOM     76  O   UNL A   1      37.220  33.400  40.419  1.00  0.00    -0.237 OA
ATOM     77  O   UNL A   1      35.775  32.594  38.595  1.00  0.00    -0.237 OA
ATOM     78  O   UNL A   1      37.325  31.042  39.709  1.00  0.00    -0.744 OA
ENDBRANCH  72  75
ENDBRANCH  54  68
BRANCH  55  79
ATOM     79  C   UNL A   1      41.642  27.472  27.806  1.00  0.00     0.023 A 
ATOM     80  C   UNL A   1      42.117  28.182  26.685  1.00  0.00     0.012 A 
ATOM     81  C   UNL A   1      41.501  26.073  27.720  1.00  0.00     0.148 A 
ATOM     82  C   UNL A   1      42.404  27.517  25.492  1.00  0.00     0.002 A 
ATOM     83  C   UNL A   1      41.844  25.410  26.549  1.00  0.00     0.091 A 
ATOM     84  F   UNL A   1      41.027  25.416  28.789  1.00  0.00    -0.205 F 
ATOM     85  C   UNL A   1      42.276  26.132  25.426  1.00  0.00     0.022 A 
BRANCH  83  86
ATOM     86  S   UNL A   1      41.832  23.620  26.418  1.00  0.00     0.127 S 
ATOM     87  O   UNL A   1      42.560  23.227  27.622  1.00  0.00    -0.237 OA
ATOM     88  O   UNL A   1      40.398  23.328  26.441  1.00  0.00    -0.237 OA
ATOM     89  O   UNL A   1      42.487  23.313  25.154  1.00  0.00    -0.744 OA
ENDBRANCH  83  86
ENDBRANCH  55  79
BRANCH  67  90
ATOM     90  C   UNL A   1      44.353  27.573  34.239  1.00  0.00     0.023 A 
ATOM     91  C   UNL A   1      45.604  28.194  34.431  1.00  0.00     0.012 A 
ATOM     92  C   UNL A   1      44.159  26.254  34.695  1.00  0.00     0.148 A 
ATOM     93  C   UNL A   1      46.658  27.497  35.021  1.00  0.00     0.002 A 
ATOM     94  C   UNL A   1      45.197  25.585  35.333  1.00  0.00     0.091 A 
ATOM     95  F   UNL A   1      42.967  25.675  34.494  1.00  0.00    -0.205 F 
ATOM     96  C   UNL A   1      46.453  26.198  35.479  1.00  0.00     0.022 A 
BRANCH  94  97
ATOM     97  S   UNL A   1      44.994  23.949  36.044  1.00  0.00     0.127 S 
ATOM     98  O   UNL A   1      45.941  23.161  35.256  1.00  0.00    -0.237 OA
ATOM     99  O   UNL A   1      45.391  24.165  37.436  1.00  0.00    -0.237 OA
ATOM    100  O   UNL A   1      43.591  23.603  35.864  1.00  0.00    -0.744 OA
ENDBRANCH  94  97
ENDBRANCH  67  90
ENDBRANCH  41  42
ENDBRANCH  34  36
ENDBRANCH  33  34
ENDBRANCH  32  33
ENDBRANCH  31  32
ENDBRANCH  30  31
ENDBRANCH  29  30
ENDBRANCH   1  29
TORSDOF 26
ENDMDL
MODEL 2
REMARK VINA RESULT:     -10.2      5.641     10.098
REMARK SMILES O=C(C[C@H](C1CCCCC1)N1Cc2ccccc2C1=O)OCCOCCOCCOCCOC(=O)c1ccc(-c2c3nc(c(-c4cccc(S(=O)(=O)[O-])c4F)c4ccc([nH]4)c(-c4cccc(S(=O)(=O)[O-])c4F)c4nc(c(-c5cccc(S(=O)(=O)[O-])c5F)c5ccc2[nH]5)C=C4)C=C3)cc1
REMARK SMILES IDX 28 1 27 2 26 3 25 4 24 5 23 6 22 7 21 8 2 9 1 10 3 11 4 12
REMARK SMILES IDX 11 13 12 14 19 15 13 16 18 17 20 18 14 19 17 20 15 21 16 22
REMARK SMILES IDX 5 23 6 24 10 25 7 26 9 27 8 28 29 29 30 30 31 31 32 32 33 33
REMARK SMILES IDX 34 34 35 35 36 36 37 37 98 38 38 39 97 40 39 41 40 42 41 43
REMARK SMILES IDX 91 44 42 45 96 46 90 47 92 48 43 49 95 50 89 51 88 52 44 54
REMARK SMILES IDX 76 55 56 56 75 57 57 58 60 59 74 60 93 61 58 62 59 63 73 65
REMARK SMILES IDX 94 66 61 67 45 68 46 69 54 70 47 71 49 72 55 73 48 74 50 75
REMARK SMILES IDX 51 76 52 77 53 78 77 79 78 80 86 81 79 82 81 83 87 84 80 85
REMARK SMILES IDX 82 86 83 87 84 88 85 89 62 90 63 91 71 92 64 93 66 94 72 95
REMARK SMILES IDX 65 96 67 97 68 98 69 99 70 100
REMARK H PARENT 92 53 60 64
REMARK Flexibility Score: inf
ROOT
ATOM      1  C   UNL A   1      35.071  21.547  25.893  1.00  0.00     0.188 C 
ENDROOT
BRANCH   1   2
ATOM      2  O   UNL A   1      33.956  20.894  26.492  1.00  0.00    -0.377 OA
BRANCH   2   3
ATOM      3  C   UNL A   1      33.338  21.574  27.576  1.00  0.00     0.188 C 
BRANCH   3   4
ATOM      4  C   UNL A   1      32.609  22.865  27.236  1.00  0.00     0.188 C 
BRANCH   4   5
ATOM      5  O   UNL A   1      31.212  22.953  27.493  1.00  0.00    -0.376 OA
BRANCH   5   6
ATOM      6  C   UNL A   1      30.323  23.622  26.593  1.00  0.00     0.202 C 
BRANCH   6   7
ATOM      7  C   UNL A   1      30.311  25.150  26.465  1.00  0.00     0.261 C 
BRANCH   7   8
ATOM      8  O   UNL A   1      31.420  25.924  26.978  1.00  0.00    -0.463 OA
BRANCH   8   9
ATOM      9  C   UNL A   1      31.501  27.268  27.054  1.00  0.00     0.307 C 
ATOM     10  O   UNL A   1      31.099  27.871  28.048  1.00  0.00    -0.252 OA
BRANCH   9  11
ATOM     11  C   UNL A   1      32.142  27.996  25.928  1.00  0.00     0.148 C 
BRANCH  11  12
ATOM     12  C   UNL A   1      31.621  27.487  24.589  1.00  0.00     0.100 C 
BRANCH  12  13
ATOM     13  N   UNL A   1      30.765  28.541  24.019  1.00  0.00    -0.330 N 
ATOM     14  C   UNL A   1      30.907  29.954  24.336  1.00  0.00     0.156 C 
ATOM     15  C   UNL A   1      29.517  28.274  23.456  1.00  0.00     0.254 C 
ATOM     16  C   UNL A   1      29.689  30.561  23.732  1.00  0.00    -0.016 A 
ATOM     17  C   UNL A   1      28.855  29.564  23.233  1.00  0.00     0.045 A 
ATOM     18  O   UNL A   1      29.019  27.187  23.210  1.00  0.00    -0.269 OA
ATOM     19  C   UNL A   1      29.346  31.895  23.613  1.00  0.00     0.006 A 
ATOM     20  C   UNL A   1      27.648  29.847  22.623  1.00  0.00     0.014 A 
ATOM     21  C   UNL A   1      28.147  32.208  22.967  1.00  0.00     0.000 A 
ATOM     22  C   UNL A   1      27.302  31.193  22.482  1.00  0.00     0.001 A 
ENDBRANCH  12  13
BRANCH  12  23
ATOM     23  C   UNL A   1      32.749  26.930  23.642  1.00  0.00     0.012 C 
ATOM     24  C   UNL A   1      33.345  25.595  24.141  1.00  0.00     0.006 C 
ATOM     25  C   UNL A   1      32.287  26.933  22.150  1.00  0.00     0.006 C 
ATOM     26  C   UNL A   1      33.995  24.725  23.084  1.00  0.00     0.000 C 
ATOM     27  C   UNL A   1      32.846  25.858  21.225  1.00  0.00     0.000 C 
ATOM     28  C   UNL A   1      33.056  24.524  21.915  1.00  0.00     0.000 C 
ENDBRANCH  12  23
ENDBRANCH  11  12
ENDBRANCH   9  11
ENDBRANCH   8   9
ENDBRANCH   7   8
ENDBRANCH   6   7
ENDBRANCH   5   6
ENDBRANCH   4   5
ENDBRANCH   3   4
ENDBRANCH   2   3
ENDBRANCH   1   2
BRANCH   1  29
ATOM     29  C   UNL A   1      35.955  20.704  24.937  1.00  0.00     0.188 C 
BRANCH  29  30
ATOM     30  O   UNL A   1      37.156  21.336  24.531  1.00  0.00    -0.376 OA
BRANCH  30  31
ATOM     31  C   UNL A   1      38.282  21.323  25.394  1.00  0.00     0.202 C 
BRANCH  31  32
ATOM     32  C   UNL A   1      39.121  20.055  25.679  1.00  0.00     0.261 C 
BRANCH  32  33
ATOM     33  O   UNL A   1      40.093  20.103  26.728  1.00  0.00    -0.460 OA
BRANCH  33  34
ATOM     34  C   UNL A   1      41.364  19.769  26.425  1.00  0.00     0.338 C 
ATOM     35  O   UNL A   1      41.740  18.717  25.939  1.00  0.00    -0.246 OA
BRANCH  34  36
ATOM     36  C   UNL A   1      42.187  21.003  26.518  1.00  0.00     0.060 A 
ATOM     37  C   UNL A   1      42.559  21.447  27.796  1.00  0.00     0.016 A 
ATOM     38  C   UNL A   1      42.655  21.668  25.380  1.00  0.00     0.016 A 
ATOM     39  C   UNL A   1      43.361  22.575  27.942  1.00  0.00     0.010 A 
ATOM     40  C   UNL A   1      43.418  22.834  25.528  1.00  0.00     0.010 A 
ATOM     41  C   UNL A   1      43.730  23.313  26.813  1.00  0.00    -0.014 A 
BRANCH  41  42
ATOM     42  C   UNL A   1      44.156  24.717  27.022  1.00  0.00     0.031 A 
ATOM     43  C   UNL A   1      43.147  25.659  27.626  1.00  0.00     0.074 A 
ATOM     44  C   UNL A   1      45.413  25.127  26.779  1.00  0.00     0.049 A 
ATOM     45  N   UNL A   1      43.279  26.913  27.965  1.00  0.00    -0.248 NA
ATOM     46  C   UNL A   1      41.808  25.102  27.894  1.00  0.00     0.031 C 
ATOM     47  C   UNL A   1      46.482  24.302  26.220  1.00  0.00     0.029 A 
ATOM     48  N   UNL A   1      45.995  26.356  26.966  1.00  0.00    -0.354 N 
ATOM     49  C   UNL A   1      42.042  27.297  28.473  1.00  0.00     0.074 A 
ATOM     50  C   UNL A   1      41.166  26.152  28.375  1.00  0.00     0.031 C 
ATOM     51  C   UNL A   1      47.585  25.059  26.078  1.00  0.00     0.029 A 
ATOM     52  C   UNL A   1      47.294  26.423  26.521  1.00  0.00     0.049 A 
ATOM     53  H   UNL A   1      45.527  27.115  27.381  1.00  0.00     0.167 HD
ATOM     54  C   UNL A   1      41.673  28.487  28.995  1.00  0.00     0.034 A 
ATOM     55  C   UNL A   1      48.135  27.474  26.457  1.00  0.00     0.034 A 
ATOM     56  C   UNL A   1      42.546  29.624  29.088  1.00  0.00     0.049 A 
ATOM     57  C   UNL A   1      47.684  28.807  27.001  1.00  0.00     0.074 A 
ATOM     58  C   UNL A   1      42.272  30.878  29.605  1.00  0.00     0.029 A 
ATOM     59  N   UNL A   1      43.858  29.650  28.644  1.00  0.00    -0.354 N 
ATOM     60  N   UNL A   1      46.543  29.132  27.561  1.00  0.00    -0.248 NA
ATOM     61  C   UNL A   1      48.655  29.911  26.942  1.00  0.00     0.031 C 
ATOM     62  C   UNL A   1      43.412  31.672  29.443  1.00  0.00     0.029 A 
ATOM     63  C   UNL A   1      44.409  30.899  28.868  1.00  0.00     0.049 A 
ATOM     64  H   UNL A   1      44.328  28.892  28.230  1.00  0.00     0.167 HD
ATOM     65  C   UNL A   1      46.670  30.461  27.951  1.00  0.00     0.074 A 
ATOM     66  C   UNL A   1      48.012  30.872  27.591  1.00  0.00     0.031 C 
ATOM     67  C   UNL A   1      45.760  31.275  28.543  1.00  0.00     0.034 A 
BRANCH  54  68
ATOM     68  C   UNL A   1      40.268  28.609  29.521  1.00  0.00     0.023 A 
ATOM     69  C   UNL A   1      39.956  28.117  30.805  1.00  0.00     0.012 A 
ATOM     70  C   UNL A   1      39.266  29.246  28.762  1.00  0.00     0.148 A 
ATOM     71  C   UNL A   1      38.661  28.227  31.313  1.00  0.00     0.002 A 
ATOM     72  C   UNL A   1      37.992  29.395  29.295  1.00  0.00     0.091 A 
ATOM     73  F   UNL A   1      39.576  29.683  27.533  1.00  0.00    -0.205 F 
ATOM     74  C   UNL A   1      37.685  28.877  30.564  1.00  0.00     0.022 A 
BRANCH  72  75
ATOM     75  S   UNL A   1      36.683  30.284  28.446  1.00  0.00     0.127 S 
ATOM     76  O   UNL A   1      35.517  29.943  29.261  1.00  0.00    -0.237 OA
ATOM     77  O   UNL A   1      37.128  31.672  28.569  1.00  0.00    -0.237 OA
ATOM     78  O   UNL A   1      36.661  29.768  27.085  1.00  0.00    -0.744 OA
ENDBRANCH  72  75
ENDBRANCH  54  68
BRANCH  55  79
ATOM     79  C   UNL A   1      49.491  27.317  25.857  1.00  0.00     0.023 A 
ATOM     80  C   UNL A   1      50.598  27.014  26.674  1.00  0.00     0.012 A 
ATOM     81  C   UNL A   1      49.689  27.486  24.473  1.00  0.00     0.148 A 
ATOM     82  C   UNL A   1      51.881  26.924  26.130  1.00  0.00     0.002 A 
ATOM     83  C   UNL A   1      50.959  27.337  23.929  1.00  0.00     0.091 A 
ATOM     84  F   UNL A   1      48.628  27.795  23.713  1.00  0.00    -0.205 F 
ATOM     85  C   UNL A   1      52.060  27.077  24.758  1.00  0.00     0.022 A 
BRANCH  83  86
ATOM     86  S   UNL A   1      51.258  27.391  22.160  1.00  0.00     0.127 S 
ATOM     87  O   UNL A   1      52.536  26.691  22.051  1.00  0.00    -0.237 OA
ATOM     88  O   UNL A   1      50.105  26.656  21.638  1.00  0.00    -0.237 OA
ATOM     89  O   UNL A   1      51.279  28.804  21.806  1.00  0.00    -0.744 OA
ENDBRANCH  83  86
ENDBRANCH  55  79
BRANCH  67  90
ATOM     90  C   UNL A   1      46.197  32.677  28.884  1.00  0.00     0.023 A 
ATOM     91  C   UNL A   1      46.899  32.929  30.081  1.00  0.00     0.012 A 
ATOM     92  C   UNL A   1      45.953  33.740  27.992  1.00  0.00     0.148 A 
ATOM     93  C   UNL A   1      47.306  34.222  30.406  1.00  0.00     0.002 A 
ATOM     94  C   UNL A   1      46.410  35.016  28.296  1.00  0.00     0.091 A 
ATOM     95  F   UNL A   1      45.273  33.485  26.864  1.00  0.00    -0.205 F 
ATOM     96  C   UNL A   1      47.070  35.263  29.511  1.00  0.00     0.022 A 
BRANCH  94  97
ATOM     97  S   UNL A   1      46.241  36.396  27.159  1.00  0.00     0.127 S 
ATOM     98  O   UNL A   1      46.870  35.867  25.951  1.00  0.00    -0.237 OA
ATOM     99  O   UNL A   1      44.788  36.550  27.073  1.00  0.00    -0.237 OA
ATOM    100  O   UNL A   1      46.929  37.518  27.783  1.00  0.00    -0.744 OA
ENDBRANCH  94  97
ENDBRANCH  67  90
ENDBRANCH  41  42
ENDBRANCH  34  36
ENDBRANCH  33  34
ENDBRANCH  32  33
ENDBRANCH  31  32
ENDBRANCH  30  31
ENDBRANCH  29  30
ENDBRANCH   1  29
TORSDOF 26
ENDMDL
MODEL 3
REMARK VINA RESULT:     -10.2      5.902     10.051
REMARK SMILES O=C(C[C@H](C1CCCCC1)N1Cc2ccccc2C1=O)OCCOCCOCCOCCOC(=O)c1ccc(-c2c3nc(c(-c4cccc(S(=O)(=O)[O-])c4F)c4ccc([nH]4)c(-c4cccc(S(=O)(=O)[O-])c4F)c4nc(c(-c5cccc(S(=O)(=O)[O-])c5F)c5ccc2[nH]5)C=C4)C=C3)cc1
REMARK SMILES IDX 28 1 27 2 26 3 25 4 24 5 23 6 22 7 21 8 2 9 1 10 3 11 4 12
REMARK SMILES IDX 11 13 12 14 19 15 13 16 18 17 20 18 14 19 17 20 15 21 16 22
REMARK SMILES IDX 5 23 6 24 10 25 7 26 9 27 8 28 29 29 30 30 31 31 32 32 33 33
REMARK SMILES IDX 34 34 35 35 36 36 37 37 98 38 38 39 97 40 39 41 40 42 41 43
REMARK SMILES IDX 91 44 42 45 96 46 90 47 92 48 43 49 95 50 89 51 88 52 44 54
REMARK SMILES IDX 76 55 56 56 75 57 57 58 60 59 74 60 93 61 58 62 59 63 73 65
REMARK SMILES IDX 94 66 61 67 45 68 46 69 54 70 47 71 49 72 55 73 48 74 50 75
REMARK SMILES IDX 51 76 52 77 53 78 77 79 78 80 86 81 79 82 81 83 87 84 80 85
REMARK SMILES IDX 82 86 83 87 84 88 85 89 62 90 63 91 71 92 64 93 66 94 72 95
REMARK SMILES IDX 65 96 67 97 68 98 69 99 70 100
REMARK H PARENT 92 53 60 64
REMARK Flexibility Score: inf
ROOT
ATOM      1  C   UNL A   1      35.072  21.567  25.828  1.00  0.00     0.188 C 
ENDROOT
BRANCH   1   2
ATOM      2  O   UNL A   1      33.852  21.071  26.368  1.00  0.00    -0.377 OA
BRANCH   2   3
ATOM      3  C   UNL A   1      33.391  21.695  27.558  1.00  0.00     0.188 C 
BRANCH   3   4
ATOM      4  C   UNL A   1      32.936  23.141  27.429  1.00  0.00     0.188 C 
BRANCH   4   5
ATOM      5  O   UNL A   1      31.559  23.448  27.612  1.00  0.00    -0.376 OA
BRANCH   5   6
ATOM      6  C   UNL A   1      30.748  23.935  26.539  1.00  0.00     0.202 C 
BRANCH   6   7
ATOM      7  C   UNL A   1      30.661  25.430  26.214  1.00  0.00     0.261 C 
BRANCH   7   8
ATOM      8  O   UNL A   1      31.574  26.359  26.844  1.00  0.00    -0.463 OA
BRANCH   8   9
ATOM      9  C   UNL A   1      31.324  27.643  27.168  1.00  0.00     0.307 C 
ATOM     10  O   UNL A   1      30.892  27.943  28.280  1.00  0.00    -0.252 OA
BRANCH   9  11
ATOM     11  C   UNL A   1      31.639  28.693  26.164  1.00  0.00     0.148 C 
BRANCH  11  12
ATOM     12  C   UNL A   1      31.463  28.158  24.748  1.00  0.00     0.100 C 
BRANCH  12  13
ATOM     13  N   UNL A   1      30.744  29.185  23.975  1.00  0.00    -0.330 N 
ATOM     14  C   UNL A   1      30.335  30.468  24.524  1.00  0.00     0.156 C 
ATOM     15  C   UNL A   1      30.044  28.891  22.804  1.00  0.00     0.254 C 
ATOM     16  C   UNL A   1      29.448  31.023  23.465  1.00  0.00    -0.016 A 
ATOM     17  C   UNL A   1      29.257  30.080  22.458  1.00  0.00     0.045 A 
ATOM     18  O   UNL A   1      30.035  27.845  22.174  1.00  0.00    -0.269 OA
ATOM     19  C   UNL A   1      28.865  32.274  23.381  1.00  0.00     0.006 A 
ATOM     20  C   UNL A   1      28.468  30.328  21.352  1.00  0.00     0.014 A 
ATOM     21  C   UNL A   1      28.093  32.563  22.252  1.00  0.00     0.000 A 
ATOM     22  C   UNL A   1      27.890  31.597  21.249  1.00  0.00     0.001 A 
ENDBRANCH  12  13
BRANCH  12  23
ATOM     23  C   UNL A   1      32.795  27.621  24.105  1.00  0.00     0.012 C 
ATOM     24  C   UNL A   1      32.609  26.268  23.383  1.00  0.00     0.006 C 
ATOM     25  C   UNL A   1      33.504  28.729  23.263  1.00  0.00     0.006 C 
ATOM     26  C   UNL A   1      33.623  25.948  22.304  1.00  0.00     0.000 C 
ATOM     27  C   UNL A   1      34.326  28.295  22.054  1.00  0.00     0.000 C 
ATOM     28  C   UNL A   1      33.737  27.099  21.328  1.00  0.00     0.000 C 
ENDBRANCH  12  23
ENDBRANCH  11  12
ENDBRANCH   9  11
ENDBRANCH   8   9
ENDBRANCH   7   8
ENDBRANCH   6   7
ENDBRANCH   5   6
ENDBRANCH   4   5
ENDBRANCH   3   4
ENDBRANCH   2   3
ENDBRANCH   1   2
BRANCH   1  29
ATOM     29  C   UNL A   1      35.886  20.609  24.919  1.00  0.00     0.188 C 
BRANCH  29  30
ATOM     30  O   UNL A   1      37.100  21.149  24.427  1.00  0.00    -0.376 OA
BRANCH  30  31
ATOM     31  C   UNL A   1      38.192  21.343  25.312  1.00  0.00     0.202 C 
BRANCH  31  32
ATOM     32  C   UNL A   1      39.185  20.220  25.695  1.00  0.00     0.261 C 
BRANCH  32  33
ATOM     33  O   UNL A   1      40.249  20.532  26.600  1.00  0.00    -0.460 OA
BRANCH  33  34
ATOM     34  C   UNL A   1      41.507  20.221  26.224  1.00  0.00     0.338 C 
ATOM     35  O   UNL A   1      41.864  19.196  25.672  1.00  0.00    -0.246 OA
BRANCH  34  36
ATOM     36  C   UNL A   1      42.328  21.453  26.341  1.00  0.00     0.060 A 
ATOM     37  C   UNL A   1      42.751  21.840  27.622  1.00  0.00     0.016 A 
ATOM     38  C   UNL A   1      42.748  22.172  25.216  1.00  0.00     0.016 A 
ATOM     39  C   UNL A   1      43.554  22.965  27.787  1.00  0.00     0.010 A 
ATOM     40  C   UNL A   1      43.512  23.334  25.388  1.00  0.00     0.010 A 
ATOM     41  C   UNL A   1      43.874  23.756  26.679  1.00  0.00    -0.014 A 
BRANCH  41  42
ATOM     42  C   UNL A   1      44.304  25.151  26.935  1.00  0.00     0.031 A 
ATOM     43  C   UNL A   1      43.270  26.098  27.486  1.00  0.00     0.074 A 
ATOM     44  C   UNL A   1      45.579  25.547  26.779  1.00  0.00     0.049 A 
ATOM     45  N   UNL A   1      43.395  27.346  27.850  1.00  0.00    -0.248 NA
ATOM     46  C   UNL A   1      41.910  25.556  27.659  1.00  0.00     0.031 C 
ATOM     47  C   UNL A   1      46.671  24.714  26.279  1.00  0.00     0.029 A 
ATOM     48  N   UNL A   1      46.163  26.765  27.021  1.00  0.00    -0.354 N 
ATOM     49  C   UNL A   1      42.134  27.740  28.282  1.00  0.00     0.074 A 
ATOM     50  C   UNL A   1      41.251  26.609  28.112  1.00  0.00     0.031 C 
ATOM     51  C   UNL A   1      47.790  25.459  26.220  1.00  0.00     0.029 A 
ATOM     52  C   UNL A   1      47.489  26.820  26.662  1.00  0.00     0.049 A 
ATOM     53  H   UNL A   1      45.679  27.525  27.415  1.00  0.00     0.167 HD
ATOM     54  C   UNL A   1      41.747  28.928  28.797  1.00  0.00     0.034 A 
ATOM     55  C   UNL A   1      48.346  27.861  26.667  1.00  0.00     0.034 A 
ATOM     56  C   UNL A   1      42.625  30.052  28.962  1.00  0.00     0.049 A 
ATOM     57  C   UNL A   1      47.877  29.193  27.200  1.00  0.00     0.074 A 
ATOM     58  C   UNL A   1      42.335  31.302  29.477  1.00  0.00     0.029 A 
ATOM     59  N   UNL A   1      43.964  30.065  28.603  1.00  0.00    -0.354 N 
ATOM     60  N   UNL A   1      46.706  29.525  27.689  1.00  0.00    -0.248 NA
ATOM     61  C   UNL A   1      48.864  30.283  27.219  1.00  0.00     0.031 C 
ATOM     62  C   UNL A   1      43.493  32.083  29.400  1.00  0.00     0.029 A 
ATOM     63  C   UNL A   1      44.515  31.303  28.881  1.00  0.00     0.049 A 
ATOM     64  H   UNL A   1      44.451  29.306  28.210  1.00  0.00     0.167 HD
ATOM     65  C   UNL A   1      46.826  30.847  28.106  1.00  0.00     0.074 A 
ATOM     66  C   UNL A   1      48.192  31.244  27.838  1.00  0.00     0.031 C 
ATOM     67  C   UNL A   1      45.889  31.665  28.649  1.00  0.00     0.034 A 
BRANCH  54  68
ATOM     68  C   UNL A   1      40.312  29.062  29.232  1.00  0.00     0.023 A 
ATOM     69  C   UNL A   1      39.306  29.283  28.268  1.00  0.00     0.012 A 
ATOM     70  C   UNL A   1      39.953  28.931  30.587  1.00  0.00     0.148 A 
ATOM     71  C   UNL A   1      37.970  29.403  28.650  1.00  0.00     0.002 A 
ATOM     72  C   UNL A   1      38.614  29.003  30.954  1.00  0.00     0.091 A 
ATOM     73  F   UNL A   1      40.926  28.749  31.491  1.00  0.00    -0.205 F 
ATOM     74  C   UNL A   1      37.624  29.250  29.988  1.00  0.00     0.022 A 
BRANCH  72  75
ATOM     75  S   UNL A   1      38.054  28.743  32.640  1.00  0.00     0.127 S 
ATOM     76  O   UNL A   1      36.682  29.243  32.576  1.00  0.00    -0.237 OA
ATOM     77  O   UNL A   1      38.169  27.291  32.778  1.00  0.00    -0.237 OA
ATOM     78  O   UNL A   1      38.955  29.511  33.488  1.00  0.00    -0.744 OA
ENDBRANCH  72  75
ENDBRANCH  54  68
BRANCH  55  79
ATOM     79  C   UNL A   1      49.736  27.693  26.154  1.00  0.00     0.023 A 
ATOM     80  C   UNL A   1      49.984  27.677  24.768  1.00  0.00     0.012 A 
ATOM     81  C   UNL A   1      50.816  27.531  27.045  1.00  0.00     0.148 A 
ATOM     82  C   UNL A   1      51.274  27.460  24.279  1.00  0.00     0.002 A 
ATOM     83  C   UNL A   1      52.105  27.375  26.552  1.00  0.00     0.091 A 
ATOM     84  F   UNL A   1      50.558  27.528  28.361  1.00  0.00    -0.205 F 
ATOM     85  C   UNL A   1      52.334  27.318  25.169  1.00  0.00     0.022 A 
BRANCH  83  86
ATOM     86  S   UNL A   1      53.543  27.313  27.625  1.00  0.00     0.127 S 
ATOM     87  O   UNL A   1      53.373  26.018  28.279  1.00  0.00    -0.237 OA
ATOM     88  O   UNL A   1      54.641  27.378  26.659  1.00  0.00    -0.237 OA
ATOM     89  O   UNL A   1      53.438  28.479  28.492  1.00  0.00    -0.744 OA
ENDBRANCH  83  86
ENDBRANCH  55  79
BRANCH  67  90
ATOM     90  C   UNL A   1      46.321  33.057  29.037  1.00  0.00     0.023 A 
ATOM     91  C   UNL A   1      46.763  33.321  30.350  1.00  0.00     0.012 A 
ATOM     92  C   UNL A   1      46.333  34.094  28.084  1.00  0.00     0.148 A 
ATOM     93  C   UNL A   1      47.163  34.605  30.719  1.00  0.00     0.002 A 
ATOM     94  C   UNL A   1      46.786  35.358  28.444  1.00  0.00     0.091 A 
ATOM     95  F   UNL A   1      45.898  33.830  26.843  1.00  0.00    -0.205 F 
ATOM     96  C   UNL A   1      47.183  35.620  29.766  1.00  0.00     0.022 A 
BRANCH  94  97
ATOM     97  S   UNL A   1      46.941  36.699  27.260  1.00  0.00     0.127 S 
ATOM     98  O   UNL A   1      47.306  37.820  28.124  1.00  0.00    -0.237 OA
ATOM     99  O   UNL A   1      48.019  36.223  26.392  1.00  0.00    -0.237 OA
ATOM    100  O   UNL A   1      45.645  36.809  26.605  1.00  0.00    -0.744 OA
ENDBRANCH  94  97
ENDBRANCH  67  90
ENDBRANCH  41  42
ENDBRANCH  34  36
ENDBRANCH  33  34
ENDBRANCH  32  33
ENDBRANCH  31  32
ENDBRANCH  30  31
ENDBRANCH  29  30
ENDBRANCH   1  29
TORSDOF 26
ENDMDL
