MODEL 1
REMARK VINA RESULT:      -9.1      0.000      0.000
REMARK SMILES NC(=O)C[C@H](NC(=O)C1(c2ccccc2)CCN(C(=O)[C@@H]2CCC[NH2+]2)CC1)C(=O)OCCOCCOCCOCCOC(=O)c1ccc(-c2c3nc(c(-c4cccc(S(=O)(=O)[O-])c4F)c4ccc([nH]4)c(-c4cccc(S(=O)(=O)[O-])c4F)c4nc(c(-c5cccc(S(=O)(=O)[O-])c5F)c5ccc2[nH]5)C=C4)C=C3)cc1
REMARK SMILES IDX 36 1 35 2 34 3 33 4 32 5 31 6 30 7 28 8 29 9 5 10 4 11 2 12
REMARK SMILES IDX 1 13 3 16 6 17 7 18 8 20 9 21 16 22 27 23 17 24 26 25 18 26
REMARK SMILES IDX 19 27 20 28 10 29 11 30 15 31 12 32 14 33 13 34 21 35 22 36
REMARK SMILES IDX 25 37 23 38 24 39 37 42 38 43 39 44 40 45 41 46 42 47 43 48
REMARK SMILES IDX 44 49 45 50 46 51 107 52 47 53 106 54 48 55 49 56 50 57
REMARK SMILES IDX 100 58 51 59 105 60 99 61 101 62 52 63 104 64 98 65 97 66
REMARK SMILES IDX 53 68 85 69 65 70 84 71 66 72 69 73 83 74 102 75 67 76 68 77
REMARK SMILES IDX 82 79 103 80 70 81 54 82 55 83 63 84 56 85 58 86 64 87 57 88
REMARK SMILES IDX 59 89 60 90 61 91 62 92 86 93 87 94 95 95 88 96 90 97 96 98
REMARK SMILES IDX 89 99 91 100 92 101 93 102 94 103 71 104 72 105 80 106
REMARK SMILES IDX 73 107 75 108 81 109 74 110 76 111 77 112 78 113 79 114
REMARK H PARENT 1 14 1 15 6 19 25 40 25 41 101 67 69 78
REMARK Flexibility Score: inf
ROOT
ATOM      1  O   UNL A   1      38.955  31.731  31.279  1.00  0.00    -0.377 OA
ENDROOT
BRANCH   1   2
ATOM      2  C   UNL A   1      39.055  31.643  29.871  1.00  0.00     0.188 C 
BRANCH   2   3
ATOM      3  C   UNL A   1      37.789  31.107  29.174  1.00  0.00     0.188 C 
BRANCH   3   4
ATOM      4  O   UNL A   1      37.817  30.016  28.264  1.00  0.00    -0.376 OA
BRANCH   4   5
ATOM      5  C   UNL A   1      36.647  29.395  27.753  1.00  0.00     0.202 C 
BRANCH   5   6
ATOM      6  C   UNL A   1      35.359  30.163  27.459  1.00  0.00     0.261 C 
BRANCH   6   7
ATOM      7  O   UNL A   1      34.401  29.474  26.655  1.00  0.00    -0.462 OA
BRANCH   7   8
ATOM      8  C   UNL A   1      33.271  30.171  26.397  1.00  0.00     0.329 C 
ATOM      9  O   UNL A   1      32.904  31.175  26.996  1.00  0.00    -0.250 OA
BRANCH   8  10
ATOM     10  C   UNL A   1      32.394  29.465  25.363  1.00  0.00     0.201 C 
BRANCH  10  11
ATOM     11  C   UNL A   1      31.360  28.626  26.108  1.00  0.00     0.136 C 
BRANCH  11  12
ATOM     12  C   UNL A   1      31.866  27.815  27.277  1.00  0.00     0.220 C 
ATOM     13  N   UNL A   1      31.237  28.003  28.464  1.00  0.00    -0.370 N 
ATOM     14  H   UNL A   1      31.525  27.499  29.259  1.00  0.00     0.159 HD
ATOM     15  H   UNL A   1      30.491  28.641  28.530  1.00  0.00     0.159 HD
ATOM     16  O   UNL A   1      32.798  27.025  27.167  1.00  0.00    -0.275 OA
ENDBRANCH  11  12
ENDBRANCH  10  11
BRANCH  10  17
ATOM     17  N   UNL A   1      33.089  28.662  24.349  1.00  0.00    -0.342 N 
ATOM     18  C   UNL A   1      32.694  27.668  23.510  1.00  0.00     0.231 C 
ATOM     19  H   UNL A   1      34.042  28.890  24.258  1.00  0.00     0.164 HD
ATOM     20  O   UNL A   1      33.554  27.338  22.677  1.00  0.00    -0.274 OA
BRANCH  18  21
ATOM     21  C   UNL A   1      31.310  26.914  23.492  1.00  0.00     0.077 C 
ATOM     22  C   UNL A   1      30.619  26.377  24.764  1.00  0.00     0.043 C 
ATOM     23  C   UNL A   1      31.565  25.660  22.596  1.00  0.00     0.043 C 
ATOM     24  C   UNL A   1      31.129  25.093  25.389  1.00  0.00     0.121 C 
ATOM     25  C   UNL A   1      32.432  24.637  23.334  1.00  0.00     0.121 C 
ATOM     26  N   UNL A   1      31.723  24.113  24.500  1.00  0.00    -0.337 N 
ATOM     27  C   UNL A   1      31.805  22.824  25.033  1.00  0.00     0.280 C 
ATOM     28  O   UNL A   1      31.287  22.573  26.132  1.00  0.00    -0.268 OA
BRANCH  21  29
ATOM     29  C   UNL A   1      30.236  27.892  22.910  1.00  0.00    -0.032 A 
ATOM     30  C   UNL A   1      28.873  27.825  23.247  1.00  0.00     0.005 A 
ATOM     31  C   UNL A   1      30.668  29.006  22.158  1.00  0.00     0.005 A 
ATOM     32  C   UNL A   1      27.999  28.867  22.918  1.00  0.00     0.000 A 
ATOM     33  C   UNL A   1      29.794  30.047  21.835  1.00  0.00     0.000 A 
ATOM     34  C   UNL A   1      28.462  29.985  22.231  1.00  0.00     0.000 A 
ENDBRANCH  21  29
BRANCH  27  35
ATOM     35  C   UNL A   1      32.557  21.690  24.330  1.00  0.00     0.272 C 
ATOM     36  C   UNL A   1      32.085  20.291  24.669  1.00  0.00     0.081 C 
ATOM     37  N   UNL A   1      34.025  21.728  24.508  1.00  0.00    -0.336 N 
ATOM     38  C   UNL A   1      33.290  19.453  24.297  1.00  0.00     0.068 C 
ATOM     39  C   UNL A   1      34.472  20.338  24.658  1.00  0.00     0.261 C 
ATOM     40  H   UNL A   1      34.264  22.264  25.342  1.00  0.00     0.346 HD
ATOM     41  H   UNL A   1      34.479  22.173  23.711  1.00  0.00     0.346 HD
ENDBRANCH  27  35
ENDBRANCH  18  21
ENDBRANCH  10  17
ENDBRANCH   8  10
ENDBRANCH   7   8
ENDBRANCH   6   7
ENDBRANCH   5   6
ENDBRANCH   4   5
ENDBRANCH   3   4
ENDBRANCH   2   3
ENDBRANCH   1   2
BRANCH   1  42
ATOM     42  C   UNL A   1      40.069  32.315  31.951  1.00  0.00     0.188 C 
BRANCH  42  43
ATOM     43  C   UNL A   1      40.274  33.842  31.817  1.00  0.00     0.188 C 
BRANCH  43  44
ATOM     44  O   UNL A   1      39.128  34.536  31.343  1.00  0.00    -0.376 OA
BRANCH  44  45
ATOM     45  C   UNL A   1      39.133  35.027  30.013  1.00  0.00     0.202 C 
BRANCH  45  46
ATOM     46  C   UNL A   1      40.410  35.712  29.499  1.00  0.00     0.261 C 
BRANCH  46  47
ATOM     47  O   UNL A   1      40.881  35.308  28.203  1.00  0.00    -0.460 OA
BRANCH  47  48
ATOM     48  C   UNL A   1      41.893  36.005  27.649  1.00  0.00     0.338 C 
ATOM     49  O   UNL A   1      41.990  37.220  27.574  1.00  0.00    -0.246 OA
BRANCH  48  50
ATOM     50  C   UNL A   1      42.983  35.056  27.340  1.00  0.00     0.060 A 
ATOM     51  C   UNL A   1      43.708  34.491  28.399  1.00  0.00     0.016 A 
ATOM     52  C   UNL A   1      43.299  34.733  26.018  1.00  0.00     0.016 A 
ATOM     53  C   UNL A   1      44.785  33.647  28.137  1.00  0.00     0.010 A 
ATOM     54  C   UNL A   1      44.394  33.905  25.756  1.00  0.00     0.010 A 
ATOM     55  C   UNL A   1      45.169  33.397  26.814  1.00  0.00    -0.014 A 
BRANCH  55  56
ATOM     56  C   UNL A   1      46.494  32.786  26.550  1.00  0.00     0.031 A 
ATOM     57  C   UNL A   1      46.623  31.290  26.651  1.00  0.00     0.074 A 
ATOM     58  C   UNL A   1      47.555  33.534  26.199  1.00  0.00     0.049 A 
ATOM     59  N   UNL A   1      47.674  30.535  26.466  1.00  0.00    -0.248 NA
ATOM     60  C   UNL A   1      45.404  30.547  27.011  1.00  0.00     0.031 C 
ATOM     61  C   UNL A   1      47.554  34.988  26.058  1.00  0.00     0.029 A 
ATOM     62  N   UNL A   1      48.847  33.167  25.921  1.00  0.00    -0.354 N 
ATOM     63  C   UNL A   1      47.254  29.234  26.720  1.00  0.00     0.074 A 
ATOM     64  C   UNL A   1      45.855  29.304  27.082  1.00  0.00     0.031 C 
ATOM     65  C   UNL A   1      48.797  35.393  25.747  1.00  0.00     0.029 A 
ATOM     66  C   UNL A   1      49.684  34.232  25.694  1.00  0.00     0.049 A 
ATOM     67  H   UNL A   1      49.146  32.228  25.887  1.00  0.00     0.167 HD
ATOM     68  C   UNL A   1      47.963  28.083  26.648  1.00  0.00     0.034 A 
ATOM     69  C   UNL A   1      51.017  34.267  25.495  1.00  0.00     0.034 A 
ATOM     70  C   UNL A   1      49.349  28.014  26.277  1.00  0.00     0.049 A 
ATOM     71  C   UNL A   1      51.791  32.974  25.444  1.00  0.00     0.074 A 
ATOM     72  C   UNL A   1      50.142  26.891  26.124  1.00  0.00     0.029 A 
ATOM     73  N   UNL A   1      50.157  29.111  26.024  1.00  0.00    -0.354 N 
ATOM     74  N   UNL A   1      51.355  31.743  25.570  1.00  0.00    -0.248 NA
ATOM     75  C   UNL A   1      53.235  33.074  25.187  1.00  0.00     0.031 C 
ATOM     76  C   UNL A   1      51.442  27.310  25.823  1.00  0.00     0.029 A 
ATOM     77  C   UNL A   1      51.446  28.694  25.736  1.00  0.00     0.049 A 
ATOM     78  H   UNL A   1      49.859  30.048  26.045  1.00  0.00     0.167 HD
ATOM     79  C   UNL A   1      52.461  30.924  25.372  1.00  0.00     0.074 A 
ATOM     80  C   UNL A   1      53.583  31.798  25.094  1.00  0.00     0.031 C 
ATOM     81  C   UNL A   1      52.546  29.570  25.424  1.00  0.00     0.034 A 
BRANCH  68  82
ATOM     82  C   UNL A   1      47.247  26.800  26.983  1.00  0.00     0.023 A 
ATOM     83  C   UNL A   1      47.288  26.290  28.297  1.00  0.00     0.012 A 
ATOM     84  C   UNL A   1      46.496  26.124  26.002  1.00  0.00     0.148 A 
ATOM     85  C   UNL A   1      46.619  25.110  28.621  1.00  0.00     0.002 A 
ATOM     86  C   UNL A   1      45.792  24.977  26.344  1.00  0.00     0.091 A 
ATOM     87  F   UNL A   1      46.492  26.611  24.753  1.00  0.00    -0.205 F 
ATOM     88  C   UNL A   1      45.864  24.460  27.648  1.00  0.00     0.022 A 
BRANCH  86  89
ATOM     89  S   UNL A   1      44.726  24.115  25.185  1.00  0.00     0.127 S 
ATOM     90  O   UNL A   1      44.253  22.994  25.996  1.00  0.00    -0.237 OA
ATOM     91  O   UNL A   1      43.711  25.127  24.892  1.00  0.00    -0.237 OA
ATOM     92  O   UNL A   1      45.569  23.753  24.053  1.00  0.00    -0.744 OA
ENDBRANCH  86  89
ENDBRANCH  68  82
BRANCH  69  93
ATOM     93  C   UNL A   1      51.708  35.575  25.318  1.00  0.00     0.023 A 
ATOM     94  C   UNL A   1      52.095  35.998  24.031  1.00  0.00     0.012 A 
ATOM     95  C   UNL A   1      51.972  36.408  26.422  1.00  0.00     0.148 A 
ATOM     96  C   UNL A   1      52.764  37.210  23.853  1.00  0.00     0.002 A 
ATOM     97  C   UNL A   1      52.581  37.642  26.231  1.00  0.00     0.091 A 
ATOM     98  F   UNL A   1      51.610  35.980  27.640  1.00  0.00    -0.205 F 
ATOM     99  C   UNL A   1      52.996  38.037  24.950  1.00  0.00     0.022 A 
BRANCH  97 100
ATOM    100  S   UNL A   1      52.791  38.828  27.561  1.00  0.00     0.127 S 
ATOM    101  O   UNL A   1      53.698  39.800  26.957  1.00  0.00    -0.237 OA
ATOM    102  O   UNL A   1      51.419  39.300  27.758  1.00  0.00    -0.237 OA
ATOM    103  O   UNL A   1      53.331  38.074  28.684  1.00  0.00    -0.744 OA
ENDBRANCH  97 100
ENDBRANCH  69  93
BRANCH  81 104
ATOM    104  C   UNL A   1      53.885  28.940  25.132  1.00  0.00     0.023 A 
ATOM    105  C   UNL A   1      54.784  28.665  26.182  1.00  0.00     0.012 A 
ATOM    106  C   UNL A   1      54.230  28.569  23.816  1.00  0.00     0.148 A 
ATOM    107  C   UNL A   1      56.021  28.076  25.921  1.00  0.00     0.002 A 
ATOM    108  C   UNL A   1      55.439  27.932  23.572  1.00  0.00     0.091 A 
ATOM    109  F   UNL A   1      53.370  28.851  22.827  1.00  0.00    -0.205 F 
ATOM    110  C   UNL A   1      56.344  27.700  24.620  1.00  0.00     0.022 A 
BRANCH 108 111
ATOM    111  S   UNL A   1      55.896  27.322  21.945  1.00  0.00     0.127 S 
ATOM    112  O   UNL A   1      54.690  26.597  21.548  1.00  0.00    -0.237 OA
ATOM    113  O   UNL A   1      56.134  28.563  21.205  1.00  0.00    -0.237 OA
ATOM    114  O   UNL A   1      57.083  26.501  22.143  1.00  0.00    -0.744 OA
ENDBRANCH 108 111
ENDBRANCH  81 104
ENDBRANCH  55  56
ENDBRANCH  48  50
ENDBRANCH  47  48
ENDBRANCH  46  47
ENDBRANCH  45  46
ENDBRANCH  44  45
ENDBRANCH  43  44
ENDBRANCH  42  43
ENDBRANCH   1  42
TORSDOF 29
ENDMDL
MODEL 2
REMARK VINA RESULT:      -8.8      9.455     18.037
REMARK SMILES NC(=O)C[C@H](NC(=O)C1(c2ccccc2)CCN(C(=O)[C@@H]2CCC[NH2+]2)CC1)C(=O)OCCOCCOCCOCCOC(=O)c1ccc(-c2c3nc(c(-c4cccc(S(=O)(=O)[O-])c4F)c4ccc([nH]4)c(-c4cccc(S(=O)(=O)[O-])c4F)c4nc(c(-c5cccc(S(=O)(=O)[O-])c5F)c5ccc2[nH]5)C=C4)C=C3)cc1
REMARK SMILES IDX 36 1 35 2 34 3 33 4 32 5 31 6 30 7 28 8 29 9 5 10 4 11 2 12
REMARK SMILES IDX 1 13 3 16 6 17 7 18 8 20 9 21 16 22 27 23 17 24 26 25 18 26
REMARK SMILES IDX 19 27 20 28 10 29 11 30 15 31 12 32 14 33 13 34 21 35 22 36
REMARK SMILES IDX 25 37 23 38 24 39 37 42 38 43 39 44 40 45 41 46 42 47 43 48
REMARK SMILES IDX 44 49 45 50 46 51 107 52 47 53 106 54 48 55 49 56 50 57
REMARK SMILES IDX 100 58 51 59 105 60 99 61 101 62 52 63 104 64 98 65 97 66
REMARK SMILES IDX 53 68 85 69 65 70 84 71 66 72 69 73 83 74 102 75 67 76 68 77
REMARK SMILES IDX 82 79 103 80 70 81 54 82 55 83 63 84 56 85 58 86 64 87 57 88
REMARK SMILES IDX 59 89 60 90 61 91 62 92 86 93 87 94 95 95 88 96 90 97 96 98
REMARK SMILES IDX 89 99 91 100 92 101 93 102 94 103 71 104 72 105 80 106
REMARK SMILES IDX 73 107 75 108 81 109 74 110 76 111 77 112 78 113 79 114
REMARK H PARENT 1 14 1 15 6 19 25 40 25 41 101 67 69 78
REMARK Flexibility Score: inf
ROOT
ATOM      1  O   UNL A   1      40.632  33.980  31.116  1.00  0.00    -0.377 OA
ENDROOT
BRANCH   1   2
ATOM      2  C   UNL A   1      41.924  33.618  30.669  1.00  0.00     0.188 C 
BRANCH   2   3
ATOM      3  C   UNL A   1      42.300  34.176  29.283  1.00  0.00     0.188 C 
BRANCH   3   4
ATOM      4  O   UNL A   1      41.851  35.442  28.818  1.00  0.00    -0.376 OA
BRANCH   4   5
ATOM      5  C   UNL A   1      42.608  36.636  28.951  1.00  0.00     0.202 C 
BRANCH   5   6
ATOM      6  C   UNL A   1      43.582  37.126  27.879  1.00  0.00     0.261 C 
BRANCH   6   7
ATOM      7  O   UNL A   1      44.963  37.082  28.237  1.00  0.00    -0.462 OA
BRANCH   7   8
ATOM      8  C   UNL A   1      45.483  38.266  28.636  1.00  0.00     0.329 C 
ATOM      9  O   UNL A   1      45.738  38.575  29.793  1.00  0.00    -0.250 OA
BRANCH   8  10
ATOM     10  C   UNL A   1      45.568  39.264  27.481  1.00  0.00     0.201 C 
BRANCH  10  11
ATOM     11  C   UNL A   1      45.867  38.488  26.202  1.00  0.00     0.136 C 
BRANCH  11  12
ATOM     12  C   UNL A   1      47.202  38.754  25.549  1.00  0.00     0.220 C 
ATOM     13  N   UNL A   1      47.179  39.086  24.233  1.00  0.00    -0.370 N 
ATOM     14  H   UNL A   1      48.020  39.270  23.757  1.00  0.00     0.159 HD
ATOM     15  H   UNL A   1      46.320  39.144  23.756  1.00  0.00     0.159 HD
ATOM     16  O   UNL A   1      48.258  38.675  26.168  1.00  0.00    -0.275 OA
ENDBRANCH  11  12
ENDBRANCH  10  11
BRANCH  10  17
ATOM     17  N   UNL A   1      46.504  40.384  27.646  1.00  0.00    -0.342 N 
ATOM     18  C   UNL A   1      46.343  41.712  27.887  1.00  0.00     0.231 C 
ATOM     19  H   UNL A   1      47.448  40.117  27.565  1.00  0.00     0.164 HD
ATOM     20  O   UNL A   1      47.402  42.317  28.117  1.00  0.00    -0.274 OA
BRANCH  18  21
ATOM     21  C   UNL A   1      44.997  42.533  27.895  1.00  0.00     0.077 C 
ATOM     22  C   UNL A   1      44.907  44.012  28.329  1.00  0.00     0.043 C 
ATOM     23  C   UNL A   1      44.075  41.752  28.885  1.00  0.00     0.043 C 
ATOM     24  C   UNL A   1      44.933  44.344  29.809  1.00  0.00     0.121 C 
ATOM     25  C   UNL A   1      44.537  41.956  30.329  1.00  0.00     0.121 C 
ATOM     26  N   UNL A   1      44.387  43.357  30.720  1.00  0.00    -0.337 N 
ATOM     27  C   UNL A   1      44.067  43.854  31.987  1.00  0.00     0.280 C 
ATOM     28  O   UNL A   1      44.151  45.070  32.215  1.00  0.00    -0.268 OA
BRANCH  21  29
ATOM     29  C   UNL A   1      44.449  42.576  26.430  1.00  0.00    -0.032 A 
ATOM     30  C   UNL A   1      43.488  41.674  25.942  1.00  0.00     0.005 A 
ATOM     31  C   UNL A   1      44.790  43.673  25.609  1.00  0.00     0.005 A 
ATOM     32  C   UNL A   1      42.837  41.906  24.725  1.00  0.00     0.000 A 
ATOM     33  C   UNL A   1      44.135  43.904  24.397  1.00  0.00     0.000 A 
ATOM     34  C   UNL A   1      43.145  43.029  23.963  1.00  0.00     0.000 A 
ENDBRANCH  21  29
BRANCH  27  35
ATOM     35  C   UNL A   1      43.648  42.943  33.145  1.00  0.00     0.272 C 
ATOM     36  C   UNL A   1      42.439  43.408  33.930  1.00  0.00     0.081 C 
ATOM     37  N   UNL A   1      44.729  42.648  34.112  1.00  0.00    -0.336 N 
ATOM     38  C   UNL A   1      42.610  42.669  35.240  1.00  0.00     0.068 C 
ATOM     39  C   UNL A   1      44.116  42.643  35.446  1.00  0.00     0.261 C 
ATOM     40  H   UNL A   1      45.450  43.367  34.061  1.00  0.00     0.346 HD
ATOM     41  H   UNL A   1      45.167  41.751  33.908  1.00  0.00     0.346 HD
ENDBRANCH  27  35
ENDBRANCH  18  21
ENDBRANCH  10  17
ENDBRANCH   8  10
ENDBRANCH   7   8
ENDBRANCH   6   7
ENDBRANCH   5   6
ENDBRANCH   4   5
ENDBRANCH   3   4
ENDBRANCH   2   3
ENDBRANCH   1   2
BRANCH   1  42
ATOM     42  C   UNL A   1      39.637  32.958  31.051  1.00  0.00     0.188 C 
BRANCH  42  43
ATOM     43  C   UNL A   1      38.509  33.115  30.005  1.00  0.00     0.188 C 
BRANCH  43  44
ATOM     44  O   UNL A   1      37.846  31.899  29.688  1.00  0.00    -0.376 OA
BRANCH  44  45
ATOM     45  C   UNL A   1      38.491  30.674  29.997  1.00  0.00     0.202 C 
BRANCH  45  46
ATOM     46  C   UNL A   1      37.619  29.496  30.468  1.00  0.00     0.261 C 
BRANCH  46  47
ATOM     47  O   UNL A   1      36.849  29.703  31.663  1.00  0.00    -0.460 OA
BRANCH  47  48
ATOM     48  C   UNL A   1      37.356  29.259  32.830  1.00  0.00     0.338 C 
ATOM     49  O   UNL A   1      37.411  28.100  33.211  1.00  0.00    -0.246 OA
BRANCH  48  50
ATOM     50  C   UNL A   1      38.042  30.392  33.487  1.00  0.00     0.060 A 
ATOM     51  C   UNL A   1      39.351  30.209  33.957  1.00  0.00     0.016 A 
ATOM     52  C   UNL A   1      37.399  31.621  33.651  1.00  0.00     0.016 A 
ATOM     53  C   UNL A   1      39.997  31.236  34.641  1.00  0.00     0.010 A 
ATOM     54  C   UNL A   1      38.040  32.642  34.357  1.00  0.00     0.010 A 
ATOM     55  C   UNL A   1      39.323  32.436  34.895  1.00  0.00    -0.014 A 
BRANCH  55  56
ATOM     56  C   UNL A   1      39.879  33.379  35.896  1.00  0.00     0.031 A 
ATOM     57  C   UNL A   1      39.336  33.334  37.299  1.00  0.00     0.074 A 
ATOM     58  C   UNL A   1      40.863  34.239  35.579  1.00  0.00     0.049 A 
ATOM     59  N   UNL A   1      39.664  34.056  38.338  1.00  0.00    -0.248 NA
ATOM     60  C   UNL A   1      38.281  32.341  37.564  1.00  0.00     0.031 C 
ATOM     61  C   UNL A   1      41.478  34.372  34.261  1.00  0.00     0.029 A 
ATOM     62  N   UNL A   1      41.500  35.181  36.348  1.00  0.00    -0.354 N 
ATOM     63  C   UNL A   1      38.834  33.631  39.369  1.00  0.00     0.074 A 
ATOM     64  C   UNL A   1      37.981  32.596  38.828  1.00  0.00     0.031 C 
ATOM     65  C   UNL A   1      42.386  35.362  34.305  1.00  0.00     0.029 A 
ATOM     66  C   UNL A   1      42.396  35.949  35.644  1.00  0.00     0.049 A 
ATOM     67  H   UNL A   1      41.331  35.295  37.312  1.00  0.00     0.167 HD
ATOM     68  C   UNL A   1      38.791  34.055  40.655  1.00  0.00     0.034 A 
ATOM     69  C   UNL A   1      43.119  37.019  36.031  1.00  0.00     0.034 A 
ATOM     70  C   UNL A   1      39.647  35.076  41.194  1.00  0.00     0.049 A 
ATOM     71  C   UNL A   1      43.037  37.489  37.460  1.00  0.00     0.074 A 
ATOM     72  C   UNL A   1      39.717  35.538  42.496  1.00  0.00     0.029 A 
ATOM     73  N   UNL A   1      40.564  35.810  40.459  1.00  0.00    -0.354 N 
ATOM     74  N   UNL A   1      42.334  37.000  38.453  1.00  0.00    -0.248 NA
ATOM     75  C   UNL A   1      43.878  38.637  37.831  1.00  0.00     0.031 C 
ATOM     76  C   UNL A   1      40.644  36.584  42.539  1.00  0.00     0.029 A 
ATOM     77  C   UNL A   1      41.191  36.737  41.275  1.00  0.00     0.049 A 
ATOM     78  H   UNL A   1      40.744  35.690  39.500  1.00  0.00     0.167 HD
ATOM     79  C   UNL A   1      42.673  37.755  39.571  1.00  0.00     0.074 A 
ATOM     80  C   UNL A   1      43.663  38.720  39.137  1.00  0.00     0.031 C 
ATOM     81  C   UNL A   1      42.202  37.667  40.841  1.00  0.00     0.034 A 
BRANCH  68  82
ATOM     82  C   UNL A   1      37.779  33.414  41.568  1.00  0.00     0.023 A 
ATOM     83  C   UNL A   1      36.432  33.831  41.533  1.00  0.00     0.012 A 
ATOM     84  C   UNL A   1      38.157  32.365  42.429  1.00  0.00     0.148 A 
ATOM     85  C   UNL A   1      35.484  33.236  42.366  1.00  0.00     0.002 A 
ATOM     86  C   UNL A   1      37.197  31.746  43.219  1.00  0.00     0.091 A 
ATOM     87  F   UNL A   1      39.446  32.003  42.466  1.00  0.00    -0.205 F 
ATOM     88  C   UNL A   1      35.865  32.188  43.200  1.00  0.00     0.022 A 
BRANCH  86  89
ATOM     89  S   UNL A   1      37.571  30.333  44.264  1.00  0.00     0.127 S 
ATOM     90  O   UNL A   1      38.085  29.373  43.289  1.00  0.00    -0.237 OA
ATOM     91  O   UNL A   1      38.579  30.882  45.170  1.00  0.00    -0.237 OA
ATOM     92  O   UNL A   1      36.316  29.961  44.903  1.00  0.00    -0.744 OA
ENDBRANCH  86  89
ENDBRANCH  68  82
BRANCH  69  93
ATOM     93  C   UNL A   1      43.997  37.716  35.049  1.00  0.00     0.023 A 
ATOM     94  C   UNL A   1      43.475  38.750  34.248  1.00  0.00     0.012 A 
ATOM     95  C   UNL A   1      45.354  37.364  34.917  1.00  0.00     0.148 A 
ATOM     96  C   UNL A   1      44.280  39.397  33.308  1.00  0.00     0.002 A 
ATOM     97  C   UNL A   1      46.166  38.054  34.025  1.00  0.00     0.091 A 
ATOM     98  F   UNL A   1      45.828  36.367  35.678  1.00  0.00    -0.205 F 
ATOM     99  C   UNL A   1      45.627  39.057  33.205  1.00  0.00     0.022 A 
BRANCH  97 100
ATOM    100  S   UNL A   1      47.938  37.781  33.927  1.00  0.00     0.127 S 
ATOM    101  O   UNL A   1      48.371  38.132  35.277  1.00  0.00    -0.237 OA
ATOM    102  O   UNL A   1      48.002  36.354  33.608  1.00  0.00    -0.237 OA
ATOM    103  O   UNL A   1      48.415  38.654  32.864  1.00  0.00    -0.744 OA
ENDBRANCH  97 100
ENDBRANCH  69  93
BRANCH  81 104
ATOM    104  C   UNL A   1      42.780  38.606  41.870  1.00  0.00     0.023 A 
ATOM    105  C   UNL A   1      43.921  38.234  42.609  1.00  0.00     0.012 A 
ATOM    106  C   UNL A   1      42.221  39.886  42.066  1.00  0.00     0.148 A 
ATOM    107  C   UNL A   1      44.466  39.100  43.557  1.00  0.00     0.002 A 
ATOM    108  C   UNL A   1      42.803  40.764  42.971  1.00  0.00     0.091 A 
ATOM    109  F   UNL A   1      41.127  40.219  41.365  1.00  0.00    -0.205 F 
ATOM    110  C   UNL A   1      43.915  40.366  43.730  1.00  0.00     0.022 A 
BRANCH 108 111
ATOM    111  S   UNL A   1      42.222  42.450  43.187  1.00  0.00     0.127 S 
ATOM    112  O   UNL A   1      42.707  43.092  41.966  1.00  0.00    -0.237 OA
ATOM    113  O   UNL A   1      40.771  42.272  43.248  1.00  0.00    -0.237 OA
ATOM    114  O   UNL A   1      42.825  42.926  44.425  1.00  0.00    -0.744 OA
ENDBRANCH 108 111
ENDBRANCH  81 104
ENDBRANCH  55  56
ENDBRANCH  48  50
ENDBRANCH  47  48
ENDBRANCH  46  47
ENDBRANCH  45  46
ENDBRANCH  44  45
ENDBRANCH  43  44
ENDBRANCH  42  43
ENDBRANCH   1  42
TORSDOF 29
ENDMDL
MODEL 3
REMARK VINA RESULT:      -8.7      6.659      9.299
REMARK SMILES NC(=O)C[C@H](NC(=O)C1(c2ccccc2)CCN(C(=O)[C@@H]2CCC[NH2+]2)CC1)C(=O)OCCOCCOCCOCCOC(=O)c1ccc(-c2c3nc(c(-c4cccc(S(=O)(=O)[O-])c4F)c4ccc([nH]4)c(-c4cccc(S(=O)(=O)[O-])c4F)c4nc(c(-c5cccc(S(=O)(=O)[O-])c5F)c5ccc2[nH]5)C=C4)C=C3)cc1
REMARK SMILES IDX 36 1 35 2 34 3 33 4 32 5 31 6 30 7 28 8 29 9 5 10 4 11 2 12
REMARK SMILES IDX 1 13 3 16 6 17 7 18 8 20 9 21 16 22 27 23 17 24 26 25 18 26
REMARK SMILES IDX 19 27 20 28 10 29 11 30 15 31 12 32 14 33 13 34 21 35 22 36
REMARK SMILES IDX 25 37 23 38 24 39 37 42 38 43 39 44 40 45 41 46 42 47 43 48
REMARK SMILES IDX 44 49 45 50 46 51 107 52 47 53 106 54 48 55 49 56 50 57
REMARK SMILES IDX 100 58 51 59 105 60 99 61 101 62 52 63 104 64 98 65 97 66
REMARK SMILES IDX 53 68 85 69 65 70 84 71 66 72 69 73 83 74 102 75 67 76 68 77
REMARK SMILES IDX 82 79 103 80 70 81 54 82 55 83 63 84 56 85 58 86 64 87 57 88
REMARK SMILES IDX 59 89 60 90 61 91 62 92 86 93 87 94 95 95 88 96 90 97 96 98
REMARK SMILES IDX 89 99 91 100 92 101 93 102 94 103 71 104 72 105 80 106
REMARK SMILES IDX 73 107 75 108 81 109 74 110 76 111 77 112 78 113 79 114
REMARK H PARENT 1 14 1 15 6 19 25 40 25 41 101 67 69 78
REMARK Flexibility Score: inf
ROOT
ATOM      1  O   UNL A   1      37.160  33.727  33.163  1.00  0.00    -0.377 OA
ENDROOT
BRANCH   1   2
ATOM      2  C   UNL A   1      36.651  33.092  32.006  1.00  0.00     0.188 C 
BRANCH   2   3
ATOM      3  C   UNL A   1      35.526  33.869  31.294  1.00  0.00     0.188 C 
BRANCH   3   4
ATOM      4  O   UNL A   1      34.599  33.245  30.416  1.00  0.00    -0.376 OA
BRANCH   4   5
ATOM      5  C   UNL A   1      34.582  33.463  29.013  1.00  0.00     0.202 C 
BRANCH   5   6
ATOM      6  C   UNL A   1      33.343  33.227  28.151  1.00  0.00     0.261 C 
BRANCH   6   7
ATOM      7  O   UNL A   1      33.342  32.016  27.395  1.00  0.00    -0.462 OA
BRANCH   7   8
ATOM      8  C   UNL A   1      32.193  31.766  26.725  1.00  0.00     0.329 C 
ATOM      9  O   UNL A   1      31.274  32.562  26.572  1.00  0.00    -0.250 OA
BRANCH   8  10
ATOM     10  C   UNL A   1      32.087  30.299  26.309  1.00  0.00     0.201 C 
BRANCH  10  11
ATOM     11  C   UNL A   1      32.560  29.438  27.477  1.00  0.00     0.136 C 
BRANCH  11  12
ATOM     12  C   UNL A   1      33.886  28.736  27.303  1.00  0.00     0.220 C 
ATOM     13  N   UNL A   1      34.934  29.236  28.005  1.00  0.00    -0.370 N 
ATOM     14  H   UNL A   1      35.821  28.816  27.929  1.00  0.00     0.159 HD
ATOM     15  H   UNL A   1      34.806  30.016  28.591  1.00  0.00     0.159 HD
ATOM     16  O   UNL A   1      34.017  27.764  26.566  1.00  0.00    -0.275 OA
ENDBRANCH  11  12
ENDBRANCH  10  11
BRANCH  10  17
ATOM     17  N   UNL A   1      32.768  29.916  25.066  1.00  0.00    -0.342 N 
ATOM     18  C   UNL A   1      32.371  29.254  23.946  1.00  0.00     0.231 C 
ATOM     19  H   UNL A   1      33.711  30.198  25.036  1.00  0.00     0.164 HD
ATOM     20  O   UNL A   1      33.210  29.261  23.031  1.00  0.00    -0.274 OA
BRANCH  18  21
ATOM     21  C   UNL A   1      31.008  28.500  23.705  1.00  0.00     0.077 C 
ATOM     22  C   UNL A   1      30.181  27.856  24.838  1.00  0.00     0.043 C 
ATOM     23  C   UNL A   1      31.381  27.327  22.743  1.00  0.00     0.043 C 
ATOM     24  C   UNL A   1      30.633  26.525  25.408  1.00  0.00     0.121 C 
ATOM     25  C   UNL A   1      32.170  26.249  23.488  1.00  0.00     0.121 C 
ATOM     26  N   UNL A   1      31.338  25.626  24.516  1.00  0.00    -0.337 N 
ATOM     27  C   UNL A   1      31.375  24.296  24.945  1.00  0.00     0.280 C 
ATOM     28  O   UNL A   1      30.736  23.951  25.951  1.00  0.00    -0.268 OA
BRANCH  21  29
ATOM     29  C   UNL A   1      29.996  29.521  23.086  1.00  0.00    -0.032 A 
ATOM     30  C   UNL A   1      29.453  29.378  21.797  1.00  0.00     0.005 A 
ATOM     31  C   UNL A   1      29.458  30.531  23.912  1.00  0.00     0.005 A 
ATOM     32  C   UNL A   1      28.364  30.156  21.386  1.00  0.00     0.000 A 
ATOM     33  C   UNL A   1      28.369  31.303  23.500  1.00  0.00     0.000 A 
ATOM     34  C   UNL A   1      27.810  31.103  22.242  1.00  0.00     0.000 A 
ENDBRANCH  21  29
BRANCH  27  35
ATOM     35  C   UNL A   1      32.217  23.228  24.241  1.00  0.00     0.272 C 
ATOM     36  C   UNL A   1      31.723  22.811  22.871  1.00  0.00     0.081 C 
ATOM     37  N   UNL A   1      32.435  22.000  25.036  1.00  0.00    -0.336 N 
ATOM     38  C   UNL A   1      32.375  21.456  22.699  1.00  0.00     0.068 C 
ATOM     39  C   UNL A   1      32.366  20.870  24.102  1.00  0.00     0.261 C 
ATOM     40  H   UNL A   1      31.711  21.910  25.748  1.00  0.00     0.346 HD
ATOM     41  H   UNL A   1      33.337  22.027  25.511  1.00  0.00     0.346 HD
ENDBRANCH  27  35
ENDBRANCH  18  21
ENDBRANCH  10  17
ENDBRANCH   8  10
ENDBRANCH   7   8
ENDBRANCH   6   7
ENDBRANCH   5   6
ENDBRANCH   4   5
ENDBRANCH   3   4
ENDBRANCH   2   3
ENDBRANCH   1   2
BRANCH   1  42
ATOM     42  C   UNL A   1      36.690  33.222  34.412  1.00  0.00     0.188 C 
BRANCH  42  43
ATOM     43  C   UNL A   1      37.677  32.404  35.277  1.00  0.00     0.188 C 
BRANCH  43  44
ATOM     44  O   UNL A   1      37.953  32.988  36.543  1.00  0.00    -0.376 OA
BRANCH  44  45
ATOM     45  C   UNL A   1      39.236  33.547  36.768  1.00  0.00     0.202 C 
BRANCH  45  46
ATOM     46  C   UNL A   1      39.851  34.418  35.658  1.00  0.00     0.261 C 
BRANCH  46  47
ATOM     47  O   UNL A   1      41.284  34.529  35.647  1.00  0.00    -0.460 OA
BRANCH  47  48
ATOM     48  C   UNL A   1      41.890  34.801  34.474  1.00  0.00     0.338 C 
ATOM     49  O   UNL A   1      41.915  35.876  33.895  1.00  0.00    -0.246 OA
BRANCH  48  50
ATOM     50  C   UNL A   1      42.716  33.631  34.108  1.00  0.00     0.060 A 
ATOM     51  C   UNL A   1      42.163  32.348  34.230  1.00  0.00     0.016 A 
ATOM     52  C   UNL A   1      44.029  33.794  33.661  1.00  0.00     0.016 A 
ATOM     53  C   UNL A   1      42.940  31.224  33.959  1.00  0.00     0.010 A 
ATOM     54  C   UNL A   1      44.814  32.665  33.411  1.00  0.00     0.010 A 
ATOM     55  C   UNL A   1      44.286  31.376  33.605  1.00  0.00    -0.014 A 
BRANCH  55  56
ATOM     56  C   UNL A   1      45.181  30.195  33.647  1.00  0.00     0.031 A 
ATOM     57  C   UNL A   1      45.523  29.604  34.989  1.00  0.00     0.074 A 
ATOM     58  C   UNL A   1      45.662  29.637  32.522  1.00  0.00     0.049 A 
ATOM     59  N   UNL A   1      46.281  28.579  35.275  1.00  0.00    -0.248 NA
ATOM     60  C   UNL A   1      44.929  30.260  36.167  1.00  0.00     0.031 C 
ATOM     61  C   UNL A   1      45.396  30.109  31.165  1.00  0.00     0.029 A 
ATOM     62  N   UNL A   1      46.495  28.561  32.350  1.00  0.00    -0.354 N 
ATOM     63  C   UNL A   1      46.285  28.487  36.662  1.00  0.00     0.074 A 
ATOM     64  C   UNL A   1      45.462  29.566  37.161  1.00  0.00     0.031 C 
ATOM     65  C   UNL A   1      46.080  29.342  30.299  1.00  0.00     0.029 A 
ATOM     66  C   UNL A   1      46.850  28.345  31.040  1.00  0.00     0.049 A 
ATOM     67  H   UNL A   1      46.809  27.997  33.095  1.00  0.00     0.167 HD
ATOM     68  C   UNL A   1      46.908  27.580  37.451  1.00  0.00     0.034 A 
ATOM     69  C   UNL A   1      47.718  27.462  30.507  1.00  0.00     0.034 A 
ATOM     70  C   UNL A   1      47.716  26.501  36.954  1.00  0.00     0.049 A 
ATOM     71  C   UNL A   1      48.420  26.478  31.407  1.00  0.00     0.074 A 
ATOM     72  C   UNL A   1      48.346  25.499  37.670  1.00  0.00     0.029 A 
ATOM     73  N   UNL A   1      48.028  26.295  35.620  1.00  0.00    -0.354 N 
ATOM     74  N   UNL A   1      48.320  26.329  32.707  1.00  0.00    -0.248 NA
ATOM     75  C   UNL A   1      49.325  25.515  30.762  1.00  0.00     0.031 C 
ATOM     76  C   UNL A   1      49.076  24.713  36.774  1.00  0.00     0.029 A 
ATOM     77  C   UNL A   1      48.859  25.194  35.492  1.00  0.00     0.049 A 
ATOM     78  H   UNL A   1      47.707  26.849  34.873  1.00  0.00     0.167 HD
ATOM     79  C   UNL A   1      49.119  25.237  33.029  1.00  0.00     0.074 A 
ATOM     80  C   UNL A   1      49.677  24.748  31.785  1.00  0.00     0.031 C 
ATOM     81  C   UNL A   1      49.378  24.692  34.245  1.00  0.00     0.034 A 
BRANCH  68  82
ATOM     82  C   UNL A   1      46.740  27.720  38.942  1.00  0.00     0.023 A 
ATOM     83  C   UNL A   1      45.640  27.120  39.589  1.00  0.00     0.012 A 
ATOM     84  C   UNL A   1      47.701  28.411  39.707  1.00  0.00     0.148 A 
ATOM     85  C   UNL A   1      45.482  27.235  40.970  1.00  0.00     0.002 A 
ATOM     86  C   UNL A   1      47.562  28.478  41.087  1.00  0.00     0.091 A 
ATOM     87  F   UNL A   1      48.724  28.996  39.069  1.00  0.00    -0.205 F 
ATOM     88  C   UNL A   1      46.447  27.903  41.719  1.00  0.00     0.022 A 
BRANCH  86  89
ATOM     89  S   UNL A   1      48.793  29.244  42.146  1.00  0.00     0.127 S 
ATOM     90  O   UNL A   1      49.942  29.331  41.247  1.00  0.00    -0.237 OA
ATOM     91  O   UNL A   1      48.167  30.528  42.463  1.00  0.00    -0.237 OA
ATOM     92  O   UNL A   1      48.959  28.350  43.284  1.00  0.00    -0.744 OA
ENDBRANCH  86  89
ENDBRANCH  68  82
BRANCH  69  93
ATOM     93  C   UNL A   1      47.966  27.460  29.037  1.00  0.00     0.023 A 
ATOM     94  C   UNL A   1      48.948  28.306  28.488  1.00  0.00     0.012 A 
ATOM     95  C   UNL A   1      47.237  26.609  28.184  1.00  0.00     0.148 A 
ATOM     96  C   UNL A   1      49.175  28.331  27.110  1.00  0.00     0.002 A 
ATOM     97  C   UNL A   1      47.511  26.592  26.822  1.00  0.00     0.091 A 
ATOM     98  F   UNL A   1      46.296  25.822  28.724  1.00  0.00    -0.205 F 
ATOM     99  C   UNL A   1      48.466  27.467  26.279  1.00  0.00     0.022 A 
BRANCH  97 100
ATOM    100  S   UNL A   1      46.750  25.415  25.701  1.00  0.00     0.127 S 
ATOM    101  O   UNL A   1      47.231  25.881  24.403  1.00  0.00    -0.237 OA
ATOM    102  O   UNL A   1      47.327  24.151  26.159  1.00  0.00    -0.237 OA
ATOM    103  O   UNL A   1      45.314  25.531  25.920  1.00  0.00    -0.744 OA
ENDBRANCH  97 100
ENDBRANCH  69  93
BRANCH  81 104
ATOM    104  C   UNL A   1      50.269  23.476  34.294  1.00  0.00     0.023 A 
ATOM    105  C   UNL A   1      49.708  22.184  34.254  1.00  0.00     0.012 A 
ATOM    106  C   UNL A   1      51.671  23.617  34.324  1.00  0.00     0.148 A 
ATOM    107  C   UNL A   1      50.525  21.054  34.291  1.00  0.00     0.002 A 
ATOM    108  C   UNL A   1      52.480  22.488  34.303  1.00  0.00     0.091 A 
ATOM    109  F   UNL A   1      52.188  24.853  34.376  1.00  0.00    -0.205 F 
ATOM    110  C   UNL A   1      51.909  21.206  34.305  1.00  0.00     0.022 A 
BRANCH 108 111
ATOM    111  S   UNL A   1      54.272  22.588  34.219  1.00  0.00     0.127 S 
ATOM    112  O   UNL A   1      54.660  21.202  34.476  1.00  0.00    -0.237 OA
ATOM    113  O   UNL A   1      54.492  23.039  32.844  1.00  0.00    -0.237 OA
ATOM    114  O   UNL A   1      54.669  23.548  35.240  1.00  0.00    -0.744 OA
ENDBRANCH 108 111
ENDBRANCH  81 104
ENDBRANCH  55  56
ENDBRANCH  48  50
ENDBRANCH  47  48
ENDBRANCH  46  47
ENDBRANCH  45  46
ENDBRANCH  44  45
ENDBRANCH  43  44
ENDBRANCH  42  43
ENDBRANCH   1  42
TORSDOF 29
ENDMDL
