MODEL 1
REMARK VINA RESULT:     -10.2      0.000      0.000
REMARK SMILES Cc1cc(C)n(C)c(=O)c1C(=O)[NH+]1CCC2(CC1)C[NH2+][C@@H](C(=O)OCCOCCOCCOCCOC(=O)c1ccc(-c3c4nc(c(-c5cccc(S(=O)(=O)[O-])c5F)c5ccc([nH]5)c(-c5cccc(S(=O)(=O)[O-])c5F)c5nc(c(-c6cccc(S(=O)(=O)[O-])c6F)c6ccc3[nH]6)C=C5)C=C4)cc1)C2
REMARK SMILES IDX 31 1 30 2 29 3 28 4 27 5 26 6 25 7 24 8 22 9 23 10 21 11
REMARK SMILES IDX 13 12 14 13 18 14 15 16 17 17 16 18 19 19 102 20 20 21 11 24
REMARK SMILES IDX 12 25 10 26 1 27 2 28 3 29 4 30 8 31 5 32 6 33 9 34 7 35
REMARK SMILES IDX 32 36 33 37 34 38 35 39 36 40 37 41 38 42 39 43 40 44 101 45
REMARK SMILES IDX 41 46 100 47 42 48 43 49 44 50 94 51 45 52 99 53 93 54 95 55
REMARK SMILES IDX 46 56 98 57 92 58 91 59 47 61 79 62 59 63 78 64 60 65 63 66
REMARK SMILES IDX 77 67 96 68 61 69 62 70 76 72 97 73 64 74 48 75 49 76 57 77
REMARK SMILES IDX 50 78 52 79 58 80 51 81 53 82 54 83 55 84 56 85 80 86 81 87
REMARK SMILES IDX 89 88 82 89 84 90 90 91 83 92 85 93 86 94 87 95 88 96 65 97
REMARK SMILES IDX 66 98 74 99 67 100 69 101 75 102 68 103 70 104 71 105 72 106
REMARK SMILES IDX 73 107
REMARK H PARENT 13 15 20 22 20 23 95 60 63 71
REMARK Flexibility Score: inf
ROOT
ATOM      1  C   UNL A   1      35.201  21.257  24.694  1.00  0.00     0.188 C 
ENDROOT
BRANCH   1   2
ATOM      2  O   UNL A   1      34.293  22.332  24.490  1.00  0.00    -0.377 OA
BRANCH   2   3
ATOM      3  C   UNL A   1      34.403  22.973  23.241  1.00  0.00     0.188 C 
BRANCH   3   4
ATOM      4  C   UNL A   1      33.077  23.095  22.475  1.00  0.00     0.188 C 
BRANCH   4   5
ATOM      5  O   UNL A   1      31.969  23.805  23.021  1.00  0.00    -0.376 OA
BRANCH   5   6
ATOM      6  C   UNL A   1      31.367  23.385  24.241  1.00  0.00     0.202 C 
BRANCH   6   7
ATOM      7  C   UNL A   1      30.844  24.413  25.258  1.00  0.00     0.261 C 
BRANCH   7   8
ATOM      8  O   UNL A   1      29.978  25.415  24.713  1.00  0.00    -0.459 OA
BRANCH   8   9
ATOM      9  C   UNL A   1      30.521  26.638  24.499  1.00  0.00     0.364 C 
ATOM     10  O   UNL A   1      30.280  27.359  23.535  1.00  0.00    -0.245 OA
BRANCH   9  11
ATOM     11  C   UNL A   1      31.481  27.067  25.616  1.00  0.00     0.294 C 
ATOM     12  N   UNL A   1      34.206  31.208  27.482  1.00  0.00    -0.267 N 
ATOM     13  C   UNL A   1      34.770  30.064  26.783  1.00  0.00     0.271 C 
ATOM     14  C   UNL A   1      32.846  31.528  27.063  1.00  0.00     0.271 C 
ATOM     15  H   UNL A   1      34.093  30.235  27.379  1.00  0.00     0.357 HD
ATOM     16  C   UNL A   1      34.006  28.821  27.217  1.00  0.00     0.075 C 
ATOM     17  C   UNL A   1      31.881  30.322  27.135  1.00  0.00     0.075 C 
ATOM     18  C   UNL A   1      32.488  28.895  26.923  1.00  0.00     0.036 C 
ATOM     19  C   UNL A   1      31.757  27.829  27.780  1.00  0.00     0.268 C 
ATOM     20  C   UNL A   1      32.190  28.410  25.491  1.00  0.00     0.090 C 
ATOM     21  N   UNL A   1      30.774  27.219  26.895  1.00  0.00    -0.334 N 
ATOM     22  H   UNL A   1      29.961  27.824  26.787  1.00  0.00     0.347 HD
ATOM     23  H   UNL A   1      30.424  26.331  27.254  1.00  0.00     0.347 HD
BRANCH  12  24
ATOM     24  C   UNL A   1      35.046  31.932  28.325  1.00  0.00     0.350 C 
ATOM     25  O   UNL A   1      36.266  31.742  28.272  1.00  0.00    -0.225 OA
BRANCH  24  26
ATOM     26  C   UNL A   1      34.518  32.829  29.425  1.00  0.00     0.147 A 
ATOM     27  C   UNL A   1      35.588  31.579  31.392  1.00  0.00     0.045 C 
ATOM     28  C   UNL A   1      34.810  32.675  30.737  1.00  0.00    -0.027 A 
ATOM     29  C   UNL A   1      34.458  33.689  31.707  1.00  0.00     0.026 A 
ATOM     30  C   UNL A   1      34.024  34.901  31.348  1.00  0.00     0.018 A 
ATOM     31  C   UNL A   1      33.887  34.156  29.018  1.00  0.00     0.267 A 
ATOM     32  C   UNL A   1      33.820  35.931  32.424  1.00  0.00     0.064 C 
ATOM     33  N   UNL A   1      33.771  35.157  30.007  1.00  0.00    -0.315 N 
ATOM     34  O   UNL A   1      33.503  34.344  27.862  1.00  0.00    -0.268 OA
ATOM     35  C   UNL A   1      33.322  36.480  29.590  1.00  0.00     0.153 C 
ENDBRANCH  24  26
ENDBRANCH  12  24
ENDBRANCH   9  11
ENDBRANCH   8   9
ENDBRANCH   7   8
ENDBRANCH   6   7
ENDBRANCH   5   6
ENDBRANCH   4   5
ENDBRANCH   3   4
ENDBRANCH   2   3
ENDBRANCH   1   2
BRANCH   1  36
ATOM     36  C   UNL A   1      36.706  21.592  24.580  1.00  0.00     0.188 C 
BRANCH  36  37
ATOM     37  O   UNL A   1      37.587  20.562  25.023  1.00  0.00    -0.376 OA
BRANCH  37  38
ATOM     38  C   UNL A   1      38.822  20.931  25.627  1.00  0.00     0.202 C 
BRANCH  38  39
ATOM     39  C   UNL A   1      39.844  19.822  25.942  1.00  0.00     0.261 C 
BRANCH  39  40
ATOM     40  O   UNL A   1      41.041  20.224  26.626  1.00  0.00    -0.460 OA
BRANCH  40  41
ATOM     41  C   UNL A   1      42.215  20.102  25.973  1.00  0.00     0.338 C 
ATOM     42  O   UNL A   1      42.529  19.219  25.192  1.00  0.00    -0.246 OA
BRANCH  41  43
ATOM     43  C   UNL A   1      42.977  21.352  26.179  1.00  0.00     0.060 A 
ATOM     44  C   UNL A   1      43.360  21.695  27.484  1.00  0.00     0.016 A 
ATOM     45  C   UNL A   1      43.333  22.168  25.102  1.00  0.00     0.016 A 
ATOM     46  C   UNL A   1      44.071  22.870  27.719  1.00  0.00     0.010 A 
ATOM     47  C   UNL A   1      44.014  23.365  25.343  1.00  0.00     0.010 A 
ATOM     48  C   UNL A   1      44.351  23.737  26.657  1.00  0.00    -0.014 A 
BRANCH  48  49
ATOM     49  C   UNL A   1      44.768  25.128  26.955  1.00  0.00     0.031 A 
ATOM     50  C   UNL A   1      43.727  26.071  27.495  1.00  0.00     0.074 A 
ATOM     51  C   UNL A   1      46.038  25.538  26.791  1.00  0.00     0.049 A 
ATOM     52  N   UNL A   1      43.840  27.330  27.822  1.00  0.00    -0.248 NA
ATOM     53  C   UNL A   1      42.377  25.515  27.696  1.00  0.00     0.031 C 
ATOM     54  C   UNL A   1      47.141  24.708  26.313  1.00  0.00     0.029 A 
ATOM     55  N   UNL A   1      46.606  26.771  26.999  1.00  0.00    -0.354 N 
ATOM     56  C   UNL A   1      42.577  27.721  28.249  1.00  0.00     0.074 A 
ATOM     57  C   UNL A   1      41.707  26.573  28.124  1.00  0.00     0.031 C 
ATOM     58  C   UNL A   1      48.253  25.462  26.245  1.00  0.00     0.029 A 
ATOM     59  C   UNL A   1      47.935  26.832  26.650  1.00  0.00     0.049 A 
ATOM     60  H   UNL A   1      46.110  27.539  27.364  1.00  0.00     0.167 HD
ATOM     61  C   UNL A   1      42.179  28.923  28.725  1.00  0.00     0.034 A 
ATOM     62  C   UNL A   1      48.787  27.877  26.643  1.00  0.00     0.034 A 
ATOM     63  C   UNL A   1      43.047  30.060  28.859  1.00  0.00     0.049 A 
ATOM     64  C   UNL A   1      48.304  29.225  27.117  1.00  0.00     0.074 A 
ATOM     65  C   UNL A   1      42.742  31.317  29.347  1.00  0.00     0.029 A 
ATOM     66  N   UNL A   1      44.384  30.083  28.494  1.00  0.00    -0.354 N 
ATOM     67  N   UNL A   1      47.132  29.560  27.603  1.00  0.00    -0.248 NA
ATOM     68  C   UNL A   1      49.268  30.337  27.069  1.00  0.00     0.031 C 
ATOM     69  C   UNL A   1      43.887  32.111  29.246  1.00  0.00     0.029 A 
ATOM     70  C   UNL A   1      44.916  31.338  28.732  1.00  0.00     0.049 A 
ATOM     71  H   UNL A   1      44.881  29.319  28.122  1.00  0.00     0.167 HD
ATOM     72  C   UNL A   1      47.227  30.905  27.947  1.00  0.00     0.074 A 
ATOM     73  C   UNL A   1      48.579  31.320  27.634  1.00  0.00     0.031 C 
ATOM     74  C   UNL A   1      46.277  31.726  28.462  1.00  0.00     0.034 A 
BRANCH  61  75
ATOM     75  C   UNL A   1      40.746  29.066  29.165  1.00  0.00     0.023 A 
ATOM     76  C   UNL A   1      39.735  29.241  28.199  1.00  0.00     0.012 A 
ATOM     77  C   UNL A   1      40.394  28.953  30.524  1.00  0.00     0.148 A 
ATOM     78  C   UNL A   1      38.396  29.322  28.580  1.00  0.00     0.002 A 
ATOM     79  C   UNL A   1      39.055  28.985  30.892  1.00  0.00     0.091 A 
ATOM     80  F   UNL A   1      41.374  28.813  31.429  1.00  0.00    -0.205 F 
ATOM     81  C   UNL A   1      38.056  29.180  29.923  1.00  0.00     0.022 A 
BRANCH  79  82
ATOM     82  S   UNL A   1      38.504  28.724  32.581  1.00  0.00     0.127 S 
ATOM     83  O   UNL A   1      39.083  27.416  32.881  1.00  0.00    -0.237 OA
ATOM     84  O   UNL A   1      39.131  29.844  33.282  1.00  0.00    -0.237 OA
ATOM     85  O   UNL A   1      37.049  28.766  32.542  1.00  0.00    -0.744 OA
ENDBRANCH  79  82
ENDBRANCH  61  75
BRANCH  62  86
ATOM     86  C   UNL A   1      50.202  27.679  26.209  1.00  0.00     0.023 A 
ATOM     87  C   UNL A   1      51.204  27.490  27.180  1.00  0.00     0.012 A 
ATOM     88  C   UNL A   1      50.554  27.644  24.845  1.00  0.00     0.148 A 
ATOM     89  C   UNL A   1      52.533  27.287  26.802  1.00  0.00     0.002 A 
ATOM     90  C   UNL A   1      51.869  27.384  24.474  1.00  0.00     0.091 A 
ATOM     91  F   UNL A   1      49.590  27.847  23.936  1.00  0.00    -0.205 F 
ATOM     92  C   UNL A   1      52.863  27.222  25.451  1.00  0.00     0.022 A 
BRANCH  90  93
ATOM     93  S   UNL A   1      52.364  27.151  22.763  1.00  0.00     0.127 S 
ATOM     94  O   UNL A   1      51.084  26.880  22.114  1.00  0.00    -0.237 OA
ATOM     95  O   UNL A   1      52.953  28.452  22.444  1.00  0.00    -0.237 OA
ATOM     96  O   UNL A   1      53.312  26.045  22.771  1.00  0.00    -0.744 OA
ENDBRANCH  90  93
ENDBRANCH  62  86
BRANCH  74  97
ATOM     97  C   UNL A   1      46.649  33.161  28.746  1.00  0.00     0.023 A 
ATOM     98  C   UNL A   1      47.219  33.502  29.988  1.00  0.00     0.012 A 
ATOM     99  C   UNL A   1      46.551  34.143  27.738  1.00  0.00     0.148 A 
ATOM    100  C   UNL A   1      47.663  34.801  30.232  1.00  0.00     0.002 A 
ATOM    101  C   UNL A   1      47.046  35.421  27.969  1.00  0.00     0.091 A 
ATOM    102  F   UNL A   1      45.995  33.803  26.566  1.00  0.00    -0.205 F 
ATOM    103  C   UNL A   1      47.592  35.755  29.220  1.00  0.00     0.022 A 
BRANCH 101 104
ATOM    104  S   UNL A   1      47.100  36.684  26.693  1.00  0.00     0.127 S 
ATOM    105  O   UNL A   1      47.831  36.000  25.628  1.00  0.00    -0.237 OA
ATOM    106  O   UNL A   1      45.680  36.904  26.414  1.00  0.00    -0.237 OA
ATOM    107  O   UNL A   1      47.786  37.825  27.283  1.00  0.00    -0.744 OA
ENDBRANCH 101 104
ENDBRANCH  74  97
ENDBRANCH  48  49
ENDBRANCH  41  43
ENDBRANCH  40  41
ENDBRANCH  39  40
ENDBRANCH  38  39
ENDBRANCH  37  38
ENDBRANCH  36  37
ENDBRANCH   1  36
TORSDOF 25
ENDMDL
MODEL 2
REMARK VINA RESULT:      -9.2      7.207     14.299
REMARK SMILES Cc1cc(C)n(C)c(=O)c1C(=O)[NH+]1CCC2(CC1)C[NH2+][C@@H](C(=O)OCCOCCOCCOCCOC(=O)c1ccc(-c3c4nc(c(-c5cccc(S(=O)(=O)[O-])c5F)c5ccc([nH]5)c(-c5cccc(S(=O)(=O)[O-])c5F)c5nc(c(-c6cccc(S(=O)(=O)[O-])c6F)c6ccc3[nH]6)C=C5)C=C4)cc1)C2
REMARK SMILES IDX 31 1 30 2 29 3 28 4 27 5 26 6 25 7 24 8 22 9 23 10 21 11
REMARK SMILES IDX 13 12 14 13 18 14 15 16 17 17 16 18 19 19 102 20 20 21 11 24
REMARK SMILES IDX 12 25 10 26 1 27 2 28 3 29 4 30 8 31 5 32 6 33 9 34 7 35
REMARK SMILES IDX 32 36 33 37 34 38 35 39 36 40 37 41 38 42 39 43 40 44 101 45
REMARK SMILES IDX 41 46 100 47 42 48 43 49 44 50 94 51 45 52 99 53 93 54 95 55
REMARK SMILES IDX 46 56 98 57 92 58 91 59 47 61 79 62 59 63 78 64 60 65 63 66
REMARK SMILES IDX 77 67 96 68 61 69 62 70 76 72 97 73 64 74 48 75 49 76 57 77
REMARK SMILES IDX 50 78 52 79 58 80 51 81 53 82 54 83 55 84 56 85 80 86 81 87
REMARK SMILES IDX 89 88 82 89 84 90 90 91 83 92 85 93 86 94 87 95 88 96 65 97
REMARK SMILES IDX 66 98 74 99 67 100 69 101 75 102 68 103 70 104 71 105 72 106
REMARK SMILES IDX 73 107
REMARK H PARENT 13 15 20 22 20 23 95 60 63 71
REMARK Flexibility Score: inf
ROOT
ATOM      1  C   UNL A   1      53.436  24.697  37.279  1.00  0.00     0.188 C 
ENDROOT
BRANCH   1   2
ATOM      2  O   UNL A   1      53.326  24.054  36.015  1.00  0.00    -0.377 OA
BRANCH   2   3
ATOM      3  C   UNL A   1      54.410  23.223  35.676  1.00  0.00     0.188 C 
BRANCH   3   4
ATOM      4  C   UNL A   1      55.030  23.523  34.303  1.00  0.00     0.188 C 
BRANCH   4   5
ATOM      5  O   UNL A   1      55.301  22.481  33.369  1.00  0.00    -0.376 OA
BRANCH   5   6
ATOM      6  C   UNL A   1      54.431  22.250  32.266  1.00  0.00     0.202 C 
BRANCH   6   7
ATOM      7  C   UNL A   1      53.357  21.151  32.324  1.00  0.00     0.261 C 
BRANCH   7   8
ATOM      8  O   UNL A   1      52.553  21.153  33.509  1.00  0.00    -0.459 OA
BRANCH   8   9
ATOM      9  C   UNL A   1      52.208  19.943  34.013  1.00  0.00     0.364 C 
ATOM     10  O   UNL A   1      52.891  18.926  33.934  1.00  0.00    -0.245 OA
BRANCH   9  11
ATOM     11  C   UNL A   1      50.853  19.961  34.732  1.00  0.00     0.294 C 
ATOM     12  N   UNL A   1      47.685  23.004  37.690  1.00  0.00    -0.267 N 
ATOM     13  C   UNL A   1      48.460  21.869  38.165  1.00  0.00     0.271 C 
ATOM     14  C   UNL A   1      48.308  23.702  36.572  1.00  0.00     0.271 C 
ATOM     15  H   UNL A   1      47.997  22.113  37.411  1.00  0.00     0.357 HD
ATOM     16  C   UNL A   1      48.447  20.800  37.081  1.00  0.00     0.075 C 
ATOM     17  C   UNL A   1      48.678  22.771  35.395  1.00  0.00     0.075 C 
ATOM     18  C   UNL A   1      49.032  21.284  35.732  1.00  0.00     0.036 C 
ATOM     19  C   UNL A   1      48.573  20.317  34.610  1.00  0.00     0.268 C 
ATOM     20  C   UNL A   1      50.562  21.095  35.707  1.00  0.00     0.090 C 
ATOM     21  N   UNL A   1      49.747  20.098  33.775  1.00  0.00    -0.334 N 
ATOM     22  H   UNL A   1      49.902  20.892  33.154  1.00  0.00     0.347 HD
ATOM     23  H   UNL A   1      49.650  19.280  33.173  1.00  0.00     0.347 HD
BRANCH  12  24
ATOM     24  C   UNL A   1      46.559  23.374  38.423  1.00  0.00     0.350 C 
ATOM     25  O   UNL A   1      46.551  23.201  39.648  1.00  0.00    -0.225 OA
BRANCH  24  26
ATOM     26  C   UNL A   1      45.274  23.830  37.766  1.00  0.00     0.147 A 
ATOM     27  C   UNL A   1      45.007  26.017  39.078  1.00  0.00     0.045 C 
ATOM     28  C   UNL A   1      44.654  25.002  38.039  1.00  0.00    -0.027 A 
ATOM     29  C   UNL A   1      43.558  25.477  37.223  1.00  0.00     0.026 A 
ATOM     30  C   UNL A   1      43.238  24.910  36.056  1.00  0.00     0.018 A 
ATOM     31  C   UNL A   1      44.819  23.095  36.510  1.00  0.00     0.267 A 
ATOM     32  C   UNL A   1      42.177  25.565  35.214  1.00  0.00     0.064 C 
ATOM     33  N   UNL A   1      43.885  23.744  35.672  1.00  0.00    -0.315 N 
ATOM     34  O   UNL A   1      45.264  21.978  36.237  1.00  0.00    -0.268 OA
ATOM     35  C   UNL A   1      43.571  23.123  34.391  1.00  0.00     0.153 C 
ENDBRANCH  24  26
ENDBRANCH  12  24
ENDBRANCH   9  11
ENDBRANCH   8   9
ENDBRANCH   7   8
ENDBRANCH   6   7
ENDBRANCH   5   6
ENDBRANCH   4   5
ENDBRANCH   3   4
ENDBRANCH   2   3
ENDBRANCH   1   2
BRANCH   1  36
ATOM     36  C   UNL A   1      53.389  26.243  37.275  1.00  0.00     0.188 C 
BRANCH  36  37
ATOM     37  O   UNL A   1      52.417  26.813  36.402  1.00  0.00    -0.376 OA
BRANCH  37  38
ATOM     38  C   UNL A   1      51.179  27.251  36.951  1.00  0.00     0.202 C 
BRANCH  38  39
ATOM     39  C   UNL A   1      49.919  27.183  36.066  1.00  0.00     0.261 C 
BRANCH  39  40
ATOM     40  O   UNL A   1      48.654  27.282  36.737  1.00  0.00    -0.460 OA
BRANCH  40  41
ATOM     41  C   UNL A   1      48.065  28.494  36.805  1.00  0.00     0.338 C 
ATOM     42  O   UNL A   1      48.432  29.449  37.469  1.00  0.00    -0.246 OA
BRANCH  41  43
ATOM     43  C   UNL A   1      47.029  28.551  35.752  1.00  0.00     0.060 A 
ATOM     44  C   UNL A   1      46.968  29.689  34.934  1.00  0.00     0.016 A 
ATOM     45  C   UNL A   1      46.141  27.490  35.554  1.00  0.00     0.016 A 
ATOM     46  C   UNL A   1      45.999  29.783  33.937  1.00  0.00     0.010 A 
ATOM     47  C   UNL A   1      45.146  27.602  34.577  1.00  0.00     0.010 A 
ATOM     48  C   UNL A   1      45.050  28.765  33.793  1.00  0.00    -0.014 A 
BRANCH  48  49
ATOM     49  C   UNL A   1      43.825  29.031  33.001  1.00  0.00     0.031 A 
ATOM     50  C   UNL A   1      42.738  29.848  33.645  1.00  0.00     0.074 A 
ATOM     51  C   UNL A   1      43.690  28.597  31.736  1.00  0.00     0.049 A 
ATOM     52  N   UNL A   1      41.577  30.206  33.167  1.00  0.00    -0.248 NA
ATOM     53  C   UNL A   1      43.000  30.329  35.014  1.00  0.00     0.031 C 
ATOM     54  C   UNL A   1      44.688  27.831  30.993  1.00  0.00     0.029 A 
ATOM     55  N   UNL A   1      42.643  28.732  30.858  1.00  0.00    -0.354 N 
ATOM     56  C   UNL A   1      40.964  30.937  34.178  1.00  0.00     0.074 A 
ATOM     57  C   UNL A   1      41.872  30.957  35.303  1.00  0.00     0.031 C 
ATOM     58  C   UNL A   1      44.196  27.546  29.773  1.00  0.00     0.029 A 
ATOM     59  C   UNL A   1      42.841  28.086  29.660  1.00  0.00     0.049 A 
ATOM     60  H   UNL A   1      41.827  29.243  31.066  1.00  0.00     0.167 HD
ATOM     61  C   UNL A   1      39.762  31.556  34.165  1.00  0.00     0.034 A 
ATOM     62  C   UNL A   1      42.015  27.936  28.605  1.00  0.00     0.034 A 
ATOM     63  C   UNL A   1      38.865  31.544  33.042  1.00  0.00     0.049 A 
ATOM     64  C   UNL A   1      40.651  28.581  28.638  1.00  0.00     0.074 A 
ATOM     65  C   UNL A   1      37.631  32.156  32.925  1.00  0.00     0.029 A 
ATOM     66  N   UNL A   1      39.100  30.879  31.849  1.00  0.00    -0.354 N 
ATOM     67  N   UNL A   1      40.120  29.345  29.563  1.00  0.00    -0.248 NA
ATOM     68  C   UNL A   1      39.781  28.369  27.469  1.00  0.00     0.031 C 
ATOM     69  C   UNL A   1      37.103  31.833  31.672  1.00  0.00     0.029 A 
ATOM     70  C   UNL A   1      38.026  31.052  30.994  1.00  0.00     0.049 A 
ATOM     71  H   UNL A   1      39.910  30.361  31.640  1.00  0.00     0.167 HD
ATOM     72  C   UNL A   1      38.873  29.728  29.077  1.00  0.00     0.074 A 
ATOM     73  C   UNL A   1      38.737  29.131  27.765  1.00  0.00     0.031 C 
ATOM     74  C   UNL A   1      37.922  30.493  29.670  1.00  0.00     0.034 A 
BRANCH  61  75
ATOM     75  C   UNL A   1      39.353  32.325  35.393  1.00  0.00     0.023 A 
ATOM     76  C   UNL A   1      38.618  31.679  36.407  1.00  0.00     0.012 A 
ATOM     77  C   UNL A   1      39.759  33.662  35.575  1.00  0.00     0.148 A 
ATOM     78  C   UNL A   1      38.276  32.357  37.576  1.00  0.00     0.002 A 
ATOM     79  C   UNL A   1      39.457  34.315  36.763  1.00  0.00     0.091 A 
ATOM     80  F   UNL A   1      40.435  34.265  34.587  1.00  0.00    -0.205 F 
ATOM     81  C   UNL A   1      38.706  33.668  37.760  1.00  0.00     0.022 A 
BRANCH  79  82
ATOM     82  S   UNL A   1      40.039  35.972  37.136  1.00  0.00     0.127 S 
ATOM     83  O   UNL A   1      39.267  36.292  38.336  1.00  0.00    -0.237 OA
ATOM     84  O   UNL A   1      41.465  35.749  37.369  1.00  0.00    -0.237 OA
ATOM     85  O   UNL A   1      39.730  36.781  35.965  1.00  0.00    -0.744 OA
ENDBRANCH  79  82
ENDBRANCH  61  75
BRANCH  62  86
ATOM     86  C   UNL A   1      42.473  27.174  27.405  1.00  0.00     0.023 A 
ATOM     87  C   UNL A   1      43.063  27.865  26.329  1.00  0.00     0.012 A 
ATOM     88  C   UNL A   1      42.360  25.772  27.339  1.00  0.00     0.148 A 
ATOM     89  C   UNL A   1      43.514  27.176  25.202  1.00  0.00     0.002 A 
ATOM     90  C   UNL A   1      42.864  25.086  26.239  1.00  0.00     0.091 A 
ATOM     91  F   UNL A   1      41.778  25.133  28.363  1.00  0.00    -0.205 F 
ATOM     92  C   UNL A   1      43.426  25.787  25.162  1.00  0.00     0.022 A 
BRANCH  90  93
ATOM     93  S   UNL A   1      42.915  23.292  26.157  1.00  0.00     0.127 S 
ATOM     94  O   UNL A   1      43.002  23.059  24.718  1.00  0.00    -0.237 OA
ATOM     95  O   UNL A   1      44.138  22.995  26.904  1.00  0.00    -0.237 OA
ATOM     96  O   UNL A   1      41.691  22.829  26.795  1.00  0.00    -0.744 OA
ENDBRANCH  90  93
ENDBRANCH  62  86
BRANCH  74  97
ATOM     97  C   UNL A   1      36.643  30.759  28.913  1.00  0.00     0.023 A 
ATOM     98  C   UNL A   1      35.869  29.677  28.448  1.00  0.00     0.012 A 
ATOM     99  C   UNL A   1      36.147  32.072  28.776  1.00  0.00     0.148 A 
ATOM    100  C   UNL A   1      34.635  29.899  27.838  1.00  0.00     0.002 A 
ATOM    101  C   UNL A   1      34.892  32.281  28.217  1.00  0.00     0.091 A 
ATOM    102  F   UNL A   1      36.902  33.090  29.214  1.00  0.00    -0.205 F 
ATOM    103  C   UNL A   1      34.140  31.196  27.736  1.00  0.00     0.022 A 
BRANCH 101 104
ATOM    104  S   UNL A   1      34.121  33.902  28.144  1.00  0.00     0.127 S 
ATOM    105  O   UNL A   1      34.977  34.596  27.183  1.00  0.00    -0.237 OA
ATOM    106  O   UNL A   1      32.781  33.586  27.649  1.00  0.00    -0.237 OA
ATOM    107  O   UNL A   1      34.159  34.429  29.501  1.00  0.00    -0.744 OA
ENDBRANCH 101 104
ENDBRANCH  74  97
ENDBRANCH  48  49
ENDBRANCH  41  43
ENDBRANCH  40  41
ENDBRANCH  39  40
ENDBRANCH  38  39
ENDBRANCH  37  38
ENDBRANCH  36  37
ENDBRANCH   1  36
TORSDOF 25
ENDMDL
MODEL 3
REMARK VINA RESULT:      -8.7      5.257      9.803
REMARK SMILES Cc1cc(C)n(C)c(=O)c1C(=O)[NH+]1CCC2(CC1)C[NH2+][C@@H](C(=O)OCCOCCOCCOCCOC(=O)c1ccc(-c3c4nc(c(-c5cccc(S(=O)(=O)[O-])c5F)c5ccc([nH]5)c(-c5cccc(S(=O)(=O)[O-])c5F)c5nc(c(-c6cccc(S(=O)(=O)[O-])c6F)c6ccc3[nH]6)C=C5)C=C4)cc1)C2
REMARK SMILES IDX 31 1 30 2 29 3 28 4 27 5 26 6 25 7 24 8 22 9 23 10 21 11
REMARK SMILES IDX 13 12 14 13 18 14 15 16 17 17 16 18 19 19 102 20 20 21 11 24
REMARK SMILES IDX 12 25 10 26 1 27 2 28 3 29 4 30 8 31 5 32 6 33 9 34 7 35
REMARK SMILES IDX 32 36 33 37 34 38 35 39 36 40 37 41 38 42 39 43 40 44 101 45
REMARK SMILES IDX 41 46 100 47 42 48 43 49 44 50 94 51 45 52 99 53 93 54 95 55
REMARK SMILES IDX 46 56 98 57 92 58 91 59 47 61 79 62 59 63 78 64 60 65 63 66
REMARK SMILES IDX 77 67 96 68 61 69 62 70 76 72 97 73 64 74 48 75 49 76 57 77
REMARK SMILES IDX 50 78 52 79 58 80 51 81 53 82 54 83 55 84 56 85 80 86 81 87
REMARK SMILES IDX 89 88 82 89 84 90 90 91 83 92 85 93 86 94 87 95 88 96 65 97
REMARK SMILES IDX 66 98 74 99 67 100 69 101 75 102 68 103 70 104 71 105 72 106
REMARK SMILES IDX 73 107
REMARK H PARENT 13 15 20 22 20 23 95 60 63 71
REMARK Flexibility Score: inf
ROOT
ATOM      1  C   UNL A   1      34.768  34.794  27.718  1.00  0.00     0.188 C 
ENDROOT
BRANCH   1   2
ATOM      2  O   UNL A   1      34.437  36.120  28.110  1.00  0.00    -0.377 OA
BRANCH   2   3
ATOM      3  C   UNL A   1      33.206  36.251  28.782  1.00  0.00     0.188 C 
BRANCH   3   4
ATOM      4  C   UNL A   1      33.307  36.926  30.158  1.00  0.00     0.188 C 
BRANCH   4   5
ATOM      5  O   UNL A   1      32.232  36.871  31.091  1.00  0.00    -0.376 OA
BRANCH   5   6
ATOM      6  C   UNL A   1      32.212  35.888  32.120  1.00  0.00     0.202 C 
BRANCH   6   7
ATOM      7  C   UNL A   1      33.116  34.646  32.044  1.00  0.00     0.261 C 
BRANCH   7   8
ATOM      8  O   UNL A   1      33.684  34.235  33.292  1.00  0.00    -0.459 OA
BRANCH   8   9
ATOM      9  C   UNL A   1      34.826  34.857  33.676  1.00  0.00     0.364 C 
ATOM     10  O   UNL A   1      34.888  35.992  34.142  1.00  0.00    -0.245 OA
BRANCH   9  11
ATOM     11  C   UNL A   1      36.073  33.984  33.490  1.00  0.00     0.294 C 
ATOM     12  N   UNL A   1      40.385  32.195  35.990  1.00  0.00    -0.267 N 
ATOM     13  C   UNL A   1      40.364  33.220  34.958  1.00  0.00     0.271 C 
ATOM     14  C   UNL A   1      39.171  32.162  36.797  1.00  0.00     0.271 C 
ATOM     15  H   UNL A   1      39.920  32.441  35.158  1.00  0.00     0.357 HD
ATOM     16  C   UNL A   1      39.312  32.833  33.928  1.00  0.00     0.075 C 
ATOM     17  C   UNL A   1      37.877  32.055  35.957  1.00  0.00     0.075 C 
ATOM     18  C   UNL A   1      37.891  32.684  34.523  1.00  0.00     0.036 C 
ATOM     19  C   UNL A   1      37.014  31.874  33.534  1.00  0.00     0.268 C 
ATOM     20  C   UNL A   1      37.169  34.046  34.546  1.00  0.00     0.090 C 
ATOM     21  N   UNL A   1      35.727  32.556  33.500  1.00  0.00    -0.334 N 
ATOM     22  H   UNL A   1      35.173  32.325  34.325  1.00  0.00     0.347 HD
ATOM     23  H   UNL A   1      35.163  32.286  32.693  1.00  0.00     0.347 HD
BRANCH  12  24
ATOM     24  C   UNL A   1      41.573  31.492  36.183  1.00  0.00     0.350 C 
ATOM     25  O   UNL A   1      42.342  31.841  37.086  1.00  0.00    -0.225 OA
BRANCH  24  26
ATOM     26  C   UNL A   1      42.046  30.416  35.228  1.00  0.00     0.147 A 
ATOM     27  C   UNL A   1      43.899  31.785  34.104  1.00  0.00     0.045 C 
ATOM     28  C   UNL A   1      43.086  30.561  34.375  1.00  0.00    -0.027 A 
ATOM     29  C   UNL A   1      43.625  29.429  33.653  1.00  0.00     0.026 A 
ATOM     30  C   UNL A   1      43.278  28.170  33.935  1.00  0.00     0.018 A 
ATOM     31  C   UNL A   1      41.541  28.995  35.453  1.00  0.00     0.267 A 
ATOM     32  C   UNL A   1      43.999  27.057  33.225  1.00  0.00     0.064 C 
ATOM     33  N   UNL A   1      42.266  27.940  34.857  1.00  0.00    -0.315 N 
ATOM     34  O   UNL A   1      40.540  28.783  36.140  1.00  0.00    -0.268 OA
ATOM     35  C   UNL A   1      41.889  26.574  35.200  1.00  0.00     0.153 C 
ENDBRANCH  24  26
ENDBRANCH  12  24
ENDBRANCH   9  11
ENDBRANCH   8   9
ENDBRANCH   7   8
ENDBRANCH   6   7
ENDBRANCH   5   6
ENDBRANCH   4   5
ENDBRANCH   3   4
ENDBRANCH   2   3
ENDBRANCH   1   2
BRANCH   1  36
ATOM     36  C   UNL A   1      35.222  33.833  28.841  1.00  0.00     0.188 C 
BRANCH  36  37
ATOM     37  O   UNL A   1      35.676  32.558  28.394  1.00  0.00    -0.376 OA
BRANCH  37  38
ATOM     38  C   UNL A   1      35.026  31.390  28.884  1.00  0.00     0.202 C 
BRANCH  38  39
ATOM     39  C   UNL A   1      35.604  30.014  28.502  1.00  0.00     0.261 C 
BRANCH  39  40
ATOM     40  O   UNL A   1      36.920  29.710  28.986  1.00  0.00    -0.460 OA
BRANCH  40  41
ATOM     41  C   UNL A   1      37.145  29.805  30.314  1.00  0.00     0.338 C 
ATOM     42  O   UNL A   1      36.477  29.309  31.205  1.00  0.00    -0.246 OA
BRANCH  41  43
ATOM     43  C   UNL A   1      38.477  30.418  30.502  1.00  0.00     0.060 A 
ATOM     44  C   UNL A   1      38.813  31.539  29.730  1.00  0.00     0.016 A 
ATOM     45  C   UNL A   1      39.378  29.912  31.443  1.00  0.00     0.016 A 
ATOM     46  C   UNL A   1      40.063  32.138  29.873  1.00  0.00     0.010 A 
ATOM     47  C   UNL A   1      40.646  30.492  31.559  1.00  0.00     0.010 A 
ATOM     48  C   UNL A   1      41.004  31.582  30.748  1.00  0.00    -0.014 A 
BRANCH  48  49
ATOM     49  C   UNL A   1      42.425  31.987  30.626  1.00  0.00     0.031 A 
ATOM     50  C   UNL A   1      42.815  33.343  31.149  1.00  0.00     0.074 A 
ATOM     51  C   UNL A   1      43.353  31.167  30.102  1.00  0.00     0.049 A 
ATOM     52  N   UNL A   1      43.983  33.926  31.149  1.00  0.00    -0.248 NA
ATOM     53  C   UNL A   1      41.740  34.147  31.758  1.00  0.00     0.031 C 
ATOM     54  C   UNL A   1      43.104  29.819  29.597  1.00  0.00     0.029 A 
ATOM     55  N   UNL A   1      44.696  31.364  29.897  1.00  0.00    -0.354 N 
ATOM     56  C   UNL A   1      43.783  35.168  31.740  1.00  0.00     0.074 A 
ATOM     57  C   UNL A   1      42.378  35.264  32.069  1.00  0.00     0.031 C 
ATOM     58  C   UNL A   1      44.257  29.314  29.122  1.00  0.00     0.029 A 
ATOM     59  C   UNL A   1      45.317  30.312  29.264  1.00  0.00     0.049 A 
ATOM     60  H   UNL A   1      45.171  32.180  30.176  1.00  0.00     0.167 HD
ATOM     61  C   UNL A   1      44.690  36.135  32.005  1.00  0.00     0.034 A 
ATOM     62  C   UNL A   1      46.589  30.182  28.836  1.00  0.00     0.034 A 
ATOM     63  C   UNL A   1      46.087  36.034  31.687  1.00  0.00     0.049 A 
ATOM     64  C   UNL A   1      47.570  31.301  29.085  1.00  0.00     0.074 A 
ATOM     65  C   UNL A   1      47.089  36.954  31.931  1.00  0.00     0.029 A 
ATOM     66  N   UNL A   1      46.677  34.955  31.046  1.00  0.00    -0.354 N 
ATOM     67  N   UNL A   1      47.388  32.432  29.724  1.00  0.00    -0.248 NA
ATOM     68  C   UNL A   1      48.940  31.117  28.579  1.00  0.00     0.031 C 
ATOM     69  C   UNL A   1      48.281  36.446  31.407  1.00  0.00     0.029 A 
ATOM     70  C   UNL A   1      48.029  35.193  30.872  1.00  0.00     0.049 A 
ATOM     71  H   UNL A   1      46.204  34.141  30.758  1.00  0.00     0.167 HD
ATOM     72  C   UNL A   1      48.622  33.077  29.725  1.00  0.00     0.074 A 
ATOM     73  C   UNL A   1      49.550  32.200  29.042  1.00  0.00     0.031 C 
ATOM     74  C   UNL A   1      48.953  34.291  30.233  1.00  0.00     0.034 A 
BRANCH  61  75
ATOM     75  C   UNL A   1      44.207  37.380  32.700  1.00  0.00     0.023 A 
ATOM     76  C   UNL A   1      44.187  37.428  34.109  1.00  0.00     0.012 A 
ATOM     77  C   UNL A   1      43.846  38.525  31.963  1.00  0.00     0.148 A 
ATOM     78  C   UNL A   1      43.795  38.589  34.774  1.00  0.00     0.002 A 
ATOM     79  C   UNL A   1      43.505  39.693  32.633  1.00  0.00     0.091 A 
ATOM     80  F   UNL A   1      43.847  38.449  30.625  1.00  0.00    -0.205 F 
ATOM     81  C   UNL A   1      43.468  39.724  34.037  1.00  0.00     0.022 A 
BRANCH  79  82
ATOM     82  S   UNL A   1      43.152  41.234  31.780  1.00  0.00     0.127 S 
ATOM     83  O   UNL A   1      44.413  41.479  31.082  1.00  0.00    -0.237 OA
ATOM     84  O   UNL A   1      42.038  40.854  30.912  1.00  0.00    -0.237 OA
ATOM     85  O   UNL A   1      42.817  42.201  32.816  1.00  0.00    -0.744 OA
ENDBRANCH  79  82
ENDBRANCH  61  75
BRANCH  62  86
ATOM     86  C   UNL A   1      47.021  28.921  28.163  1.00  0.00     0.023 A 
ATOM     87  C   UNL A   1      47.305  27.782  28.941  1.00  0.00     0.012 A 
ATOM     88  C   UNL A   1      47.119  28.834  26.760  1.00  0.00     0.148 A 
ATOM     89  C   UNL A   1      47.696  26.586  28.337  1.00  0.00     0.002 A 
ATOM     90  C   UNL A   1      47.452  27.624  26.161  1.00  0.00     0.091 A 
ATOM     91  F   UNL A   1      46.864  29.933  26.037  1.00  0.00    -0.205 F 
ATOM     92  C   UNL A   1      47.757  26.503  26.949  1.00  0.00     0.022 A 
BRANCH  90  93
ATOM     93  S   UNL A   1      47.428  27.385  24.381  1.00  0.00     0.127 S 
ATOM     94  O   UNL A   1      48.764  27.834  23.999  1.00  0.00    -0.237 OA
ATOM     95  O   UNL A   1      47.210  25.941  24.278  1.00  0.00    -0.237 OA
ATOM     96  O   UNL A   1      46.326  28.198  23.885  1.00  0.00    -0.744 OA
ENDBRANCH  90  93
ENDBRANCH  62  86
BRANCH  74  97
ATOM     97  C   UNL A   1      50.382  34.758  30.097  1.00  0.00     0.023 A 
ATOM     98  C   UNL A   1      50.759  35.539  28.987  1.00  0.00     0.012 A 
ATOM     99  C   UNL A   1      51.315  34.531  31.130  1.00  0.00     0.148 A 
ATOM    100  C   UNL A   1      52.046  36.066  28.895  1.00  0.00     0.002 A 
ATOM    101  C   UNL A   1      52.579  35.105  31.057  1.00  0.00     0.091 A 
ATOM    102  F   UNL A   1      50.943  33.776  32.174  1.00  0.00    -0.205 F 
ATOM    103  C   UNL A   1      52.950  35.863  29.934  1.00  0.00     0.022 A 
BRANCH 101 104
ATOM    104  S   UNL A   1      53.773  34.993  32.396  1.00  0.00     0.127 S 
ATOM    105  O   UNL A   1      53.064  34.149  33.356  1.00  0.00    -0.237 OA
ATOM    106  O   UNL A   1      54.912  34.348  31.742  1.00  0.00    -0.237 OA
ATOM    107  O   UNL A   1      54.018  36.360  32.833  1.00  0.00    -0.744 OA
ENDBRANCH 101 104
ENDBRANCH  74  97
ENDBRANCH  48  49
ENDBRANCH  41  43
ENDBRANCH  40  41
ENDBRANCH  39  40
ENDBRANCH  38  39
ENDBRANCH  37  38
ENDBRANCH  36  37
ENDBRANCH   1  36
TORSDOF 25
ENDMDL
