MODEL 1
REMARK VINA RESULT:      -8.9      0.000      0.000
REMARK SMILES CC[C@H](CNC(=O)[C@H]1CSc2ccccc21)C(=O)OCCOCCOCCOCCOC(=O)c1ccc(-c2c3nc(c(-c4cccc(S(=O)(=O)[O-])c4F)c4ccc([nH]4)c(-c4cccc(S(=O)(=O)[O-])c4F)c4nc(c(-c5cccc(S(=O)(=O)[O-])c5F)c5ccc2[nH]5)C=C4)C=C3)cc1
REMARK SMILES IDX 25 1 24 2 23 3 22 4 21 5 20 6 19 7 17 8 18 9 3 10 2 11 1 12
REMARK SMILES IDX 4 13 5 14 6 15 7 17 8 18 9 19 16 20 10 21 11 22 15 23 12 24
REMARK SMILES IDX 14 25 13 26 26 27 27 28 28 29 29 30 30 31 31 32 32 33 33 34
REMARK SMILES IDX 34 35 35 36 96 37 36 38 95 39 37 40 38 41 39 42 89 43 40 44
REMARK SMILES IDX 94 45 88 46 90 47 41 48 93 49 87 50 86 51 42 53 74 54 54 55
REMARK SMILES IDX 73 56 55 57 58 58 72 59 91 60 56 61 57 62 71 64 92 65 59 66
REMARK SMILES IDX 43 67 44 68 52 69 45 70 47 71 53 72 46 73 48 74 49 75 50 76
REMARK SMILES IDX 51 77 75 78 76 79 84 80 77 81 79 82 85 83 78 84 80 85 81 86
REMARK SMILES IDX 82 87 83 88 60 89 61 90 69 91 62 92 64 93 70 94 63 95 65 96
REMARK SMILES IDX 66 97 67 98 68 99
REMARK H PARENT 5 16 90 52 58 63
REMARK Flexibility Score: inf
ROOT
ATOM      1  O   UNL A   1      33.580  34.256  29.128  1.00  0.00    -0.377 OA
ENDROOT
BRANCH   1   2
ATOM      2  C   UNL A   1      33.988  33.670  27.912  1.00  0.00     0.188 C 
BRANCH   2   3
ATOM      3  C   UNL A   1      34.962  32.490  28.025  1.00  0.00     0.188 C 
BRANCH   3   4
ATOM      4  O   UNL A   1      34.582  31.163  27.683  1.00  0.00    -0.376 OA
BRANCH   4   5
ATOM      5  C   UNL A   1      33.384  30.905  26.967  1.00  0.00     0.202 C 
BRANCH   5   6
ATOM      6  C   UNL A   1      33.073  29.450  26.574  1.00  0.00     0.261 C 
BRANCH   6   7
ATOM      7  O   UNL A   1      31.679  29.100  26.390  1.00  0.00    -0.463 OA
BRANCH   7   8
ATOM      8  C   UNL A   1      31.368  27.807  26.635  1.00  0.00     0.310 C 
ATOM      9  O   UNL A   1      31.348  27.305  27.759  1.00  0.00    -0.252 OA
BRANCH   8  10
ATOM     10  C   UNL A   1      31.011  26.964  25.411  1.00  0.00     0.118 C 
BRANCH  10  11
ATOM     11  C   UNL A   1      30.539  27.908  24.284  1.00  0.00     0.014 C 
ATOM     12  C   UNL A   1      30.730  27.252  22.918  1.00  0.00     0.005 C 
ENDBRANCH  10  11
BRANCH  10  13
ATOM     13  C   UNL A   1      30.103  25.718  25.561  1.00  0.00     0.131 C 
BRANCH  13  14
ATOM     14  N   UNL A   1      30.518  24.646  24.645  1.00  0.00    -0.355 N 
ATOM     15  C   UNL A   1      31.629  23.875  24.475  1.00  0.00     0.228 C 
ATOM     16  H   UNL A   1      29.816  24.429  23.989  1.00  0.00     0.163 HD
ATOM     17  O   UNL A   1      31.603  23.176  23.453  1.00  0.00    -0.274 OA
BRANCH  15  18
ATOM     18  C   UNL A   1      32.806  23.798  25.466  1.00  0.00     0.120 C 
ATOM     19  C   UNL A   1      32.389  22.870  26.652  1.00  0.00     0.093 C 
ATOM     20  C   UNL A   1      34.094  23.206  24.924  1.00  0.00    -0.021 A 
ATOM     21  S   UNL A   1      33.782  21.807  27.138  1.00  0.00    -0.125 SA
ATOM     22  C   UNL A   1      34.667  22.171  25.662  1.00  0.00     0.011 A 
ATOM     23  C   UNL A   1      34.808  23.692  23.838  1.00  0.00     0.006 A 
ATOM     24  C   UNL A   1      35.866  21.571  25.281  1.00  0.00     0.015 A 
ATOM     25  C   UNL A   1      36.012  23.111  23.437  1.00  0.00     0.000 A 
ATOM     26  C   UNL A   1      36.534  22.039  24.151  1.00  0.00     0.001 A 
ENDBRANCH  15  18
ENDBRANCH  13  14
ENDBRANCH  10  13
ENDBRANCH   8  10
ENDBRANCH   7   8
ENDBRANCH   6   7
ENDBRANCH   5   6
ENDBRANCH   4   5
ENDBRANCH   3   4
ENDBRANCH   2   3
ENDBRANCH   1   2
BRANCH   1  27
ATOM     27  C   UNL A   1      34.585  34.375  30.119  1.00  0.00     0.188 C 
BRANCH  27  28
ATOM     28  C   UNL A   1      34.079  34.454  31.564  1.00  0.00     0.188 C 
BRANCH  28  29
ATOM     29  O   UNL A   1      34.261  33.216  32.258  1.00  0.00    -0.376 OA
BRANCH  29  30
ATOM     30  C   UNL A   1      35.169  32.289  31.673  1.00  0.00     0.202 C 
BRANCH  30  31
ATOM     31  C   UNL A   1      36.244  31.735  32.622  1.00  0.00     0.261 C 
BRANCH  31  32
ATOM     32  O   UNL A   1      37.182  30.805  32.056  1.00  0.00    -0.460 OA
BRANCH  32  33
ATOM     33  C   UNL A   1      38.267  30.452  32.783  1.00  0.00     0.338 C 
ATOM     34  O   UNL A   1      38.281  29.742  33.772  1.00  0.00    -0.246 OA
BRANCH  33  35
ATOM     35  C   UNL A   1      39.465  30.887  32.022  1.00  0.00     0.060 A 
ATOM     36  C   UNL A   1      39.492  30.819  30.625  1.00  0.00     0.016 A 
ATOM     37  C   UNL A   1      40.605  31.296  32.726  1.00  0.00     0.016 A 
ATOM     38  C   UNL A   1      40.654  31.177  29.934  1.00  0.00     0.010 A 
ATOM     39  C   UNL A   1      41.772  31.638  32.034  1.00  0.00     0.010 A 
ATOM     40  C   UNL A   1      41.798  31.602  30.632  1.00  0.00    -0.014 A 
BRANCH  40  41
ATOM     41  C   UNL A   1      42.919  32.230  29.892  1.00  0.00     0.031 A 
ATOM     42  C   UNL A   1      42.900  33.654  29.428  1.00  0.00     0.074 A 
ATOM     43  C   UNL A   1      43.983  31.452  29.616  1.00  0.00     0.049 A 
ATOM     44  N   UNL A   1      43.857  34.334  28.847  1.00  0.00    -0.248 NA
ATOM     45  C   UNL A   1      41.658  34.413  29.630  1.00  0.00     0.031 C 
ATOM     46  C   UNL A   1      44.086  30.032  29.961  1.00  0.00     0.029 A 
ATOM     47  N   UNL A   1      45.164  31.731  28.980  1.00  0.00    -0.354 N 
ATOM     48  C   UNL A   1      43.343  35.604  28.618  1.00  0.00     0.074 A 
ATOM     49  C   UNL A   1      41.977  35.591  29.102  1.00  0.00     0.031 C 
ATOM     50  C   UNL A   1      45.268  29.564  29.535  1.00  0.00     0.029 A 
ATOM     51  C   UNL A   1      46.001  30.646  28.884  1.00  0.00     0.049 A 
ATOM     52  H   UNL A   1      45.390  32.620  28.626  1.00  0.00     0.167 HD
ATOM     53  C   UNL A   1      43.965  36.681  28.079  1.00  0.00     0.034 A 
ATOM     54  C   UNL A   1      47.228  30.527  28.345  1.00  0.00     0.034 A 
ATOM     55  C   UNL A   1      45.323  36.684  27.594  1.00  0.00     0.049 A 
ATOM     56  C   UNL A   1      47.900  31.732  27.762  1.00  0.00     0.074 A 
ATOM     57  C   UNL A   1      46.049  37.747  27.083  1.00  0.00     0.029 A 
ATOM     58  N   UNL A   1      46.154  35.576  27.544  1.00  0.00    -0.354 N 
ATOM     59  N   UNL A   1      47.450  32.960  27.686  1.00  0.00    -0.248 NA
ATOM     60  C   UNL A   1      49.255  31.549  27.226  1.00  0.00     0.031 C 
ATOM     61  C   UNL A   1      47.315  37.278  26.714  1.00  0.00     0.029 A 
ATOM     62  C   UNL A   1      47.382  35.926  27.006  1.00  0.00     0.049 A 
ATOM     63  H   UNL A   1      45.908  34.672  27.847  1.00  0.00     0.167 HD
ATOM     64  C   UNL A   1      48.471  33.703  27.106  1.00  0.00     0.074 A 
ATOM     65  C   UNL A   1      49.569  32.788  26.865  1.00  0.00     0.031 C 
ATOM     66  C   UNL A   1      48.484  35.021  26.794  1.00  0.00     0.034 A 
BRANCH  53  67
ATOM     67  C   UNL A   1      43.214  37.986  28.049  1.00  0.00     0.023 A 
ATOM     68  C   UNL A   1      42.408  38.276  26.931  1.00  0.00     0.012 A 
ATOM     69  C   UNL A   1      43.215  38.866  29.149  1.00  0.00     0.148 A 
ATOM     70  C   UNL A   1      41.625  39.429  26.898  1.00  0.00     0.002 A 
ATOM     71  C   UNL A   1      42.411  40.001  29.120  1.00  0.00     0.091 A 
ATOM     72  F   UNL A   1      43.995  38.574  30.200  1.00  0.00    -0.205 F 
ATOM     73  C   UNL A   1      41.619  40.285  27.995  1.00  0.00     0.022 A 
BRANCH  71  74
ATOM     74  S   UNL A   1      42.292  41.146  30.500  1.00  0.00     0.127 S 
ATOM     75  O   UNL A   1      42.626  40.278  31.630  1.00  0.00    -0.237 OA
ATOM     76  O   UNL A   1      43.317  42.136  30.169  1.00  0.00    -0.237 OA
ATOM     77  O   UNL A   1      40.927  41.653  30.485  1.00  0.00    -0.744 OA
ENDBRANCH  71  74
ENDBRANCH  53  67
BRANCH  54  78
ATOM     78  C   UNL A   1      47.908  29.210  28.430  1.00  0.00     0.023 A 
ATOM     79  C   UNL A   1      48.638  28.890  29.591  1.00  0.00     0.012 A 
ATOM     80  C   UNL A   1      47.708  28.228  27.440  1.00  0.00     0.148 A 
ATOM     81  C   UNL A   1      49.155  27.607  29.767  1.00  0.00     0.002 A 
ATOM     82  C   UNL A   1      48.193  26.943  27.641  1.00  0.00     0.091 A 
ATOM     83  F   UNL A   1      46.997  28.562  26.355  1.00  0.00    -0.205 F 
ATOM     84  C   UNL A   1      48.923  26.632  28.801  1.00  0.00     0.022 A 
BRANCH  82  85
ATOM     85  S   UNL A   1      47.846  25.588  26.514  1.00  0.00     0.127 S 
ATOM     86  O   UNL A   1      48.601  25.985  25.328  1.00  0.00    -0.237 OA
ATOM     87  O   UNL A   1      48.399  24.448  27.245  1.00  0.00    -0.237 OA
ATOM     88  O   UNL A   1      46.399  25.566  26.351  1.00  0.00    -0.744 OA
ENDBRANCH  82  85
ENDBRANCH  54  78
BRANCH  66  89
ATOM     89  C   UNL A   1      49.721  35.579  26.144  1.00  0.00     0.023 A 
ATOM     90  C   UNL A   1      49.872  35.474  24.748  1.00  0.00     0.012 A 
ATOM     91  C   UNL A   1      50.670  36.301  26.894  1.00  0.00     0.148 A 
ATOM     92  C   UNL A   1      50.955  36.074  24.106  1.00  0.00     0.002 A 
ATOM     93  C   UNL A   1      51.729  36.924  26.244  1.00  0.00     0.091 A 
ATOM     94  F   UNL A   1      50.509  36.376  28.223  1.00  0.00    -0.205 F 
ATOM     95  C   UNL A   1      51.875  36.808  24.852  1.00  0.00     0.022 A 
BRANCH  93  96
ATOM     96  S   UNL A   1      52.930  37.947  27.103  1.00  0.00     0.127 S 
ATOM     97  O   UNL A   1      53.955  38.129  26.077  1.00  0.00    -0.237 OA
ATOM     98  O   UNL A   1      52.150  39.147  27.406  1.00  0.00    -0.237 OA
ATOM     99  O   UNL A   1      53.353  37.184  28.269  1.00  0.00    -0.744 OA
ENDBRANCH  93  96
ENDBRANCH  66  89
ENDBRANCH  40  41
ENDBRANCH  33  35
ENDBRANCH  32  33
ENDBRANCH  31  32
ENDBRANCH  30  31
ENDBRANCH  29  30
ENDBRANCH  28  29
ENDBRANCH  27  28
ENDBRANCH   1  27
TORSDOF 27
ENDMDL
MODEL 2
REMARK VINA RESULT:      -8.9      5.182     11.315
REMARK SMILES CC[C@H](CNC(=O)[C@H]1CSc2ccccc21)C(=O)OCCOCCOCCOCCOC(=O)c1ccc(-c2c3nc(c(-c4cccc(S(=O)(=O)[O-])c4F)c4ccc([nH]4)c(-c4cccc(S(=O)(=O)[O-])c4F)c4nc(c(-c5cccc(S(=O)(=O)[O-])c5F)c5ccc2[nH]5)C=C4)C=C3)cc1
REMARK SMILES IDX 25 1 24 2 23 3 22 4 21 5 20 6 19 7 17 8 18 9 3 10 2 11 1 12
REMARK SMILES IDX 4 13 5 14 6 15 7 17 8 18 9 19 16 20 10 21 11 22 15 23 12 24
REMARK SMILES IDX 14 25 13 26 26 27 27 28 28 29 29 30 30 31 31 32 32 33 33 34
REMARK SMILES IDX 34 35 35 36 96 37 36 38 95 39 37 40 38 41 39 42 89 43 40 44
REMARK SMILES IDX 94 45 88 46 90 47 41 48 93 49 87 50 86 51 42 53 74 54 54 55
REMARK SMILES IDX 73 56 55 57 58 58 72 59 91 60 56 61 57 62 71 64 92 65 59 66
REMARK SMILES IDX 43 67 44 68 52 69 45 70 47 71 53 72 46 73 48 74 49 75 50 76
REMARK SMILES IDX 51 77 75 78 76 79 84 80 77 81 79 82 85 83 78 84 80 85 81 86
REMARK SMILES IDX 82 87 83 88 60 89 61 90 69 91 62 92 64 93 70 94 63 95 65 96
REMARK SMILES IDX 66 97 67 98 68 99
REMARK H PARENT 5 16 90 52 58 63
REMARK Flexibility Score: inf
ROOT
ATOM      1  O   UNL A   1      40.981  20.194  27.268  1.00  0.00    -0.377 OA
ENDROOT
BRANCH   1   2
ATOM      2  C   UNL A   1      40.707  21.576  27.220  1.00  0.00     0.188 C 
BRANCH   2   3
ATOM      3  C   UNL A   1      39.734  22.034  26.127  1.00  0.00     0.188 C 
BRANCH   3   4
ATOM      4  O   UNL A   1      38.436  21.469  25.987  1.00  0.00    -0.376 OA
BRANCH   4   5
ATOM      5  C   UNL A   1      37.588  21.840  24.910  1.00  0.00     0.202 C 
BRANCH   5   6
ATOM      6  C   UNL A   1      36.987  23.257  24.916  1.00  0.00     0.261 C 
BRANCH   6   7
ATOM      7  O   UNL A   1      35.552  23.364  25.090  1.00  0.00    -0.463 OA
BRANCH   7   8
ATOM      8  C   UNL A   1      34.867  23.797  24.007  1.00  0.00     0.310 C 
ATOM      9  O   UNL A   1      35.123  23.463  22.852  1.00  0.00    -0.252 OA
BRANCH   8  10
ATOM     10  C   UNL A   1      33.703  24.747  24.293  1.00  0.00     0.118 C 
BRANCH  10  11
ATOM     11  C   UNL A   1      33.688  25.067  25.803  1.00  0.00     0.014 C 
ATOM     12  C   UNL A   1      33.975  26.548  26.041  1.00  0.00     0.005 C 
ENDBRANCH  10  11
BRANCH  10  13
ATOM     13  C   UNL A   1      32.291  24.435  23.738  1.00  0.00     0.131 C 
BRANCH  13  14
ATOM     14  N   UNL A   1      31.930  25.364  22.656  1.00  0.00    -0.355 N 
ATOM     15  C   UNL A   1      31.250  26.541  22.560  1.00  0.00     0.228 C 
ATOM     16  H   UNL A   1      32.263  25.059  21.781  1.00  0.00     0.163 HD
ATOM     17  O   UNL A   1      31.051  26.912  21.396  1.00  0.00    -0.274 OA
BRANCH  15  18
ATOM     18  C   UNL A   1      30.805  27.401  23.759  1.00  0.00     0.120 C 
ATOM     19  C   UNL A   1      32.039  28.213  24.265  1.00  0.00     0.093 C 
ATOM     20  C   UNL A   1      29.730  28.434  23.474  1.00  0.00    -0.021 A 
ATOM     21  S   UNL A   1      31.540  29.906  24.705  1.00  0.00    -0.125 SA
ATOM     22  C   UNL A   1      29.998  29.742  23.875  1.00  0.00     0.011 A 
ATOM     23  C   UNL A   1      28.466  28.162  22.972  1.00  0.00     0.006 A 
ATOM     24  C   UNL A   1      29.074  30.770  23.696  1.00  0.00     0.015 A 
ATOM     25  C   UNL A   1      27.522  29.172  22.785  1.00  0.00     0.000 A 
ATOM     26  C   UNL A   1      27.832  30.482  23.133  1.00  0.00     0.001 A 
ENDBRANCH  15  18
ENDBRANCH  13  14
ENDBRANCH  10  13
ENDBRANCH   8  10
ENDBRANCH   7   8
ENDBRANCH   6   7
ENDBRANCH   5   6
ENDBRANCH   4   5
ENDBRANCH   3   4
ENDBRANCH   2   3
ENDBRANCH   1   2
BRANCH   1  27
ATOM     27  C   UNL A   1      41.461  19.621  26.064  1.00  0.00     0.188 C 
BRANCH  27  28
ATOM     28  C   UNL A   1      42.973  19.379  26.007  1.00  0.00     0.188 C 
BRANCH  28  29
ATOM     29  O   UNL A   1      43.370  18.791  24.764  1.00  0.00    -0.376 OA
BRANCH  29  30
ATOM     30  C   UNL A   1      44.587  19.268  24.197  1.00  0.00     0.202 C 
BRANCH  30  31
ATOM     31  C   UNL A   1      45.370  20.262  25.069  1.00  0.00     0.261 C 
BRANCH  31  32
ATOM     32  O   UNL A   1      45.910  21.413  24.400  1.00  0.00    -0.460 OA
BRANCH  32  33
ATOM     33  C   UNL A   1      45.060  22.374  23.968  1.00  0.00     0.338 C 
ATOM     34  O   UNL A   1      44.299  22.298  23.021  1.00  0.00    -0.246 OA
BRANCH  33  35
ATOM     35  C   UNL A   1      45.048  23.444  24.997  1.00  0.00     0.060 A 
ATOM     36  C   UNL A   1      43.859  24.098  25.338  1.00  0.00     0.016 A 
ATOM     37  C   UNL A   1      46.261  23.849  25.569  1.00  0.00     0.016 A 
ATOM     38  C   UNL A   1      43.884  25.143  26.266  1.00  0.00     0.010 A 
ATOM     39  C   UNL A   1      46.286  24.906  26.484  1.00  0.00     0.010 A 
ATOM     40  C   UNL A   1      45.095  25.547  26.856  1.00  0.00    -0.014 A 
BRANCH  40  41
ATOM     41  C   UNL A   1      45.075  26.462  28.024  1.00  0.00     0.031 A 
ATOM     42  C   UNL A   1      44.958  25.983  29.438  1.00  0.00     0.074 A 
ATOM     43  C   UNL A   1      45.141  27.782  27.768  1.00  0.00     0.049 A 
ATOM     44  N   UNL A   1      45.015  26.685  30.542  1.00  0.00    -0.248 NA
ATOM     45  C   UNL A   1      44.745  24.544  29.649  1.00  0.00     0.031 C 
ATOM     46  C   UNL A   1      45.192  28.368  26.426  1.00  0.00     0.029 A 
ATOM     47  N   UNL A   1      45.165  28.863  28.609  1.00  0.00    -0.354 N 
ATOM     48  C   UNL A   1      44.853  25.780  31.583  1.00  0.00     0.074 A 
ATOM     49  C   UNL A   1      44.669  24.477  30.974  1.00  0.00     0.031 C 
ATOM     50  C   UNL A   1      45.245  29.703  26.535  1.00  0.00     0.029 A 
ATOM     51  C   UNL A   1      45.225  30.066  27.949  1.00  0.00     0.049 A 
ATOM     52  H   UNL A   1      45.141  28.786  29.590  1.00  0.00     0.167 HD
ATOM     53  C   UNL A   1      44.881  26.015  32.918  1.00  0.00     0.034 A 
ATOM     54  C   UNL A   1      45.271  31.326  28.420  1.00  0.00     0.034 A 
ATOM     55  C   UNL A   1      45.058  27.316  33.516  1.00  0.00     0.049 A 
ATOM     56  C   UNL A   1      45.311  31.563  29.899  1.00  0.00     0.074 A 
ATOM     57  C   UNL A   1      45.154  27.635  34.860  1.00  0.00     0.029 A 
ATOM     58  N   UNL A   1      45.150  28.509  32.816  1.00  0.00    -0.354 N 
ATOM     59  N   UNL A   1      45.301  30.680  30.867  1.00  0.00    -0.248 NA
ATOM     60  C   UNL A   1      45.402  32.957  30.351  1.00  0.00     0.031 C 
ATOM     61  C   UNL A   1      45.293  29.024  34.973  1.00  0.00     0.029 A 
ATOM     62  C   UNL A   1      45.296  29.567  33.699  1.00  0.00     0.049 A 
ATOM     63  H   UNL A   1      45.117  28.592  31.836  1.00  0.00     0.167 HD
ATOM     64  C   UNL A   1      45.400  31.409  32.045  1.00  0.00     0.074 A 
ATOM     65  C   UNL A   1      45.483  32.806  31.667  1.00  0.00     0.031 C 
ATOM     66  C   UNL A   1      45.408  30.953  33.321  1.00  0.00     0.034 A 
BRANCH  53  67
ATOM     67  C   UNL A   1      44.795  24.831  33.844  1.00  0.00     0.023 A 
ATOM     68  C   UNL A   1      43.523  24.382  34.251  1.00  0.00     0.012 A 
ATOM     69  C   UNL A   1      45.940  24.103  34.222  1.00  0.00     0.148 A 
ATOM     70  C   UNL A   1      43.390  23.237  35.035  1.00  0.00     0.002 A 
ATOM     71  C   UNL A   1      45.798  22.947  34.982  1.00  0.00     0.091 A 
ATOM     72  F   UNL A   1      47.141  24.551  33.830  1.00  0.00    -0.205 F 
ATOM     73  C   UNL A   1      44.525  22.514  35.391  1.00  0.00     0.022 A 
BRANCH  71  74
ATOM     74  S   UNL A   1      47.190  21.914  35.457  1.00  0.00     0.127 S 
ATOM     75  O   UNL A   1      47.635  22.572  36.686  1.00  0.00    -0.237 OA
ATOM     76  O   UNL A   1      46.555  20.612  35.658  1.00  0.00    -0.237 OA
ATOM     77  O   UNL A   1      48.129  21.970  34.346  1.00  0.00    -0.744 OA
ENDBRANCH  71  74
ENDBRANCH  53  67
BRANCH  54  78
ATOM     78  C   UNL A   1      45.372  32.438  27.441  1.00  0.00     0.023 A 
ATOM     79  C   UNL A   1      44.192  32.992  26.909  1.00  0.00     0.012 A 
ATOM     80  C   UNL A   1      46.613  33.041  27.158  1.00  0.00     0.148 A 
ATOM     81  C   UNL A   1      44.246  34.134  26.112  1.00  0.00     0.002 A 
ATOM     82  C   UNL A   1      46.655  34.200  26.396  1.00  0.00     0.091 A 
ATOM     83  F   UNL A   1      47.715  32.497  27.692  1.00  0.00    -0.205 F 
ATOM     84  C   UNL A   1      45.473  34.745  25.866  1.00  0.00     0.022 A 
BRANCH  82  85
ATOM     85  S   UNL A   1      48.169  35.127  26.121  1.00  0.00     0.127 S 
ATOM     86  O   UNL A   1      48.790  35.084  27.443  1.00  0.00    -0.237 OA
ATOM     87  O   UNL A   1      48.831  34.314  25.101  1.00  0.00    -0.237 OA
ATOM     88  O   UNL A   1      47.752  36.449  25.673  1.00  0.00    -0.744 OA
ENDBRANCH  82  85
ENDBRANCH  54  78
BRANCH  66  89
ATOM     89  C   UNL A   1      45.503  31.966  34.429  1.00  0.00     0.023 A 
ATOM     90  C   UNL A   1      46.773  32.379  34.879  1.00  0.00     0.012 A 
ATOM     91  C   UNL A   1      44.348  32.588  34.943  1.00  0.00     0.148 A 
ATOM     92  C   UNL A   1      46.892  33.393  35.829  1.00  0.00     0.002 A 
ATOM     93  C   UNL A   1      44.475  33.620  35.865  1.00  0.00     0.091 A 
ATOM     94  F   UNL A   1      43.151  32.169  34.507  1.00  0.00    -0.205 F 
ATOM     95  C   UNL A   1      45.746  34.020  36.312  1.00  0.00     0.022 A 
BRANCH  93  96
ATOM     96  S   UNL A   1      43.067  34.537  36.498  1.00  0.00     0.127 S 
ATOM     97  O   UNL A   1      42.707  35.364  35.347  1.00  0.00    -0.237 OA
ATOM     98  O   UNL A   1      42.116  33.468  36.803  1.00  0.00    -0.237 OA
ATOM     99  O   UNL A   1      43.550  35.273  37.659  1.00  0.00    -0.744 OA
ENDBRANCH  93  96
ENDBRANCH  66  89
ENDBRANCH  40  41
ENDBRANCH  33  35
ENDBRANCH  32  33
ENDBRANCH  31  32
ENDBRANCH  30  31
ENDBRANCH  29  30
ENDBRANCH  28  29
ENDBRANCH  27  28
ENDBRANCH   1  27
TORSDOF 27
ENDMDL
MODEL 3
REMARK VINA RESULT:      -8.8      7.014     10.192
REMARK SMILES CC[C@H](CNC(=O)[C@H]1CSc2ccccc21)C(=O)OCCOCCOCCOCCOC(=O)c1ccc(-c2c3nc(c(-c4cccc(S(=O)(=O)[O-])c4F)c4ccc([nH]4)c(-c4cccc(S(=O)(=O)[O-])c4F)c4nc(c(-c5cccc(S(=O)(=O)[O-])c5F)c5ccc2[nH]5)C=C4)C=C3)cc1
REMARK SMILES IDX 25 1 24 2 23 3 22 4 21 5 20 6 19 7 17 8 18 9 3 10 2 11 1 12
REMARK SMILES IDX 4 13 5 14 6 15 7 17 8 18 9 19 16 20 10 21 11 22 15 23 12 24
REMARK SMILES IDX 14 25 13 26 26 27 27 28 28 29 29 30 30 31 31 32 32 33 33 34
REMARK SMILES IDX 34 35 35 36 96 37 36 38 95 39 37 40 38 41 39 42 89 43 40 44
REMARK SMILES IDX 94 45 88 46 90 47 41 48 93 49 87 50 86 51 42 53 74 54 54 55
REMARK SMILES IDX 73 56 55 57 58 58 72 59 91 60 56 61 57 62 71 64 92 65 59 66
REMARK SMILES IDX 43 67 44 68 52 69 45 70 47 71 53 72 46 73 48 74 49 75 50 76
REMARK SMILES IDX 51 77 75 78 76 79 84 80 77 81 79 82 85 83 78 84 80 85 81 86
REMARK SMILES IDX 82 87 83 88 60 89 61 90 69 91 62 92 64 93 70 94 63 95 65 96
REMARK SMILES IDX 66 97 67 98 68 99
REMARK H PARENT 5 16 90 52 58 63
REMARK Flexibility Score: inf
ROOT
ATOM      1  O   UNL A   1      40.987  20.066  27.302  1.00  0.00    -0.377 OA
ENDROOT
BRANCH   1   2
ATOM      2  C   UNL A   1      40.885  21.470  27.374  1.00  0.00     0.188 C 
BRANCH   2   3
ATOM      3  C   UNL A   1      39.919  22.129  26.382  1.00  0.00     0.188 C 
BRANCH   3   4
ATOM      4  O   UNL A   1      38.565  21.713  26.258  1.00  0.00    -0.376 OA
BRANCH   4   5
ATOM      5  C   UNL A   1      37.757  22.160  25.179  1.00  0.00     0.202 C 
BRANCH   5   6
ATOM      6  C   UNL A   1      37.316  23.634  25.166  1.00  0.00     0.261 C 
BRANCH   6   7
ATOM      7  O   UNL A   1      35.929  23.911  25.478  1.00  0.00    -0.463 OA
BRANCH   7   8
ATOM      8  C   UNL A   1      35.127  24.138  24.412  1.00  0.00     0.310 C 
ATOM      9  O   UNL A   1      35.423  23.844  23.255  1.00  0.00    -0.252 OA
BRANCH   8  10
ATOM     10  C   UNL A   1      33.778  24.787  24.720  1.00  0.00     0.118 C 
BRANCH  10  11
ATOM     11  C   UNL A   1      34.017  26.265  25.096  1.00  0.00     0.014 C 
ATOM     12  C   UNL A   1      33.629  27.183  23.940  1.00  0.00     0.005 C 
ENDBRANCH  10  11
BRANCH  10  13
ATOM     13  C   UNL A   1      32.777  24.086  25.672  1.00  0.00     0.131 C 
BRANCH  13  14
ATOM     14  N   UNL A   1      33.369  22.879  26.269  1.00  0.00    -0.355 N 
ATOM     15  C   UNL A   1      33.131  21.539  26.213  1.00  0.00     0.228 C 
ATOM     16  H   UNL A   1      34.130  23.094  26.857  1.00  0.00     0.163 HD
ATOM     17  O   UNL A   1      33.800  20.876  27.016  1.00  0.00    -0.274 OA
BRANCH  15  18
ATOM     18  C   UNL A   1      32.173  20.857  25.217  1.00  0.00     0.120 C 
ATOM     19  C   UNL A   1      32.201  21.663  23.880  1.00  0.00     0.093 C 
ATOM     20  C   UNL A   1      32.518  19.428  24.836  1.00  0.00    -0.021 A 
ATOM     21  S   UNL A   1      32.186  20.526  22.460  1.00  0.00    -0.125 SA
ATOM     22  C   UNL A   1      32.587  19.144  23.472  1.00  0.00     0.011 A 
ATOM     23  C   UNL A   1      32.640  18.367  25.720  1.00  0.00     0.006 A 
ATOM     24  C   UNL A   1      32.863  17.862  23.001  1.00  0.00     0.015 A 
ATOM     25  C   UNL A   1      32.914  17.073  25.274  1.00  0.00     0.000 A 
ATOM     26  C   UNL A   1      33.041  16.823  23.913  1.00  0.00     0.001 A 
ENDBRANCH  15  18
ENDBRANCH  13  14
ENDBRANCH  10  13
ENDBRANCH   8  10
ENDBRANCH   7   8
ENDBRANCH   6   7
ENDBRANCH   5   6
ENDBRANCH   4   5
ENDBRANCH   3   4
ENDBRANCH   2   3
ENDBRANCH   1   2
BRANCH   1  27
ATOM     27  C   UNL A   1      41.521  19.551  26.095  1.00  0.00     0.188 C 
BRANCH  27  28
ATOM     28  C   UNL A   1      43.022  19.246  26.116  1.00  0.00     0.188 C 
BRANCH  28  29
ATOM     29  O   UNL A   1      43.445  18.576  24.924  1.00  0.00    -0.376 OA
BRANCH  29  30
ATOM     30  C   UNL A   1      44.591  19.111  24.268  1.00  0.00     0.202 C 
BRANCH  30  31
ATOM     31  C   UNL A   1      45.375  20.160  25.073  1.00  0.00     0.261 C 
BRANCH  31  32
ATOM     32  O   UNL A   1      45.774  21.345  24.364  1.00  0.00    -0.460 OA
BRANCH  32  33
ATOM     33  C   UNL A   1      44.842  22.292  24.105  1.00  0.00     0.338 C 
ATOM     34  O   UNL A   1      44.065  22.311  23.168  1.00  0.00    -0.246 OA
BRANCH  33  35
ATOM     35  C   UNL A   1      44.775  23.178  25.295  1.00  0.00     0.060 A 
ATOM     36  C   UNL A   1      44.316  22.694  26.524  1.00  0.00     0.016 A 
ATOM     37  C   UNL A   1      45.104  24.532  25.152  1.00  0.00     0.016 A 
ATOM     38  C   UNL A   1      44.205  23.563  27.614  1.00  0.00     0.010 A 
ATOM     39  C   UNL A   1      44.976  25.403  26.239  1.00  0.00     0.010 A 
ATOM     40  C   UNL A   1      44.546  24.921  27.484  1.00  0.00    -0.014 A 
BRANCH  40  41
ATOM     41  C   UNL A   1      44.682  25.764  28.697  1.00  0.00     0.031 A 
ATOM     42  C   UNL A   1      43.541  26.526  29.297  1.00  0.00     0.074 A 
ATOM     43  C   UNL A   1      45.907  25.850  29.248  1.00  0.00     0.049 A 
ATOM     44  N   UNL A   1      43.523  27.227  30.403  1.00  0.00    -0.248 NA
ATOM     45  C   UNL A   1      42.262  26.509  28.573  1.00  0.00     0.031 C 
ATOM     46  C   UNL A   1      47.108  25.203  28.713  1.00  0.00     0.029 A 
ATOM     47  N   UNL A   1      46.351  26.515  30.361  1.00  0.00    -0.354 N 
ATOM     48  C   UNL A   1      42.235  27.732  30.518  1.00  0.00     0.074 A 
ATOM     49  C   UNL A   1      41.505  27.276  29.351  1.00  0.00     0.031 C 
ATOM     50  C   UNL A   1      48.151  25.502  29.499  1.00  0.00     0.029 A 
ATOM     51  C   UNL A   1      47.696  26.362  30.588  1.00  0.00     0.049 A 
ATOM     52  H   UNL A   1      45.763  27.050  30.941  1.00  0.00     0.167 HD
ATOM     53  C   UNL A   1      41.709  28.484  31.516  1.00  0.00     0.034 A 
ATOM     54  C   UNL A   1      48.484  26.846  31.566  1.00  0.00     0.034 A 
ATOM     55  C   UNL A   1      42.443  28.939  32.671  1.00  0.00     0.049 A 
ATOM     56  C   UNL A   1      47.880  27.666  32.664  1.00  0.00     0.074 A 
ATOM     57  C   UNL A   1      41.973  29.658  33.758  1.00  0.00     0.029 A 
ATOM     58  N   UNL A   1      43.797  28.736  32.886  1.00  0.00    -0.354 N 
ATOM     59  N   UNL A   1      46.628  28.013  32.830  1.00  0.00    -0.248 NA
ATOM     60  C   UNL A   1      48.783  28.132  33.725  1.00  0.00     0.031 C 
ATOM     61  C   UNL A   1      43.046  29.900  34.623  1.00  0.00     0.029 A 
ATOM     62  C   UNL A   1      44.182  29.321  34.082  1.00  0.00     0.049 A 
ATOM     63  H   UNL A   1      44.398  28.248  32.277  1.00  0.00     0.167 HD
ATOM     64  C   UNL A   1      46.586  28.726  34.021  1.00  0.00     0.074 A 
ATOM     65  C   UNL A   1      47.938  28.749  34.543  1.00  0.00     0.031 C 
ATOM     66  C   UNL A   1      45.521  29.316  34.614  1.00  0.00     0.034 A 
BRANCH  53  67
ATOM     67  C   UNL A   1      40.239  28.806  31.456  1.00  0.00     0.023 A 
ATOM     68  C   UNL A   1      39.338  27.985  32.163  1.00  0.00     0.012 A 
ATOM     69  C   UNL A   1      39.760  29.959  30.804  1.00  0.00     0.148 A 
ATOM     70  C   UNL A   1      37.980  28.295  32.212  1.00  0.00     0.002 A 
ATOM     71  C   UNL A   1      38.407  30.276  30.878  1.00  0.00     0.091 A 
ATOM     72  F   UNL A   1      40.632  30.722  30.131  1.00  0.00    -0.205 F 
ATOM     73  C   UNL A   1      37.517  29.445  31.578  1.00  0.00     0.022 A 
BRANCH  71  74
ATOM     74  S   UNL A   1      37.712  31.759  30.138  1.00  0.00     0.127 S 
ATOM     75  O   UNL A   1      38.721  32.760  30.486  1.00  0.00    -0.237 OA
ATOM     76  O   UNL A   1      37.668  31.405  28.719  1.00  0.00    -0.237 OA
ATOM     77  O   UNL A   1      36.409  31.946  30.760  1.00  0.00    -0.744 OA
ENDBRANCH  71  74
ENDBRANCH  53  67
BRANCH  54  78
ATOM     78  C   UNL A   1      49.920  26.467  31.563  1.00  0.00     0.023 A 
ATOM     79  C   UNL A   1      50.871  27.392  31.094  1.00  0.00     0.012 A 
ATOM     80  C   UNL A   1      50.351  25.267  32.160  1.00  0.00     0.148 A 
ATOM     81  C   UNL A   1      52.234  27.130  31.223  1.00  0.00     0.002 A 
ATOM     82  C   UNL A   1      51.710  25.030  32.321  1.00  0.00     0.091 A 
ATOM     83  F   UNL A   1      49.420  24.415  32.609  1.00  0.00    -0.205 F 
ATOM     84  C   UNL A   1      52.653  25.957  31.846  1.00  0.00     0.022 A 
BRANCH  82  85
ATOM     85  S   UNL A   1      52.348  23.608  33.214  1.00  0.00     0.127 S 
ATOM     86  O   UNL A   1      51.805  23.829  34.553  1.00  0.00    -0.237 OA
ATOM     87  O   UNL A   1      51.741  22.500  32.476  1.00  0.00    -0.237 OA
ATOM     88  O   UNL A   1      53.798  23.690  33.110  1.00  0.00    -0.744 OA
ENDBRANCH  82  85
ENDBRANCH  54  78
BRANCH  66  89
ATOM     89  C   UNL A   1      45.754  30.055  35.905  1.00  0.00     0.023 A 
ATOM     90  C   UNL A   1      45.959  31.448  35.873  1.00  0.00     0.012 A 
ATOM     91  C   UNL A   1      45.657  29.394  37.145  1.00  0.00     0.148 A 
ATOM     92  C   UNL A   1      46.071  32.173  37.059  1.00  0.00     0.002 A 
ATOM     93  C   UNL A   1      45.737  30.128  38.323  1.00  0.00     0.091 A 
ATOM     94  F   UNL A   1      45.472  28.066  37.147  1.00  0.00    -0.205 F 
ATOM     95  C   UNL A   1      45.948  31.516  38.281  1.00  0.00     0.022 A 
BRANCH  93  96
ATOM     96  S   UNL A   1      45.524  29.388  39.946  1.00  0.00     0.127 S 
ATOM     97  O   UNL A   1      46.905  29.303  40.418  1.00  0.00    -0.237 OA
ATOM     98  O   UNL A   1      44.704  30.385  40.633  1.00  0.00    -0.237 OA
ATOM     99  O   UNL A   1      44.869  28.106  39.724  1.00  0.00    -0.744 OA
ENDBRANCH  93  96
ENDBRANCH  66  89
ENDBRANCH  40  41
ENDBRANCH  33  35
ENDBRANCH  32  33
ENDBRANCH  31  32
ENDBRANCH  30  31
ENDBRANCH  29  30
ENDBRANCH  28  29
ENDBRANCH  27  28
ENDBRANCH   1  27
TORSDOF 27
ENDMDL
