MODEL 1
REMARK VINA RESULT:     -10.1      0.000      0.000
REMARK SMILES Cc1ccc(NC(=O)C[C@@H](C(=O)OCCOCCOCCOCCOC(=O)c2ccc(-c3c4nc(c(-c5cccc(S(=O)(=O)[O-])c5F)c5ccc([nH]5)c(-c5cccc(S(=O)(=O)[O-])c5F)c5nc(c(-c6cccc(S(=O)(=O)[O-])c6F)c6ccc3[nH]6)C=C5)C=C4)cc2)[NH+]2CCOCC2)cc1
REMARK SMILES IDX 19 1 18 2 17 3 16 4 15 5 14 6 13 7 11 8 12 9 10 10 9 11 7 12
REMARK SMILES IDX 6 13 8 15 5 16 1 17 2 18 3 19 98 20 4 21 97 22 91 23 92 24
REMARK SMILES IDX 96 25 93 27 95 28 94 29 20 30 21 31 22 32 23 33 24 34 25 35
REMARK SMILES IDX 26 36 27 37 28 38 29 39 90 40 30 41 89 42 31 43 32 44 33 45
REMARK SMILES IDX 83 46 34 47 88 48 82 49 84 50 35 51 87 52 81 53 80 54 36 56
REMARK SMILES IDX 68 57 48 58 67 59 49 60 52 61 66 62 85 63 50 64 51 65 65 67
REMARK SMILES IDX 86 68 53 69 37 70 38 71 46 72 39 73 41 74 47 75 40 76 42 77
REMARK SMILES IDX 43 78 44 79 45 80 69 81 70 82 78 83 71 84 73 85 79 86 72 87
REMARK SMILES IDX 74 88 75 89 76 90 77 91 54 92 55 93 63 94 56 95 58 96 64 97
REMARK SMILES IDX 57 98 59 99 60 100 61 101 62 102
REMARK H PARENT 6 14 91 26 84 55 52 66
REMARK Flexibility Score: inf
ROOT
ATOM      1  O   UNL A   1      35.808  22.978  24.286  1.00  0.00    -0.377 OA
ENDROOT
BRANCH   1   2
ATOM      2  C   UNL A   1      34.566  22.291  24.498  1.00  0.00     0.188 C 
BRANCH   2   3
ATOM      3  C   UNL A   1      34.192  21.291  25.731  1.00  0.00     0.188 C 
BRANCH   3   4
ATOM      4  O   UNL A   1      32.661  21.500  26.795  1.00  0.00    -0.376 OA
BRANCH   4   5
ATOM      5  C   UNL A   1      31.482  23.138  27.007  1.00  0.00     0.202 C 
BRANCH   5   6
ATOM      6  C   UNL A   1      30.491  24.295  26.580  1.00  0.00     0.261 C 
BRANCH   6   7
ATOM      7  O   UNL A   1      30.896  25.321  25.724  1.00  0.00    -0.459 OA
BRANCH   7   8
ATOM      8  C   UNL A   1      30.694  24.879  24.498  1.00  0.00     0.365 C 
ATOM      9  O   UNL A   1      30.537  23.691  24.244  1.00  0.00    -0.245 OA
BRANCH   8  10
ATOM     10  C   UNL A   1      30.950  26.015  23.542  1.00  0.00     0.304 C 
BRANCH  10  11
ATOM     11  C   UNL A   1      29.780  27.038  23.329  1.00  0.00     0.177 C 
BRANCH  11  12
ATOM     12  C   UNL A   1      29.862  28.573  22.978  1.00  0.00     0.231 C 
ATOM     13  N   UNL A   1      30.669  29.546  23.508  1.00  0.00    -0.326 N 
ATOM     14  H   UNL A   1      30.462  30.443  23.157  1.00  0.00     0.169 HD
ATOM     15  O   UNL A   1      29.035  29.000  22.145  1.00  0.00    -0.274 OA
BRANCH  13  16
ATOM     16  C   UNL A   1      31.748  29.560  24.460  1.00  0.00     0.041 A 
ATOM     17  C   UNL A   1      35.330  29.466  28.169  1.00  0.00     0.044 C 
ATOM     18  C   UNL A   1      34.249  29.246  27.080  1.00  0.00    -0.051 A 
ATOM     19  C   UNL A   1      32.993  30.755  27.248  1.00  0.00     0.005 A 
ATOM     20  C   UNL A   1      34.509  27.804  25.716  1.00  0.00     0.005 A 
ATOM     21  C   UNL A   1      31.501  30.848  25.926  1.00  0.00     0.026 A 
ATOM     22  C   UNL A   1      33.194  28.236  24.200  1.00  0.00     0.026 A 
ENDBRANCH  13  16
ENDBRANCH  11  12
ENDBRANCH  10  11
BRANCH  10  23
ATOM     23  N   UNL A   1      31.468  25.275  22.341  1.00  0.00    -0.319 N 
ATOM     24  C   UNL A   1      31.771  26.266  21.223  1.00  0.00     0.291 C 
ATOM     25  C   UNL A   1      32.764  24.602  22.602  1.00  0.00     0.291 C 
ATOM     26  H   UNL A   1      30.749  24.592  22.101  1.00  0.00     0.348 HD
ATOM     27  C   UNL A   1      32.131  25.524  19.961  1.00  0.00     0.221 C 
ATOM     28  C   UNL A   1      33.176  23.868  21.327  1.00  0.00     0.221 C 
ATOM     29  O   UNL A   1      33.302  24.721  20.176  1.00  0.00    -0.370 OA
ENDBRANCH  10  23
ENDBRANCH   8  10
ENDBRANCH   7   8
ENDBRANCH   6   7
ENDBRANCH   5   6
ENDBRANCH   4   5
ENDBRANCH   3   4
ENDBRANCH   2   3
ENDBRANCH   1   2
BRANCH   1  30
ATOM     30  C   UNL A   1      36.892  22.226  23.768  1.00  0.00     0.188 C 
BRANCH  30  31
ATOM     31  C   UNL A   1      37.555  21.452  24.849  1.00  0.00     0.188 C 
BRANCH  31  32
ATOM     32  O   UNL A   1      38.393  22.394  25.479  1.00  0.00    -0.376 OA
BRANCH  32  33
ATOM     33  C   UNL A   1      39.279  21.987  26.494  1.00  0.00     0.202 C 
BRANCH  33  34
ATOM     34  C   UNL A   1      40.653  22.071  25.893  1.00  0.00     0.261 C 
BRANCH  34  35
ATOM     35  O   UNL A   1      41.258  20.745  26.012  1.00  0.00    -0.460 OA
BRANCH  35  36
ATOM     36  C   UNL A   1      41.987  20.492  27.145  1.00  0.00     0.338 C 
ATOM     37  O   UNL A   1      41.826  19.473  27.806  1.00  0.00    -0.246 OA
BRANCH  36  38
ATOM     38  C   UNL A   1      42.900  21.627  27.565  1.00  0.00     0.060 A 
ATOM     39  C   UNL A   1      42.540  22.307  28.695  1.00  0.00     0.016 A 
ATOM     40  C   UNL A   1      43.816  22.267  26.728  1.00  0.00     0.016 A 
ATOM     41  C   UNL A   1      42.705  23.710  28.683  1.00  0.00     0.010 A 
ATOM     42  C   UNL A   1      44.069  23.706  26.789  1.00  0.00     0.010 A 
ATOM     43  C   UNL A   1      43.355  24.768  27.586  1.00  0.00    -0.014 A 
BRANCH  43  44
ATOM     44  C   UNL A   1      43.626  26.928  28.085  1.00  0.00     0.031 A 
ATOM     45  C   UNL A   1      42.461  28.297  27.505  1.00  0.00     0.074 A 
ATOM     46  C   UNL A   1      44.918  27.935  28.071  1.00  0.00     0.049 A 
ATOM     47  N   UNL A   1      42.362  29.448  28.127  1.00  0.00    -0.248 NA
ATOM     48  C   UNL A   1      41.207  28.223  26.678  1.00  0.00     0.031 C 
ATOM     49  C   UNL A   1      45.695  28.425  29.362  1.00  0.00     0.029 A 
ATOM     50  N   UNL A   1      46.142  27.842  27.341  1.00  0.00    -0.354 N 
ATOM     51  C   UNL A   1      40.990  29.744  28.359  1.00  0.00     0.074 A 
ATOM     52  C   UNL A   1      40.320  28.982  27.354  1.00  0.00     0.031 C 
ATOM     53  C   UNL A   1      47.012  28.589  29.303  1.00  0.00     0.029 A 
ATOM     54  C   UNL A   1      47.312  28.261  27.976  1.00  0.00     0.049 A 
ATOM     55  H   UNL A   1      46.161  27.493  26.420  1.00  0.00     0.167 HD
ATOM     56  C   UNL A   1      40.625  30.484  29.475  1.00  0.00     0.034 A 
ATOM     57  C   UNL A   1      48.295  28.910  27.353  1.00  0.00     0.034 A 
ATOM     58  C   UNL A   1      41.840  31.248  29.968  1.00  0.00     0.049 A 
ATOM     59  C   UNL A   1      47.546  30.330  27.308  1.00  0.00     0.074 A 
ATOM     60  C   UNL A   1      42.489  31.505  31.173  1.00  0.00     0.029 A 
ATOM     61  N   UNL A   1      42.759  31.695  29.001  1.00  0.00    -0.354 N 
ATOM     62  N   UNL A   1      46.380  30.626  27.910  1.00  0.00    -0.248 NA
ATOM     63  C   UNL A   1      48.223  31.565  26.951  1.00  0.00     0.031 C 
ATOM     64  C   UNL A   1      43.857  31.894  30.879  1.00  0.00     0.029 A 
ATOM     65  C   UNL A   1      44.036  31.952  29.495  1.00  0.00     0.049 A 
ATOM     66  H   UNL A   1      42.519  31.814  28.053  1.00  0.00     0.167 HD
ATOM     67  C   UNL A   1      46.139  31.972  28.036  1.00  0.00     0.074 A 
ATOM     68  C   UNL A   1      47.382  32.497  27.452  1.00  0.00     0.031 C 
ATOM     69  C   UNL A   1      45.019  32.603  28.591  1.00  0.00     0.034 A 
BRANCH  56  70
ATOM     70  C   UNL A   1      39.236  30.458  30.286  1.00  0.00     0.023 A 
ATOM     71  C   UNL A   1      38.799  29.184  30.751  1.00  0.00     0.012 A 
ATOM     72  C   UNL A   1      38.303  31.508  30.591  1.00  0.00     0.148 A 
ATOM     73  C   UNL A   1      37.603  28.937  31.457  1.00  0.00     0.002 A 
ATOM     74  C   UNL A   1      37.113  31.268  31.355  1.00  0.00     0.091 A 
ATOM     75  F   UNL A   1      38.534  32.745  30.132  1.00  0.00    -0.205 F 
ATOM     76  C   UNL A   1      36.769  29.982  31.784  1.00  0.00     0.022 A 
BRANCH  74  77
ATOM     77  S   UNL A   1      35.914  32.535  31.887  1.00  0.00     0.127 S 
ATOM     78  O   UNL A   1      34.754  32.262  31.032  1.00  0.00    -0.237 OA
ATOM     79  O   UNL A   1      35.701  32.196  33.294  1.00  0.00    -0.237 OA
ATOM     80  O   UNL A   1      36.549  33.821  31.640  1.00  0.00    -0.744 OA
ENDBRANCH  74  77
ENDBRANCH  56  70
BRANCH  57  81
ATOM     81  C   UNL A   1      48.895  27.693  26.608  1.00  0.00     0.023 A 
ATOM     82  C   UNL A   1      48.631  27.693  25.172  1.00  0.00     0.012 A 
ATOM     83  C   UNL A   1      50.089  27.049  26.984  1.00  0.00     0.148 A 
ATOM     84  C   UNL A   1      49.586  27.308  24.204  1.00  0.00     0.002 A 
ATOM     85  C   UNL A   1      51.047  26.680  26.002  1.00  0.00     0.091 A 
ATOM     86  F   UNL A   1      50.371  26.966  28.289  1.00  0.00    -0.205 F 
ATOM     87  C   UNL A   1      50.817  26.846  24.624  1.00  0.00     0.022 A 
BRANCH  85  88
ATOM     88  S   UNL A   1      52.739  26.261  26.481  1.00  0.00     0.127 S 
ATOM     89  O   UNL A   1      53.524  26.993  25.497  1.00  0.00    -0.237 OA
ATOM     90  O   UNL A   1      52.826  26.779  27.846  1.00  0.00    -0.237 OA
ATOM     91  O   UNL A   1      52.760  24.807  26.406  1.00  0.00    -0.744 OA
ENDBRANCH  85  88
ENDBRANCH  57  81
BRANCH  69  92
ATOM     92  C   UNL A   1      44.565  34.025  28.172  1.00  0.00     0.023 A 
ATOM     93  C   UNL A   1      43.676  34.230  27.114  1.00  0.00     0.012 A 
ATOM     94  C   UNL A   1      44.838  35.186  28.969  1.00  0.00     0.148 A 
ATOM     95  C   UNL A   1      43.064  35.458  26.872  1.00  0.00     0.002 A 
ATOM     96  C   UNL A   1      44.117  36.361  28.820  1.00  0.00     0.091 A 
ATOM     97  F   UNL A   1      45.841  35.206  29.856  1.00  0.00    -0.205 F 
ATOM     98  C   UNL A   1      43.236  36.506  27.756  1.00  0.00     0.022 A 
BRANCH  96  99
ATOM     99  S   UNL A   1      44.211  37.693  30.025  1.00  0.00     0.127 S 
ATOM    100  O   UNL A   1      43.241  38.643  29.486  1.00  0.00    -0.237 OA
ATOM    101  O   UNL A   1      43.790  37.021  31.256  1.00  0.00    -0.237 OA
ATOM    102  O   UNL A   1      45.601  38.125  30.029  1.00  0.00    -0.744 OA
ENDBRANCH  96  99
ENDBRANCH  69  92
ENDBRANCH  43  44
ENDBRANCH  36  38
ENDBRANCH  35  36
ENDBRANCH  34  35
ENDBRANCH  33  34
ENDBRANCH  32  33
ENDBRANCH  31  32
ENDBRANCH  30  31
ENDBRANCH   1  30
TORSDOF 27
ENDMDL
MODEL 2
REMARK VINA RESULT:      -9.8      5.791     12.372
REMARK SMILES Cc1ccc(NC(=O)C[C@@H](C(=O)OCCOCCOCCOCCOC(=O)c2ccc(-c3c4nc(c(-c5cccc(S(=O)(=O)[O-])c5F)c5ccc([nH]5)c(-c5cccc(S(=O)(=O)[O-])c5F)c5nc(c(-c6cccc(S(=O)(=O)[O-])c6F)c6ccc3[nH]6)C=C5)C=C4)cc2)[NH+]2CCOCC2)cc1
REMARK SMILES IDX 19 1 18 2 17 3 16 4 15 5 14 6 13 7 11 8 12 9 10 10 9 11 7 12
REMARK SMILES IDX 6 13 8 15 5 16 1 17 2 18 3 19 98 20 4 21 97 22 91 23 92 24
REMARK SMILES IDX 96 25 93 27 95 28 94 29 20 30 21 31 22 32 23 33 24 34 25 35
REMARK SMILES IDX 26 36 27 37 28 38 29 39 90 40 30 41 89 42 31 43 32 44 33 45
REMARK SMILES IDX 83 46 34 47 88 48 82 49 84 50 35 51 87 52 81 53 80 54 36 56
REMARK SMILES IDX 68 57 48 58 67 59 49 60 52 61 66 62 85 63 50 64 51 65 65 67
REMARK SMILES IDX 86 68 53 69 37 70 38 71 46 72 39 73 41 74 47 75 40 76 42 77
REMARK SMILES IDX 43 78 44 79 45 80 69 81 70 82 78 83 71 84 73 85 79 86 72 87
REMARK SMILES IDX 74 88 75 89 76 90 77 91 54 92 55 93 63 94 56 95 58 96 64 97
REMARK SMILES IDX 57 98 59 99 60 100 61 101 62 102
REMARK H PARENT 6 14 91 26 84 55 52 66
REMARK Flexibility Score: inf
ROOT
ATOM      1  O   UNL A   1      35.757  34.176  29.125  1.00  0.00    -0.377 OA
ENDROOT
BRANCH   1   2
ATOM      2  C   UNL A   1      37.018  33.594  29.488  1.00  0.00     0.188 C 
BRANCH   2   3
ATOM      3  C   UNL A   1      38.197  34.280  30.383  1.00  0.00     0.188 C 
BRANCH   3   4
ATOM      4  O   UNL A   1      40.017  33.881  30.162  1.00  0.00    -0.376 OA
BRANCH   4   5
ATOM      5  C   UNL A   1      41.234  32.806  31.378  1.00  0.00     0.202 C 
BRANCH   5   6
ATOM      6  C   UNL A   1      42.364  32.536  32.453  1.00  0.00     0.261 C 
BRANCH   6   7
ATOM      7  O   UNL A   1      43.074  31.335  32.476  1.00  0.00    -0.459 OA
BRANCH   7   8
ATOM      8  C   UNL A   1      42.238  30.422  32.934  1.00  0.00     0.365 C 
ATOM      9  O   UNL A   1      41.027  30.604  32.982  1.00  0.00    -0.245 OA
BRANCH   8  10
ATOM     10  C   UNL A   1      43.047  29.326  33.576  1.00  0.00     0.304 C 
BRANCH  10  11
ATOM     11  C   UNL A   1      42.820  29.083  35.109  1.00  0.00     0.177 C 
BRANCH  11  12
ATOM     12  C   UNL A   1      41.934  27.987  35.815  1.00  0.00     0.231 C 
ATOM     13  N   UNL A   1      42.155  26.641  35.948  1.00  0.00    -0.326 N 
ATOM     14  H   UNL A   1      41.399  26.172  36.373  1.00  0.00     0.169 HD
ATOM     15  O   UNL A   1      40.833  28.366  36.268  1.00  0.00    -0.274 OA
BRANCH  13  16
ATOM     16  C   UNL A   1      43.235  25.753  35.609  1.00  0.00     0.041 A 
ATOM     17  C   UNL A   1      47.204  22.556  34.819  1.00  0.00     0.044 C 
ATOM     18  C   UNL A   1      45.907  23.326  35.178  1.00  0.00    -0.051 A 
ATOM     19  C   UNL A   1      46.462  25.175  35.569  1.00  0.00     0.005 A 
ATOM     20  C   UNL A   1      44.132  22.438  34.908  1.00  0.00     0.005 A 
ATOM     21  C   UNL A   1      45.020  26.490  35.987  1.00  0.00     0.026 A 
ATOM     22  C   UNL A   1      42.747  23.953  34.952  1.00  0.00     0.026 A 
ENDBRANCH  13  16
ENDBRANCH  11  12
ENDBRANCH  10  11
BRANCH  10  23
ATOM     23  N   UNL A   1      44.434  29.678  33.114  1.00  0.00    -0.319 N 
ATOM     24  C   UNL A   1      45.234  30.237  34.286  1.00  0.00     0.291 C 
ATOM     25  C   UNL A   1      45.204  28.492  32.670  1.00  0.00     0.291 C 
ATOM     26  H   UNL A   1      44.313  30.339  32.346  1.00  0.00     0.348 HD
ATOM     27  C   UNL A   1      46.567  30.747  33.800  1.00  0.00     0.221 C 
ATOM     28  C   UNL A   1      46.578  28.972  32.204  1.00  0.00     0.221 C 
ATOM     29  O   UNL A   1      47.322  29.677  33.211  1.00  0.00    -0.370 OA
ENDBRANCH  10  23
ENDBRANCH   8  10
ENDBRANCH   7   8
ENDBRANCH   6   7
ENDBRANCH   5   6
ENDBRANCH   4   5
ENDBRANCH   3   4
ENDBRANCH   2   3
ENDBRANCH   1   2
BRANCH   1  30
ATOM     30  C   UNL A   1      34.789  34.332  30.147  1.00  0.00     0.188 C 
BRANCH  30  31
ATOM     31  C   UNL A   1      34.431  33.015  30.735  1.00  0.00     0.188 C 
BRANCH  31  32
ATOM     32  O   UNL A   1      34.591  33.206  32.122  1.00  0.00    -0.376 OA
BRANCH  32  33
ATOM     33  C   UNL A   1      35.620  32.541  32.814  1.00  0.00     0.202 C 
BRANCH  33  34
ATOM     34  C   UNL A   1      35.859  31.264  32.061  1.00  0.00     0.261 C 
BRANCH  34  35
ATOM     35  O   UNL A   1      37.229  30.843  32.349  1.00  0.00    -0.460 OA
BRANCH  35  36
ATOM     36  C   UNL A   1      37.480  29.495  32.349  1.00  0.00     0.338 C 
ATOM     37  O   UNL A   1      37.184  28.780  33.298  1.00  0.00    -0.246 OA
BRANCH  36  38
ATOM     38  C   UNL A   1      38.259  29.006  31.144  1.00  0.00     0.060 A 
ATOM     39  C   UNL A   1      39.083  27.936  31.348  1.00  0.00     0.016 A 
ATOM     40  C   UNL A   1      38.500  29.756  29.990  1.00  0.00     0.016 A 
ATOM     41  C   UNL A   1      40.343  27.961  30.709  1.00  0.00     0.010 A 
ATOM     42  C   UNL A   1      39.768  29.701  29.264  1.00  0.00     0.010 A 
ATOM     43  C   UNL A   1      41.053  29.007  29.639  1.00  0.00    -0.014 A 
BRANCH  43  44
ATOM     44  C   UNL A   1      43.016  28.529  28.686  1.00  0.00     0.031 A 
ATOM     45  C   UNL A   1      44.092  27.055  29.174  1.00  0.00     0.074 A 
ATOM     46  C   UNL A   1      44.323  29.431  28.284  1.00  0.00     0.049 A 
ATOM     47  N   UNL A   1      44.983  26.534  28.363  1.00  0.00    -0.248 NA
ATOM     48  C   UNL A   1      43.862  25.978  30.198  1.00  0.00     0.031 C 
ATOM     49  C   UNL A   1      44.692  29.879  26.810  1.00  0.00     0.029 A 
ATOM     50  N   UNL A   1      44.761  30.688  28.801  1.00  0.00    -0.354 N 
ATOM     51  C   UNL A   1      44.810  25.124  28.312  1.00  0.00     0.074 A 
ATOM     52  C   UNL A   1      44.151  24.834  29.546  1.00  0.00     0.031 C 
ATOM     53  C   UNL A   1      45.235  31.075  26.613  1.00  0.00     0.029 A 
ATOM     54  C   UNL A   1      45.333  31.595  27.908  1.00  0.00     0.049 A 
ATOM     55  H   UNL A   1      44.663  30.909  29.756  1.00  0.00     0.167 HD
ATOM     56  C   UNL A   1      45.126  24.433  27.151  1.00  0.00     0.034 A 
ATOM     57  C   UNL A   1      46.365  32.379  28.216  1.00  0.00     0.034 A 
ATOM     58  C   UNL A   1      46.065  25.288  26.319  1.00  0.00     0.049 A 
ATOM     59  C   UNL A   1      47.480  31.228  28.107  1.00  0.00     0.074 A 
ATOM     60  C   UNL A   1      46.202  25.698  24.995  1.00  0.00     0.029 A 
ATOM     61  N   UNL A   1      46.973  26.111  27.011  1.00  0.00    -0.354 N 
ATOM     62  N   UNL A   1      47.277  29.974  27.663  1.00  0.00    -0.248 NA
ATOM     63  C   UNL A   1      48.904  31.512  28.095  1.00  0.00     0.031 C 
ATOM     64  C   UNL A   1      47.023  26.895  24.972  1.00  0.00     0.029 A 
ATOM     65  C   UNL A   1      47.459  27.184  26.268  1.00  0.00     0.049 A 
ATOM     66  H   UNL A   1      47.242  25.942  27.943  1.00  0.00     0.167 HD
ATOM     67  C   UNL A   1      48.428  29.308  27.318  1.00  0.00     0.074 A 
ATOM     68  C   UNL A   1      49.409  30.374  27.570  1.00  0.00     0.031 C 
ATOM     69  C   UNL A   1      48.560  27.996  26.847  1.00  0.00     0.034 A 
BRANCH  56  70
ATOM     70  C   UNL A   1      44.511  23.050  26.607  1.00  0.00     0.023 A 
ATOM     71  C   UNL A   1      43.163  22.769  26.975  1.00  0.00     0.012 A 
ATOM     72  C   UNL A   1      45.107  21.993  25.838  1.00  0.00     0.148 A 
ATOM     73  C   UNL A   1      42.446  21.605  26.627  1.00  0.00     0.002 A 
ATOM     74  C   UNL A   1      44.363  20.833  25.436  1.00  0.00     0.091 A 
ATOM     75  F   UNL A   1      46.400  22.074  25.500  1.00  0.00    -0.205 F 
ATOM     76  C   UNL A   1      43.035  20.646  25.835  1.00  0.00     0.022 A 
BRANCH  74  77
ATOM     77  S   UNL A   1      44.981  19.482  24.379  1.00  0.00     0.127 S 
ATOM     78  O   UNL A   1      44.468  19.847  23.054  1.00  0.00    -0.237 OA
ATOM     79  O   UNL A   1      46.432  19.621  24.507  1.00  0.00    -0.237 OA
ATOM     80  O   UNL A   1      44.417  18.254  24.921  1.00  0.00    -0.744 OA
ENDBRANCH  74  77
ENDBRANCH  56  70
BRANCH  57  81
ATOM     81  C   UNL A   1      45.585  33.405  29.074  1.00  0.00     0.023 A 
ATOM     82  C   UNL A   1      46.152  33.612  30.404  1.00  0.00     0.012 A 
ATOM     83  C   UNL A   1      44.908  34.520  28.546  1.00  0.00     0.148 A 
ATOM     84  C   UNL A   1      46.240  34.878  31.025  1.00  0.00     0.002 A 
ATOM     85  C   UNL A   1      45.016  35.790  29.172  1.00  0.00     0.091 A 
ATOM     86  F   UNL A   1      44.319  34.388  27.352  1.00  0.00    -0.205 F 
ATOM     87  C   UNL A   1      45.712  35.979  30.380  1.00  0.00     0.022 A 
BRANCH  85  88
ATOM     88  S   UNL A   1      44.527  37.293  28.293  1.00  0.00     0.127 S 
ATOM     89  O   UNL A   1      43.074  37.223  28.356  1.00  0.00    -0.237 OA
ATOM     90  O   UNL A   1      45.128  38.351  29.106  1.00  0.00    -0.237 OA
ATOM     91  O   UNL A   1      45.149  37.137  26.986  1.00  0.00    -0.744 OA
ENDBRANCH  85  88
ENDBRANCH  57  81
BRANCH  69  92
ATOM     92  C   UNL A   1      49.850  27.160  27.049  1.00  0.00     0.023 A 
ATOM     93  C   UNL A   1      50.683  26.825  25.979  1.00  0.00     0.012 A 
ATOM     94  C   UNL A   1      50.388  26.876  28.349  1.00  0.00     0.148 A 
ATOM     95  C   UNL A   1      51.959  26.294  26.156  1.00  0.00     0.002 A 
ATOM     96  C   UNL A   1      51.708  26.491  28.525  1.00  0.00     0.091 A 
ATOM     97  F   UNL A   1      49.622  26.915  29.446  1.00  0.00    -0.205 F 
ATOM     98  C   UNL A   1      52.496  26.183  27.424  1.00  0.00     0.022 A 
BRANCH  96  99
ATOM     99  S   UNL A   1      52.481  26.466  30.149  1.00  0.00     0.127 S 
ATOM    100  O   UNL A   1      52.279  27.845  30.589  1.00  0.00    -0.237 OA
ATOM    101  O   UNL A   1      51.671  25.473  30.858  1.00  0.00    -0.237 OA
ATOM    102  O   UNL A   1      53.860  26.058  29.924  1.00  0.00    -0.744 OA
ENDBRANCH  96  99
ENDBRANCH  69  92
ENDBRANCH  43  44
ENDBRANCH  36  38
ENDBRANCH  35  36
ENDBRANCH  34  35
ENDBRANCH  33  34
ENDBRANCH  32  33
ENDBRANCH  31  32
ENDBRANCH  30  31
ENDBRANCH   1  30
TORSDOF 27
ENDMDL
MODEL 3
REMARK VINA RESULT:      -9.7      2.499      3.377
REMARK SMILES Cc1ccc(NC(=O)C[C@@H](C(=O)OCCOCCOCCOCCOC(=O)c2ccc(-c3c4nc(c(-c5cccc(S(=O)(=O)[O-])c5F)c5ccc([nH]5)c(-c5cccc(S(=O)(=O)[O-])c5F)c5nc(c(-c6cccc(S(=O)(=O)[O-])c6F)c6ccc3[nH]6)C=C5)C=C4)cc2)[NH+]2CCOCC2)cc1
REMARK SMILES IDX 19 1 18 2 17 3 16 4 15 5 14 6 13 7 11 8 12 9 10 10 9 11 7 12
REMARK SMILES IDX 6 13 8 15 5 16 1 17 2 18 3 19 98 20 4 21 97 22 91 23 92 24
REMARK SMILES IDX 96 25 93 27 95 28 94 29 20 30 21 31 22 32 23 33 24 34 25 35
REMARK SMILES IDX 26 36 27 37 28 38 29 39 90 40 30 41 89 42 31 43 32 44 33 45
REMARK SMILES IDX 83 46 34 47 88 48 82 49 84 50 35 51 87 52 81 53 80 54 36 56
REMARK SMILES IDX 68 57 48 58 67 59 49 60 52 61 66 62 85 63 50 64 51 65 65 67
REMARK SMILES IDX 86 68 53 69 37 70 38 71 46 72 39 73 41 74 47 75 40 76 42 77
REMARK SMILES IDX 43 78 44 79 45 80 69 81 70 82 78 83 71 84 73 85 79 86 72 87
REMARK SMILES IDX 74 88 75 89 76 90 77 91 54 92 55 93 63 94 56 95 58 96 64 97
REMARK SMILES IDX 57 98 59 99 60 100 61 101 62 102
REMARK H PARENT 6 14 91 26 84 55 52 66
REMARK Flexibility Score: inf
ROOT
ATOM      1  O   UNL A   1      34.869  16.951  25.292  1.00  0.00    -0.377 OA
ENDROOT
BRANCH   1   2
ATOM      2  C   UNL A   1      34.078  16.273  24.305  1.00  0.00     0.188 C 
BRANCH   2   3
ATOM      3  C   UNL A   1      33.600  16.854  22.857  1.00  0.00     0.188 C 
BRANCH   3   4
ATOM      4  O   UNL A   1      32.164  18.044  22.652  1.00  0.00    -0.376 OA
BRANCH   4   5
ATOM      5  C   UNL A   1      32.165  20.068  22.806  1.00  0.00     0.202 C 
BRANCH   5   6
ATOM      6  C   UNL A   1      32.601  21.497  23.326  1.00  0.00     0.261 C 
BRANCH   6   7
ATOM      7  O   UNL A   1      32.125  22.665  22.727  1.00  0.00    -0.459 OA
BRANCH   7   8
ATOM      8  C   UNL A   1      31.421  23.291  23.651  1.00  0.00     0.365 C 
ATOM      9  O   UNL A   1      30.214  23.126  23.783  1.00  0.00    -0.245 OA
BRANCH   8  10
ATOM     10  C   UNL A   1      32.293  24.355  24.264  1.00  0.00     0.304 C 
BRANCH  10  11
ATOM     11  C   UNL A   1      32.908  25.417  23.287  1.00  0.00     0.177 C 
BRANCH  11  12
ATOM     12  C   UNL A   1      32.170  26.531  22.449  1.00  0.00     0.231 C 
ATOM     13  N   UNL A   1      31.942  27.847  22.758  1.00  0.00    -0.326 N 
ATOM     14  H   UNL A   1      31.389  28.304  22.083  1.00  0.00     0.169 HD
ATOM     15  O   UNL A   1      31.652  26.167  21.372  1.00  0.00    -0.274 OA
BRANCH  13  16
ATOM     16  C   UNL A   1      32.324  28.714  23.840  1.00  0.00     0.041 A 
ATOM     17  C   UNL A   1      33.395  31.615  27.968  1.00  0.00     0.044 C 
ATOM     18  C   UNL A   1      33.165  30.554  26.862  1.00  0.00    -0.051 A 
ATOM     19  C   UNL A   1      31.464  31.034  25.992  1.00  0.00     0.005 A 
ATOM     20  C   UNL A   1      34.628  29.257  26.425  1.00  0.00     0.005 A 
ATOM     21  C   UNL A   1      30.890  29.922  24.437  1.00  0.00     0.026 A 
ATOM     22  C   UNL A   1      34.134  28.465  24.598  1.00  0.00     0.026 A 
ENDBRANCH  13  16
ENDBRANCH  11  12
ENDBRANCH  10  11
BRANCH  10  23
ATOM     23  N   UNL A   1      33.237  23.521  25.085  1.00  0.00    -0.319 N 
ATOM     24  C   UNL A   1      34.463  24.351  25.452  1.00  0.00     0.291 C 
ATOM     25  C   UNL A   1      32.656  23.118  26.388  1.00  0.00     0.291 C 
ATOM     26  H   UNL A   1      33.452  22.701  24.517  1.00  0.00     0.348 HD
ATOM     27  C   UNL A   1      35.489  23.479  26.130  1.00  0.00     0.221 C 
ATOM     28  C   UNL A   1      33.689  22.261  27.118  1.00  0.00     0.221 C 
ATOM     29  O   UNL A   1      34.947  22.923  27.337  1.00  0.00    -0.370 OA
ENDBRANCH  10  23
ENDBRANCH   8  10
ENDBRANCH   7   8
ENDBRANCH   6   7
ENDBRANCH   5   6
ENDBRANCH   4   5
ENDBRANCH   3   4
ENDBRANCH   2   3
ENDBRANCH   1   2
BRANCH   1  30
ATOM     30  C   UNL A   1      35.702  18.009  24.851  1.00  0.00     0.188 C 
BRANCH  30  31
ATOM     31  C   UNL A   1      34.933  19.278  24.762  1.00  0.00     0.188 C 
BRANCH  31  32
ATOM     32  O   UNL A   1      35.919  20.281  24.850  1.00  0.00    -0.376 OA
BRANCH  32  33
ATOM     33  C   UNL A   1      37.179  19.988  25.404  1.00  0.00     0.202 C 
BRANCH  33  34
ATOM     34  C   UNL A   1      38.126  20.997  24.820  1.00  0.00     0.261 C 
BRANCH  34  35
ATOM     35  O   UNL A   1      38.629  21.809  25.928  1.00  0.00    -0.460 OA
BRANCH  35  36
ATOM     36  C   UNL A   1      39.967  21.713  26.214  1.00  0.00     0.338 C 
ATOM     37  O   UNL A   1      40.702  20.933  25.622  1.00  0.00    -0.246 OA
BRANCH  36  38
ATOM     38  C   UNL A   1      40.412  22.552  27.396  1.00  0.00     0.060 A 
ATOM     39  C   UNL A   1      39.665  23.663  27.665  1.00  0.00     0.016 A 
ATOM     40  C   UNL A   1      41.686  22.514  27.968  1.00  0.00     0.016 A 
ATOM     41  C   UNL A   1      40.361  24.833  28.043  1.00  0.00     0.010 A 
ATOM     42  C   UNL A   1      42.365  23.712  28.461  1.00  0.00     0.010 A 
ATOM     43  C   UNL A   1      41.958  25.158  28.338  1.00  0.00    -0.014 A 
BRANCH  43  44
ATOM     44  C   UNL A   1      42.604  27.135  29.154  1.00  0.00     0.031 A 
ATOM     45  C   UNL A   1      41.826  28.784  28.658  1.00  0.00     0.074 A 
ATOM     46  C   UNL A   1      44.066  27.828  29.404  1.00  0.00     0.049 A 
ATOM     47  N   UNL A   1      41.888  29.849  29.420  1.00  0.00    -0.248 NA
ATOM     48  C   UNL A   1      40.696  29.081  27.711  1.00  0.00     0.031 C 
ATOM     49  C   UNL A   1      44.760  27.986  30.820  1.00  0.00     0.029 A 
ATOM     50  N   UNL A   1      45.326  27.552  28.791  1.00  0.00    -0.354 N 
ATOM     51  C   UNL A   1      40.589  30.411  29.556  1.00  0.00     0.074 A 
ATOM     52  C   UNL A   1      39.907  29.934  28.395  1.00  0.00     0.031 C 
ATOM     53  C   UNL A   1      46.080  27.862  30.912  1.00  0.00     0.029 A 
ATOM     54  C   UNL A   1      46.469  27.629  29.589  1.00  0.00     0.049 A 
ATOM     55  H   UNL A   1      45.388  27.315  27.837  1.00  0.00     0.167 HD
ATOM     56  C   UNL A   1      40.247  31.081  30.722  1.00  0.00     0.034 A 
ATOM     57  C   UNL A   1      47.634  28.114  29.160  1.00  0.00     0.034 A 
ATOM     58  C   UNL A   1      41.522  31.499  31.431  1.00  0.00     0.049 A 
ATOM     59  C   UNL A   1      47.204  29.659  29.238  1.00  0.00     0.074 A 
ATOM     60  C   UNL A   1      42.055  31.469  32.718  1.00  0.00     0.029 A 
ATOM     61  N   UNL A   1      42.627  31.840  30.629  1.00  0.00    -0.354 N 
ATOM     62  N   UNL A   1      46.058  30.134  29.759  1.00  0.00    -0.248 NA
ATOM     63  C   UNL A   1      48.159  30.748  29.121  1.00  0.00     0.031 C 
ATOM     64  C   UNL A   1      43.499  31.579  32.615  1.00  0.00     0.029 A 
ATOM     65  C   UNL A   1      43.857  31.753  31.275  1.00  0.00     0.049 A 
ATOM     66  H   UNL A   1      42.537  32.116  29.688  1.00  0.00     0.167 HD
ATOM     67  C   UNL A   1      46.085  31.476  30.045  1.00  0.00     0.074 A 
ATOM     68  C   UNL A   1      47.472  31.778  29.662  1.00  0.00     0.031 C 
ATOM     69  C   UNL A   1      45.058  32.270  30.570  1.00  0.00     0.034 A 
BRANCH  56  70
ATOM     70  C   UNL A   1      38.793  31.269  31.383  1.00  0.00     0.023 A 
ATOM     71  C   UNL A   1      38.061  30.076  31.649  1.00  0.00     0.012 A 
ATOM     72  C   UNL A   1      38.055  32.456  31.715  1.00  0.00     0.148 A 
ATOM     73  C   UNL A   1      36.762  30.018  32.199  1.00  0.00     0.002 A 
ATOM     74  C   UNL A   1      36.758  32.399  32.325  1.00  0.00     0.091 A 
ATOM     75  F   UNL A   1      38.579  33.656  31.431  1.00  0.00    -0.205 F 
ATOM     76  C   UNL A   1      36.118  31.178  32.562  1.00  0.00     0.022 A 
BRANCH  74  77
ATOM     77  S   UNL A   1      35.776  33.832  32.881  1.00  0.00     0.127 S 
ATOM     78  O   UNL A   1      34.887  34.078  31.741  1.00  0.00    -0.237 OA
ATOM     79  O   UNL A   1      35.090  33.305  34.060  1.00  0.00    -0.237 OA
ATOM     80  O   UNL A   1      36.731  34.901  33.136  1.00  0.00    -0.744 OA
ENDBRANCH  74  77
ENDBRANCH  56  70
BRANCH  57  81
ATOM     81  C   UNL A   1      48.059  26.887  28.316  1.00  0.00     0.023 A 
ATOM     82  C   UNL A   1      47.704  25.606  28.921  1.00  0.00     0.012 A 
ATOM     83  C   UNL A   1      48.110  26.877  26.910  1.00  0.00     0.148 A 
ATOM     84  C   UNL A   1      47.212  24.506  28.182  1.00  0.00     0.002 A 
ATOM     85  C   UNL A   1      47.600  25.771  26.179  1.00  0.00     0.091 A 
ATOM     86  F   UNL A   1      48.479  28.003  26.289  1.00  0.00    -0.205 F 
ATOM     87  C   UNL A   1      47.115  24.610  26.809  1.00  0.00     0.022 A 
BRANCH  85  88
ATOM     88  S   UNL A   1      47.260  25.916  24.410  1.00  0.00     0.127 S 
ATOM     89  O   UNL A   1      46.598  24.652  24.122  1.00  0.00    -0.237 OA
ATOM     90  O   UNL A   1      46.393  27.093  24.343  1.00  0.00    -0.237 OA
ATOM     91  O   UNL A   1      48.579  26.129  23.830  1.00  0.00    -0.744 OA
ENDBRANCH  85  88
ENDBRANCH  57  81
BRANCH  69  92
ATOM     92  C   UNL A   1      44.961  33.796  30.308  1.00  0.00     0.023 A 
ATOM     93  C   UNL A   1      45.406  34.731  31.245  1.00  0.00     0.012 A 
ATOM     94  C   UNL A   1      44.630  34.336  29.021  1.00  0.00     0.148 A 
ATOM     95  C   UNL A   1      45.560  36.083  30.945  1.00  0.00     0.002 A 
ATOM     96  C   UNL A   1      44.926  35.648  28.681  1.00  0.00     0.091 A 
ATOM     97  F   UNL A   1      43.969  33.614  28.108  1.00  0.00    -0.205 F 
ATOM     98  C   UNL A   1      45.379  36.532  29.651  1.00  0.00     0.022 A 
BRANCH  96  99
ATOM     99  S   UNL A   1      44.832  36.233  26.983  1.00  0.00     0.127 S 
ATOM    100  O   UNL A   1      43.429  35.978  26.664  1.00  0.00    -0.237 OA
ATOM    101  O   UNL A   1      45.178  37.649  27.128  1.00  0.00    -0.237 OA
ATOM    102  O   UNL A   1      45.813  35.454  26.242  1.00  0.00    -0.744 OA
ENDBRANCH  96  99
ENDBRANCH  69  92
ENDBRANCH  43  44
ENDBRANCH  36  38
ENDBRANCH  35  36
ENDBRANCH  34  35
ENDBRANCH  33  34
ENDBRANCH  32  33
ENDBRANCH  31  32
ENDBRANCH  30  31
ENDBRANCH   1  30
TORSDOF 27
ENDMDL
