MODEL 1
REMARK VINA RESULT:     -10.3      0.000      0.000
REMARK SMILES CC[C@H](C(=O)OCCOCCOCCOCCOC(=O)c1ccc(-c2c3nc(c(-c4cccc(S(=O)(=O)[O-])c4F)c4ccc([nH]4)c(-c4cccc(S(=O)(=O)[O-])c4F)c4nc(c(-c5cccc(S(=O)(=O)[O-])c5F)c5ccc2[nH]5)C=C4)C=C3)cc1)C1=CCCc2c(C)ccc(C)c21
REMARK SMILES IDX 13 1 12 2 11 3 10 4 9 5 8 6 7 7 6 8 4 9 5 10 3 11 2 12 1 13
REMARK SMILES IDX 84 14 85 15 95 16 86 17 88 18 93 19 87 20 89 21 92 22 94 23
REMARK SMILES IDX 90 24 91 25 14 26 15 27 16 28 17 29 18 30 19 31 20 32 21 33
REMARK SMILES IDX 22 34 83 35 23 36 82 37 24 38 25 39 26 40 76 41 27 42 81 43
REMARK SMILES IDX 75 44 77 45 28 46 80 47 74 48 73 49 29 51 61 52 41 53 60 54
REMARK SMILES IDX 42 55 45 56 59 57 78 58 43 59 44 60 58 62 79 63 46 64 30 65
REMARK SMILES IDX 31 66 39 67 32 68 34 69 40 70 33 71 35 72 36 73 37 74 38 75
REMARK SMILES IDX 62 76 63 77 71 78 64 79 66 80 72 81 65 82 67 83 68 84 69 85
REMARK SMILES IDX 70 86 47 87 48 88 56 89 49 90 51 91 57 92 50 93 52 94 53 95
REMARK SMILES IDX 54 96 55 97
REMARK H PARENT 77 50 45 61
REMARK Flexibility Score: inf
ROOT
ATOM      1  C   UNL A   1      32.905  28.689  24.822  1.00  0.00     0.188 C 
ENDROOT
BRANCH   1   2
ATOM      2  O   UNL A   1      32.998  27.674  23.824  1.00  0.00    -0.377 OA
BRANCH   2   3
ATOM      3  C   UNL A   1      32.489  27.885  22.518  1.00  0.00     0.188 C 
BRANCH   3   4
ATOM      4  C   UNL A   1      31.302  26.986  22.188  1.00  0.00     0.188 C 
BRANCH   4   5
ATOM      5  O   UNL A   1      30.166  27.167  23.022  1.00  0.00    -0.376 OA
BRANCH   5   6
ATOM      6  C   UNL A   1      29.724  26.020  23.746  1.00  0.00     0.202 C 
BRANCH   6   7
ATOM      7  C   UNL A   1      30.174  25.909  25.205  1.00  0.00     0.261 C 
BRANCH   7   8
ATOM      8  O   UNL A   1      31.464  25.271  25.397  1.00  0.00    -0.463 OA
BRANCH   8   9
ATOM      9  C   UNL A   1      31.503  23.913  25.260  1.00  0.00     0.313 C 
ATOM     10  O   UNL A   1      30.609  23.175  25.667  1.00  0.00    -0.252 OA
BRANCH   9  11
ATOM     11  C   UNL A   1      32.813  23.365  24.624  1.00  0.00     0.129 C 
BRANCH  11  12
ATOM     12  C   UNL A   1      33.253  24.097  23.321  1.00  0.00     0.017 C 
ATOM     13  C   UNL A   1      33.251  23.289  22.033  1.00  0.00     0.005 C 
ENDBRANCH  11  12
BRANCH  11  14
ATOM     14  C   UNL A   1      34.033  23.191  25.586  1.00  0.00    -0.030 C 
ATOM     15  C   UNL A   1      33.840  23.149  26.923  1.00  0.00    -0.022 C 
ATOM     16  C   UNL A   1      35.139  22.249  25.257  1.00  0.00    -0.015 A 
ATOM     17  C   UNL A   1      33.598  21.756  27.502  1.00  0.00     0.032 C 
ATOM     18  C   UNL A   1      34.829  20.886  25.426  1.00  0.00    -0.037 A 
ATOM     19  C   UNL A   1      36.504  22.579  25.219  1.00  0.00    -0.043 A 
ATOM     20  C   UNL A   1      33.761  20.589  26.482  1.00  0.00     0.040 C 
ATOM     21  C   UNL A   1      35.693  19.897  24.932  1.00  0.00    -0.047 A 
ATOM     22  C   UNL A   1      37.442  21.562  24.968  1.00  0.00     0.004 A 
ATOM     23  C   UNL A   1      37.031  23.894  25.731  1.00  0.00     0.045 C 
ATOM     24  C   UNL A   1      35.289  18.473  24.709  1.00  0.00     0.044 C 
ATOM     25  C   UNL A   1      37.026  20.254  24.729  1.00  0.00     0.004 A 
ENDBRANCH  11  14
ENDBRANCH   9  11
ENDBRANCH   8   9
ENDBRANCH   7   8
ENDBRANCH   6   7
ENDBRANCH   5   6
ENDBRANCH   4   5
ENDBRANCH   3   4
ENDBRANCH   2   3
ENDBRANCH   1   2
BRANCH   1  26
ATOM     26  C   UNL A   1      31.709  29.651  24.811  1.00  0.00     0.188 C 
BRANCH  26  27
ATOM     27  O   UNL A   1      31.655  30.676  25.806  1.00  0.00    -0.376 OA
BRANCH  27  28
ATOM     28  C   UNL A   1      32.300  30.448  27.056  1.00  0.00     0.202 C 
BRANCH  28  29
ATOM     29  C   UNL A   1      33.594  31.225  27.243  1.00  0.00     0.261 C 
BRANCH  29  30
ATOM     30  O   UNL A   1      33.325  32.548  27.729  1.00  0.00    -0.460 OA
BRANCH  30  31
ATOM     31  C   UNL A   1      34.110  32.942  28.752  1.00  0.00     0.338 C 
ATOM     32  O   UNL A   1      33.830  33.744  29.637  1.00  0.00    -0.246 OA
BRANCH  31  33
ATOM     33  C   UNL A   1      35.356  32.165  28.752  1.00  0.00     0.060 A 
ATOM     34  C   UNL A   1      35.281  30.818  29.127  1.00  0.00     0.016 A 
ATOM     35  C   UNL A   1      36.588  32.777  28.512  1.00  0.00     0.016 A 
ATOM     36  C   UNL A   1      36.447  30.108  29.376  1.00  0.00     0.010 A 
ATOM     37  C   UNL A   1      37.760  32.062  28.761  1.00  0.00     0.010 A 
ATOM     38  C   UNL A   1      37.685  30.753  29.266  1.00  0.00    -0.014 A 
BRANCH  38  39
ATOM     39  C   UNL A   1      38.861  30.140  29.919  1.00  0.00     0.031 A 
ATOM     40  C   UNL A   1      39.218  30.587  31.313  1.00  0.00     0.074 A 
ATOM     41  C   UNL A   1      39.562  29.176  29.303  1.00  0.00     0.049 A 
ATOM     42  N   UNL A   1      40.189  30.186  32.087  1.00  0.00    -0.248 NA
ATOM     43  C   UNL A   1      38.365  31.629  31.913  1.00  0.00     0.031 C 
ATOM     44  C   UNL A   1      39.292  28.662  27.960  1.00  0.00     0.029 A 
ATOM     45  N   UNL A   1      40.655  28.469  29.726  1.00  0.00    -0.354 N 
ATOM     46  C   UNL A   1      40.087  30.946  33.247  1.00  0.00     0.074 A 
ATOM     47  C   UNL A   1      38.971  31.846  33.068  1.00  0.00     0.031 C 
ATOM     48  C   UNL A   1      40.215  27.733  27.659  1.00  0.00     0.029 A 
ATOM     49  C   UNL A   1      41.148  27.607  28.778  1.00  0.00     0.049 A 
ATOM     50  H   UNL A   1      41.049  28.569  30.622  1.00  0.00     0.167 HD
ATOM     51  C   UNL A   1      40.845  30.889  34.367  1.00  0.00     0.034 A 
ATOM     52  C   UNL A   1      42.243  26.823  28.807  1.00  0.00     0.034 A 
ATOM     53  C   UNL A   1      41.942  29.975  34.540  1.00  0.00     0.049 A 
ATOM     54  C   UNL A   1      43.080  26.789  30.059  1.00  0.00     0.074 A 
ATOM     55  C   UNL A   1      42.749  29.801  35.649  1.00  0.00     0.029 A 
ATOM     56  N   UNL A   1      42.393  29.093  33.572  1.00  0.00    -0.354 N 
ATOM     57  N   UNL A   1      42.910  27.437  31.188  1.00  0.00    -0.248 NA
ATOM     58  C   UNL A   1      44.237  25.885  30.056  1.00  0.00     0.031 C 
ATOM     59  C   UNL A   1      43.717  28.839  35.335  1.00  0.00     0.029 A 
ATOM     60  C   UNL A   1      43.479  28.379  34.049  1.00  0.00     0.049 A 
ATOM     61  H   UNL A   1      42.000  28.988  32.676  1.00  0.00     0.167 HD
ATOM     62  C   UNL A   1      43.913  26.989  32.040  1.00  0.00     0.074 A 
ATOM     63  C   UNL A   1      44.669  25.997  31.303  1.00  0.00     0.031 C 
ATOM     64  C   UNL A   1      44.193  27.368  33.313  1.00  0.00     0.034 A 
BRANCH  51  65
ATOM     65  C   UNL A   1      40.509  31.835  35.490  1.00  0.00     0.023 A 
ATOM     66  C   UNL A   1      41.350  32.933  35.765  1.00  0.00     0.012 A 
ATOM     67  C   UNL A   1      39.336  31.658  36.249  1.00  0.00     0.148 A 
ATOM     68  C   UNL A   1      41.048  33.819  36.800  1.00  0.00     0.002 A 
ATOM     69  C   UNL A   1      39.016  32.573  37.245  1.00  0.00     0.091 A 
ATOM     70  F   UNL A   1      38.561  30.596  35.991  1.00  0.00    -0.205 F 
ATOM     71  C   UNL A   1      39.876  33.646  37.531  1.00  0.00     0.022 A 
BRANCH  69  72
ATOM     72  S   UNL A   1      37.490  32.484  38.189  1.00  0.00     0.127 S 
ATOM     73  O   UNL A   1      37.384  31.048  38.444  1.00  0.00    -0.237 OA
ATOM     74  O   UNL A   1      37.812  33.291  39.366  1.00  0.00    -0.237 OA
ATOM     75  O   UNL A   1      36.452  33.042  37.333  1.00  0.00    -0.744 OA
ENDBRANCH  69  72
ENDBRANCH  51  65
BRANCH  52  76
ATOM     76  C   UNL A   1      42.592  25.987  27.626  1.00  0.00     0.023 A 
ATOM     77  C   UNL A   1      43.397  26.522  26.603  1.00  0.00     0.012 A 
ATOM     78  C   UNL A   1      42.138  24.658  27.521  1.00  0.00     0.148 A 
ATOM     79  C   UNL A   1      43.712  25.761  25.476  1.00  0.00     0.002 A 
ATOM     80  C   UNL A   1      42.504  23.886  26.426  1.00  0.00     0.091 A 
ATOM     81  F   UNL A   1      41.364  24.172  28.501  1.00  0.00    -0.205 F 
ATOM     82  C   UNL A   1      43.274  24.442  25.392  1.00  0.00     0.022 A 
BRANCH  80  83
ATOM     83  S   UNL A   1      42.098  22.142  26.297  1.00  0.00     0.127 S 
ATOM     84  O   UNL A   1      40.656  22.186  26.072  1.00  0.00    -0.237 OA
ATOM     85  O   UNL A   1      42.893  21.735  25.137  1.00  0.00    -0.237 OA
ATOM     86  O   UNL A   1      42.522  21.543  27.555  1.00  0.00    -0.744 OA
ENDBRANCH  80  83
ENDBRANCH  52  76
BRANCH  64  87
ATOM     87  C   UNL A   1      45.336  26.672  34.007  1.00  0.00     0.023 A 
ATOM     88  C   UNL A   1      46.643  27.193  33.915  1.00  0.00     0.012 A 
ATOM     89  C   UNL A   1      45.104  25.522  34.788  1.00  0.00     0.148 A 
ATOM     90  C   UNL A   1      47.708  26.548  34.545  1.00  0.00     0.002 A 
ATOM     91  C   UNL A   1      46.160  24.920  35.460  1.00  0.00     0.091 A 
ATOM     92  F   UNL A   1      43.857  25.033  34.853  1.00  0.00    -0.205 F 
ATOM     93  C   UNL A   1      47.465  25.420  35.324  1.00  0.00     0.022 A 
BRANCH  91  94
ATOM     94  S   UNL A   1      45.923  23.527  36.568  1.00  0.00     0.127 S 
ATOM     95  O   UNL A   1      45.381  22.516  35.662  1.00  0.00    -0.237 OA
ATOM     96  O   UNL A   1      47.286  23.263  37.031  1.00  0.00    -0.237 OA
ATOM     97  O   UNL A   1      45.013  23.990  37.607  1.00  0.00    -0.744 OA
ENDBRANCH  91  94
ENDBRANCH  64  87
ENDBRANCH  38  39
ENDBRANCH  31  33
ENDBRANCH  30  31
ENDBRANCH  29  30
ENDBRANCH  28  29
ENDBRANCH  27  28
ENDBRANCH  26  27
ENDBRANCH   1  26
TORSDOF 25
ENDMDL
MODEL 2
REMARK VINA RESULT:      -9.8      2.252      2.956
REMARK SMILES CC[C@H](C(=O)OCCOCCOCCOCCOC(=O)c1ccc(-c2c3nc(c(-c4cccc(S(=O)(=O)[O-])c4F)c4ccc([nH]4)c(-c4cccc(S(=O)(=O)[O-])c4F)c4nc(c(-c5cccc(S(=O)(=O)[O-])c5F)c5ccc2[nH]5)C=C4)C=C3)cc1)C1=CCCc2c(C)ccc(C)c21
REMARK SMILES IDX 13 1 12 2 11 3 10 4 9 5 8 6 7 7 6 8 4 9 5 10 3 11 2 12 1 13
REMARK SMILES IDX 84 14 85 15 95 16 86 17 88 18 93 19 87 20 89 21 92 22 94 23
REMARK SMILES IDX 90 24 91 25 14 26 15 27 16 28 17 29 18 30 19 31 20 32 21 33
REMARK SMILES IDX 22 34 83 35 23 36 82 37 24 38 25 39 26 40 76 41 27 42 81 43
REMARK SMILES IDX 75 44 77 45 28 46 80 47 74 48 73 49 29 51 61 52 41 53 60 54
REMARK SMILES IDX 42 55 45 56 59 57 78 58 43 59 44 60 58 62 79 63 46 64 30 65
REMARK SMILES IDX 31 66 39 67 32 68 34 69 40 70 33 71 35 72 36 73 37 74 38 75
REMARK SMILES IDX 62 76 63 77 71 78 64 79 66 80 72 81 65 82 67 83 68 84 69 85
REMARK SMILES IDX 70 86 47 87 48 88 56 89 49 90 51 91 57 92 50 93 52 94 53 95
REMARK SMILES IDX 54 96 55 97
REMARK H PARENT 77 50 45 61
REMARK Flexibility Score: inf
ROOT
ATOM      1  C   UNL A   1      31.254  28.753  25.954  1.00  0.00     0.188 C 
ENDROOT
BRANCH   1   2
ATOM      2  O   UNL A   1      31.457  29.344  24.671  1.00  0.00    -0.377 OA
BRANCH   2   3
ATOM      3  C   UNL A   1      30.360  29.700  23.849  1.00  0.00     0.188 C 
BRANCH   3   4
ATOM      4  C   UNL A   1      30.559  29.314  22.387  1.00  0.00     0.188 C 
BRANCH   4   5
ATOM      5  O   UNL A   1      30.206  27.974  22.070  1.00  0.00    -0.376 OA
BRANCH   5   6
ATOM      6  C   UNL A   1      31.206  26.984  22.305  1.00  0.00     0.202 C 
BRANCH   6   7
ATOM      7  C   UNL A   1      30.772  25.732  23.070  1.00  0.00     0.261 C 
BRANCH   7   8
ATOM      8  O   UNL A   1      31.160  25.708  24.469  1.00  0.00    -0.463 OA
BRANCH   8   9
ATOM      9  C   UNL A   1      32.470  25.432  24.736  1.00  0.00     0.313 C 
ATOM     10  O   UNL A   1      33.390  26.179  24.412  1.00  0.00    -0.252 OA
BRANCH   9  11
ATOM     11  C   UNL A   1      32.715  24.050  25.409  1.00  0.00     0.129 C 
BRANCH  11  12
ATOM     12  C   UNL A   1      31.730  23.712  26.566  1.00  0.00     0.017 C 
ATOM     13  C   UNL A   1      32.125  22.591  27.514  1.00  0.00     0.005 C 
ENDBRANCH  11  12
BRANCH  11  14
ATOM     14  C   UNL A   1      32.864  22.825  24.447  1.00  0.00    -0.030 C 
ATOM     15  C   UNL A   1      32.730  22.992  23.113  1.00  0.00    -0.022 C 
ATOM     16  C   UNL A   1      33.919  21.799  24.673  1.00  0.00    -0.015 A 
ATOM     17  C   UNL A   1      34.021  23.323  22.366  1.00  0.00     0.032 C 
ATOM     18  C   UNL A   1      35.225  22.204  24.336  1.00  0.00    -0.037 A 
ATOM     19  C   UNL A   1      33.700  20.415  24.768  1.00  0.00    -0.043 A 
ATOM     20  C   UNL A   1      35.311  23.268  23.239  1.00  0.00     0.040 C 
ATOM     21  C   UNL A   1      36.328  21.426  24.717  1.00  0.00    -0.047 A 
ATOM     22  C   UNL A   1      34.807  19.559  24.905  1.00  0.00     0.004 A 
ATOM     23  C   UNL A   1      32.377  19.782  24.427  1.00  0.00     0.045 C 
ATOM     24  C   UNL A   1      37.734  21.937  24.760  1.00  0.00     0.044 C 
ATOM     25  C   UNL A   1      36.100  20.075  24.978  1.00  0.00     0.004 A 
ENDBRANCH  11  14
ENDBRANCH   9  11
ENDBRANCH   8   9
ENDBRANCH   7   8
ENDBRANCH   6   7
ENDBRANCH   5   6
ENDBRANCH   4   5
ENDBRANCH   3   4
ENDBRANCH   2   3
ENDBRANCH   1   2
BRANCH   1  26
ATOM     26  C   UNL A   1      32.314  28.941  27.048  1.00  0.00     0.188 C 
BRANCH  26  27
ATOM     27  O   UNL A   1      33.684  29.046  26.653  1.00  0.00    -0.376 OA
BRANCH  27  28
ATOM     28  C   UNL A   1      34.355  30.289  26.837  1.00  0.00     0.202 C 
BRANCH  28  29
ATOM     29  C   UNL A   1      33.610  31.277  27.720  1.00  0.00     0.261 C 
BRANCH  29  30
ATOM     30  O   UNL A   1      34.501  32.288  28.212  1.00  0.00    -0.460 OA
BRANCH  30  31
ATOM     31  C   UNL A   1      35.034  32.026  29.422  1.00  0.00     0.338 C 
ATOM     32  O   UNL A   1      34.591  32.359  30.517  1.00  0.00    -0.246 OA
BRANCH  31  33
ATOM     33  C   UNL A   1      36.200  31.146  29.274  1.00  0.00     0.060 A 
ATOM     34  C   UNL A   1      36.135  29.878  29.864  1.00  0.00     0.016 A 
ATOM     35  C   UNL A   1      37.378  31.603  28.677  1.00  0.00     0.016 A 
ATOM     36  C   UNL A   1      37.284  29.106  29.962  1.00  0.00     0.010 A 
ATOM     37  C   UNL A   1      38.531  30.825  28.775  1.00  0.00     0.010 A 
ATOM     38  C   UNL A   1      38.499  29.613  29.484  1.00  0.00    -0.014 A 
BRANCH  38  39
ATOM     39  C   UNL A   1      39.756  28.992  29.954  1.00  0.00     0.031 A 
ATOM     40  C   UNL A   1      40.403  29.543  31.198  1.00  0.00     0.074 A 
ATOM     41  C   UNL A   1      40.278  27.935  29.315  1.00  0.00     0.049 A 
ATOM     42  N   UNL A   1      41.492  29.157  31.805  1.00  0.00    -0.248 NA
ATOM     43  C   UNL A   1      39.731  30.686  31.844  1.00  0.00     0.031 C 
ATOM     44  C   UNL A   1      39.725  27.317  28.110  1.00  0.00     0.029 A 
ATOM     45  N   UNL A   1      41.404  27.205  29.586  1.00  0.00    -0.354 N 
ATOM     46  C   UNL A   1      41.656  30.025  32.878  1.00  0.00     0.074 A 
ATOM     47  C   UNL A   1      40.565  30.971  32.830  1.00  0.00     0.031 C 
ATOM     48  C   UNL A   1      40.529  26.310  27.732  1.00  0.00     0.029 A 
ATOM     49  C   UNL A   1      41.662  26.231  28.653  1.00  0.00     0.049 A 
ATOM     50  H   UNL A   1      41.974  27.362  30.373  1.00  0.00     0.167 HD
ATOM     51  C   UNL A   1      42.620  30.025  33.828  1.00  0.00     0.034 A 
ATOM     52  C   UNL A   1      42.707  25.388  28.547  1.00  0.00     0.034 A 
ATOM     53  C   UNL A   1      43.691  29.067  33.876  1.00  0.00     0.049 A 
ATOM     54  C   UNL A   1      43.776  25.419  29.608  1.00  0.00     0.074 A 
ATOM     55  C   UNL A   1      44.697  28.947  34.818  1.00  0.00     0.029 A 
ATOM     56  N   UNL A   1      43.903  28.074  32.933  1.00  0.00    -0.354 N 
ATOM     57  N   UNL A   1      43.863  26.177  30.676  1.00  0.00    -0.248 NA
ATOM     58  C   UNL A   1      44.870  24.450  29.472  1.00  0.00     0.031 C 
ATOM     59  C   UNL A   1      45.541  27.904  34.420  1.00  0.00     0.029 A 
ATOM     60  C   UNL A   1      45.032  27.343  33.260  1.00  0.00     0.049 A 
ATOM     61  H   UNL A   1      43.334  27.911  32.147  1.00  0.00     0.167 HD
ATOM     62  C   UNL A   1      44.996  25.750  31.357  1.00  0.00     0.074 A 
ATOM     63  C   UNL A   1      45.549  24.650  30.592  1.00  0.00     0.031 C 
ATOM     64  C   UNL A   1      45.541  26.226  32.505  1.00  0.00     0.034 A 
BRANCH  51  65
ATOM     65  C   UNL A   1      42.555  31.090  34.892  1.00  0.00     0.023 A 
ATOM     66  C   UNL A   1      41.782  30.883  36.053  1.00  0.00     0.012 A 
ATOM     67  C   UNL A   1      43.294  32.281  34.760  1.00  0.00     0.148 A 
ATOM     68  C   UNL A   1      41.716  31.859  37.048  1.00  0.00     0.002 A 
ATOM     69  C   UNL A   1      43.265  33.227  35.778  1.00  0.00     0.091 A 
ATOM     70  F   UNL A   1      44.004  32.472  33.639  1.00  0.00    -0.205 F 
ATOM     71  C   UNL A   1      42.466  33.025  36.916  1.00  0.00     0.022 A 
BRANCH  69  72
ATOM     72  S   UNL A   1      44.257  34.724  35.739  1.00  0.00     0.127 S 
ATOM     73  O   UNL A   1      43.626  35.468  34.651  1.00  0.00    -0.237 OA
ATOM     74  O   UNL A   1      44.023  35.278  37.073  1.00  0.00    -0.237 OA
ATOM     75  O   UNL A   1      45.626  34.294  35.489  1.00  0.00    -0.744 OA
ENDBRANCH  69  72
ENDBRANCH  51  65
BRANCH  52  76
ATOM     76  C   UNL A   1      42.777  24.427  27.413  1.00  0.00     0.023 A 
ATOM     77  C   UNL A   1      43.415  24.803  26.216  1.00  0.00     0.012 A 
ATOM     78  C   UNL A   1      42.224  23.137  27.522  1.00  0.00     0.148 A 
ATOM     79  C   UNL A   1      43.468  23.925  25.133  1.00  0.00     0.002 A 
ATOM     80  C   UNL A   1      42.332  22.245  26.462  1.00  0.00     0.091 A 
ATOM     81  F   UNL A   1      41.612  22.803  28.667  1.00  0.00    -0.205 F 
ATOM     82  C   UNL A   1      42.935  22.644  25.259  1.00  0.00     0.022 A 
BRANCH  80  83
ATOM     83  S   UNL A   1      41.794  20.537  26.582  1.00  0.00     0.127 S 
ATOM     84  O   UNL A   1      40.341  20.683  26.617  1.00  0.00    -0.237 OA
ATOM     85  O   UNL A   1      42.328  19.968  25.343  1.00  0.00    -0.237 OA
ATOM     86  O   UNL A   1      42.405  20.014  27.796  1.00  0.00    -0.744 OA
ENDBRANCH  80  83
ENDBRANCH  52  76
BRANCH  64  87
ATOM     87  C   UNL A   1      46.771  25.530  33.030  1.00  0.00     0.023 A 
ATOM     88  C   UNL A   1      48.054  26.000  32.684  1.00  0.00     0.012 A 
ATOM     89  C   UNL A   1      46.651  24.430  33.904  1.00  0.00     0.148 A 
ATOM     90  C   UNL A   1      49.197  25.353  33.156  1.00  0.00     0.002 A 
ATOM     91  C   UNL A   1      47.793  23.829  34.417  1.00  0.00     0.091 A 
ATOM     92  F   UNL A   1      45.424  23.988  34.211  1.00  0.00    -0.205 F 
ATOM     93  C   UNL A   1      49.067  24.276  34.029  1.00  0.00     0.022 A 
BRANCH  91  94
ATOM     94  S   UNL A   1      47.719  22.504  35.626  1.00  0.00     0.127 S 
ATOM     95  O   UNL A   1      48.109  21.346  34.823  1.00  0.00    -0.237 OA
ATOM     96  O   UNL A   1      48.717  22.927  36.611  1.00  0.00    -0.237 OA
ATOM     97  O   UNL A   1      46.350  22.490  36.124  1.00  0.00    -0.744 OA
ENDBRANCH  91  94
ENDBRANCH  64  87
ENDBRANCH  38  39
ENDBRANCH  31  33
ENDBRANCH  30  31
ENDBRANCH  29  30
ENDBRANCH  28  29
ENDBRANCH  27  28
ENDBRANCH  26  27
ENDBRANCH   1  26
TORSDOF 25
ENDMDL
MODEL 3
REMARK VINA RESULT:      -9.2      2.485      7.752
REMARK SMILES CC[C@H](C(=O)OCCOCCOCCOCCOC(=O)c1ccc(-c2c3nc(c(-c4cccc(S(=O)(=O)[O-])c4F)c4ccc([nH]4)c(-c4cccc(S(=O)(=O)[O-])c4F)c4nc(c(-c5cccc(S(=O)(=O)[O-])c5F)c5ccc2[nH]5)C=C4)C=C3)cc1)C1=CCCc2c(C)ccc(C)c21
REMARK SMILES IDX 13 1 12 2 11 3 10 4 9 5 8 6 7 7 6 8 4 9 5 10 3 11 2 12 1 13
REMARK SMILES IDX 84 14 85 15 95 16 86 17 88 18 93 19 87 20 89 21 92 22 94 23
REMARK SMILES IDX 90 24 91 25 14 26 15 27 16 28 17 29 18 30 19 31 20 32 21 33
REMARK SMILES IDX 22 34 83 35 23 36 82 37 24 38 25 39 26 40 76 41 27 42 81 43
REMARK SMILES IDX 75 44 77 45 28 46 80 47 74 48 73 49 29 51 61 52 41 53 60 54
REMARK SMILES IDX 42 55 45 56 59 57 78 58 43 59 44 60 58 62 79 63 46 64 30 65
REMARK SMILES IDX 31 66 39 67 32 68 34 69 40 70 33 71 35 72 36 73 37 74 38 75
REMARK SMILES IDX 62 76 63 77 71 78 64 79 66 80 72 81 65 82 67 83 68 84 69 85
REMARK SMILES IDX 70 86 47 87 48 88 56 89 49 90 51 91 57 92 50 93 52 94 53 95
REMARK SMILES IDX 54 96 55 97
REMARK H PARENT 77 50 45 61
REMARK Flexibility Score: inf
ROOT
ATOM      1  C   UNL A   1      31.399  28.380  26.337  1.00  0.00     0.188 C 
ENDROOT
BRANCH   1   2
ATOM      2  O   UNL A   1      31.630  28.328  24.931  1.00  0.00    -0.377 OA
BRANCH   2   3
ATOM      3  C   UNL A   1      30.553  28.376  24.011  1.00  0.00     0.188 C 
BRANCH   3   4
ATOM      4  C   UNL A   1      31.006  28.315  22.556  1.00  0.00     0.188 C 
BRANCH   4   5
ATOM      5  O   UNL A   1      31.038  27.009  21.996  1.00  0.00    -0.376 OA
BRANCH   5   6
ATOM      6  C   UNL A   1      32.326  26.497  21.660  1.00  0.00     0.202 C 
BRANCH   6   7
ATOM      7  C   UNL A   1      33.171  25.944  22.809  1.00  0.00     0.261 C 
BRANCH   7   8
ATOM      8  O   UNL A   1      34.353  25.209  22.398  1.00  0.00    -0.463 OA
BRANCH   8   9
ATOM      9  C   UNL A   1      34.200  23.869  22.189  1.00  0.00     0.313 C 
ATOM     10  O   UNL A   1      33.661  23.406  21.186  1.00  0.00    -0.252 OA
BRANCH   9  11
ATOM     11  C   UNL A   1      34.684  22.972  23.365  1.00  0.00     0.129 C 
BRANCH  11  12
ATOM     12  C   UNL A   1      35.906  23.537  24.147  1.00  0.00     0.017 C 
ATOM     13  C   UNL A   1      35.782  23.636  25.659  1.00  0.00     0.005 C 
ENDBRANCH  11  12
BRANCH  11  14
ATOM     14  C   UNL A   1      33.584  22.477  24.361  1.00  0.00    -0.030 C 
ATOM     15  C   UNL A   1      32.401  23.124  24.437  1.00  0.00    -0.022 C 
ATOM     16  C   UNL A   1      33.321  21.023  24.550  1.00  0.00    -0.015 A 
ATOM     17  C   UNL A   1      31.315  22.610  23.492  1.00  0.00     0.032 C 
ATOM     18  C   UNL A   1      32.623  20.403  23.495  1.00  0.00    -0.037 A 
ATOM     19  C   UNL A   1      33.311  20.352  25.783  1.00  0.00    -0.043 A 
ATOM     20  C   UNL A   1      31.700  21.327  22.696  1.00  0.00     0.040 C 
ATOM     21  C   UNL A   1      32.520  19.006  23.439  1.00  0.00    -0.047 A 
ATOM     22  C   UNL A   1      32.968  18.989  25.813  1.00  0.00     0.004 A 
ATOM     23  C   UNL A   1      33.350  21.083  27.100  1.00  0.00     0.045 C 
ATOM     24  C   UNL A   1      32.159  18.244  22.203  1.00  0.00     0.044 C 
ATOM     25  C   UNL A   1      32.673  18.304  24.636  1.00  0.00     0.004 A 
ENDBRANCH  11  14
ENDBRANCH   9  11
ENDBRANCH   8   9
ENDBRANCH   7   8
ENDBRANCH   6   7
ENDBRANCH   5   6
ENDBRANCH   4   5
ENDBRANCH   3   4
ENDBRANCH   2   3
ENDBRANCH   1   2
BRANCH   1  26
ATOM     26  C   UNL A   1      32.421  29.080  27.244  1.00  0.00     0.188 C 
BRANCH  26  27
ATOM     27  O   UNL A   1      33.786  29.120  26.822  1.00  0.00    -0.376 OA
BRANCH  27  28
ATOM     28  C   UNL A   1      34.525  30.323  27.010  1.00  0.00     0.202 C 
BRANCH  28  29
ATOM     29  C   UNL A   1      33.762  31.418  27.741  1.00  0.00     0.261 C 
BRANCH  29  30
ATOM     30  O   UNL A   1      34.669  32.361  28.327  1.00  0.00    -0.460 OA
BRANCH  30  31
ATOM     31  C   UNL A   1      35.082  32.045  29.572  1.00  0.00     0.338 C 
ATOM     32  O   UNL A   1      34.529  32.325  30.631  1.00  0.00    -0.246 OA
BRANCH  31  33
ATOM     33  C   UNL A   1      36.264  31.178  29.499  1.00  0.00     0.060 A 
ATOM     34  C   UNL A   1      36.280  30.033  30.306  1.00  0.00     0.016 A 
ATOM     35  C   UNL A   1      37.386  31.547  28.752  1.00  0.00     0.016 A 
ATOM     36  C   UNL A   1      37.458  29.316  30.459  1.00  0.00     0.010 A 
ATOM     37  C   UNL A   1      38.568  30.823  28.905  1.00  0.00     0.010 A 
ATOM     38  C   UNL A   1      38.622  29.756  29.816  1.00  0.00    -0.014 A 
BRANCH  38  39
ATOM     39  C   UNL A   1      39.926  29.255  30.300  1.00  0.00     0.031 A 
ATOM     40  C   UNL A   1      40.603  28.158  29.521  1.00  0.00     0.074 A 
ATOM     41  C   UNL A   1      40.513  29.800  31.376  1.00  0.00     0.049 A 
ATOM     42  N   UNL A   1      41.749  27.572  29.741  1.00  0.00    -0.248 NA
ATOM     43  C   UNL A   1      39.889  27.650  28.335  1.00  0.00     0.031 C 
ATOM     44  C   UNL A   1      39.950  30.875  32.192  1.00  0.00     0.029 A 
ATOM     45  N   UNL A   1      41.710  29.509  31.973  1.00  0.00    -0.354 N 
ATOM     46  C   UNL A   1      41.878  26.607  28.748  1.00  0.00     0.074 A 
ATOM     47  C   UNL A   1      40.685  26.673  27.934  1.00  0.00     0.031 C 
ATOM     48  C   UNL A   1      40.795  31.140  33.203  1.00  0.00     0.029 A 
ATOM     49  C   UNL A   1      41.942  30.236  33.115  1.00  0.00     0.049 A 
ATOM     50  H   UNL A   1      42.343  28.843  31.620  1.00  0.00     0.167 HD
ATOM     51  C   UNL A   1      42.904  25.755  28.523  1.00  0.00     0.034 A 
ATOM     52  C   UNL A   1      42.957  30.162  33.997  1.00  0.00     0.034 A 
ATOM     53  C   UNL A   1      44.094  25.712  29.329  1.00  0.00     0.049 A 
ATOM     54  C   UNL A   1      44.080  29.194  33.734  1.00  0.00     0.074 A 
ATOM     55  C   UNL A   1      45.215  24.918  29.166  1.00  0.00     0.029 A 
ATOM     56  N   UNL A   1      44.310  26.485  30.458  1.00  0.00    -0.354 N 
ATOM     57  N   UNL A   1      44.238  28.360  32.732  1.00  0.00    -0.248 NA
ATOM     58  C   UNL A   1      45.184  29.183  34.702  1.00  0.00     0.031 C 
ATOM     59  C   UNL A   1      46.093  25.185  30.223  1.00  0.00     0.029 A 
ATOM     60  C   UNL A   1      45.541  26.181  31.013  1.00  0.00     0.049 A 
ATOM     61  H   UNL A   1      43.682  27.154  30.813  1.00  0.00     0.167 HD
ATOM     62  C   UNL A   1      45.476  27.758  32.928  1.00  0.00     0.074 A 
ATOM     63  C   UNL A   1      46.034  28.341  34.132  1.00  0.00     0.031 C 
ATOM     64  C   UNL A   1      46.094  26.802  32.190  1.00  0.00     0.034 A 
BRANCH  51  65
ATOM     65  C   UNL A   1      42.785  24.805  27.359  1.00  0.00     0.023 A 
ATOM     66  C   UNL A   1      43.392  25.120  26.126  1.00  0.00     0.012 A 
ATOM     67  C   UNL A   1      42.104  23.581  27.500  1.00  0.00     0.148 A 
ATOM     68  C   UNL A   1      43.293  24.248  25.041  1.00  0.00     0.002 A 
ATOM     69  C   UNL A   1      42.053  22.694  26.431  1.00  0.00     0.091 A 
ATOM     70  F   UNL A   1      41.512  23.309  28.671  1.00  0.00    -0.205 F 
ATOM     71  C   UNL A   1      42.634  23.031  25.197  1.00  0.00     0.022 A 
BRANCH  69  72
ATOM     72  S   UNL A   1      41.297  21.069  26.555  1.00  0.00     0.127 S 
ATOM     73  O   UNL A   1      41.513  20.749  27.964  1.00  0.00    -0.237 OA
ATOM     74  O   UNL A   1      39.907  21.352  26.199  1.00  0.00    -0.237 OA
ATOM     75  O   UNL A   1      42.008  20.221  25.607  1.00  0.00    -0.744 OA
ENDBRANCH  69  72
ENDBRANCH  51  65
BRANCH  52  76
ATOM     76  C   UNL A   1      42.972  31.050  35.191  1.00  0.00     0.023 A 
ATOM     77  C   UNL A   1      42.456  30.584  36.416  1.00  0.00     0.012 A 
ATOM     78  C   UNL A   1      43.506  32.351  35.120  1.00  0.00     0.148 A 
ATOM     79  C   UNL A   1      42.438  31.411  37.540  1.00  0.00     0.002 A 
ATOM     80  C   UNL A   1      43.540  33.149  36.257  1.00  0.00     0.091 A 
ATOM     81  F   UNL A   1      43.982  32.778  33.943  1.00  0.00    -0.205 F 
ATOM     82  C   UNL A   1      42.988  32.689  37.463  1.00  0.00     0.022 A 
BRANCH  80  83
ATOM     83  S   UNL A   1      44.346  34.752  36.285  1.00  0.00     0.127 S 
ATOM     84  O   UNL A   1      44.032  35.222  37.632  1.00  0.00    -0.237 OA
ATOM     85  O   UNL A   1      45.747  34.386  36.069  1.00  0.00    -0.237 OA
ATOM     86  O   UNL A   1      43.750  35.513  35.196  1.00  0.00    -0.744 OA
ENDBRANCH  80  83
ENDBRANCH  52  76
BRANCH  64  87
ATOM     87  C   UNL A   1      47.465  26.361  32.634  1.00  0.00     0.023 A 
ATOM     88  C   UNL A   1      48.610  27.064  32.205  1.00  0.00     0.012 A 
ATOM     89  C   UNL A   1      47.615  25.272  33.516  1.00  0.00     0.148 A 
ATOM     90  C   UNL A   1      49.883  26.655  32.603  1.00  0.00     0.002 A 
ATOM     91  C   UNL A   1      48.881  24.908  33.955  1.00  0.00     0.091 A 
ATOM     92  F   UNL A   1      46.517  24.607  33.904  1.00  0.00    -0.205 F 
ATOM     93  C   UNL A   1      50.018  25.585  33.484  1.00  0.00     0.022 A 
BRANCH  91  94
ATOM     94  S   UNL A   1      49.140  23.610  35.169  1.00  0.00     0.127 S 
ATOM     95  O   UNL A   1      50.585  23.405  35.081  1.00  0.00    -0.237 OA
ATOM     96  O   UNL A   1      48.689  24.249  36.407  1.00  0.00    -0.237 OA
ATOM     97  O   UNL A   1      48.319  22.487  34.737  1.00  0.00    -0.744 OA
ENDBRANCH  91  94
ENDBRANCH  64  87
ENDBRANCH  38  39
ENDBRANCH  31  33
ENDBRANCH  30  31
ENDBRANCH  29  30
ENDBRANCH  28  29
ENDBRANCH  27  28
ENDBRANCH  26  27
ENDBRANCH   1  26
TORSDOF 25
ENDMDL
