MODEL 1
REMARK VINA RESULT:      -9.3      0.000      0.000
REMARK SMILES C[C@@H]1CCCN(C(=O)c2ccncc2/C=C/C(=O)OCCOCCOCCOCCOC(=O)c2ccc(-c3c4nc(c(-c5cccc(S(=O)(=O)[O-])c5F)c5ccc([nH]5)c(-c5cccc(S(=O)(=O)[O-])c5F)c5nc(c(-c6cccc(S(=O)(=O)[O-])c6F)c6ccc3[nH]6)C=C5)C=C4)cc2)[C@@H]1C
REMARK SMILES IDX 25 1 24 2 23 3 22 4 21 5 20 6 19 7 17 8 18 9 16 10 15 11
REMARK SMILES IDX 14 12 9 13 10 14 11 15 13 16 12 17 7 18 8 19 6 20 1 21 2 22
REMARK SMILES IDX 3 23 97 24 4 25 98 26 5 27 26 28 27 29 28 30 29 31 30 32
REMARK SMILES IDX 31 33 32 34 33 35 34 36 35 37 96 38 36 39 95 40 37 41 38 42
REMARK SMILES IDX 39 43 89 44 40 45 94 46 88 47 90 48 41 49 93 50 87 51 86 52
REMARK SMILES IDX 42 54 74 55 54 56 73 57 55 58 58 59 72 60 91 61 56 62 57 63
REMARK SMILES IDX 71 65 92 66 59 67 43 68 44 69 52 70 45 71 47 72 53 73 46 74
REMARK SMILES IDX 48 75 49 76 50 77 51 78 75 79 76 80 84 81 77 82 79 83 85 84
REMARK SMILES IDX 78 85 80 86 81 87 82 88 83 89 60 90 61 91 69 92 62 93 64 94
REMARK SMILES IDX 70 95 63 96 65 97 66 98 67 99 68 100
REMARK H PARENT 90 53 58 64
REMARK Flexibility Score: inf
ROOT
ATOM      1  O   UNL A   1      39.933  20.871  27.030  1.00  0.00    -0.377 OA
ENDROOT
BRANCH   1   2
ATOM      2  C   UNL A   1      39.388  21.046  25.733  1.00  0.00     0.188 C 
BRANCH   2   3
ATOM      3  C   UNL A   1      38.178  20.194  25.297  1.00  0.00     0.188 C 
BRANCH   3   4
ATOM      4  O   UNL A   1      36.985  20.930  25.106  1.00  0.00    -0.376 OA
BRANCH   4   5
ATOM      5  C   UNL A   1      36.856  22.214  25.689  1.00  0.00     0.202 C 
BRANCH   5   6
ATOM      6  C   UNL A   1      35.905  23.246  25.063  1.00  0.00     0.261 C 
BRANCH   6   7
ATOM      7  O   UNL A   1      35.024  22.752  24.052  1.00  0.00    -0.460 OA
BRANCH   7   8
ATOM      8  C   UNL A   1      34.695  23.600  23.057  1.00  0.00     0.330 C 
ATOM      9  O   UNL A   1      34.531  23.304  21.883  1.00  0.00    -0.247 OA
BRANCH   8  10
ATOM     10  C   UNL A   1      34.381  24.948  23.585  1.00  0.00     0.094 C 
ATOM     11  C   UNL A   1      33.235  25.617  23.360  1.00  0.00     0.018 C 
BRANCH  11  12
ATOM     12  C   UNL A   1      32.947  26.950  23.927  1.00  0.00     0.006 A 
ATOM     13  C   UNL A   1      32.069  27.160  25.004  1.00  0.00     0.050 A 
ATOM     14  C   UNL A   1      31.983  28.414  25.618  1.00  0.00     0.034 A 
ATOM     15  C   UNL A   1      32.666  29.466  25.043  1.00  0.00     0.112 A 
ATOM     16  C   UNL A   1      33.542  28.100  23.411  1.00  0.00     0.119 A 
ATOM     17  N   UNL A   1      33.416  29.347  23.929  1.00  0.00    -0.264 NA
BRANCH  13  18
ATOM     18  C   UNL A   1      31.280  26.041  25.568  1.00  0.00     0.254 C 
ATOM     19  O   UNL A   1      30.145  26.344  25.914  1.00  0.00    -0.269 OA
BRANCH  18  20
ATOM     20  N   UNL A   1      31.877  24.777  25.696  1.00  0.00    -0.336 N 
ATOM     21  C   UNL A   1      29.832  22.607  26.597  1.00  0.00     0.010 C 
ATOM     22  C   UNL A   1      31.119  22.393  25.785  1.00  0.00     0.008 C 
ATOM     23  C   UNL A   1      32.306  22.076  26.707  1.00  0.00     0.007 C 
ATOM     24  C   UNL A   1      31.462  23.606  24.866  1.00  0.00     0.085 C 
ATOM     25  C   UNL A   1      32.724  23.296  27.514  1.00  0.00     0.022 C 
ATOM     26  C   UNL A   1      30.359  23.817  23.827  1.00  0.00     0.031 C 
ATOM     27  C   UNL A   1      32.997  24.485  26.602  1.00  0.00     0.120 C 
ENDBRANCH  18  20
ENDBRANCH  13  18
ENDBRANCH  11  12
ENDBRANCH   8  10
ENDBRANCH   7   8
ENDBRANCH   6   7
ENDBRANCH   5   6
ENDBRANCH   4   5
ENDBRANCH   3   4
ENDBRANCH   2   3
ENDBRANCH   1   2
BRANCH   1  28
ATOM     28  C   UNL A   1      41.283  20.446  27.191  1.00  0.00     0.188 C 
BRANCH  28  29
ATOM     29  C   UNL A   1      41.917  19.375  26.270  1.00  0.00     0.188 C 
BRANCH  29  30
ATOM     30  O   UNL A   1      43.266  19.624  25.910  1.00  0.00    -0.376 OA
BRANCH  30  31
ATOM     31  C   UNL A   1      43.730  20.958  26.003  1.00  0.00     0.202 C 
BRANCH  31  32
ATOM     32  C   UNL A   1      43.531  21.855  24.774  1.00  0.00     0.261 C 
BRANCH  32  33
ATOM     33  O   UNL A   1      43.023  23.173  25.024  1.00  0.00    -0.460 OA
BRANCH  33  34
ATOM     34  C   UNL A   1      43.914  24.184  25.095  1.00  0.00     0.338 C 
ATOM     35  O   UNL A   1      44.757  24.483  24.264  1.00  0.00    -0.246 OA
BRANCH  34  36
ATOM     36  C   UNL A   1      43.569  24.986  26.285  1.00  0.00     0.060 A 
ATOM     37  C   UNL A   1      42.596  24.518  27.179  1.00  0.00     0.016 A 
ATOM     38  C   UNL A   1      44.230  26.193  26.521  1.00  0.00     0.016 A 
ATOM     39  C   UNL A   1      42.261  25.275  28.303  1.00  0.00     0.010 A 
ATOM     40  C   UNL A   1      43.879  26.958  27.634  1.00  0.00     0.010 A 
ATOM     41  C   UNL A   1      42.869  26.519  28.509  1.00  0.00    -0.014 A 
BRANCH  41  42
ATOM     42  C   UNL A   1      42.323  27.471  29.505  1.00  0.00     0.031 A 
ATOM     43  C   UNL A   1      43.053  27.613  30.813  1.00  0.00     0.074 A 
ATOM     44  C   UNL A   1      41.187  28.154  29.280  1.00  0.00     0.049 A 
ATOM     45  N   UNL A   1      42.709  28.267  31.890  1.00  0.00    -0.248 NA
ATOM     46  C   UNL A   1      44.344  26.911  30.920  1.00  0.00     0.031 C 
ATOM     47  C   UNL A   1      40.403  28.116  28.049  1.00  0.00     0.029 A 
ATOM     48  N   UNL A   1      40.477  28.989  30.109  1.00  0.00    -0.354 N 
ATOM     49  C   UNL A   1      43.718  28.025  32.815  1.00  0.00     0.074 A 
ATOM     50  C   UNL A   1      44.684  27.160  32.176  1.00  0.00     0.031 C 
ATOM     51  C   UNL A   1      39.298  28.864  28.214  1.00  0.00     0.029 A 
ATOM     52  C   UNL A   1      39.279  29.401  29.574  1.00  0.00     0.049 A 
ATOM     53  H   UNL A   1      40.795  29.266  30.998  1.00  0.00     0.167 HD
ATOM     54  C   UNL A   1      43.835  28.489  34.081  1.00  0.00     0.034 A 
ATOM     55  C   UNL A   1      38.270  30.098  30.136  1.00  0.00     0.034 A 
ATOM     56  C   UNL A   1      42.876  29.356  34.707  1.00  0.00     0.049 A 
ATOM     57  C   UNL A   1      38.400  30.562  31.567  1.00  0.00     0.074 A 
ATOM     58  C   UNL A   1      42.917  29.907  35.975  1.00  0.00     0.029 A 
ATOM     59  N   UNL A   1      41.698  29.786  34.119  1.00  0.00    -0.354 N 
ATOM     60  N   UNL A   1      39.400  30.402  32.401  1.00  0.00    -0.248 NA
ATOM     61  C   UNL A   1      37.274  31.327  32.125  1.00  0.00     0.031 C 
ATOM     62  C   UNL A   1      41.744  30.642  36.167  1.00  0.00     0.029 A 
ATOM     63  C   UNL A   1      40.998  30.589  35.001  1.00  0.00     0.049 A 
ATOM     64  H   UNL A   1      41.403  29.556  33.208  1.00  0.00     0.167 HD
ATOM     65  C   UNL A   1      39.044  31.086  33.560  1.00  0.00     0.074 A 
ATOM     66  C   UNL A   1      37.741  31.668  33.319  1.00  0.00     0.031 C 
ATOM     67  C   UNL A   1      39.732  31.216  34.721  1.00  0.00     0.034 A 
BRANCH  54  68
ATOM     68  C   UNL A   1      45.048  28.074  34.869  1.00  0.00     0.023 A 
ATOM     69  C   UNL A   1      46.215  28.864  34.828  1.00  0.00     0.012 A 
ATOM     70  C   UNL A   1      45.013  26.932  35.693  1.00  0.00     0.148 A 
ATOM     71  C   UNL A   1      47.340  28.506  35.569  1.00  0.00     0.002 A 
ATOM     72  C   UNL A   1      46.121  26.609  36.466  1.00  0.00     0.091 A 
ATOM     73  F   UNL A   1      43.902  26.182  35.700  1.00  0.00    -0.205 F 
ATOM     74  C   UNL A   1      47.288  27.387  36.397  1.00  0.00     0.022 A 
BRANCH  72  75
ATOM     75  S   UNL A   1      46.128  25.235  37.623  1.00  0.00     0.127 S 
ATOM     76  O   UNL A   1      45.823  24.108  36.742  1.00  0.00    -0.237 OA
ATOM     77  O   UNL A   1      47.501  25.264  38.123  1.00  0.00    -0.237 OA
ATOM     78  O   UNL A   1      45.109  25.538  38.618  1.00  0.00    -0.744 OA
ENDBRANCH  72  75
ENDBRANCH  54  68
BRANCH  55  79
ATOM     79  C   UNL A   1      37.043  30.415  29.351  1.00  0.00     0.023 A 
ATOM     80  C   UNL A   1      36.302  29.370  28.764  1.00  0.00     0.012 A 
ATOM     81  C   UNL A   1      36.617  31.744  29.166  1.00  0.00     0.148 A 
ATOM     82  C   UNL A   1      35.183  29.644  27.977  1.00  0.00     0.002 A 
ATOM     83  C   UNL A   1      35.469  32.008  28.427  1.00  0.00     0.091 A 
ATOM     84  F   UNL A   1      37.343  32.726  29.718  1.00  0.00    -0.205 F 
ATOM     85  C   UNL A   1      34.763  30.961  27.816  1.00  0.00     0.022 A 
BRANCH  83  86
ATOM     86  S   UNL A   1      34.791  33.662  28.258  1.00  0.00     0.127 S 
ATOM     87  O   UNL A   1      33.376  33.380  28.026  1.00  0.00    -0.237 OA
ATOM     88  O   UNL A   1      35.098  34.244  29.564  1.00  0.00    -0.237 OA
ATOM     89  O   UNL A   1      35.504  34.267  27.141  1.00  0.00    -0.744 OA
ENDBRANCH  83  86
ENDBRANCH  55  79
BRANCH  67  90
ATOM     90  C   UNL A   1      39.140  32.079  35.806  1.00  0.00     0.023 A 
ATOM     91  C   UNL A   1      38.192  31.545  36.701  1.00  0.00     0.012 A 
ATOM     92  C   UNL A   1      39.612  33.393  35.998  1.00  0.00     0.148 A 
ATOM     93  C   UNL A   1      37.706  32.317  37.756  1.00  0.00     0.002 A 
ATOM     94  C   UNL A   1      39.164  34.136  37.082  1.00  0.00     0.091 A 
ATOM     95  F   UNL A   1      40.504  33.885  35.126  1.00  0.00    -0.205 F 
ATOM     96  C   UNL A   1      38.200  33.604  37.955  1.00  0.00     0.022 A 
BRANCH  94  97
ATOM     97  S   UNL A   1      39.820  35.760  37.479  1.00  0.00     0.127 S 
ATOM     98  O   UNL A   1      39.005  36.137  38.633  1.00  0.00    -0.237 OA
ATOM     99  O   UNL A   1      41.217  35.460  37.791  1.00  0.00    -0.237 OA
ATOM    100  O   UNL A   1      39.625  36.578  36.289  1.00  0.00    -0.744 OA
ENDBRANCH  94  97
ENDBRANCH  67  90
ENDBRANCH  41  42
ENDBRANCH  34  36
ENDBRANCH  33  34
ENDBRANCH  32  33
ENDBRANCH  31  32
ENDBRANCH  30  31
ENDBRANCH  29  30
ENDBRANCH  28  29
ENDBRANCH   1  28
TORSDOF 26
ENDMDL
MODEL 2
REMARK VINA RESULT:      -9.2      3.894     11.275
REMARK SMILES C[C@@H]1CCCN(C(=O)c2ccncc2/C=C/C(=O)OCCOCCOCCOCCOC(=O)c2ccc(-c3c4nc(c(-c5cccc(S(=O)(=O)[O-])c5F)c5ccc([nH]5)c(-c5cccc(S(=O)(=O)[O-])c5F)c5nc(c(-c6cccc(S(=O)(=O)[O-])c6F)c6ccc3[nH]6)C=C5)C=C4)cc2)[C@@H]1C
REMARK SMILES IDX 25 1 24 2 23 3 22 4 21 5 20 6 19 7 17 8 18 9 16 10 15 11
REMARK SMILES IDX 14 12 9 13 10 14 11 15 13 16 12 17 7 18 8 19 6 20 1 21 2 22
REMARK SMILES IDX 3 23 97 24 4 25 98 26 5 27 26 28 27 29 28 30 29 31 30 32
REMARK SMILES IDX 31 33 32 34 33 35 34 36 35 37 96 38 36 39 95 40 37 41 38 42
REMARK SMILES IDX 39 43 89 44 40 45 94 46 88 47 90 48 41 49 93 50 87 51 86 52
REMARK SMILES IDX 42 54 74 55 54 56 73 57 55 58 58 59 72 60 91 61 56 62 57 63
REMARK SMILES IDX 71 65 92 66 59 67 43 68 44 69 52 70 45 71 47 72 53 73 46 74
REMARK SMILES IDX 48 75 49 76 50 77 51 78 75 79 76 80 84 81 77 82 79 83 85 84
REMARK SMILES IDX 78 85 80 86 81 87 82 88 83 89 60 90 61 91 69 92 62 93 64 94
REMARK SMILES IDX 70 95 63 96 65 97 66 98 67 99 68 100
REMARK H PARENT 90 53 58 64
REMARK Flexibility Score: inf
ROOT
ATOM      1  O   UNL A   1      36.187  32.699  29.046  1.00  0.00    -0.377 OA
ENDROOT
BRANCH   1   2
ATOM      2  C   UNL A   1      36.259  31.322  28.718  1.00  0.00     0.188 C 
BRANCH   2   3
ATOM      3  C   UNL A   1      35.328  30.752  27.627  1.00  0.00     0.188 C 
BRANCH   3   4
ATOM      4  O   UNL A   1      33.953  30.790  27.958  1.00  0.00    -0.376 OA
BRANCH   4   5
ATOM      5  C   UNL A   1      33.013  31.215  26.988  1.00  0.00     0.202 C 
BRANCH   5   6
ATOM      6  C   UNL A   1      32.187  30.175  26.216  1.00  0.00     0.261 C 
BRANCH   6   7
ATOM      7  O   UNL A   1      31.421  29.268  27.013  1.00  0.00    -0.460 OA
BRANCH   7   8
ATOM      8  C   UNL A   1      31.789  27.972  26.991  1.00  0.00     0.330 C 
ATOM      9  O   UNL A   1      31.801  27.210  27.946  1.00  0.00    -0.247 OA
BRANCH   8  10
ATOM     10  C   UNL A   1      32.027  27.506  25.605  1.00  0.00     0.094 C 
ATOM     11  C   UNL A   1      32.640  26.356  25.271  1.00  0.00     0.018 C 
BRANCH  11  12
ATOM     12  C   UNL A   1      32.836  25.913  23.876  1.00  0.00     0.006 A 
ATOM     13  C   UNL A   1      32.386  24.674  23.387  1.00  0.00     0.050 A 
ATOM     14  C   UNL A   1      32.430  24.392  22.017  1.00  0.00     0.034 A 
ATOM     15  C   UNL A   1      33.062  25.296  21.188  1.00  0.00     0.112 A 
ATOM     16  C   UNL A   1      33.494  26.717  22.946  1.00  0.00     0.119 A 
ATOM     17  N   UNL A   1      33.629  26.438  21.626  1.00  0.00    -0.264 NA
BRANCH  13  18
ATOM     18  C   UNL A   1      31.779  23.676  24.295  1.00  0.00     0.254 C 
ATOM     19  O   UNL A   1      30.586  23.850  24.517  1.00  0.00    -0.269 OA
BRANCH  18  20
ATOM     20  N   UNL A   1      32.585  22.668  24.845  1.00  0.00    -0.336 N 
ATOM     21  C   UNL A   1      35.118  23.827  26.239  1.00  0.00     0.010 C 
ATOM     22  C   UNL A   1      34.403  22.504  26.558  1.00  0.00     0.008 C 
ATOM     23  C   UNL A   1      35.016  21.343  25.760  1.00  0.00     0.007 C 
ATOM     24  C   UNL A   1      32.865  22.573  26.310  1.00  0.00     0.085 C 
ATOM     25  C   UNL A   1      34.686  21.450  24.280  1.00  0.00     0.022 C 
ATOM     26  C   UNL A   1      32.222  23.611  27.233  1.00  0.00     0.031 C 
ATOM     27  C   UNL A   1      33.184  21.576  24.063  1.00  0.00     0.120 C 
ENDBRANCH  18  20
ENDBRANCH  13  18
ENDBRANCH  11  12
ENDBRANCH   8  10
ENDBRANCH   7   8
ENDBRANCH   6   7
ENDBRANCH   5   6
ENDBRANCH   4   5
ENDBRANCH   3   4
ENDBRANCH   2   3
ENDBRANCH   1   2
BRANCH   1  28
ATOM     28  C   UNL A   1      34.945  33.282  29.432  1.00  0.00     0.188 C 
BRANCH  28  29
ATOM     29  C   UNL A   1      34.829  34.215  30.661  1.00  0.00     0.188 C 
BRANCH  29  30
ATOM     30  O   UNL A   1      35.564  33.794  31.799  1.00  0.00    -0.376 OA
BRANCH  30  31
ATOM     31  C   UNL A   1      35.249  32.527  32.346  1.00  0.00     0.202 C 
BRANCH  31  32
ATOM     32  C   UNL A   1      36.406  31.715  32.943  1.00  0.00     0.261 C 
BRANCH  32  33
ATOM     33  O   UNL A   1      37.403  31.254  32.021  1.00  0.00    -0.460 OA
BRANCH  33  34
ATOM     34  C   UNL A   1      37.591  29.922  31.916  1.00  0.00     0.338 C 
ATOM     35  O   UNL A   1      36.780  29.091  31.540  1.00  0.00    -0.246 OA
BRANCH  34  36
ATOM     36  C   UNL A   1      39.022  29.663  32.168  1.00  0.00     0.060 A 
ATOM     37  C   UNL A   1      39.964  30.671  31.917  1.00  0.00     0.016 A 
ATOM     38  C   UNL A   1      39.423  28.426  32.674  1.00  0.00     0.016 A 
ATOM     39  C   UNL A   1      41.319  30.430  32.148  1.00  0.00     0.010 A 
ATOM     40  C   UNL A   1      40.780  28.180  32.884  1.00  0.00     0.010 A 
ATOM     41  C   UNL A   1      41.736  29.168  32.589  1.00  0.00    -0.014 A 
BRANCH  41  42
ATOM     42  C   UNL A   1      43.167  28.788  32.547  1.00  0.00     0.031 A 
ATOM     43  C   UNL A   1      43.676  28.108  31.305  1.00  0.00     0.074 A 
ATOM     44  C   UNL A   1      43.984  28.993  33.594  1.00  0.00     0.049 A 
ATOM     45  N   UNL A   1      44.838  27.559  31.074  1.00  0.00    -0.248 NA
ATOM     46  C   UNL A   1      42.737  28.028  30.172  1.00  0.00     0.031 C 
ATOM     47  C   UNL A   1      43.615  29.659  34.841  1.00  0.00     0.029 A 
ATOM     48  N   UNL A   1      45.293  28.622  33.783  1.00  0.00    -0.354 N 
ATOM     49  C   UNL A   1      44.759  27.036  29.789  1.00  0.00     0.074 A 
ATOM     50  C   UNL A   1      43.433  27.326  29.291  1.00  0.00     0.031 C 
ATOM     51  C   UNL A   1      44.662  29.616  35.684  1.00  0.00     0.029 A 
ATOM     52  C   UNL A   1      45.761  28.888  35.049  1.00  0.00     0.049 A 
ATOM     53  H   UNL A   1      45.843  28.207  33.081  1.00  0.00     0.167 HD
ATOM     54  C   UNL A   1      45.708  26.379  29.082  1.00  0.00     0.034 A 
ATOM     55  C   UNL A   1      46.926  28.545  35.635  1.00  0.00     0.034 A 
ATOM     56  C   UNL A   1      47.027  26.101  29.579  1.00  0.00     0.049 A 
ATOM     57  C   UNL A   1      47.951  27.769  34.844  1.00  0.00     0.074 A 
ATOM     58  C   UNL A   1      48.073  25.469  28.931  1.00  0.00     0.029 A 
ATOM     59  N   UNL A   1      47.477  26.424  30.849  1.00  0.00    -0.354 N 
ATOM     60  N   UNL A   1      47.897  27.358  33.599  1.00  0.00    -0.248 NA
ATOM     61  C   UNL A   1      49.208  27.431  35.530  1.00  0.00     0.031 C 
ATOM     62  C   UNL A   1      49.144  25.377  29.823  1.00  0.00     0.029 A 
ATOM     63  C   UNL A   1      48.782  25.996  31.009  1.00  0.00     0.049 A 
ATOM     64  H   UNL A   1      46.947  26.890  31.536  1.00  0.00     0.167 HD
ATOM     65  C   UNL A   1      49.128  26.760  33.340  1.00  0.00     0.074 A 
ATOM     66  C   UNL A   1      49.909  26.868  34.554  1.00  0.00     0.031 C 
ATOM     67  C   UNL A   1      49.569  26.171  32.202  1.00  0.00     0.034 A 
BRANCH  54  68
ATOM     68  C   UNL A   1      45.357  25.925  27.692  1.00  0.00     0.023 A 
ATOM     69  C   UNL A   1      45.398  26.842  26.622  1.00  0.00     0.012 A 
ATOM     70  C   UNL A   1      45.038  24.577  27.435  1.00  0.00     0.148 A 
ATOM     71  C   UNL A   1      45.097  26.433  25.324  1.00  0.00     0.002 A 
ATOM     72  C   UNL A   1      44.786  24.166  26.132  1.00  0.00     0.091 A 
ATOM     73  F   UNL A   1      44.981  23.726  28.470  1.00  0.00    -0.205 F 
ATOM     74  C   UNL A   1      44.803  25.093  25.078  1.00  0.00     0.022 A 
BRANCH  72  75
ATOM     75  S   UNL A   1      44.477  22.450  25.700  1.00  0.00     0.127 S 
ATOM     76  O   UNL A   1      44.090  22.566  24.294  1.00  0.00    -0.237 OA
ATOM     77  O   UNL A   1      45.786  21.839  25.924  1.00  0.00    -0.237 OA
ATOM     78  O   UNL A   1      43.426  21.990  26.597  1.00  0.00    -0.744 OA
ENDBRANCH  72  75
ENDBRANCH  54  68
BRANCH  55  79
ATOM     79  C   UNL A   1      47.204  28.937  37.047  1.00  0.00     0.023 A 
ATOM     80  C   UNL A   1      47.754  30.204  37.323  1.00  0.00     0.012 A 
ATOM     81  C   UNL A   1      46.944  28.055  38.114  1.00  0.00     0.148 A 
ATOM     82  C   UNL A   1      48.076  30.571  38.630  1.00  0.00     0.002 A 
ATOM     83  C   UNL A   1      47.215  28.448  39.420  1.00  0.00     0.091 A 
ATOM     84  F   UNL A   1      46.435  26.848  37.831  1.00  0.00    -0.205 F 
ATOM     85  C   UNL A   1      47.799  29.698  39.677  1.00  0.00     0.022 A 
BRANCH  83  86
ATOM     86  S   UNL A   1      46.791  27.435  40.839  1.00  0.00     0.127 S 
ATOM     87  O   UNL A   1      47.296  28.245  41.945  1.00  0.00    -0.237 OA
ATOM     88  O   UNL A   1      45.333  27.373  40.735  1.00  0.00    -0.237 OA
ATOM     89  O   UNL A   1      47.467  26.162  40.631  1.00  0.00    -0.744 OA
ENDBRANCH  83  86
ENDBRANCH  55  79
BRANCH  67  90
ATOM     90  C   UNL A   1      50.986  25.658  32.170  1.00  0.00     0.023 A 
ATOM     91  C   UNL A   1      52.064  26.553  32.022  1.00  0.00     0.012 A 
ATOM     92  C   UNL A   1      51.246  24.291  32.398  1.00  0.00     0.148 A 
ATOM     93  C   UNL A   1      53.378  26.089  32.077  1.00  0.00     0.002 A 
ATOM     94  C   UNL A   1      52.557  23.846  32.504  1.00  0.00     0.091 A 
ATOM     95  F   UNL A   1      50.204  23.455  32.522  1.00  0.00    -0.205 F 
ATOM     96  C   UNL A   1      53.625  24.742  32.330  1.00  0.00     0.022 A 
BRANCH  94  97
ATOM     97  S   UNL A   1      52.971  22.152  32.934  1.00  0.00     0.127 S 
ATOM     98  O   UNL A   1      54.385  22.089  32.567  1.00  0.00    -0.237 OA
ATOM     99  O   UNL A   1      52.712  22.127  34.372  1.00  0.00    -0.237 OA
ATOM    100  O   UNL A   1      52.087  21.306  32.142  1.00  0.00    -0.744 OA
ENDBRANCH  94  97
ENDBRANCH  67  90
ENDBRANCH  41  42
ENDBRANCH  34  36
ENDBRANCH  33  34
ENDBRANCH  32  33
ENDBRANCH  31  32
ENDBRANCH  30  31
ENDBRANCH  29  30
ENDBRANCH  28  29
ENDBRANCH   1  28
TORSDOF 26
ENDMDL
MODEL 3
REMARK VINA RESULT:      -8.9      7.562     13.067
REMARK SMILES C[C@@H]1CCCN(C(=O)c2ccncc2/C=C/C(=O)OCCOCCOCCOCCOC(=O)c2ccc(-c3c4nc(c(-c5cccc(S(=O)(=O)[O-])c5F)c5ccc([nH]5)c(-c5cccc(S(=O)(=O)[O-])c5F)c5nc(c(-c6cccc(S(=O)(=O)[O-])c6F)c6ccc3[nH]6)C=C5)C=C4)cc2)[C@@H]1C
REMARK SMILES IDX 25 1 24 2 23 3 22 4 21 5 20 6 19 7 17 8 18 9 16 10 15 11
REMARK SMILES IDX 14 12 9 13 10 14 11 15 13 16 12 17 7 18 8 19 6 20 1 21 2 22
REMARK SMILES IDX 3 23 97 24 4 25 98 26 5 27 26 28 27 29 28 30 29 31 30 32
REMARK SMILES IDX 31 33 32 34 33 35 34 36 35 37 96 38 36 39 95 40 37 41 38 42
REMARK SMILES IDX 39 43 89 44 40 45 94 46 88 47 90 48 41 49 93 50 87 51 86 52
REMARK SMILES IDX 42 54 74 55 54 56 73 57 55 58 58 59 72 60 91 61 56 62 57 63
REMARK SMILES IDX 71 65 92 66 59 67 43 68 44 69 52 70 45 71 47 72 53 73 46 74
REMARK SMILES IDX 48 75 49 76 50 77 51 78 75 79 76 80 84 81 77 82 79 83 85 84
REMARK SMILES IDX 78 85 80 86 81 87 82 88 83 89 60 90 61 91 69 92 62 93 64 94
REMARK SMILES IDX 70 95 63 96 65 97 66 98 67 99 68 100
REMARK H PARENT 90 53 58 64
REMARK Flexibility Score: inf
ROOT
ATOM      1  O   UNL A   1      41.242  28.622  31.451  1.00  0.00    -0.377 OA
ENDROOT
BRANCH   1   2
ATOM      2  C   UNL A   1      40.465  29.803  31.556  1.00  0.00     0.188 C 
BRANCH   2   3
ATOM      3  C   UNL A   1      40.842  30.868  32.607  1.00  0.00     0.188 C 
BRANCH   3   4
ATOM      4  O   UNL A   1      39.886  31.900  32.758  1.00  0.00    -0.376 OA
BRANCH   4   5
ATOM      5  C   UNL A   1      40.001  32.804  33.842  1.00  0.00     0.202 C 
BRANCH   5   6
ATOM      6  C   UNL A   1      39.307  34.173  33.771  1.00  0.00     0.261 C 
BRANCH   6   7
ATOM      7  O   UNL A   1      38.324  34.429  34.776  1.00  0.00    -0.460 OA
BRANCH   7   8
ATOM      8  C   UNL A   1      37.202  33.683  34.741  1.00  0.00     0.330 C 
ATOM      9  O   UNL A   1      36.964  32.704  35.433  1.00  0.00    -0.247 OA
BRANCH   8  10
ATOM     10  C   UNL A   1      36.180  34.296  33.859  1.00  0.00     0.094 C 
ATOM     11  C   UNL A   1      35.999  33.991  32.561  1.00  0.00     0.018 C 
BRANCH  11  12
ATOM     12  C   UNL A   1      34.950  34.605  31.720  1.00  0.00     0.006 A 
ATOM     13  C   UNL A   1      34.771  34.298  30.361  1.00  0.00     0.050 A 
ATOM     14  C   UNL A   1      33.647  34.765  29.669  1.00  0.00     0.034 A 
ATOM     15  C   UNL A   1      32.809  35.650  30.315  1.00  0.00     0.112 A 
ATOM     16  C   UNL A   1      34.062  35.544  32.242  1.00  0.00     0.119 A 
ATOM     17  N   UNL A   1      33.010  36.082  31.576  1.00  0.00    -0.264 NA
BRANCH  13  18
ATOM     18  C   UNL A   1      35.718  33.408  29.653  1.00  0.00     0.254 C 
ATOM     19  O   UNL A   1      36.780  33.936  29.347  1.00  0.00    -0.269 OA
BRANCH  18  20
ATOM     20  N   UNL A   1      35.333  32.091  29.360  1.00  0.00    -0.336 N 
ATOM     21  C   UNL A   1      37.713  30.386  28.296  1.00  0.00     0.010 C 
ATOM     22  C   UNL A   1      36.462  29.881  29.031  1.00  0.00     0.008 C 
ATOM     23  C   UNL A   1      35.358  29.494  28.034  1.00  0.00     0.007 C 
ATOM     24  C   UNL A   1      35.913  30.908  30.067  1.00  0.00     0.085 C 
ATOM     25  C   UNL A   1      34.767  30.719  27.356  1.00  0.00     0.022 C 
ATOM     26  C   UNL A   1      36.948  31.165  31.164  1.00  0.00     0.031 C 
ATOM     27  C   UNL A   1      34.291  31.736  28.385  1.00  0.00     0.120 C 
ENDBRANCH  18  20
ENDBRANCH  13  18
ENDBRANCH  11  12
ENDBRANCH   8  10
ENDBRANCH   7   8
ENDBRANCH   6   7
ENDBRANCH   5   6
ENDBRANCH   4   5
ENDBRANCH   3   4
ENDBRANCH   2   3
ENDBRANCH   1   2
BRANCH   1  28
ATOM     28  C   UNL A   1      41.610  28.114  30.172  1.00  0.00     0.188 C 
BRANCH  28  29
ATOM     29  C   UNL A   1      41.112  28.768  28.860  1.00  0.00     0.188 C 
BRANCH  29  30
ATOM     30  O   UNL A   1      40.479  27.878  27.955  1.00  0.00    -0.376 OA
BRANCH  30  31
ATOM     31  C   UNL A   1      39.834  26.742  28.501  1.00  0.00     0.202 C 
BRANCH  31  32
ATOM     32  C   UNL A   1      39.545  25.576  27.547  1.00  0.00     0.261 C 
BRANCH  32  33
ATOM     33  O   UNL A   1      40.426  25.438  26.425  1.00  0.00    -0.460 OA
BRANCH  33  34
ATOM     34  C   UNL A   1      41.418  24.526  26.516  1.00  0.00     0.338 C 
ATOM     35  O   UNL A   1      41.316  23.314  26.412  1.00  0.00    -0.246 OA
BRANCH  34  36
ATOM     36  C   UNL A   1      42.689  25.271  26.584  1.00  0.00     0.060 A 
ATOM     37  C   UNL A   1      43.288  25.510  27.829  1.00  0.00     0.016 A 
ATOM     38  C   UNL A   1      43.297  25.712  25.407  1.00  0.00     0.016 A 
ATOM     39  C   UNL A   1      44.489  26.219  27.900  1.00  0.00     0.010 A 
ATOM     40  C   UNL A   1      44.485  26.438  25.481  1.00  0.00     0.010 A 
ATOM     41  C   UNL A   1      45.067  26.725  26.729  1.00  0.00    -0.014 A 
BRANCH  41  42
ATOM     42  C   UNL A   1      46.155  27.729  26.797  1.00  0.00     0.031 A 
ATOM     43  C   UNL A   1      45.768  29.183  26.800  1.00  0.00     0.074 A 
ATOM     44  C   UNL A   1      47.450  27.368  26.806  1.00  0.00     0.049 A 
ATOM     45  N   UNL A   1      46.524  30.244  26.716  1.00  0.00    -0.248 NA
ATOM     46  C   UNL A   1      44.327  29.475  26.900  1.00  0.00     0.031 C 
ATOM     47  C   UNL A   1      47.949  25.995  26.827  1.00  0.00     0.029 A 
ATOM     48  N   UNL A   1      48.585  28.141  26.762  1.00  0.00    -0.354 N 
ATOM     49  C   UNL A   1      45.653  31.327  26.714  1.00  0.00     0.074 A 
ATOM     50  C   UNL A   1      44.311  30.795  26.799  1.00  0.00     0.031 C 
ATOM     51  C   UNL A   1      49.291  26.020  26.757  1.00  0.00     0.029 A 
ATOM     52  C   UNL A   1      49.742  27.407  26.648  1.00  0.00     0.049 A 
ATOM     53  H   UNL A   1      48.571  29.123  26.808  1.00  0.00     0.167 HD
ATOM     54  C   UNL A   1      45.943  32.648  26.656  1.00  0.00     0.034 A 
ATOM     55  C   UNL A   1      51.012  27.812  26.441  1.00  0.00     0.034 A 
ATOM     56  C   UNL A   1      47.279  33.170  26.581  1.00  0.00     0.049 A 
ATOM     57  C   UNL A   1      51.307  29.289  26.329  1.00  0.00     0.074 A 
ATOM     58  C   UNL A   1      47.683  34.493  26.549  1.00  0.00     0.029 A 
ATOM     59  N   UNL A   1      48.427  32.397  26.512  1.00  0.00    -0.354 N 
ATOM     60  N   UNL A   1      50.484  30.306  26.418  1.00  0.00    -0.248 NA
ATOM     61  C   UNL A   1      52.711  29.674  26.113  1.00  0.00     0.031 C 
ATOM     62  C   UNL A   1      49.075  34.519  26.423  1.00  0.00     0.029 A 
ATOM     63  C   UNL A   1      49.540  33.214  26.427  1.00  0.00     0.049 A 
ATOM     64  H   UNL A   1      48.448  31.413  26.522  1.00  0.00     0.167 HD
ATOM     65  C   UNL A   1      51.274  31.448  26.321  1.00  0.00     0.074 A 
ATOM     66  C   UNL A   1      52.642  30.998  26.172  1.00  0.00     0.031 C 
ATOM     67  C   UNL A   1      50.901  32.751  26.347  1.00  0.00     0.034 A 
BRANCH  54  68
ATOM     68  C   UNL A   1      44.795  33.619  26.681  1.00  0.00     0.023 A 
ATOM     69  C   UNL A   1      44.212  34.047  25.471  1.00  0.00     0.012 A 
ATOM     70  C   UNL A   1      44.259  34.067  27.904  1.00  0.00     0.148 A 
ATOM     71  C   UNL A   1      43.133  34.930  25.477  1.00  0.00     0.002 A 
ATOM     72  C   UNL A   1      43.153  34.908  27.903  1.00  0.00     0.091 A 
ATOM     73  F   UNL A   1      44.843  33.667  29.042  1.00  0.00    -0.205 F 
ATOM     74  C   UNL A   1      42.597  35.350  26.692  1.00  0.00     0.022 A 
BRANCH  72  75
ATOM     75  S   UNL A   1      42.340  35.441  29.413  1.00  0.00     0.127 S 
ATOM     76  O   UNL A   1      43.227  36.515  29.861  1.00  0.00    -0.237 OA
ATOM     77  O   UNL A   1      41.040  35.891  28.917  1.00  0.00    -0.237 OA
ATOM     78  O   UNL A   1      42.292  34.274  30.281  1.00  0.00    -0.744 OA
ENDBRANCH  72  75
ENDBRANCH  54  68
BRANCH  55  79
ATOM     79  C   UNL A   1      52.114  26.814  26.332  1.00  0.00     0.023 A 
ATOM     80  C   UNL A   1      52.149  25.931  25.236  1.00  0.00     0.012 A 
ATOM     81  C   UNL A   1      53.116  26.723  27.318  1.00  0.00     0.148 A 
ATOM     82  C   UNL A   1      53.138  24.950  25.142  1.00  0.00     0.002 A 
ATOM     83  C   UNL A   1      54.131  25.781  27.190  1.00  0.00     0.091 A 
ATOM     84  F   UNL A   1      53.058  27.561  28.362  1.00  0.00    -0.205 F 
ATOM     85  C   UNL A   1      54.132  24.881  26.113  1.00  0.00     0.022 A 
BRANCH  83  86
ATOM     86  S   UNL A   1      55.512  25.690  28.333  1.00  0.00     0.127 S 
ATOM     87  O   UNL A   1      54.833  25.442  29.602  1.00  0.00    -0.237 OA
ATOM     88  O   UNL A   1      56.263  24.553  27.802  1.00  0.00    -0.237 OA
ATOM     89  O   UNL A   1      56.196  26.972  28.226  1.00  0.00    -0.744 OA
ENDBRANCH  83  86
ENDBRANCH  55  79
BRANCH  67  90
ATOM     90  C   UNL A   1      51.980  33.801  26.289  1.00  0.00     0.023 A 
ATOM     91  C   UNL A   1      52.686  34.160  27.454  1.00  0.00     0.012 A 
ATOM     92  C   UNL A   1      52.364  34.350  25.049  1.00  0.00     0.148 A 
ATOM     93  C   UNL A   1      53.741  35.071  27.387  1.00  0.00     0.002 A 
ATOM     94  C   UNL A   1      53.449  35.214  24.982  1.00  0.00     0.091 A 
ATOM     95  F   UNL A   1      51.669  34.004  23.955  1.00  0.00    -0.205 F 
ATOM     96  C   UNL A   1      54.131  35.586  26.153  1.00  0.00     0.022 A 
BRANCH  94  97
ATOM     97  S   UNL A   1      54.089  35.844  23.426  1.00  0.00     0.127 S 
ATOM     98  O   UNL A   1      55.533  35.777  23.650  1.00  0.00    -0.237 OA
ATOM     99  O   UNL A   1      53.576  34.869  22.465  1.00  0.00    -0.237 OA
ATOM    100  O   UNL A   1      53.546  37.187  23.279  1.00  0.00    -0.744 OA
ENDBRANCH  94  97
ENDBRANCH  67  90
ENDBRANCH  41  42
ENDBRANCH  34  36
ENDBRANCH  33  34
ENDBRANCH  32  33
ENDBRANCH  31  32
ENDBRANCH  30  31
ENDBRANCH  29  30
ENDBRANCH  28  29
ENDBRANCH   1  28
TORSDOF 26
ENDMDL
