MODEL 1
REMARK VINA RESULT:      -9.1      0.000      0.000
REMARK SMILES [NH3+][C@H](c1ccc(C(=O)OCCOCCOCCOCCOC(=O)c2ccc(-c3c4nc(c(-c5cccc(S(=O)(=O)[O-])c5F)c5ccc([nH]5)c(-c5cccc(S(=O)(=O)[O-])c5F)c5nc(c(-c6cccc(S(=O)(=O)[O-])c6F)c6ccc3[nH]6)C=C5)C=C4)cc2)cc1Cl)C(F)(F)F
REMARK SMILES IDX 16 1 15 2 14 3 13 4 12 5 11 6 10 7 9 8 7 9 8 10 6 11 3 12
REMARK SMILES IDX 4 13 88 14 5 15 87 16 89 17 2 18 1 19 90 23 91 24 92 25
REMARK SMILES IDX 93 26 17 27 18 28 19 29 20 30 21 31 22 32 23 33 24 34 25 35
REMARK SMILES IDX 86 36 26 37 85 38 27 39 28 40 29 41 79 42 30 43 84 44 78 45
REMARK SMILES IDX 80 46 31 47 83 48 77 49 76 50 32 52 64 53 44 54 63 55 45 56
REMARK SMILES IDX 48 57 62 58 81 59 46 60 47 61 61 63 82 64 49 65 33 66 34 67
REMARK SMILES IDX 42 68 35 69 37 70 43 71 36 72 38 73 39 74 40 75 41 76 65 77
REMARK SMILES IDX 66 78 74 79 67 80 69 81 75 82 68 83 70 84 71 85 72 86 73 87
REMARK SMILES IDX 50 88 51 89 59 90 52 91 54 92 60 93 53 94 55 95 56 96 57 97
REMARK SMILES IDX 58 98
REMARK H PARENT 1 20 1 21 1 22 80 51 48 62
REMARK Flexibility Score: inf
ROOT
ATOM      1  C   UNL A   1      30.949  31.930  26.119  1.00  0.00     0.188 C 
ENDROOT
BRANCH   1   2
ATOM      2  O   UNL A   1      31.154  30.714  25.407  1.00  0.00    -0.377 OA
BRANCH   2   3
ATOM      3  C   UNL A   1      31.800  29.621  26.040  1.00  0.00     0.188 C 
BRANCH   3   4
ATOM      4  C   UNL A   1      32.858  28.811  25.260  1.00  0.00     0.188 C 
BRANCH   4   5
ATOM      5  O   UNL A   1      33.230  29.368  24.012  1.00  0.00    -0.376 OA
BRANCH   5   6
ATOM      6  C   UNL A   1      32.672  28.819  22.832  1.00  0.00     0.202 C 
BRANCH   6   7
ATOM      7  C   UNL A   1      32.383  27.309  22.791  1.00  0.00     0.261 C 
BRANCH   7   8
ATOM      8  O   UNL A   1      33.536  26.458  22.731  1.00  0.00    -0.460 OA
BRANCH   8   9
ATOM      9  C   UNL A   1      33.364  25.270  22.124  1.00  0.00     0.338 C 
ATOM     10  O   UNL A   1      33.298  25.058  20.924  1.00  0.00    -0.246 OA
BRANCH   9  11
ATOM     11  C   UNL A   1      33.502  24.194  23.128  1.00  0.00     0.061 A 
ATOM     12  C   UNL A   1      33.754  21.865  24.701  1.00  0.00     0.037 A 
ATOM     13  C   UNL A   1      34.867  22.424  24.036  1.00  0.00     0.013 A 
ATOM     14  C   UNL A   1      32.574  22.647  24.728  1.00  0.00     0.051 A 
ATOM     15  C   UNL A   1      34.725  23.532  23.207  1.00  0.00     0.016 A 
ATOM     16  C   UNL A   1      32.458  23.821  23.966  1.00  0.00     0.036 A 
ATOM     17  Cl  UNL A   1      31.159  22.181  25.592  1.00  0.00    -0.084 Cl
BRANCH  12  18
ATOM     18  C   UNL A   1      33.775  20.371  25.098  1.00  0.00     0.320 C 
BRANCH  18  19
ATOM     19  N   UNL A   1      33.411  20.193  26.551  1.00  0.00    -0.344 N 
ATOM     20  H   UNL A   1      33.061  19.246  26.701  1.00  0.00     0.345 HD
ATOM     21  H   UNL A   1      32.688  20.866  26.805  1.00  0.00     0.345 HD
ATOM     22  H   UNL A   1      34.237  20.345  27.129  1.00  0.00     0.345 HD
ENDBRANCH  18  19
BRANCH  18  23
ATOM     23  C   UNL A   1      33.031  19.328  24.200  1.00  0.00     0.445 C 
ATOM     24  F   UNL A   1      33.816  18.340  23.736  1.00  0.00    -0.165 F 
ATOM     25  F   UNL A   1      32.052  18.711  24.921  1.00  0.00    -0.165 F 
ATOM     26  F   UNL A   1      32.421  19.920  23.148  1.00  0.00    -0.165 F 
ENDBRANCH  18  23
ENDBRANCH  12  18
ENDBRANCH   9  11
ENDBRANCH   8   9
ENDBRANCH   7   8
ENDBRANCH   6   7
ENDBRANCH   5   6
ENDBRANCH   4   5
ENDBRANCH   3   4
ENDBRANCH   2   3
ENDBRANCH   1   2
BRANCH   1  27
ATOM     27  C   UNL A   1      31.905  32.362  27.256  1.00  0.00     0.188 C 
BRANCH  27  28
ATOM     28  O   UNL A   1      32.055  33.765  27.406  1.00  0.00    -0.376 OA
BRANCH  28  29
ATOM     29  C   UNL A   1      32.986  34.221  28.372  1.00  0.00     0.202 C 
BRANCH  29  30
ATOM     30  C   UNL A   1      34.470  33.948  28.093  1.00  0.00     0.261 C 
BRANCH  30  31
ATOM     31  O   UNL A   1      35.102  32.966  28.927  1.00  0.00    -0.460 OA
BRANCH  31  32
ATOM     32  C   UNL A   1      35.276  31.730  28.415  1.00  0.00     0.338 C 
ATOM     33  O   UNL A   1      34.668  31.228  27.483  1.00  0.00    -0.246 OA
BRANCH  32  34
ATOM     34  C   UNL A   1      36.478  31.153  29.051  1.00  0.00     0.060 A 
ATOM     35  C   UNL A   1      37.715  31.793  28.889  1.00  0.00     0.016 A 
ATOM     36  C   UNL A   1      36.373  30.000  29.833  1.00  0.00     0.016 A 
ATOM     37  C   UNL A   1      38.858  31.263  29.489  1.00  0.00     0.010 A 
ATOM     38  C   UNL A   1      37.521  29.458  30.412  1.00  0.00     0.010 A 
ATOM     39  C   UNL A   1      38.774  30.068  30.216  1.00  0.00    -0.014 A 
BRANCH  39  40
ATOM     40  C   UNL A   1      40.011  29.355  30.612  1.00  0.00     0.031 A 
ATOM     41  C   UNL A   1      40.740  29.824  31.841  1.00  0.00     0.074 A 
ATOM     42  C   UNL A   1      40.485  28.321  29.893  1.00  0.00     0.049 A 
ATOM     43  N   UNL A   1      41.859  29.389  32.356  1.00  0.00    -0.248 NA
ATOM     44  C   UNL A   1      40.124  30.935  32.586  1.00  0.00     0.031 C 
ATOM     45  C   UNL A   1      39.865  27.772  28.689  1.00  0.00     0.029 A 
ATOM     46  N   UNL A   1      41.620  27.568  30.063  1.00  0.00    -0.354 N 
ATOM     47  C   UNL A   1      42.100  30.192  33.465  1.00  0.00     0.074 A 
ATOM     48  C   UNL A   1      41.015  31.147  33.542  1.00  0.00     0.031 C 
ATOM     49  C   UNL A   1      40.644  26.787  28.210  1.00  0.00     0.029 A 
ATOM     50  C   UNL A   1      41.830  26.657  29.055  1.00  0.00     0.049 A 
ATOM     51  H   UNL A   1      42.225  27.670  30.833  1.00  0.00     0.167 HD
ATOM     52  C   UNL A   1      43.124  30.134  34.347  1.00  0.00     0.034 A 
ATOM     53  C   UNL A   1      42.874  25.834  28.828  1.00  0.00     0.034 A 
ATOM     54  C   UNL A   1      44.196  29.180  34.273  1.00  0.00     0.049 A 
ATOM     55  C   UNL A   1      44.023  25.813  29.806  1.00  0.00     0.074 A 
ATOM     56  C   UNL A   1      45.257  29.009  35.144  1.00  0.00     0.029 A 
ATOM     57  N   UNL A   1      44.358  28.249  33.258  1.00  0.00    -0.354 N 
ATOM     58  N   UNL A   1      44.179  26.497  30.914  1.00  0.00    -0.248 NA
ATOM     59  C   UNL A   1      45.124  24.880  29.520  1.00  0.00     0.031 C 
ATOM     60  C   UNL A   1      46.082  28.003  34.635  1.00  0.00     0.029 A 
ATOM     61  C   UNL A   1      45.509  27.512  33.471  1.00  0.00     0.049 A 
ATOM     62  H   UNL A   1      43.744  28.130  32.498  1.00  0.00     0.167 HD
ATOM     63  C   UNL A   1      45.370  26.050  31.476  1.00  0.00     0.074 A 
ATOM     64  C   UNL A   1      45.887  25.024  30.595  1.00  0.00     0.031 C 
ATOM     65  C   UNL A   1      45.986  26.458  32.614  1.00  0.00     0.034 A 
BRANCH  52  66
ATOM     66  C   UNL A   1      43.131  31.130  35.478  1.00  0.00     0.023 A 
ATOM     67  C   UNL A   1      42.550  30.791  36.717  1.00  0.00     0.012 A 
ATOM     68  C   UNL A   1      43.756  32.383  35.326  1.00  0.00     0.148 A 
ATOM     69  C   UNL A   1      42.563  31.697  37.777  1.00  0.00     0.002 A 
ATOM     70  C   UNL A   1      43.807  33.260  36.402  1.00  0.00     0.091 A 
ATOM     71  F   UNL A   1      44.281  32.695  34.133  1.00  0.00    -0.205 F 
ATOM     72  C   UNL A   1      43.200  32.924  37.623  1.00  0.00     0.022 A 
BRANCH  70  73
ATOM     73  S   UNL A   1      44.676  34.830  36.331  1.00  0.00     0.127 S 
ATOM     74  O   UNL A   1      43.880  35.648  37.246  1.00  0.00    -0.237 OA
ATOM     75  O   UNL A   1      46.002  34.470  36.831  1.00  0.00    -0.237 OA
ATOM     76  O   UNL A   1      44.642  35.247  34.937  1.00  0.00    -0.744 OA
ENDBRANCH  70  73
ENDBRANCH  52  66
BRANCH  53  77
ATOM     77  C   UNL A   1      42.879  24.942  27.633  1.00  0.00     0.023 A 
ATOM     78  C   UNL A   1      43.497  25.372  26.443  1.00  0.00     0.012 A 
ATOM     79  C   UNL A   1      42.275  23.671  27.672  1.00  0.00     0.148 A 
ATOM     80  C   UNL A   1      43.484  24.567  25.302  1.00  0.00     0.002 A 
ATOM     81  C   UNL A   1      42.315  22.850  26.551  1.00  0.00     0.091 A 
ATOM     82  F   UNL A   1      41.676  23.287  28.809  1.00  0.00    -0.205 F 
ATOM     83  C   UNL A   1      42.902  23.303  25.360  1.00  0.00     0.022 A 
BRANCH  81  84
ATOM     84  S   UNL A   1      41.705  21.161  26.568  1.00  0.00     0.127 S 
ATOM     85  O   UNL A   1      40.259  21.366  26.615  1.00  0.00    -0.237 OA
ATOM     86  O   UNL A   1      42.214  20.647  25.296  1.00  0.00    -0.237 OA
ATOM     87  O   UNL A   1      42.292  20.540  27.747  1.00  0.00    -0.744 OA
ENDBRANCH  81  84
ENDBRANCH  53  77
BRANCH  65  88
ATOM     88  C   UNL A   1      47.261  25.760  33.015  1.00  0.00     0.023 A 
ATOM     89  C   UNL A   1      48.508  26.269  32.604  1.00  0.00     0.012 A 
ATOM     90  C   UNL A   1      47.222  24.641  33.872  1.00  0.00     0.148 A 
ATOM     91  C   UNL A   1      49.693  25.656  33.010  1.00  0.00     0.002 A 
ATOM     92  C   UNL A   1      48.406  24.068  34.316  1.00  0.00     0.091 A 
ATOM     93  F   UNL A   1      46.025  24.161  34.241  1.00  0.00    -0.205 F 
ATOM     94  C   UNL A   1      49.644  24.565  33.875  1.00  0.00     0.022 A 
BRANCH  92  95
ATOM     95  S   UNL A   1      48.442  22.726  35.509  1.00  0.00     0.127 S 
ATOM     96  O   UNL A   1      48.355  21.553  34.640  1.00  0.00    -0.237 OA
ATOM     97  O   UNL A   1      49.744  22.916  36.149  1.00  0.00    -0.237 OA
ATOM     98  O   UNL A   1      47.300  22.935  36.388  1.00  0.00    -0.744 OA
ENDBRANCH  92  95
ENDBRANCH  65  88
ENDBRANCH  39  40
ENDBRANCH  32  34
ENDBRANCH  31  32
ENDBRANCH  30  31
ENDBRANCH  29  30
ENDBRANCH  28  29
ENDBRANCH  27  28
ENDBRANCH   1  27
TORSDOF 26
ENDMDL
MODEL 2
REMARK VINA RESULT:      -8.6      7.776     11.022
REMARK SMILES [NH3+][C@H](c1ccc(C(=O)OCCOCCOCCOCCOC(=O)c2ccc(-c3c4nc(c(-c5cccc(S(=O)(=O)[O-])c5F)c5ccc([nH]5)c(-c5cccc(S(=O)(=O)[O-])c5F)c5nc(c(-c6cccc(S(=O)(=O)[O-])c6F)c6ccc3[nH]6)C=C5)C=C4)cc2)cc1Cl)C(F)(F)F
REMARK SMILES IDX 16 1 15 2 14 3 13 4 12 5 11 6 10 7 9 8 7 9 8 10 6 11 3 12
REMARK SMILES IDX 4 13 88 14 5 15 87 16 89 17 2 18 1 19 90 23 91 24 92 25
REMARK SMILES IDX 93 26 17 27 18 28 19 29 20 30 21 31 22 32 23 33 24 34 25 35
REMARK SMILES IDX 86 36 26 37 85 38 27 39 28 40 29 41 79 42 30 43 84 44 78 45
REMARK SMILES IDX 80 46 31 47 83 48 77 49 76 50 32 52 64 53 44 54 63 55 45 56
REMARK SMILES IDX 48 57 62 58 81 59 46 60 47 61 61 63 82 64 49 65 33 66 34 67
REMARK SMILES IDX 42 68 35 69 37 70 43 71 36 72 38 73 39 74 40 75 41 76 65 77
REMARK SMILES IDX 66 78 74 79 67 80 69 81 75 82 68 83 70 84 71 85 72 86 73 87
REMARK SMILES IDX 50 88 51 89 59 90 52 91 54 92 60 93 53 94 55 95 56 96 57 97
REMARK SMILES IDX 58 98
REMARK H PARENT 1 20 1 21 1 22 80 51 48 62
REMARK Flexibility Score: inf
ROOT
ATOM      1  C   UNL A   1      34.704  29.330  27.331  1.00  0.00     0.188 C 
ENDROOT
BRANCH   1   2
ATOM      2  O   UNL A   1      34.024  29.483  26.090  1.00  0.00    -0.377 OA
BRANCH   2   3
ATOM      3  C   UNL A   1      32.609  29.558  26.060  1.00  0.00     0.188 C 
BRANCH   3   4
ATOM      4  C   UNL A   1      31.797  28.360  25.520  1.00  0.00     0.188 C 
BRANCH   4   5
ATOM      5  O   UNL A   1      30.926  28.671  24.447  1.00  0.00    -0.376 OA
BRANCH   5   6
ATOM      6  C   UNL A   1      31.248  28.191  23.153  1.00  0.00     0.202 C 
BRANCH   6   7
ATOM      7  C   UNL A   1      32.678  28.399  22.629  1.00  0.00     0.261 C 
BRANCH   7   8
ATOM      8  O   UNL A   1      33.625  27.386  22.993  1.00  0.00    -0.460 OA
BRANCH   8   9
ATOM      9  C   UNL A   1      33.471  26.188  22.398  1.00  0.00     0.338 C 
ATOM     10  O   UNL A   1      33.415  25.961  21.201  1.00  0.00    -0.246 OA
BRANCH   9  11
ATOM     11  C   UNL A   1      33.612  25.126  23.416  1.00  0.00     0.061 A 
ATOM     12  C   UNL A   1      34.306  23.093  25.245  1.00  0.00     0.037 A 
ATOM     13  C   UNL A   1      34.554  24.452  25.533  1.00  0.00     0.013 A 
ATOM     14  C   UNL A   1      33.497  22.821  24.116  1.00  0.00     0.051 A 
ATOM     15  C   UNL A   1      34.272  25.446  24.601  1.00  0.00     0.016 A 
ATOM     16  C   UNL A   1      33.128  23.838  23.220  1.00  0.00     0.036 A 
ATOM     17  Cl  UNL A   1      32.993  21.233  23.683  1.00  0.00    -0.084 Cl
BRANCH  12  18
ATOM     18  C   UNL A   1      35.130  22.000  25.964  1.00  0.00     0.320 C 
BRANCH  18  19
ATOM     19  N   UNL A   1      34.227  21.003  26.646  1.00  0.00    -0.344 N 
ATOM     20  H   UNL A   1      34.170  20.154  26.084  1.00  0.00     0.345 HD
ATOM     21  H   UNL A   1      33.295  21.405  26.750  1.00  0.00     0.345 HD
ATOM     22  H   UNL A   1      34.605  20.776  27.566  1.00  0.00     0.345 HD
ENDBRANCH  18  19
BRANCH  18  23
ATOM     23  C   UNL A   1      36.284  21.277  25.192  1.00  0.00     0.445 C 
ATOM     24  F   UNL A   1      37.465  21.281  25.835  1.00  0.00    -0.165 F 
ATOM     25  F   UNL A   1      35.968  19.962  25.014  1.00  0.00    -0.165 F 
ATOM     26  F   UNL A   1      36.465  21.801  23.959  1.00  0.00    -0.165 F 
ENDBRANCH  18  23
ENDBRANCH  12  18
ENDBRANCH   9  11
ENDBRANCH   8   9
ENDBRANCH   7   8
ENDBRANCH   6   7
ENDBRANCH   5   6
ENDBRANCH   4   5
ENDBRANCH   3   4
ENDBRANCH   2   3
ENDBRANCH   1   2
BRANCH   1  27
ATOM     27  C   UNL A   1      35.179  30.561  28.140  1.00  0.00     0.188 C 
BRANCH  27  28
ATOM     28  O   UNL A   1      34.719  31.810  27.647  1.00  0.00    -0.376 OA
BRANCH  28  29
ATOM     29  C   UNL A   1      34.962  32.955  28.445  1.00  0.00     0.202 C 
BRANCH  29  30
ATOM     30  C   UNL A   1      35.730  32.741  29.756  1.00  0.00     0.261 C 
BRANCH  30  31
ATOM     31  O   UNL A   1      36.583  33.816  30.174  1.00  0.00    -0.460 OA
BRANCH  31  32
ATOM     32  C   UNL A   1      37.534  33.540  31.092  1.00  0.00     0.338 C 
ATOM     33  O   UNL A   1      37.404  32.873  32.106  1.00  0.00    -0.246 OA
BRANCH  32  34
ATOM     34  C   UNL A   1      38.823  34.021  30.553  1.00  0.00     0.060 A 
ATOM     35  C   UNL A   1      38.894  34.436  29.215  1.00  0.00     0.016 A 
ATOM     36  C   UNL A   1      39.946  34.091  31.379  1.00  0.00     0.016 A 
ATOM     37  C   UNL A   1      40.103  34.897  28.693  1.00  0.00     0.010 A 
ATOM     38  C   UNL A   1      41.160  34.531  30.848  1.00  0.00     0.010 A 
ATOM     39  C   UNL A   1      41.252  34.905  29.495  1.00  0.00    -0.014 A 
BRANCH  39  40
ATOM     40  C   UNL A   1      42.582  35.121  28.879  1.00  0.00     0.031 A 
ATOM     41  C   UNL A   1      43.512  33.945  28.762  1.00  0.00     0.074 A 
ATOM     42  C   UNL A   1      42.965  36.335  28.442  1.00  0.00     0.049 A 
ATOM     43  N   UNL A   1      44.734  33.896  28.303  1.00  0.00    -0.248 NA
ATOM     44  C   UNL A   1      42.992  32.649  29.229  1.00  0.00     0.031 C 
ATOM     45  C   UNL A   1      42.152  37.548  28.496  1.00  0.00     0.029 A 
ATOM     46  N   UNL A   1      44.153  36.748  27.892  1.00  0.00    -0.354 N 
ATOM     47  C   UNL A   1      45.142  32.577  28.455  1.00  0.00     0.074 A 
ATOM     48  C   UNL A   1      44.040  31.859  29.058  1.00  0.00     0.031 C 
ATOM     49  C   UNL A   1      42.877  38.578  28.025  1.00  0.00     0.029 A 
ATOM     50  C   UNL A   1      44.212  38.102  27.666  1.00  0.00     0.049 A 
ATOM     51  H   UNL A   1      44.891  36.132  27.679  1.00  0.00     0.167 HD
ATOM     52  C   UNL A   1      46.322  32.010  28.113  1.00  0.00     0.034 A 
ATOM     53  C   UNL A   1      45.237  38.871  27.245  1.00  0.00     0.034 A 
ATOM     54  C   UNL A   1      47.411  32.724  27.507  1.00  0.00     0.049 A 
ATOM     55  C   UNL A   1      46.555  38.221  26.904  1.00  0.00     0.074 A 
ATOM     56  C   UNL A   1      48.632  32.231  27.082  1.00  0.00     0.029 A 
ATOM     57  N   UNL A   1      47.423  34.088  27.261  1.00  0.00    -0.354 N 
ATOM     58  N   UNL A   1      46.887  36.953  26.944  1.00  0.00    -0.248 NA
ATOM     59  C   UNL A   1      47.631  39.105  26.429  1.00  0.00     0.031 C 
ATOM     60  C   UNL A   1      49.397  33.303  26.615  1.00  0.00     0.029 A 
ATOM     61  C   UNL A   1      48.635  34.457  26.704  1.00  0.00     0.049 A 
ATOM     62  H   UNL A   1      46.679  34.703  27.453  1.00  0.00     0.167 HD
ATOM     63  C   UNL A   1      48.190  36.883  26.461  1.00  0.00     0.074 A 
ATOM     64  C   UNL A   1      48.582  38.234  26.120  1.00  0.00     0.031 C 
ATOM     65  C   UNL A   1      48.994  35.799  26.321  1.00  0.00     0.034 A 
BRANCH  52  66
ATOM     66  C   UNL A   1      46.494  30.537  28.382  1.00  0.00     0.023 A 
ATOM     67  C   UNL A   1      46.995  30.103  29.626  1.00  0.00     0.012 A 
ATOM     68  C   UNL A   1      46.111  29.583  27.418  1.00  0.00     0.148 A 
ATOM     69  C   UNL A   1      47.144  28.743  29.894  1.00  0.00     0.002 A 
ATOM     70  C   UNL A   1      46.217  28.230  27.712  1.00  0.00     0.091 A 
ATOM     71  F   UNL A   1      45.660  30.017  26.233  1.00  0.00    -0.205 F 
ATOM     72  C   UNL A   1      46.745  27.808  28.944  1.00  0.00     0.022 A 
BRANCH  70  73
ATOM     73  S   UNL A   1      45.655  26.948  26.588  1.00  0.00     0.127 S 
ATOM     74  O   UNL A   1      46.584  27.107  25.470  1.00  0.00    -0.237 OA
ATOM     75  O   UNL A   1      45.857  25.735  27.380  1.00  0.00    -0.237 OA
ATOM     76  O   UNL A   1      44.264  27.256  26.288  1.00  0.00    -0.744 OA
ENDBRANCH  70  73
ENDBRANCH  52  66
BRANCH  53  77
ATOM     77  C   UNL A   1      45.057  40.344  27.099  1.00  0.00     0.023 A 
ATOM     78  C   UNL A   1      44.615  40.875  25.872  1.00  0.00     0.012 A 
ATOM     79  C   UNL A   1      45.321  41.219  28.170  1.00  0.00     0.148 A 
ATOM     80  C   UNL A   1      44.472  42.254  25.703  1.00  0.00     0.002 A 
ATOM     81  C   UNL A   1      45.122  42.585  28.014  1.00  0.00     0.091 A 
ATOM     82  F   UNL A   1      45.758  40.695  29.325  1.00  0.00    -0.205 F 
ATOM     83  C   UNL A   1      44.716  43.107  26.776  1.00  0.00     0.022 A 
BRANCH  81  84
ATOM     84  S   UNL A   1      45.288  43.748  29.373  1.00  0.00     0.127 S 
ATOM     85  O   UNL A   1      45.117  45.029  28.693  1.00  0.00    -0.237 OA
ATOM     86  O   UNL A   1      44.175  43.356  30.239  1.00  0.00    -0.237 OA
ATOM     87  O   UNL A   1      46.607  43.506  29.941  1.00  0.00    -0.744 OA
ENDBRANCH  81  84
ENDBRANCH  53  77
BRANCH  65  88
ATOM     88  C   UNL A   1      50.362  36.007  25.721  1.00  0.00     0.023 A 
ATOM     89  C   UNL A   1      50.536  35.975  24.324  1.00  0.00     0.012 A 
ATOM     90  C   UNL A   1      51.462  36.317  26.548  1.00  0.00     0.148 A 
ATOM     91  C   UNL A   1      51.790  36.214  23.761  1.00  0.00     0.002 A 
ATOM     92  C   UNL A   1      52.694  36.607  25.977  1.00  0.00     0.091 A 
ATOM     93  F   UNL A   1      51.279  36.328  27.876  1.00  0.00    -0.205 F 
ATOM     94  C   UNL A   1      52.865  36.542  24.584  1.00  0.00     0.022 A 
BRANCH  92  95
ATOM     95  S   UNL A   1      54.108  37.136  26.950  1.00  0.00     0.127 S 
ATOM     96  O   UNL A   1      54.705  35.857  27.329  1.00  0.00    -0.237 OA
ATOM     97  O   UNL A   1      54.882  37.907  25.977  1.00  0.00    -0.237 OA
ATOM     98  O   UNL A   1      53.569  37.921  28.052  1.00  0.00    -0.744 OA
ENDBRANCH  92  95
ENDBRANCH  65  88
ENDBRANCH  39  40
ENDBRANCH  32  34
ENDBRANCH  31  32
ENDBRANCH  30  31
ENDBRANCH  29  30
ENDBRANCH  28  29
ENDBRANCH  27  28
ENDBRANCH   1  27
TORSDOF 26
ENDMDL
MODEL 3
REMARK VINA RESULT:      -8.1      4.913     10.673
REMARK SMILES [NH3+][C@H](c1ccc(C(=O)OCCOCCOCCOCCOC(=O)c2ccc(-c3c4nc(c(-c5cccc(S(=O)(=O)[O-])c5F)c5ccc([nH]5)c(-c5cccc(S(=O)(=O)[O-])c5F)c5nc(c(-c6cccc(S(=O)(=O)[O-])c6F)c6ccc3[nH]6)C=C5)C=C4)cc2)cc1Cl)C(F)(F)F
REMARK SMILES IDX 16 1 15 2 14 3 13 4 12 5 11 6 10 7 9 8 7 9 8 10 6 11 3 12
REMARK SMILES IDX 4 13 88 14 5 15 87 16 89 17 2 18 1 19 90 23 91 24 92 25
REMARK SMILES IDX 93 26 17 27 18 28 19 29 20 30 21 31 22 32 23 33 24 34 25 35
REMARK SMILES IDX 86 36 26 37 85 38 27 39 28 40 29 41 79 42 30 43 84 44 78 45
REMARK SMILES IDX 80 46 31 47 83 48 77 49 76 50 32 52 64 53 44 54 63 55 45 56
REMARK SMILES IDX 48 57 62 58 81 59 46 60 47 61 61 63 82 64 49 65 33 66 34 67
REMARK SMILES IDX 42 68 35 69 37 70 43 71 36 72 38 73 39 74 40 75 41 76 65 77
REMARK SMILES IDX 66 78 74 79 67 80 69 81 75 82 68 83 70 84 71 85 72 86 73 87
REMARK SMILES IDX 50 88 51 89 59 90 52 91 54 92 60 93 53 94 55 95 56 96 57 97
REMARK SMILES IDX 58 98
REMARK H PARENT 1 20 1 21 1 22 80 51 48 62
REMARK Flexibility Score: inf
ROOT
ATOM      1  C   UNL A   1      45.859  23.842  27.293  1.00  0.00     0.188 C 
ENDROOT
BRANCH   1   2
ATOM      2  O   UNL A   1      45.925  22.716  26.424  1.00  0.00    -0.377 OA
BRANCH   2   3
ATOM      3  C   UNL A   1      45.576  22.854  25.057  1.00  0.00     0.188 C 
BRANCH   3   4
ATOM      4  C   UNL A   1      44.683  24.034  24.616  1.00  0.00     0.188 C 
BRANCH   4   5
ATOM      5  O   UNL A   1      43.340  23.958  25.060  1.00  0.00    -0.376 OA
BRANCH   5   6
ATOM      6  C   UNL A   1      42.751  25.110  25.636  1.00  0.00     0.202 C 
BRANCH   6   7
ATOM      7  C   UNL A   1      41.259  25.064  26.007  1.00  0.00     0.261 C 
BRANCH   7   8
ATOM      8  O   UNL A   1      40.821  23.868  26.666  1.00  0.00    -0.460 OA
BRANCH   8   9
ATOM      9  C   UNL A   1      39.614  23.926  27.258  1.00  0.00     0.338 C 
ATOM     10  O   UNL A   1      39.311  24.560  28.256  1.00  0.00    -0.246 OA
BRANCH   9  11
ATOM     11  C   UNL A   1      38.617  23.282  26.377  1.00  0.00     0.061 A 
ATOM     12  C   UNL A   1      36.455  22.042  25.053  1.00  0.00     0.037 A 
ATOM     13  C   UNL A   1      36.471  23.435  25.284  1.00  0.00     0.013 A 
ATOM     14  C   UNL A   1      37.660  21.344  25.308  1.00  0.00     0.051 A 
ATOM     15  C   UNL A   1      37.506  24.033  25.996  1.00  0.00     0.016 A 
ATOM     16  C   UNL A   1      38.746  21.968  25.942  1.00  0.00     0.036 A 
ATOM     17  Cl  UNL A   1      37.861  19.667  24.972  1.00  0.00    -0.084 Cl
BRANCH  12  18
ATOM     18  C   UNL A   1      35.105  21.324  24.826  1.00  0.00     0.320 C 
BRANCH  18  19
ATOM     19  N   UNL A   1      34.597  20.710  26.107  1.00  0.00    -0.344 N 
ATOM     20  H   UNL A   1      34.663  19.694  26.048  1.00  0.00     0.345 HD
ATOM     21  H   UNL A   1      33.624  20.980  26.250  1.00  0.00     0.345 HD
ATOM     22  H   UNL A   1      35.161  21.042  26.890  1.00  0.00     0.345 HD
ENDBRANCH  18  19
BRANCH  18  23
ATOM     23  C   UNL A   1      33.959  22.068  24.065  1.00  0.00     0.445 C 
ATOM     24  F   UNL A   1      34.382  22.843  23.052  1.00  0.00    -0.165 F 
ATOM     25  F   UNL A   1      33.112  21.159  23.502  1.00  0.00    -0.165 F 
ATOM     26  F   UNL A   1      33.212  22.824  24.902  1.00  0.00    -0.165 F 
ENDBRANCH  18  23
ENDBRANCH  12  18
ENDBRANCH   9  11
ENDBRANCH   8   9
ENDBRANCH   7   8
ENDBRANCH   6   7
ENDBRANCH   5   6
ENDBRANCH   4   5
ENDBRANCH   3   4
ENDBRANCH   2   3
ENDBRANCH   1   2
BRANCH   1  27
ATOM     27  C   UNL A   1      47.136  24.623  27.687  1.00  0.00     0.188 C 
BRANCH  27  28
ATOM     28  O   UNL A   1      48.276  24.341  26.891  1.00  0.00    -0.376 OA
BRANCH  28  29
ATOM     29  C   UNL A   1      49.239  25.369  26.745  1.00  0.00     0.202 C 
BRANCH  29  30
ATOM     30  C   UNL A   1      49.317  26.062  25.378  1.00  0.00     0.261 C 
BRANCH  30  31
ATOM     31  O   UNL A   1      48.658  27.332  25.272  1.00  0.00    -0.460 OA
BRANCH  31  32
ATOM     32  C   UNL A   1      47.330  27.330  25.028  1.00  0.00     0.338 C 
ATOM     33  O   UNL A   1      46.762  26.854  24.057  1.00  0.00    -0.246 OA
BRANCH  32  34
ATOM     34  C   UNL A   1      46.655  27.829  26.244  1.00  0.00     0.060 A 
ATOM     35  C   UNL A   1      45.271  27.653  26.381  1.00  0.00     0.016 A 
ATOM     36  C   UNL A   1      47.398  28.438  27.257  1.00  0.00     0.016 A 
ATOM     37  C   UNL A   1      44.621  28.115  27.526  1.00  0.00     0.010 A 
ATOM     38  C   UNL A   1      46.742  28.920  28.392  1.00  0.00     0.010 A 
ATOM     39  C   UNL A   1      45.347  28.790  28.517  1.00  0.00    -0.014 A 
BRANCH  39  40
ATOM     40  C   UNL A   1      44.631  29.523  29.587  1.00  0.00     0.031 A 
ATOM     41  C   UNL A   1      44.259  28.774  30.837  1.00  0.00     0.074 A 
ATOM     42  C   UNL A   1      44.308  30.822  29.452  1.00  0.00     0.049 A 
ATOM     43  N   UNL A   1      43.597  29.187  31.885  1.00  0.00    -0.248 NA
ATOM     44  C   UNL A   1      44.691  27.368  30.912  1.00  0.00     0.031 C 
ATOM     45  C   UNL A   1      44.618  31.656  28.292  1.00  0.00     0.029 A 
ATOM     46  N   UNL A   1      43.617  31.658  30.294  1.00  0.00    -0.354 N 
ATOM     47  C   UNL A   1      43.503  28.087  32.729  1.00  0.00     0.074 A 
ATOM     48  C   UNL A   1      44.168  26.986  32.067  1.00  0.00     0.031 C 
ATOM     49  C   UNL A   1      44.093  32.878  28.483  1.00  0.00     0.029 A 
ATOM     50  C   UNL A   1      43.386  32.904  29.763  1.00  0.00     0.049 A 
ATOM     51  H   UNL A   1      43.317  31.390  31.193  1.00  0.00     0.167 HD
ATOM     52  C   UNL A   1      42.927  28.003  33.950  1.00  0.00     0.034 A 
ATOM     53  C   UNL A   1      42.661  33.935  30.243  1.00  0.00     0.034 A 
ATOM     54  C   UNL A   1      42.274  29.101  34.608  1.00  0.00     0.049 A 
ATOM     55  C   UNL A   1      41.996  33.805  31.591  1.00  0.00     0.074 A 
ATOM     56  C   UNL A   1      41.698  29.129  35.866  1.00  0.00     0.029 A 
ATOM     57  N   UNL A   1      42.089  30.358  34.055  1.00  0.00    -0.354 N 
ATOM     58  N   UNL A   1      42.016  32.797  32.429  1.00  0.00    -0.248 NA
ATOM     59  C   UNL A   1      41.238  34.969  32.075  1.00  0.00     0.031 C 
ATOM     60  C   UNL A   1      41.130  30.391  36.057  1.00  0.00     0.029 A 
ATOM     61  C   UNL A   1      41.394  31.165  34.937  1.00  0.00     0.049 A 
ATOM     62  H   UNL A   1      42.405  30.636  33.165  1.00  0.00     0.167 HD
ATOM     63  C   UNL A   1      41.310  33.218  33.551  1.00  0.00     0.074 A 
ATOM     64  C   UNL A   1      40.890  34.579  33.293  1.00  0.00     0.031 C 
ATOM     65  C   UNL A   1      41.027  32.536  34.690  1.00  0.00     0.034 A 
BRANCH  52  66
ATOM     66  C   UNL A   1      42.982  26.675  34.659  1.00  0.00     0.023 A 
ATOM     67  C   UNL A   1      41.826  25.874  34.745  1.00  0.00     0.012 A 
ATOM     68  C   UNL A   1      44.195  26.200  35.197  1.00  0.00     0.148 A 
ATOM     69  C   UNL A   1      41.866  24.635  35.384  1.00  0.00     0.002 A 
ATOM     70  C   UNL A   1      44.238  24.944  35.789  1.00  0.00     0.091 A 
ATOM     71  F   UNL A   1      45.278  26.986  35.127  1.00  0.00    -0.205 F 
ATOM     72  C   UNL A   1      43.072  24.166  35.895  1.00  0.00     0.022 A 
BRANCH  70  73
ATOM     73  S   UNL A   1      45.759  24.214  36.404  1.00  0.00     0.127 S 
ATOM     74  O   UNL A   1      45.280  22.941  36.939  1.00  0.00    -0.237 OA
ATOM     75  O   UNL A   1      46.559  24.100  35.184  1.00  0.00    -0.237 OA
ATOM     76  O   UNL A   1      46.283  25.147  37.391  1.00  0.00    -0.744 OA
ENDBRANCH  70  73
ENDBRANCH  52  66
BRANCH  53  77
ATOM     77  C   UNL A   1      42.539  35.196  29.455  1.00  0.00     0.023 A 
ATOM     78  C   UNL A   1      41.552  35.302  28.456  1.00  0.00     0.012 A 
ATOM     79  C   UNL A   1      43.396  36.289  29.694  1.00  0.00     0.148 A 
ATOM     80  C   UNL A   1      41.443  36.461  27.684  1.00  0.00     0.002 A 
ATOM     81  C   UNL A   1      43.244  37.460  28.962  1.00  0.00     0.091 A 
ATOM     82  F   UNL A   1      44.339  36.161  30.638  1.00  0.00    -0.205 F 
ATOM     83  C   UNL A   1      42.281  37.542  27.944  1.00  0.00     0.022 A 
BRANCH  81  84
ATOM     84  S   UNL A   1      44.191  38.946  29.309  1.00  0.00     0.127 S 
ATOM     85  O   UNL A   1      45.498  38.393  29.656  1.00  0.00    -0.237 OA
ATOM     86  O   UNL A   1      44.138  39.641  28.022  1.00  0.00    -0.237 OA
ATOM     87  O   UNL A   1      43.485  39.621  30.388  1.00  0.00    -0.744 OA
ENDBRANCH  81  84
ENDBRANCH  53  77
BRANCH  65  88
ATOM     88  C   UNL A   1      40.274  33.261  35.777  1.00  0.00     0.023 A 
ATOM     89  C   UNL A   1      38.871  33.168  35.853  1.00  0.00     0.012 A 
ATOM     90  C   UNL A   1      40.973  33.971  36.776  1.00  0.00     0.148 A 
ATOM     91  C   UNL A   1      38.174  33.797  36.884  1.00  0.00     0.002 A 
ATOM     92  C   UNL A   1      40.277  34.549  37.828  1.00  0.00     0.091 A 
ATOM     93  F   UNL A   1      42.308  34.061  36.678  1.00  0.00    -0.205 F 
ATOM     94  C   UNL A   1      38.875  34.476  37.877  1.00  0.00     0.022 A 
BRANCH  92  95
ATOM     95  S   UNL A   1      41.102  35.356  39.204  1.00  0.00     0.127 S 
ATOM     96  O   UNL A   1      39.969  35.866  39.974  1.00  0.00    -0.237 OA
ATOM     97  O   UNL A   1      41.816  34.244  39.832  1.00  0.00    -0.237 OA
ATOM     98  O   UNL A   1      41.964  36.374  38.619  1.00  0.00    -0.744 OA
ENDBRANCH  92  95
ENDBRANCH  65  88
ENDBRANCH  39  40
ENDBRANCH  32  34
ENDBRANCH  31  32
ENDBRANCH  30  31
ENDBRANCH  29  30
ENDBRANCH  28  29
ENDBRANCH  27  28
ENDBRANCH   1  27
TORSDOF 26
ENDMDL
