MODEL 1
REMARK VINA RESULT:     -10.2      0.000      0.000
REMARK SMILES Cc1cc2c(c(C)c1Cl)C=C(C(=O)OCCOCCOCCOCCOC(=O)c1ccc(-c3c4nc(c(-c5cccc(S(=O)(=O)[O-])c5F)c5ccc([nH]5)c(-c5cccc(S(=O)(=O)[O-])c5F)c5nc(c(-c6cccc(S(=O)(=O)[O-])c6F)c6ccc3[nH]6)C=C5)C=C4)cc1)[C@@H](C(F)(F)F)O2
REMARK SMILES IDX 21 1 20 2 19 3 18 4 17 5 16 6 15 7 14 8 12 9 13 10 11 11
REMARK SMILES IDX 1 12 2 13 3 14 8 15 4 16 6 17 9 18 5 19 97 20 7 21 10 22
REMARK SMILES IDX 92 23 93 24 94 25 95 26 96 27 22 28 23 29 24 30 25 31 26 32
REMARK SMILES IDX 27 33 28 34 29 35 30 36 91 37 31 38 90 39 32 40 33 41 34 42
REMARK SMILES IDX 84 43 35 44 89 45 83 46 85 47 36 48 88 49 82 50 81 51 37 53
REMARK SMILES IDX 69 54 49 55 68 56 50 57 53 58 67 59 86 60 51 61 52 62 66 64
REMARK SMILES IDX 87 65 54 66 38 67 39 68 47 69 40 70 42 71 48 72 41 73 43 74
REMARK SMILES IDX 44 75 45 76 46 77 70 78 71 79 79 80 72 81 74 82 80 83 73 84
REMARK SMILES IDX 75 85 76 86 77 87 78 88 55 89 56 90 64 91 57 92 59 93 65 94
REMARK SMILES IDX 58 95 60 96 61 97 62 98 63 99
REMARK H PARENT 85 52 53 63
REMARK Flexibility Score: inf
ROOT
ATOM      1  C   UNL A   1      32.380  29.347  24.508  1.00  0.00     0.188 C 
ENDROOT
BRANCH   1   2
ATOM      2  O   UNL A   1      31.697  28.975  23.310  1.00  0.00    -0.377 OA
BRANCH   2   3
ATOM      3  C   UNL A   1      30.307  29.237  23.223  1.00  0.00     0.188 C 
BRANCH   3   4
ATOM      4  C   UNL A   1      29.441  27.970  23.364  1.00  0.00     0.188 C 
BRANCH   4   5
ATOM      5  O   UNL A   1      30.186  26.810  23.688  1.00  0.00    -0.376 OA
BRANCH   5   6
ATOM      6  C   UNL A   1      30.242  26.325  25.022  1.00  0.00     0.202 C 
BRANCH   6   7
ATOM      7  C   UNL A   1      31.164  25.182  25.489  1.00  0.00     0.261 C 
BRANCH   7   8
ATOM      8  O   UNL A   1      32.564  25.456  25.556  1.00  0.00    -0.460 OA
BRANCH   8   9
ATOM      9  C   UNL A   1      33.294  25.281  24.442  1.00  0.00     0.338 C 
ATOM     10  O   UNL A   1      33.440  26.072  23.527  1.00  0.00    -0.246 OA
BRANCH   9  11
ATOM     11  C   UNL A   1      34.066  24.029  24.613  1.00  0.00     0.087 C 
ATOM     12  C   UNL A   1      38.557  19.407  25.010  1.00  0.00     0.046 C 
ATOM     13  C   UNL A   1      37.710  20.633  25.223  1.00  0.00    -0.028 A 
ATOM     14  C   UNL A   1      36.363  20.587  24.843  1.00  0.00     0.052 A 
ATOM     15  C   UNL A   1      38.236  21.841  25.720  1.00  0.00     0.047 A 
ATOM     16  C   UNL A   1      35.574  21.734  24.875  1.00  0.00     0.128 A 
ATOM     17  C   UNL A   1      37.436  23.005  25.801  1.00  0.00    -0.021 A 
ATOM     18  Cl  UNL A   1      39.910  21.887  26.191  1.00  0.00    -0.084 Cl
ATOM     19  C   UNL A   1      36.112  22.953  25.298  1.00  0.00     0.022 A 
ATOM     20  O   UNL A   1      34.289  21.559  24.449  1.00  0.00    -0.475 OA
ATOM     21  C   UNL A   1      37.952  24.288  26.409  1.00  0.00     0.047 C 
ATOM     22  C   UNL A   1      35.298  24.152  25.124  1.00  0.00     0.027 C 
ATOM     23  C   UNL A   1      33.418  22.711  24.289  1.00  0.00     0.316 C 
BRANCH  23  24
ATOM     24  C   UNL A   1      32.850  22.680  22.863  1.00  0.00     0.430 C 
ATOM     25  F   UNL A   1      32.515  21.423  22.494  1.00  0.00    -0.167 F 
ATOM     26  F   UNL A   1      31.741  23.444  22.743  1.00  0.00    -0.167 F 
ATOM     27  F   UNL A   1      33.755  23.138  21.965  1.00  0.00    -0.167 F 
ENDBRANCH  23  24
ENDBRANCH   9  11
ENDBRANCH   8   9
ENDBRANCH   7   8
ENDBRANCH   6   7
ENDBRANCH   5   6
ENDBRANCH   4   5
ENDBRANCH   3   4
ENDBRANCH   2   3
ENDBRANCH   1   2
BRANCH   1  28
ATOM     28  C   UNL A   1      31.621  29.792  25.783  1.00  0.00     0.188 C 
BRANCH  28  29
ATOM     29  O   UNL A   1      32.430  30.439  26.759  1.00  0.00    -0.376 OA
BRANCH  29  30
ATOM     30  C   UNL A   1      32.150  31.798  27.055  1.00  0.00     0.202 C 
BRANCH  30  31
ATOM     31  C   UNL A   1      33.276  32.575  27.750  1.00  0.00     0.261 C 
BRANCH  31  32
ATOM     32  O   UNL A   1      33.071  33.990  27.873  1.00  0.00    -0.460 OA
BRANCH  32  33
ATOM     33  C   UNL A   1      33.364  34.561  29.062  1.00  0.00     0.338 C 
ATOM     34  O   UNL A   1      32.693  35.378  29.669  1.00  0.00    -0.246 OA
BRANCH  33  35
ATOM     35  C   UNL A   1      34.549  33.868  29.604  1.00  0.00     0.060 A 
ATOM     36  C   UNL A   1      34.370  32.817  30.512  1.00  0.00     0.016 A 
ATOM     37  C   UNL A   1      35.832  34.245  29.197  1.00  0.00     0.016 A 
ATOM     38  C   UNL A   1      35.480  32.158  31.041  1.00  0.00     0.010 A 
ATOM     39  C   UNL A   1      36.942  33.600  29.746  1.00  0.00     0.010 A 
ATOM     40  C   UNL A   1      36.771  32.578  30.696  1.00  0.00    -0.014 A 
BRANCH  40  41
ATOM     41  C   UNL A   1      37.932  32.103  31.484  1.00  0.00     0.031 A 
ATOM     42  C   UNL A   1      38.779  31.005  30.901  1.00  0.00     0.074 A 
ATOM     43  C   UNL A   1      38.240  32.638  32.680  1.00  0.00     0.049 A 
ATOM     44  N   UNL A   1      39.824  30.406  31.406  1.00  0.00    -0.248 NA
ATOM     45  C   UNL A   1      38.393  30.516  29.564  1.00  0.00     0.031 C 
ATOM     46  C   UNL A   1      37.512  33.721  33.335  1.00  0.00     0.029 A 
ATOM     47  N   UNL A   1      39.244  32.322  33.561  1.00  0.00    -0.354 N 
ATOM     48  C   UNL A   1      40.213  29.465  30.462  1.00  0.00     0.074 A 
ATOM     49  C   UNL A   1      39.280  29.554  29.361  1.00  0.00     0.031 C 
ATOM     50  C   UNL A   1      38.084  33.970  34.527  1.00  0.00     0.029 A 
ATOM     51  C   UNL A   1      39.201  33.048  34.730  1.00  0.00     0.049 A 
ATOM     52  H   UNL A   1      39.930  31.642  33.376  1.00  0.00     0.167 HD
ATOM     53  C   UNL A   1      41.266  28.617  30.497  1.00  0.00     0.034 A 
ATOM     54  C   UNL A   1      39.966  32.962  35.838  1.00  0.00     0.034 A 
ATOM     55  C   UNL A   1      42.198  28.539  31.586  1.00  0.00     0.049 A 
ATOM     56  C   UNL A   1      41.098  31.964  35.876  1.00  0.00     0.074 A 
ATOM     57  C   UNL A   1      43.308  27.724  31.706  1.00  0.00     0.029 A 
ATOM     58  N   UNL A   1      42.125  29.293  32.748  1.00  0.00    -0.354 N 
ATOM     59  N   UNL A   1      41.512  31.148  34.937  1.00  0.00    -0.248 NA
ATOM     60  C   UNL A   1      41.885  31.894  37.117  1.00  0.00     0.031 C 
ATOM     61  C   UNL A   1      43.891  27.964  32.953  1.00  0.00     0.029 A 
ATOM     62  C   UNL A   1      43.164  28.954  33.595  1.00  0.00     0.049 A 
ATOM     63  H   UNL A   1      41.437  29.969  32.941  1.00  0.00     0.167 HD
ATOM     64  C   UNL A   1      42.626  30.494  35.459  1.00  0.00     0.074 A 
ATOM     65  C   UNL A   1      42.834  31.025  36.790  1.00  0.00     0.031 C 
ATOM     66  C   UNL A   1      43.395  29.530  34.895  1.00  0.00     0.034 A 
BRANCH  53  67
ATOM     67  C   UNL A   1      41.496  27.729  29.304  1.00  0.00     0.023 A 
ATOM     68  C   UNL A   1      40.771  26.526  29.186  1.00  0.00     0.012 A 
ATOM     69  C   UNL A   1      42.357  28.125  28.262  1.00  0.00     0.148 A 
ATOM     70  C   UNL A   1      40.912  25.722  28.056  1.00  0.00     0.002 A 
ATOM     71  C   UNL A   1      42.455  27.343  27.119  1.00  0.00     0.091 A 
ATOM     72  F   UNL A   1      43.054  29.261  28.406  1.00  0.00    -0.205 F 
ATOM     73  C   UNL A   1      41.742  26.137  27.017  1.00  0.00     0.022 A 
BRANCH  71  74
ATOM     74  S   UNL A   1      43.428  27.829  25.689  1.00  0.00     0.127 S 
ATOM     75  O   UNL A   1      43.988  29.105  26.132  1.00  0.00    -0.237 OA
ATOM     76  O   UNL A   1      44.397  26.738  25.594  1.00  0.00    -0.237 OA
ATOM     77  O   UNL A   1      42.493  27.918  24.576  1.00  0.00    -0.744 OA
ENDBRANCH  71  74
ENDBRANCH  53  67
BRANCH  54  78
ATOM     78  C   UNL A   1      39.720  33.879  36.989  1.00  0.00     0.023 A 
ATOM     79  C   UNL A   1      40.117  35.228  36.898  1.00  0.00     0.012 A 
ATOM     80  C   UNL A   1      39.082  33.431  38.164  1.00  0.00     0.148 A 
ATOM     81  C   UNL A   1      39.906  36.107  37.962  1.00  0.00     0.002 A 
ATOM     82  C   UNL A   1      38.822  34.326  39.195  1.00  0.00     0.091 A 
ATOM     83  F   UNL A   1      38.729  32.140  38.241  1.00  0.00    -0.205 F 
ATOM     84  C   UNL A   1      39.249  35.660  39.104  1.00  0.00     0.022 A 
BRANCH  82  85
ATOM     85  S   UNL A   1      37.866  33.876  40.649  1.00  0.00     0.127 S 
ATOM     86  O   UNL A   1      38.824  33.066  41.397  1.00  0.00    -0.237 OA
ATOM     87  O   UNL A   1      37.578  35.187  41.233  1.00  0.00    -0.237 OA
ATOM     88  O   UNL A   1      36.697  33.168  40.149  1.00  0.00    -0.744 OA
ENDBRANCH  82  85
ENDBRANCH  54  78
BRANCH  66  89
ATOM     89  C   UNL A   1      44.557  28.986  35.688  1.00  0.00     0.023 A 
ATOM     90  C   UNL A   1      45.813  29.619  35.606  1.00  0.00     0.012 A 
ATOM     91  C   UNL A   1      44.372  27.934  36.610  1.00  0.00     0.148 A 
ATOM     92  C   UNL A   1      46.872  29.199  36.412  1.00  0.00     0.002 A 
ATOM     93  C   UNL A   1      45.415  27.559  37.447  1.00  0.00     0.091 A 
ATOM     94  F   UNL A   1      43.172  27.339  36.665  1.00  0.00    -0.205 F 
ATOM     95  C   UNL A   1      46.670  28.182  37.341  1.00  0.00     0.022 A 
BRANCH  93  96
ATOM     96  S   UNL A   1      45.219  26.337  38.751  1.00  0.00     0.127 S 
ATOM     97  O   UNL A   1      44.007  25.639  38.326  1.00  0.00    -0.237 OA
ATOM     98  O   UNL A   1      46.449  25.554  38.626  1.00  0.00    -0.237 OA
ATOM     99  O   UNL A   1      45.101  27.088  39.993  1.00  0.00    -0.744 OA
ENDBRANCH  93  96
ENDBRANCH  66  89
ENDBRANCH  40  41
ENDBRANCH  33  35
ENDBRANCH  32  33
ENDBRANCH  31  32
ENDBRANCH  30  31
ENDBRANCH  29  30
ENDBRANCH  28  29
ENDBRANCH   1  28
TORSDOF 24
ENDMDL
MODEL 2
REMARK VINA RESULT:      -9.9      2.259      2.720
REMARK SMILES Cc1cc2c(c(C)c1Cl)C=C(C(=O)OCCOCCOCCOCCOC(=O)c1ccc(-c3c4nc(c(-c5cccc(S(=O)(=O)[O-])c5F)c5ccc([nH]5)c(-c5cccc(S(=O)(=O)[O-])c5F)c5nc(c(-c6cccc(S(=O)(=O)[O-])c6F)c6ccc3[nH]6)C=C5)C=C4)cc1)[C@@H](C(F)(F)F)O2
REMARK SMILES IDX 21 1 20 2 19 3 18 4 17 5 16 6 15 7 14 8 12 9 13 10 11 11
REMARK SMILES IDX 1 12 2 13 3 14 8 15 4 16 6 17 9 18 5 19 97 20 7 21 10 22
REMARK SMILES IDX 92 23 93 24 94 25 95 26 96 27 22 28 23 29 24 30 25 31 26 32
REMARK SMILES IDX 27 33 28 34 29 35 30 36 91 37 31 38 90 39 32 40 33 41 34 42
REMARK SMILES IDX 84 43 35 44 89 45 83 46 85 47 36 48 88 49 82 50 81 51 37 53
REMARK SMILES IDX 69 54 49 55 68 56 50 57 53 58 67 59 86 60 51 61 52 62 66 64
REMARK SMILES IDX 87 65 54 66 38 67 39 68 47 69 40 70 42 71 48 72 41 73 43 74
REMARK SMILES IDX 44 75 45 76 46 77 70 78 71 79 79 80 72 81 74 82 80 83 73 84
REMARK SMILES IDX 75 85 76 86 77 87 78 88 55 89 56 90 64 91 57 92 59 93 65 94
REMARK SMILES IDX 58 95 60 96 61 97 62 98 63 99
REMARK H PARENT 85 52 53 63
REMARK Flexibility Score: inf
ROOT
ATOM      1  C   UNL A   1      32.443  29.385  24.567  1.00  0.00     0.188 C 
ENDROOT
BRANCH   1   2
ATOM      2  O   UNL A   1      32.148  28.637  23.387  1.00  0.00    -0.377 OA
BRANCH   2   3
ATOM      3  C   UNL A   1      30.919  28.886  22.725  1.00  0.00     0.188 C 
BRANCH   3   4
ATOM      4  C   UNL A   1      29.809  27.891  23.115  1.00  0.00     0.188 C 
BRANCH   4   5
ATOM      5  O   UNL A   1      30.298  26.699  23.702  1.00  0.00    -0.376 OA
BRANCH   5   6
ATOM      6  C   UNL A   1      30.302  26.522  25.111  1.00  0.00     0.202 C 
BRANCH   6   7
ATOM      7  C   UNL A   1      30.778  25.241  25.822  1.00  0.00     0.261 C 
BRANCH   7   8
ATOM      8  O   UNL A   1      32.117  25.228  26.320  1.00  0.00    -0.460 OA
BRANCH   8   9
ATOM      9  C   UNL A   1      33.113  25.018  25.444  1.00  0.00     0.338 C 
ATOM     10  O   UNL A   1      34.172  25.619  25.376  1.00  0.00    -0.246 OA
BRANCH   9  11
ATOM     11  C   UNL A   1      32.789  23.783  24.695  1.00  0.00     0.087 C 
ATOM     12  C   UNL A   1      32.462  17.836  22.200  1.00  0.00     0.046 C 
ATOM     13  C   UNL A   1      32.432  19.034  23.111  1.00  0.00    -0.028 A 
ATOM     14  C   UNL A   1      32.164  20.290  22.553  1.00  0.00     0.052 A 
ATOM     15  C   UNL A   1      32.731  18.950  24.485  1.00  0.00     0.047 A 
ATOM     16  C   UNL A   1      32.274  21.449  23.318  1.00  0.00     0.128 A 
ATOM     17  C   UNL A   1      32.803  20.113  25.287  1.00  0.00    -0.021 A 
ATOM     18  Cl  UNL A   1      33.058  17.385  25.170  1.00  0.00    -0.084 Cl
ATOM     19  C   UNL A   1      32.643  21.376  24.664  1.00  0.00     0.022 A 
ATOM     20  O   UNL A   1      32.019  22.608  22.644  1.00  0.00    -0.475 OA
ATOM     21  C   UNL A   1      33.037  20.041  26.778  1.00  0.00     0.047 C 
ATOM     22  C   UNL A   1      32.931  22.628  25.358  1.00  0.00     0.027 C 
ATOM     23  C   UNL A   1      32.253  23.886  23.293  1.00  0.00     0.316 C 
BRANCH  23  24
ATOM     24  C   UNL A   1      33.169  24.718  22.383  1.00  0.00     0.430 C 
ATOM     25  F   UNL A   1      34.473  24.498  22.664  1.00  0.00    -0.167 F 
ATOM     26  F   UNL A   1      32.983  24.427  21.076  1.00  0.00    -0.167 F 
ATOM     27  F   UNL A   1      32.939  26.044  22.539  1.00  0.00    -0.167 F 
ENDBRANCH  23  24
ENDBRANCH   9  11
ENDBRANCH   8   9
ENDBRANCH   7   8
ENDBRANCH   6   7
ENDBRANCH   5   6
ENDBRANCH   4   5
ENDBRANCH   3   4
ENDBRANCH   2   3
ENDBRANCH   1   2
BRANCH   1  28
ATOM     28  C   UNL A   1      31.364  30.215  25.306  1.00  0.00     0.188 C 
BRANCH  28  29
ATOM     29  O   UNL A   1      31.757  30.690  26.588  1.00  0.00    -0.376 OA
BRANCH  29  30
ATOM     30  C   UNL A   1      31.737  32.092  26.809  1.00  0.00     0.202 C 
BRANCH  30  31
ATOM     31  C   UNL A   1      32.981  32.678  27.490  1.00  0.00     0.261 C 
BRANCH  31  32
ATOM     32  O   UNL A   1      32.957  34.094  27.717  1.00  0.00    -0.460 OA
BRANCH  32  33
ATOM     33  C   UNL A   1      33.350  34.538  28.931  1.00  0.00     0.338 C 
ATOM     34  O   UNL A   1      32.757  35.317  29.656  1.00  0.00    -0.246 OA
BRANCH  33  35
ATOM     35  C   UNL A   1      34.538  33.753  29.323  1.00  0.00     0.060 A 
ATOM     36  C   UNL A   1      34.378  32.652  30.174  1.00  0.00     0.016 A 
ATOM     37  C   UNL A   1      35.801  34.094  28.831  1.00  0.00     0.016 A 
ATOM     38  C   UNL A   1      35.490  31.905  30.562  1.00  0.00     0.010 A 
ATOM     39  C   UNL A   1      36.916  33.360  29.240  1.00  0.00     0.010 A 
ATOM     40  C   UNL A   1      36.769  32.285  30.134  1.00  0.00    -0.014 A 
BRANCH  40  41
ATOM     41  C   UNL A   1      37.964  31.702  30.787  1.00  0.00     0.031 A 
ATOM     42  C   UNL A   1      38.699  30.606  30.064  1.00  0.00     0.074 A 
ATOM     43  C   UNL A   1      38.398  32.137  31.984  1.00  0.00     0.049 A 
ATOM     44  N   UNL A   1      39.748  29.925  30.438  1.00  0.00    -0.248 NA
ATOM     45  C   UNL A   1      38.179  30.230  28.737  1.00  0.00     0.031 C 
ATOM     46  C   UNL A   1      37.787  33.207  32.768  1.00  0.00     0.029 A 
ATOM     47  N   UNL A   1      39.454  31.714  32.754  1.00  0.00    -0.354 N 
ATOM     48  C   UNL A   1      40.007  29.032  29.405  1.00  0.00     0.074 A 
ATOM     49  C   UNL A   1      38.992  29.242  28.396  1.00  0.00     0.031 C 
ATOM     50  C   UNL A   1      38.468  33.346  33.919  1.00  0.00     0.029 A 
ATOM     51  C   UNL A   1      39.546  32.359  33.966  1.00  0.00     0.049 A 
ATOM     52  H   UNL A   1      40.084  31.015  32.467  1.00  0.00     0.167 HD
ATOM     53  C   UNL A   1      41.011  28.134  29.294  1.00  0.00     0.034 A 
ATOM     54  C   UNL A   1      40.395  32.161  34.996  1.00  0.00     0.034 A 
ATOM     55  C   UNL A   1      42.025  27.936  30.293  1.00  0.00     0.049 A 
ATOM     56  C   UNL A   1      41.470  31.109  34.872  1.00  0.00     0.074 A 
ATOM     57  C   UNL A   1      43.096  27.062  30.264  1.00  0.00     0.029 A 
ATOM     58  N   UNL A   1      42.089  28.611  31.502  1.00  0.00    -0.354 N 
ATOM     59  N   UNL A   1      41.761  30.340  33.851  1.00  0.00    -0.248 NA
ATOM     60  C   UNL A   1      42.352  30.915  36.034  1.00  0.00     0.031 C 
ATOM     61  C   UNL A   1      43.792  27.187  31.468  1.00  0.00     0.029 A 
ATOM     62  C   UNL A   1      43.175  28.165  32.233  1.00  0.00     0.049 A 
ATOM     63  H   UNL A   1      41.457  29.306  31.796  1.00  0.00     0.167 HD
ATOM     64  C   UNL A   1      42.877  29.598  34.232  1.00  0.00     0.074 A 
ATOM     65  C   UNL A   1      43.223  30.027  35.571  1.00  0.00     0.031 C 
ATOM     66  C   UNL A   1      43.543  28.639  33.543  1.00  0.00     0.034 A 
BRANCH  53  67
ATOM     67  C   UNL A   1      41.094  27.320  28.032  1.00  0.00     0.023 A 
ATOM     68  C   UNL A   1      41.689  27.882  26.883  1.00  0.00     0.012 A 
ATOM     69  C   UNL A   1      40.669  25.978  28.006  1.00  0.00     0.148 A 
ATOM     70  C   UNL A   1      41.844  27.125  25.724  1.00  0.00     0.002 A 
ATOM     71  C   UNL A   1      40.871  25.216  26.863  1.00  0.00     0.091 A 
ATOM     72  F   UNL A   1      40.086  25.472  29.102  1.00  0.00    -0.205 F 
ATOM     73  C   UNL A   1      41.449  25.789  25.717  1.00  0.00     0.022 A 
BRANCH  71  74
ATOM     74  S   UNL A   1      40.479  23.465  26.779  1.00  0.00     0.127 S 
ATOM     75  O   UNL A   1      40.856  23.013  28.119  1.00  0.00    -0.237 OA
ATOM     76  O   UNL A   1      39.039  23.487  26.527  1.00  0.00    -0.237 OA
ATOM     77  O   UNL A   1      41.284  22.922  25.695  1.00  0.00    -0.744 OA
ENDBRANCH  71  74
ENDBRANCH  53  67
BRANCH  54  78
ATOM     78  C   UNL A   1      40.295  33.007  36.220  1.00  0.00     0.023 A 
ATOM     79  C   UNL A   1      41.039  34.201  36.300  1.00  0.00     0.012 A 
ATOM     80  C   UNL A   1      39.458  32.650  37.297  1.00  0.00     0.148 A 
ATOM     81  C   UNL A   1      40.970  35.009  37.437  1.00  0.00     0.002 A 
ATOM     82  C   UNL A   1      39.349  33.489  38.399  1.00  0.00     0.091 A 
ATOM     83  F   UNL A   1      38.773  31.500  37.213  1.00  0.00    -0.205 F 
ATOM     84  C   UNL A   1      40.118  34.660  38.480  1.00  0.00     0.022 A 
BRANCH  82  85
ATOM     85  S   UNL A   1      38.182  33.191  39.732  1.00  0.00     0.127 S 
ATOM     86  O   UNL A   1      38.818  32.088  40.447  1.00  0.00    -0.237 OA
ATOM     87  O   UNL A   1      38.199  34.474  40.436  1.00  0.00    -0.237 OA
ATOM     88  O   UNL A   1      36.916  32.875  39.084  1.00  0.00    -0.744 OA
ENDBRANCH  82  85
ENDBRANCH  54  78
BRANCH  66  89
ATOM     89  C   UNL A   1      44.737  27.986  34.196  1.00  0.00     0.023 A 
ATOM     90  C   UNL A   1      46.002  28.597  34.103  1.00  0.00     0.012 A 
ATOM     91  C   UNL A   1      44.578  26.844  35.008  1.00  0.00     0.148 A 
ATOM     92  C   UNL A   1      47.097  28.069  34.789  1.00  0.00     0.002 A 
ATOM     93  C   UNL A   1      45.659  26.356  35.731  1.00  0.00     0.091 A 
ATOM     94  F   UNL A   1      43.367  26.272  35.075  1.00  0.00    -0.205 F 
ATOM     95  C   UNL A   1      46.923  26.960  35.613  1.00  0.00     0.022 A 
BRANCH  93  96
ATOM     96  S   UNL A   1      45.510  25.003  36.905  1.00  0.00     0.127 S 
ATOM     97  O   UNL A   1      46.801  25.058  37.588  1.00  0.00    -0.237 OA
ATOM     98  O   UNL A   1      44.370  25.425  37.718  1.00  0.00    -0.237 OA
ATOM     99  O   UNL A   1      45.278  23.805  36.110  1.00  0.00    -0.744 OA
ENDBRANCH  93  96
ENDBRANCH  66  89
ENDBRANCH  40  41
ENDBRANCH  33  35
ENDBRANCH  32  33
ENDBRANCH  31  32
ENDBRANCH  30  31
ENDBRANCH  29  30
ENDBRANCH  28  29
ENDBRANCH   1  28
TORSDOF 24
ENDMDL
MODEL 3
REMARK VINA RESULT:      -9.7      2.332      7.535
REMARK SMILES Cc1cc2c(c(C)c1Cl)C=C(C(=O)OCCOCCOCCOCCOC(=O)c1ccc(-c3c4nc(c(-c5cccc(S(=O)(=O)[O-])c5F)c5ccc([nH]5)c(-c5cccc(S(=O)(=O)[O-])c5F)c5nc(c(-c6cccc(S(=O)(=O)[O-])c6F)c6ccc3[nH]6)C=C5)C=C4)cc1)[C@@H](C(F)(F)F)O2
REMARK SMILES IDX 21 1 20 2 19 3 18 4 17 5 16 6 15 7 14 8 12 9 13 10 11 11
REMARK SMILES IDX 1 12 2 13 3 14 8 15 4 16 6 17 9 18 5 19 97 20 7 21 10 22
REMARK SMILES IDX 92 23 93 24 94 25 95 26 96 27 22 28 23 29 24 30 25 31 26 32
REMARK SMILES IDX 27 33 28 34 29 35 30 36 91 37 31 38 90 39 32 40 33 41 34 42
REMARK SMILES IDX 84 43 35 44 89 45 83 46 85 47 36 48 88 49 82 50 81 51 37 53
REMARK SMILES IDX 69 54 49 55 68 56 50 57 53 58 67 59 86 60 51 61 52 62 66 64
REMARK SMILES IDX 87 65 54 66 38 67 39 68 47 69 40 70 42 71 48 72 41 73 43 74
REMARK SMILES IDX 44 75 45 76 46 77 70 78 71 79 79 80 72 81 74 82 80 83 73 84
REMARK SMILES IDX 75 85 76 86 77 87 78 88 55 89 56 90 64 91 57 92 59 93 65 94
REMARK SMILES IDX 58 95 60 96 61 97 62 98 63 99
REMARK H PARENT 85 52 53 63
REMARK Flexibility Score: inf
ROOT
ATOM      1  C   UNL A   1      32.741  29.255  24.896  1.00  0.00     0.188 C 
ENDROOT
BRANCH   1   2
ATOM      2  O   UNL A   1      32.429  28.344  23.842  1.00  0.00    -0.377 OA
BRANCH   2   3
ATOM      3  C   UNL A   1      31.634  28.811  22.766  1.00  0.00     0.188 C 
BRANCH   3   4
ATOM      4  C   UNL A   1      30.219  28.201  22.747  1.00  0.00     0.188 C 
BRANCH   4   5
ATOM      5  O   UNL A   1      30.178  26.857  23.194  1.00  0.00    -0.376 OA
BRANCH   5   6
ATOM      6  C   UNL A   1      31.295  25.996  23.033  1.00  0.00     0.202 C 
BRANCH   6   7
ATOM      7  C   UNL A   1      31.191  24.498  22.690  1.00  0.00     0.261 C 
BRANCH   7   8
ATOM      8  O   UNL A   1      30.576  23.646  23.656  1.00  0.00    -0.460 OA
BRANCH   8   9
ATOM      9  C   UNL A   1      31.115  23.595  24.885  1.00  0.00     0.338 C 
ATOM     10  O   UNL A   1      30.577  23.892  25.938  1.00  0.00    -0.246 OA
BRANCH   9  11
ATOM     11  C   UNL A   1      32.423  22.912  24.765  1.00  0.00     0.087 C 
ATOM     12  C   UNL A   1      37.489  18.918  25.040  1.00  0.00     0.046 C 
ATOM     13  C   UNL A   1      36.150  19.550  24.773  1.00  0.00    -0.028 A 
ATOM     14  C   UNL A   1      36.072  20.948  24.712  1.00  0.00     0.052 A 
ATOM     15  C   UNL A   1      34.965  18.798  24.654  1.00  0.00     0.047 A 
ATOM     16  C   UNL A   1      34.840  21.590  24.621  1.00  0.00     0.128 A 
ATOM     17  C   UNL A   1      33.709  19.433  24.517  1.00  0.00    -0.021 A 
ATOM     18  Cl  UNL A   1      35.073  17.063  24.729  1.00  0.00    -0.084 Cl
ATOM     19  C   UNL A   1      33.656  20.848  24.577  1.00  0.00     0.022 A 
ATOM     20  O   UNL A   1      34.903  22.953  24.602  1.00  0.00    -0.475 OA
ATOM     21  C   UNL A   1      32.436  18.648  24.302  1.00  0.00     0.047 C 
ATOM     22  C   UNL A   1      32.395  21.576  24.679  1.00  0.00     0.027 C 
ATOM     23  C   UNL A   1      33.680  23.733  24.667  1.00  0.00     0.316 C 
BRANCH  23  24
ATOM     24  C   UNL A   1      33.813  24.728  25.828  1.00  0.00     0.430 C 
ATOM     25  F   UNL A   1      33.472  24.159  27.007  1.00  0.00    -0.167 F 
ATOM     26  F   UNL A   1      35.077  25.191  25.956  1.00  0.00    -0.167 F 
ATOM     27  F   UNL A   1      33.007  25.802  25.649  1.00  0.00    -0.167 F 
ENDBRANCH  23  24
ENDBRANCH   9  11
ENDBRANCH   8   9
ENDBRANCH   7   8
ENDBRANCH   6   7
ENDBRANCH   5   6
ENDBRANCH   4   5
ENDBRANCH   3   4
ENDBRANCH   2   3
ENDBRANCH   1   2
BRANCH   1  28
ATOM     28  C   UNL A   1      31.648  30.087  25.613  1.00  0.00     0.188 C 
BRANCH  28  29
ATOM     29  O   UNL A   1      32.035  30.603  26.882  1.00  0.00    -0.376 OA
BRANCH  29  30
ATOM     30  C   UNL A   1      31.940  32.005  27.083  1.00  0.00     0.202 C 
BRANCH  30  31
ATOM     31  C   UNL A   1      33.163  32.670  27.727  1.00  0.00     0.261 C 
BRANCH  31  32
ATOM     32  O   UNL A   1      33.173  34.105  27.708  1.00  0.00    -0.460 OA
BRANCH  32  33
ATOM     33  C   UNL A   1      33.293  34.743  28.892  1.00  0.00     0.338 C 
ATOM     34  O   UNL A   1      32.503  35.530  29.386  1.00  0.00    -0.246 OA
BRANCH  33  35
ATOM     35  C   UNL A   1      34.459  34.165  29.589  1.00  0.00     0.060 A 
ATOM     36  C   UNL A   1      35.745  34.432  29.103  1.00  0.00     0.016 A 
ATOM     37  C   UNL A   1      34.280  33.381  30.732  1.00  0.00     0.016 A 
ATOM     38  C   UNL A   1      36.858  33.886  29.743  1.00  0.00     0.010 A 
ATOM     39  C   UNL A   1      35.392  32.817  31.357  1.00  0.00     0.010 A 
ATOM     40  C   UNL A   1      36.683  33.038  30.844  1.00  0.00    -0.014 A 
BRANCH  40  41
ATOM     41  C   UNL A   1      37.817  32.214  31.324  1.00  0.00     0.031 A 
ATOM     42  C   UNL A   1      38.333  32.466  32.715  1.00  0.00     0.074 A 
ATOM     43  C   UNL A   1      38.370  31.259  30.555  1.00  0.00     0.049 A 
ATOM     44  N   UNL A   1      39.326  31.898  33.346  1.00  0.00    -0.248 NA
ATOM     45  C   UNL A   1      37.633  33.499  33.499  1.00  0.00     0.031 C 
ATOM     46  C   UNL A   1      37.941  30.906  29.204  1.00  0.00     0.029 A 
ATOM     47  N   UNL A   1      39.428  30.420  30.805  1.00  0.00    -0.354 N 
ATOM     48  C   UNL A   1      39.379  32.510  34.592  1.00  0.00     0.074 A 
ATOM     49  C   UNL A   1      38.334  33.509  34.623  1.00  0.00     0.031 C 
ATOM     50  C   UNL A   1      38.743  29.932  28.735  1.00  0.00     0.029 A 
ATOM     51  C   UNL A   1      39.755  29.612  29.741  1.00  0.00     0.049 A 
ATOM     52  H   UNL A   1      39.908  30.399  31.664  1.00  0.00     0.167 HD
ATOM     53  C   UNL A   1      40.208  32.249  35.627  1.00  0.00     0.034 A 
ATOM     54  C   UNL A   1      40.765  28.729  29.594  1.00  0.00     0.034 A 
ATOM     55  C   UNL A   1      41.238  31.248  35.599  1.00  0.00     0.049 A 
ATOM     56  C   UNL A   1      41.716  28.501  30.745  1.00  0.00     0.074 A 
ATOM     57  C   UNL A   1      42.119  30.897  36.606  1.00  0.00     0.029 A 
ATOM     58  N   UNL A   1      41.534  30.447  34.507  1.00  0.00    -0.354 N 
ATOM     59  N   UNL A   1      41.695  29.017  31.950  1.00  0.00    -0.248 NA
ATOM     60  C   UNL A   1      42.815  27.547  30.523  1.00  0.00     0.031 C 
ATOM     61  C   UNL A   1      42.967  29.902  36.113  1.00  0.00     0.029 A 
ATOM     62  C   UNL A   1      42.592  29.609  34.811  1.00  0.00     0.049 A 
ATOM     63  H   UNL A   1      41.062  30.469  33.644  1.00  0.00     0.167 HD
ATOM     64  C   UNL A   1      42.751  28.427  32.640  1.00  0.00     0.074 A 
ATOM     65  C   UNL A   1      43.380  27.498  31.724  1.00  0.00     0.031 C 
ATOM     66  C   UNL A   1      43.173  28.648  33.910  1.00  0.00     0.034 A 
BRANCH  53  67
ATOM     67  C   UNL A   1      40.015  33.029  36.900  1.00  0.00     0.023 A 
ATOM     68  C   UNL A   1      39.066  32.588  37.845  1.00  0.00     0.012 A 
ATOM     69  C   UNL A   1      40.830  34.137  37.201  1.00  0.00     0.148 A 
ATOM     70  C   UNL A   1      38.919  33.249  39.063  1.00  0.00     0.002 A 
ATOM     71  C   UNL A   1      40.712  34.760  38.436  1.00  0.00     0.091 A 
ATOM     72  F   UNL A   1      41.710  34.551  36.279  1.00  0.00    -0.205 F 
ATOM     73  C   UNL A   1      39.750  34.325  39.365  1.00  0.00     0.022 A 
BRANCH  71  74
ATOM     74  S   UNL A   1      41.791  36.098  38.959  1.00  0.00     0.127 S 
ATOM     75  O   UNL A   1      43.110  35.480  38.830  1.00  0.00    -0.237 OA
ATOM     76  O   UNL A   1      41.502  37.129  37.964  1.00  0.00    -0.237 OA
ATOM     77  O   UNL A   1      41.394  36.429  40.319  1.00  0.00    -0.744 OA
ENDBRANCH  71  74
ENDBRANCH  53  67
BRANCH  54  78
ATOM     78  C   UNL A   1      40.906  27.958  28.325  1.00  0.00     0.023 A 
ATOM     79  C   UNL A   1      41.559  28.547  27.225  1.00  0.00     0.012 A 
ATOM     80  C   UNL A   1      40.416  26.641  28.205  1.00  0.00     0.148 A 
ATOM     81  C   UNL A   1      41.700  27.851  26.022  1.00  0.00     0.002 A 
ATOM     82  C   UNL A   1      40.612  25.933  27.025  1.00  0.00     0.091 A 
ATOM     83  F   UNL A   1      39.780  26.104  29.255  1.00  0.00    -0.205 F 
ATOM     84  C   UNL A   1      41.238  26.542  25.927  1.00  0.00     0.022 A 
BRANCH  82  85
ATOM     85  S   UNL A   1      40.169  24.201  26.851  1.00  0.00     0.127 S 
ATOM     86  O   UNL A   1      38.809  24.291  26.325  1.00  0.00    -0.237 OA
ATOM     87  O   UNL A   1      41.171  23.732  25.893  1.00  0.00    -0.237 OA
ATOM     88  O   UNL A   1      40.293  23.626  28.183  1.00  0.00    -0.744 OA
ENDBRANCH  82  85
ENDBRANCH  54  78
BRANCH  66  89
ATOM     89  C   UNL A   1      44.358  27.863  34.417  1.00  0.00     0.023 A 
ATOM     90  C   UNL A   1      45.638  28.450  34.408  1.00  0.00     0.012 A 
ATOM     91  C   UNL A   1      44.181  26.600  35.019  1.00  0.00     0.148 A 
ATOM     92  C   UNL A   1      46.728  27.784  34.971  1.00  0.00     0.002 A 
ATOM     93  C   UNL A   1      45.259  25.967  35.625  1.00  0.00     0.091 A 
ATOM     94  F   UNL A   1      42.956  26.054  35.007  1.00  0.00    -0.205 F 
ATOM     95  C   UNL A   1      46.536  26.552  35.591  1.00  0.00     0.022 A 
BRANCH  93  96
ATOM     96  S   UNL A   1      45.090  24.433  36.546  1.00  0.00     0.127 S 
ATOM     97  O   UNL A   1      44.830  23.470  35.476  1.00  0.00    -0.237 OA
ATOM     98  O   UNL A   1      46.404  24.305  37.175  1.00  0.00    -0.237 OA
ATOM     99  O   UNL A   1      43.989  24.640  37.476  1.00  0.00    -0.744 OA
ENDBRANCH  93  96
ENDBRANCH  66  89
ENDBRANCH  40  41
ENDBRANCH  33  35
ENDBRANCH  32  33
ENDBRANCH  31  32
ENDBRANCH  30  31
ENDBRANCH  29  30
ENDBRANCH  28  29
ENDBRANCH   1  28
TORSDOF 24
ENDMDL
