MODEL 1
REMARK VINA RESULT:      -8.8      0.000      0.000
REMARK SMILES O=C(CCc1nc(-c2ccccc2)c(-c2ccccc2)o1)OCCOCCOCCOCCOC(=O)c1ccc(-c2c3nc(c(-c4cccc(S(=O)(=O)[O-])c4F)c4ccc([nH]4)c(-c4cccc(S(=O)(=O)[O-])c4F)c4nc(c(-c5cccc(S(=O)(=O)[O-])c5F)c5ccc2[nH]5)C=C4)C=C3)cc1
REMARK SMILES IDX 28 1 27 2 26 3 25 4 24 5 23 6 22 7 2 8 1 9 3 10 4 11 5 12
REMARK SMILES IDX 6 13 21 14 7 15 14 16 8 17 9 18 13 19 10 20 12 21 11 22
REMARK SMILES IDX 15 23 16 24 20 25 17 26 19 27 18 28 29 29 30 30 31 31 32 32
REMARK SMILES IDX 33 33 34 34 35 35 36 36 37 37 38 38 99 39 39 40 98 41 40 42
REMARK SMILES IDX 41 43 42 44 92 45 43 46 97 47 91 48 93 49 44 50 96 51 90 52
REMARK SMILES IDX 89 53 45 55 77 56 57 57 76 58 58 59 61 60 75 61 94 62 59 63
REMARK SMILES IDX 60 64 74 66 95 67 62 68 46 69 47 70 55 71 48 72 50 73 56 74
REMARK SMILES IDX 49 75 51 76 52 77 53 78 54 79 78 80 79 81 87 82 80 83 82 84
REMARK SMILES IDX 88 85 81 86 83 87 84 88 85 89 86 90 63 91 64 92 72 93 65 94
REMARK SMILES IDX 67 95 73 96 66 97 68 98 69 99 70 100 71 101
REMARK H PARENT 93 54 61 65
REMARK Flexibility Score: inf
ROOT
ATOM      1  O   UNL A   1      31.639  32.667  27.252  1.00  0.00    -0.377 OA
ENDROOT
BRANCH   1   2
ATOM      2  C   UNL A   1      31.507  31.555  26.388  1.00  0.00     0.188 C 
BRANCH   2   3
ATOM      3  C   UNL A   1      32.813  30.775  26.219  1.00  0.00     0.188 C 
BRANCH   3   4
ATOM      4  O   UNL A   1      32.721  29.357  26.199  1.00  0.00    -0.376 OA
BRANCH   4   5
ATOM      5  C   UNL A   1      31.415  28.787  26.081  1.00  0.00     0.202 C 
BRANCH   5   6
ATOM      6  C   UNL A   1      31.017  28.190  24.725  1.00  0.00     0.261 C 
BRANCH   6   7
ATOM      7  O   UNL A   1      32.112  27.964  23.822  1.00  0.00    -0.463 OA
BRANCH   7   8
ATOM      8  C   UNL A   1      31.905  27.799  22.502  1.00  0.00     0.306 C 
ATOM      9  O   UNL A   1      30.773  27.856  22.027  1.00  0.00    -0.252 OA
BRANCH   8  10
ATOM     10  C   UNL A   1      33.064  27.307  21.681  1.00  0.00     0.132 C 
BRANCH  10  11
ATOM     11  C   UNL A   1      32.967  25.849  21.274  1.00  0.00     0.109 C 
BRANCH  11  12
ATOM     12  C   UNL A   1      33.246  24.777  22.279  1.00  0.00     0.196 A 
ATOM     13  N   UNL A   1      34.367  24.090  22.394  1.00  0.00    -0.213 NA
ATOM     14  O   UNL A   1      32.284  24.420  23.186  1.00  0.00    -0.440 OA
ATOM     15  C   UNL A   1      34.142  23.267  23.474  1.00  0.00     0.117 A 
ATOM     16  C   UNL A   1      32.891  23.503  24.001  1.00  0.00     0.162 A 
BRANCH  15  17
ATOM     17  C   UNL A   1      35.125  22.388  24.061  1.00  0.00     0.004 A 
ATOM     18  C   UNL A   1      36.488  22.717  24.025  1.00  0.00     0.010 A 
ATOM     19  C   UNL A   1      34.721  21.158  24.587  1.00  0.00     0.010 A 
ATOM     20  C   UNL A   1      37.440  21.807  24.482  1.00  0.00     0.001 A 
ATOM     21  C   UNL A   1      35.678  20.248  25.038  1.00  0.00     0.001 A 
ATOM     22  C   UNL A   1      37.034  20.571  24.980  1.00  0.00     0.000 A 
ENDBRANCH  15  17
BRANCH  16  23
ATOM     23  C   UNL A   1      32.237  23.125  25.247  1.00  0.00     0.020 A 
ATOM     24  C   UNL A   1      32.892  23.163  26.483  1.00  0.00     0.012 A 
ATOM     25  C   UNL A   1      30.863  22.829  25.221  1.00  0.00     0.012 A 
ATOM     26  C   UNL A   1      32.175  22.943  27.668  1.00  0.00     0.001 A 
ATOM     27  C   UNL A   1      30.152  22.604  26.401  1.00  0.00     0.001 A 
ATOM     28  C   UNL A   1      30.806  22.675  27.626  1.00  0.00     0.000 A 
ENDBRANCH  16  23
ENDBRANCH  11  12
ENDBRANCH  10  11
ENDBRANCH   8  10
ENDBRANCH   7   8
ENDBRANCH   6   7
ENDBRANCH   5   6
ENDBRANCH   4   5
ENDBRANCH   3   4
ENDBRANCH   2   3
ENDBRANCH   1   2
BRANCH   1  29
ATOM     29  C   UNL A   1      32.967  32.952  27.666  1.00  0.00     0.188 C 
BRANCH  29  30
ATOM     30  C   UNL A   1      33.247  34.301  28.373  1.00  0.00     0.188 C 
BRANCH  30  31
ATOM     31  O   UNL A   1      34.506  34.625  28.939  1.00  0.00    -0.376 OA
BRANCH  31  32
ATOM     32  C   UNL A   1      35.711  33.980  28.585  1.00  0.00     0.202 C 
BRANCH  32  33
ATOM     33  C   UNL A   1      36.114  32.601  29.128  1.00  0.00     0.261 C 
BRANCH  33  34
ATOM     34  O   UNL A   1      36.414  31.616  28.138  1.00  0.00    -0.460 OA
BRANCH  34  35
ATOM     35  C   UNL A   1      36.128  30.334  28.478  1.00  0.00     0.338 C 
ATOM     36  O   UNL A   1      35.023  29.817  28.510  1.00  0.00    -0.246 OA
BRANCH  35  37
ATOM     37  C   UNL A   1      37.392  29.568  28.568  1.00  0.00     0.060 A 
ATOM     38  C   UNL A   1      37.592  28.762  29.701  1.00  0.00     0.016 A 
ATOM     39  C   UNL A   1      38.341  29.591  27.543  1.00  0.00     0.016 A 
ATOM     40  C   UNL A   1      38.755  28.006  29.830  1.00  0.00     0.010 A 
ATOM     41  C   UNL A   1      39.522  28.859  27.688  1.00  0.00     0.010 A 
ATOM     42  C   UNL A   1      39.747  28.098  28.848  1.00  0.00    -0.014 A 
BRANCH  42  43
ATOM     43  C   UNL A   1      41.124  27.648  29.152  1.00  0.00     0.031 A 
ATOM     44  C   UNL A   1      41.859  28.381  30.238  1.00  0.00     0.074 A 
ATOM     45  C   UNL A   1      41.727  26.672  28.454  1.00  0.00     0.049 A 
ATOM     46  N   UNL A   1      43.106  28.281  30.611  1.00  0.00    -0.248 NA
ATOM     47  C   UNL A   1      41.079  29.376  30.996  1.00  0.00     0.031 C 
ATOM     48  C   UNL A   1      41.112  25.892  27.385  1.00  0.00     0.029 A 
ATOM     49  N   UNL A   1      43.017  26.204  28.521  1.00  0.00    -0.354 N 
ATOM     50  C   UNL A   1      43.274  29.233  31.608  1.00  0.00     0.074 A 
ATOM     51  C   UNL A   1      41.999  29.888  31.797  1.00  0.00     0.031 C 
ATOM     52  C   UNL A   1      42.037  25.066  26.865  1.00  0.00     0.029 A 
ATOM     53  C   UNL A   1      43.318  25.293  27.537  1.00  0.00     0.049 A 
ATOM     54  H   UNL A   1      43.662  26.494  29.205  1.00  0.00     0.167 HD
ATOM     55  C   UNL A   1      44.392  29.547  32.300  1.00  0.00     0.034 A 
ATOM     56  C   UNL A   1      44.500  24.745  27.191  1.00  0.00     0.034 A 
ATOM     57  C   UNL A   1      45.659  28.904  32.105  1.00  0.00     0.049 A 
ATOM     58  C   UNL A   1      45.741  25.115  27.968  1.00  0.00     0.074 A 
ATOM     59  C   UNL A   1      46.847  29.122  32.776  1.00  0.00     0.029 A 
ATOM     60  N   UNL A   1      45.908  27.933  31.146  1.00  0.00    -0.354 N 
ATOM     61  N   UNL A   1      45.865  25.933  28.985  1.00  0.00    -0.248 NA
ATOM     62  C   UNL A   1      47.000  24.473  27.560  1.00  0.00     0.031 C 
ATOM     63  C   UNL A   1      47.824  28.302  32.204  1.00  0.00     0.029 A 
ATOM     64  C   UNL A   1      47.235  27.550  31.197  1.00  0.00     0.049 A 
ATOM     65  H   UNL A   1      45.239  27.571  30.522  1.00  0.00     0.167 HD
ATOM     66  C   UNL A   1      47.205  25.887  29.356  1.00  0.00     0.074 A 
ATOM     67  C   UNL A   1      47.851  24.945  28.464  1.00  0.00     0.031 C 
ATOM     68  C   UNL A   1      47.847  26.570  30.337  1.00  0.00     0.034 A 
BRANCH  55  69
ATOM     69  C   UNL A   1      44.281  30.653  33.313  1.00  0.00     0.023 A 
ATOM     70  C   UNL A   1      44.615  31.974  32.951  1.00  0.00     0.012 A 
ATOM     71  C   UNL A   1      43.859  30.378  34.626  1.00  0.00     0.148 A 
ATOM     72  C   UNL A   1      44.571  32.998  33.896  1.00  0.00     0.002 A 
ATOM     73  C   UNL A   1      43.776  31.412  35.551  1.00  0.00     0.091 A 
ATOM     74  F   UNL A   1      43.583  29.109  34.961  1.00  0.00    -0.205 F 
ATOM     75  C   UNL A   1      44.144  32.719  35.192  1.00  0.00     0.022 A 
BRANCH  73  76
ATOM     76  S   UNL A   1      43.170  31.154  37.221  1.00  0.00     0.127 S 
ATOM     77  O   UNL A   1      44.189  31.839  38.013  1.00  0.00    -0.237 OA
ATOM     78  O   UNL A   1      41.869  31.824  37.187  1.00  0.00    -0.237 OA
ATOM     79  O   UNL A   1      43.099  29.709  37.396  1.00  0.00    -0.744 OA
ENDBRANCH  73  76
ENDBRANCH  55  69
BRANCH  56  80
ATOM     80  C   UNL A   1      44.563  23.787  26.052  1.00  0.00     0.023 A 
ATOM     81  C   UNL A   1      45.172  24.176  24.843  1.00  0.00     0.012 A 
ATOM     82  C   UNL A   1      44.066  22.475  26.179  1.00  0.00     0.148 A 
ATOM     83  C   UNL A   1      45.271  23.281  23.776  1.00  0.00     0.002 A 
ATOM     84  C   UNL A   1      44.218  21.572  25.134  1.00  0.00     0.091 A 
ATOM     85  F   UNL A   1      43.472  22.131  27.331  1.00  0.00    -0.205 F 
ATOM     86  C   UNL A   1      44.806  21.977  23.926  1.00  0.00     0.022 A 
BRANCH  84  87
ATOM     87  S   UNL A   1      43.778  19.836  25.284  1.00  0.00     0.127 S 
ATOM     88  O   UNL A   1      43.925  19.372  23.907  1.00  0.00    -0.237 OA
ATOM     89  O   UNL A   1      44.798  19.351  26.212  1.00  0.00    -0.237 OA
ATOM     90  O   UNL A   1      42.420  19.817  25.813  1.00  0.00    -0.744 OA
ENDBRANCH  84  87
ENDBRANCH  56  80
BRANCH  68  91
ATOM     91  C   UNL A   1      49.316  26.309  30.542  1.00  0.00     0.023 A 
ATOM     92  C   UNL A   1      50.270  27.107  29.882  1.00  0.00     0.012 A 
ATOM     93  C   UNL A   1      49.744  25.360  31.492  1.00  0.00     0.148 A 
ATOM     94  C   UNL A   1      51.629  26.954  30.153  1.00  0.00     0.002 A 
ATOM     95  C   UNL A   1      51.095  25.246  31.793  1.00  0.00     0.091 A 
ATOM     96  F   UNL A   1      48.819  24.601  32.097  1.00  0.00    -0.205 F 
ATOM     97  C   UNL A   1      52.040  26.036  31.117  1.00  0.00     0.022 A 
BRANCH  95  98
ATOM     98  S   UNL A   1      51.706  24.167  33.093  1.00  0.00     0.127 S 
ATOM     99  O   UNL A   1      50.957  24.647  34.253  1.00  0.00    -0.237 OA
ATOM    100  O   UNL A   1      51.307  22.844  32.613  1.00  0.00    -0.237 OA
ATOM    101  O   UNL A   1      53.146  24.381  33.150  1.00  0.00    -0.744 OA
ENDBRANCH  95  98
ENDBRANCH  68  91
ENDBRANCH  42  43
ENDBRANCH  35  37
ENDBRANCH  34  35
ENDBRANCH  33  34
ENDBRANCH  32  33
ENDBRANCH  31  32
ENDBRANCH  30  31
ENDBRANCH  29  30
ENDBRANCH   1  29
TORSDOF 27
ENDMDL
MODEL 2
REMARK VINA RESULT:      -8.5      6.121     10.987
REMARK SMILES O=C(CCc1nc(-c2ccccc2)c(-c2ccccc2)o1)OCCOCCOCCOCCOC(=O)c1ccc(-c2c3nc(c(-c4cccc(S(=O)(=O)[O-])c4F)c4ccc([nH]4)c(-c4cccc(S(=O)(=O)[O-])c4F)c4nc(c(-c5cccc(S(=O)(=O)[O-])c5F)c5ccc2[nH]5)C=C4)C=C3)cc1
REMARK SMILES IDX 28 1 27 2 26 3 25 4 24 5 23 6 22 7 2 8 1 9 3 10 4 11 5 12
REMARK SMILES IDX 6 13 21 14 7 15 14 16 8 17 9 18 13 19 10 20 12 21 11 22
REMARK SMILES IDX 15 23 16 24 20 25 17 26 19 27 18 28 29 29 30 30 31 31 32 32
REMARK SMILES IDX 33 33 34 34 35 35 36 36 37 37 38 38 99 39 39 40 98 41 40 42
REMARK SMILES IDX 41 43 42 44 92 45 43 46 97 47 91 48 93 49 44 50 96 51 90 52
REMARK SMILES IDX 89 53 45 55 77 56 57 57 76 58 58 59 61 60 75 61 94 62 59 63
REMARK SMILES IDX 60 64 74 66 95 67 62 68 46 69 47 70 55 71 48 72 50 73 56 74
REMARK SMILES IDX 49 75 51 76 52 77 53 78 54 79 78 80 79 81 87 82 80 83 82 84
REMARK SMILES IDX 88 85 81 86 83 87 84 88 85 89 86 90 63 91 64 92 72 93 65 94
REMARK SMILES IDX 67 95 73 96 66 97 68 98 69 99 70 100 71 101
REMARK H PARENT 93 54 61 65
REMARK Flexibility Score: inf
ROOT
ATOM      1  O   UNL A   1      39.592  23.113  27.001  1.00  0.00    -0.377 OA
ENDROOT
BRANCH   1   2
ATOM      2  C   UNL A   1      38.375  23.735  26.635  1.00  0.00     0.188 C 
BRANCH   2   3
ATOM      3  C   UNL A   1      37.669  23.025  25.478  1.00  0.00     0.188 C 
BRANCH   3   4
ATOM      4  O   UNL A   1      36.440  22.375  25.773  1.00  0.00    -0.376 OA
BRANCH   4   5
ATOM      5  C   UNL A   1      35.360  23.191  26.230  1.00  0.00     0.202 C 
BRANCH   5   6
ATOM      6  C   UNL A   1      34.079  23.219  25.384  1.00  0.00     0.261 C 
BRANCH   6   7
ATOM      7  O   UNL A   1      33.389  21.962  25.297  1.00  0.00    -0.463 OA
BRANCH   7   8
ATOM      8  C   UNL A   1      32.149  21.811  25.801  1.00  0.00     0.306 C 
ATOM      9  O   UNL A   1      31.398  20.933  25.382  1.00  0.00    -0.252 OA
BRANCH   8  10
ATOM     10  C   UNL A   1      31.639  22.896  26.708  1.00  0.00     0.132 C 
BRANCH  10  11
ATOM     11  C   UNL A   1      30.583  23.789  26.084  1.00  0.00     0.109 C 
BRANCH  11  12
ATOM     12  C   UNL A   1      30.845  25.253  25.930  1.00  0.00     0.196 A 
ATOM     13  N   UNL A   1      31.715  25.965  26.620  1.00  0.00    -0.213 NA
ATOM     14  O   UNL A   1      30.140  25.983  25.010  1.00  0.00    -0.440 OA
ATOM     15  C   UNL A   1      31.608  27.229  26.087  1.00  0.00     0.117 A 
ATOM     16  C   UNL A   1      30.687  27.237  25.061  1.00  0.00     0.162 A 
BRANCH  15  17
ATOM     17  C   UNL A   1      32.441  28.351  26.447  1.00  0.00     0.004 A 
ATOM     18  C   UNL A   1      33.826  28.192  26.601  1.00  0.00     0.010 A 
ATOM     19  C   UNL A   1      31.848  29.584  26.734  1.00  0.00     0.010 A 
ATOM     20  C   UNL A   1      34.605  29.248  27.069  1.00  0.00     0.001 A 
ATOM     21  C   UNL A   1      32.631  30.637  27.208  1.00  0.00     0.001 A 
ATOM     22  C   UNL A   1      34.005  30.467  27.380  1.00  0.00     0.000 A 
ENDBRANCH  15  17
BRANCH  16  23
ATOM     23  C   UNL A   1      30.360  28.192  24.011  1.00  0.00     0.020 A 
ATOM     24  C   UNL A   1      31.319  28.695  23.125  1.00  0.00     0.012 A 
ATOM     25  C   UNL A   1      29.011  28.526  23.805  1.00  0.00     0.012 A 
ATOM     26  C   UNL A   1      30.926  29.486  22.036  1.00  0.00     0.001 A 
ATOM     27  C   UNL A   1      28.621  29.320  22.724  1.00  0.00     0.001 A 
ATOM     28  C   UNL A   1      29.579  29.789  21.832  1.00  0.00     0.000 A 
ENDBRANCH  16  23
ENDBRANCH  11  12
ENDBRANCH  10  11
ENDBRANCH   8  10
ENDBRANCH   7   8
ENDBRANCH   6   7
ENDBRANCH   5   6
ENDBRANCH   4   5
ENDBRANCH   3   4
ENDBRANCH   2   3
ENDBRANCH   1   2
BRANCH   1  29
ATOM     29  C   UNL A   1      40.623  24.001  27.407  1.00  0.00     0.188 C 
BRANCH  29  30
ATOM     30  C   UNL A   1      41.497  24.667  26.317  1.00  0.00     0.188 C 
BRANCH  30  31
ATOM     31  O   UNL A   1      41.931  26.015  26.397  1.00  0.00    -0.376 OA
BRANCH  31  32
ATOM     32  C   UNL A   1      41.075  27.123  26.215  1.00  0.00     0.202 C 
BRANCH  32  33
ATOM     33  C   UNL A   1      39.977  27.505  27.219  1.00  0.00     0.261 C 
BRANCH  33  34
ATOM     34  O   UNL A   1      39.776  28.908  27.404  1.00  0.00    -0.460 OA
BRANCH  34  35
ATOM     35  C   UNL A   1      38.971  29.255  28.439  1.00  0.00     0.338 C 
ATOM     36  O   UNL A   1      37.902  28.745  28.734  1.00  0.00    -0.246 OA
BRANCH  35  37
ATOM     37  C   UNL A   1      39.703  30.191  29.323  1.00  0.00     0.060 A 
ATOM     38  C   UNL A   1      38.969  31.208  29.953  1.00  0.00     0.016 A 
ATOM     39  C   UNL A   1      41.070  30.047  29.576  1.00  0.00     0.016 A 
ATOM     40  C   UNL A   1      39.603  32.106  30.810  1.00  0.00     0.010 A 
ATOM     41  C   UNL A   1      41.711  30.967  30.408  1.00  0.00     0.010 A 
ATOM     42  C   UNL A   1      40.987  32.020  30.994  1.00  0.00    -0.014 A 
BRANCH  42  43
ATOM     43  C   UNL A   1      41.726  33.177  31.546  1.00  0.00     0.031 A 
ATOM     44  C   UNL A   1      41.810  33.285  33.042  1.00  0.00     0.074 A 
ATOM     45  C   UNL A   1      42.250  34.132  30.759  1.00  0.00     0.049 A 
ATOM     46  N   UNL A   1      42.277  34.255  33.780  1.00  0.00    -0.248 NA
ATOM     47  C   UNL A   1      41.277  32.145  33.809  1.00  0.00     0.031 C 
ATOM     48  C   UNL A   1      42.231  34.129  29.300  1.00  0.00     0.029 A 
ATOM     49  N   UNL A   1      42.863  35.314  31.092  1.00  0.00    -0.354 N 
ATOM     50  C   UNL A   1      42.047  33.867  35.094  1.00  0.00     0.074 A 
ATOM     51  C   UNL A   1      41.419  32.566  35.054  1.00  0.00     0.031 C 
ATOM     52  C   UNL A   1      42.773  35.279  28.859  1.00  0.00     0.029 A 
ATOM     53  C   UNL A   1      43.134  36.112  30.007  1.00  0.00     0.049 A 
ATOM     54  H   UNL A   1      43.086  35.566  32.018  1.00  0.00     0.167 HD
ATOM     55  C   UNL A   1      42.324  34.536  36.236  1.00  0.00     0.034 A 
ATOM     56  C   UNL A   1      43.576  37.385  29.952  1.00  0.00     0.034 A 
ATOM     57  C   UNL A   1      42.938  35.831  36.274  1.00  0.00     0.049 A 
ATOM     58  C   UNL A   1      43.870  38.121  31.237  1.00  0.00     0.074 A 
ATOM     59  C   UNL A   1      43.294  36.583  37.377  1.00  0.00     0.029 A 
ATOM     60  N   UNL A   1      43.266  36.579  35.152  1.00  0.00    -0.354 N 
ATOM     61  N   UNL A   1      43.756  37.701  32.474  1.00  0.00    -0.248 NA
ATOM     62  C   UNL A   1      44.368  39.500  31.118  1.00  0.00     0.031 C 
ATOM     63  C   UNL A   1      43.809  37.800  36.923  1.00  0.00     0.029 A 
ATOM     64  C   UNL A   1      43.806  37.792  35.536  1.00  0.00     0.049 A 
ATOM     65  H   UNL A   1      43.132  36.288  34.221  1.00  0.00     0.167 HD
ATOM     66  C   UNL A   1      44.191  38.749  33.279  1.00  0.00     0.074 A 
ATOM     67  C   UNL A   1      44.588  39.820  32.388  1.00  0.00     0.031 C 
ATOM     68  C   UNL A   1      44.246  38.824  34.632  1.00  0.00     0.034 A 
BRANCH  55  69
ATOM     69  C   UNL A   1      41.935  33.873  37.528  1.00  0.00     0.023 A 
ATOM     70  C   UNL A   1      42.845  33.016  38.180  1.00  0.00     0.012 A 
ATOM     71  C   UNL A   1      40.662  34.088  38.087  1.00  0.00     0.148 A 
ATOM     72  C   UNL A   1      42.476  32.350  39.347  1.00  0.00     0.002 A 
ATOM     73  C   UNL A   1      40.318  33.456  39.275  1.00  0.00     0.091 A 
ATOM     74  F   UNL A   1      39.797  34.876  37.432  1.00  0.00    -0.205 F 
ATOM     75  C   UNL A   1      41.218  32.576  39.899  1.00  0.00     0.022 A 
BRANCH  73  76
ATOM     76  S   UNL A   1      38.745  33.743  40.090  1.00  0.00     0.127 S 
ATOM     77  O   UNL A   1      38.954  33.083  41.377  1.00  0.00    -0.237 OA
ATOM     78  O   UNL A   1      38.691  35.205  40.156  1.00  0.00    -0.237 OA
ATOM     79  O   UNL A   1      37.737  33.142  39.227  1.00  0.00    -0.744 OA
ENDBRANCH  73  76
ENDBRANCH  55  69
BRANCH  56  80
ATOM     80  C   UNL A   1      43.769  38.041  28.628  1.00  0.00     0.023 A 
ATOM     81  C   UNL A   1      42.674  38.650  27.985  1.00  0.00     0.012 A 
ATOM     82  C   UNL A   1      45.041  38.107  28.028  1.00  0.00     0.148 A 
ATOM     83  C   UNL A   1      42.840  39.300  26.760  1.00  0.00     0.002 A 
ATOM     84  C   UNL A   1      45.211  38.804  26.839  1.00  0.00     0.091 A 
ATOM     85  F   UNL A   1      46.065  37.505  28.648  1.00  0.00    -0.205 F 
ATOM     86  C   UNL A   1      44.110  39.388  26.195  1.00  0.00     0.022 A 
BRANCH  84  87
ATOM     87  S   UNL A   1      46.827  39.090  26.107  1.00  0.00     0.127 S 
ATOM     88  O   UNL A   1      46.471  39.633  24.799  1.00  0.00    -0.237 OA
ATOM     89  O   UNL A   1      47.408  40.054  27.040  1.00  0.00    -0.237 OA
ATOM     90  O   UNL A   1      47.489  37.791  26.090  1.00  0.00    -0.744 OA
ENDBRANCH  84  87
ENDBRANCH  56  80
BRANCH  68  91
ATOM     91  C   UNL A   1      44.789  40.084  35.254  1.00  0.00     0.023 A 
ATOM     92  C   UNL A   1      43.930  41.172  35.501  1.00  0.00     0.012 A 
ATOM     93  C   UNL A   1      46.120  40.134  35.714  1.00  0.00     0.148 A 
ATOM     94  C   UNL A   1      44.392  42.298  36.182  1.00  0.00     0.002 A 
ATOM     95  C   UNL A   1      46.561  41.237  36.433  1.00  0.00     0.091 A 
ATOM     96  F   UNL A   1      46.925  39.093  35.454  1.00  0.00    -0.205 F 
ATOM     97  C   UNL A   1      45.701  42.324  36.660  1.00  0.00     0.022 A 
BRANCH  95  98
ATOM     98  S   UNL A   1      48.195  41.313  37.176  1.00  0.00     0.127 S 
ATOM     99  O   UNL A   1      48.263  40.032  37.876  1.00  0.00    -0.237 OA
ATOM    100  O   UNL A   1      49.066  41.417  36.006  1.00  0.00    -0.237 OA
ATOM    101  O   UNL A   1      48.192  42.492  38.033  1.00  0.00    -0.744 OA
ENDBRANCH  95  98
ENDBRANCH  68  91
ENDBRANCH  42  43
ENDBRANCH  35  37
ENDBRANCH  34  35
ENDBRANCH  33  34
ENDBRANCH  32  33
ENDBRANCH  31  32
ENDBRANCH  30  31
ENDBRANCH  29  30
ENDBRANCH   1  29
TORSDOF 27
ENDMDL
MODEL 3
REMARK VINA RESULT:      -8.4      1.626      1.963
REMARK SMILES O=C(CCc1nc(-c2ccccc2)c(-c2ccccc2)o1)OCCOCCOCCOCCOC(=O)c1ccc(-c2c3nc(c(-c4cccc(S(=O)(=O)[O-])c4F)c4ccc([nH]4)c(-c4cccc(S(=O)(=O)[O-])c4F)c4nc(c(-c5cccc(S(=O)(=O)[O-])c5F)c5ccc2[nH]5)C=C4)C=C3)cc1
REMARK SMILES IDX 28 1 27 2 26 3 25 4 24 5 23 6 22 7 2 8 1 9 3 10 4 11 5 12
REMARK SMILES IDX 6 13 21 14 7 15 14 16 8 17 9 18 13 19 10 20 12 21 11 22
REMARK SMILES IDX 15 23 16 24 20 25 17 26 19 27 18 28 29 29 30 30 31 31 32 32
REMARK SMILES IDX 33 33 34 34 35 35 36 36 37 37 38 38 99 39 39 40 98 41 40 42
REMARK SMILES IDX 41 43 42 44 92 45 43 46 97 47 91 48 93 49 44 50 96 51 90 52
REMARK SMILES IDX 89 53 45 55 77 56 57 57 76 58 58 59 61 60 75 61 94 62 59 63
REMARK SMILES IDX 60 64 74 66 95 67 62 68 46 69 47 70 55 71 48 72 50 73 56 74
REMARK SMILES IDX 49 75 51 76 52 77 53 78 54 79 78 80 79 81 87 82 80 83 82 84
REMARK SMILES IDX 88 85 81 86 83 87 84 88 85 89 86 90 63 91 64 92 72 93 65 94
REMARK SMILES IDX 67 95 73 96 66 97 68 98 69 99 70 100 71 101
REMARK H PARENT 93 54 61 65
REMARK Flexibility Score: inf
ROOT
ATOM      1  O   UNL A   1      31.769  32.632  27.211  1.00  0.00    -0.377 OA
ENDROOT
BRANCH   1   2
ATOM      2  C   UNL A   1      31.597  31.444  26.464  1.00  0.00     0.188 C 
BRANCH   2   3
ATOM      3  C   UNL A   1      32.909  30.685  26.245  1.00  0.00     0.188 C 
BRANCH   3   4
ATOM      4  O   UNL A   1      32.847  29.265  26.285  1.00  0.00    -0.376 OA
BRANCH   4   5
ATOM      5  C   UNL A   1      31.550  28.665  26.251  1.00  0.00     0.202 C 
BRANCH   5   6
ATOM      6  C   UNL A   1      31.058  28.106  24.909  1.00  0.00     0.261 C 
BRANCH   6   7
ATOM      7  O   UNL A   1      32.052  28.065  23.873  1.00  0.00    -0.463 OA
BRANCH   7   8
ATOM      8  C   UNL A   1      31.704  27.961  22.576  1.00  0.00     0.306 C 
ATOM      9  O   UNL A   1      30.523  27.957  22.236  1.00  0.00    -0.252 OA
BRANCH   8  10
ATOM     10  C   UNL A   1      32.791  27.608  21.600  1.00  0.00     0.132 C 
BRANCH  10  11
ATOM     11  C   UNL A   1      32.885  26.128  21.278  1.00  0.00     0.109 C 
BRANCH  11  12
ATOM     12  C   UNL A   1      33.306  25.162  22.339  1.00  0.00     0.196 A 
ATOM     13  N   UNL A   1      34.543  24.781  22.599  1.00  0.00    -0.213 NA
ATOM     14  O   UNL A   1      32.366  24.574  23.143  1.00  0.00    -0.440 OA
ATOM     15  C   UNL A   1      34.409  23.928  23.671  1.00  0.00     0.117 A 
ATOM     16  C   UNL A   1      33.086  23.841  24.048  1.00  0.00     0.162 A 
BRANCH  15  17
ATOM     17  C   UNL A   1      35.506  23.327  24.390  1.00  0.00     0.004 A 
ATOM     18  C   UNL A   1      36.154  24.027  25.418  1.00  0.00     0.010 A 
ATOM     19  C   UNL A   1      35.984  22.075  23.995  1.00  0.00     0.010 A 
ATOM     20  C   UNL A   1      37.290  23.491  26.023  1.00  0.00     0.001 A 
ATOM     21  C   UNL A   1      37.125  21.545  24.598  1.00  0.00     0.001 A 
ATOM     22  C   UNL A   1      37.778  22.255  25.606  1.00  0.00     0.000 A 
ENDBRANCH  15  17
BRANCH  16  23
ATOM     23  C   UNL A   1      32.409  23.311  25.224  1.00  0.00     0.020 A 
ATOM     24  C   UNL A   1      32.920  23.460  26.518  1.00  0.00     0.012 A 
ATOM     25  C   UNL A   1      31.136  22.737  25.064  1.00  0.00     0.012 A 
ATOM     26  C   UNL A   1      32.154  23.073  27.628  1.00  0.00     0.001 A 
ATOM     27  C   UNL A   1      30.377  22.346  26.168  1.00  0.00     0.001 A 
ATOM     28  C   UNL A   1      30.882  22.527  27.451  1.00  0.00     0.000 A 
ENDBRANCH  16  23
ENDBRANCH  11  12
ENDBRANCH  10  11
ENDBRANCH   8  10
ENDBRANCH   7   8
ENDBRANCH   6   7
ENDBRANCH   5   6
ENDBRANCH   4   5
ENDBRANCH   3   4
ENDBRANCH   2   3
ENDBRANCH   1   2
BRANCH   1  29
ATOM     29  C   UNL A   1      33.104  32.900  27.616  1.00  0.00     0.188 C 
BRANCH  29  30
ATOM     30  C   UNL A   1      33.383  34.179  28.443  1.00  0.00     0.188 C 
BRANCH  30  31
ATOM     31  O   UNL A   1      34.610  34.406  29.117  1.00  0.00    -0.376 OA
BRANCH  31  32
ATOM     32  C   UNL A   1      35.830  33.804  28.742  1.00  0.00     0.202 C 
BRANCH  32  33
ATOM     33  C   UNL A   1      36.288  32.438  29.275  1.00  0.00     0.261 C 
BRANCH  33  34
ATOM     34  O   UNL A   1      36.615  31.468  28.278  1.00  0.00    -0.460 OA
BRANCH  34  35
ATOM     35  C   UNL A   1      36.355  30.178  28.605  1.00  0.00     0.338 C 
ATOM     36  O   UNL A   1      35.260  29.639  28.631  1.00  0.00    -0.246 OA
BRANCH  35  37
ATOM     37  C   UNL A   1      37.635  29.437  28.687  1.00  0.00     0.060 A 
ATOM     38  C   UNL A   1      37.782  28.494  29.716  1.00  0.00     0.016 A 
ATOM     39  C   UNL A   1      38.651  29.617  27.745  1.00  0.00     0.016 A 
ATOM     40  C   UNL A   1      38.957  27.755  29.830  1.00  0.00     0.010 A 
ATOM     41  C   UNL A   1      39.842  28.901  27.879  1.00  0.00     0.010 A 
ATOM     42  C   UNL A   1      40.011  27.999  28.943  1.00  0.00    -0.014 A 
BRANCH  42  43
ATOM     43  C   UNL A   1      41.378  27.546  29.286  1.00  0.00     0.031 A 
ATOM     44  C   UNL A   1      42.043  28.203  30.462  1.00  0.00     0.074 A 
ATOM     45  C   UNL A   1      42.034  26.633  28.550  1.00  0.00     0.049 A 
ATOM     46  N   UNL A   1      43.270  28.092  30.893  1.00  0.00    -0.248 NA
ATOM     47  C   UNL A   1      41.207  29.127  31.250  1.00  0.00     0.031 C 
ATOM     48  C   UNL A   1      41.489  25.929  27.394  1.00  0.00     0.029 A 
ATOM     49  N   UNL A   1      43.326  26.179  28.650  1.00  0.00    -0.354 N 
ATOM     50  C   UNL A   1      43.369  28.968  31.966  1.00  0.00     0.074 A 
ATOM     51  C   UNL A   1      42.075  29.589  32.135  1.00  0.00     0.031 C 
ATOM     52  C   UNL A   1      42.454  25.157  26.863  1.00  0.00     0.029 A 
ATOM     53  C   UNL A   1      43.694  25.349  27.618  1.00  0.00     0.049 A 
ATOM     54  H   UNL A   1      43.930  26.424  29.388  1.00  0.00     0.167 HD
ATOM     55  C   UNL A   1      44.444  29.243  32.738  1.00  0.00     0.034 A 
ATOM     56  C   UNL A   1      44.902  24.845  27.296  1.00  0.00     0.034 A 
ATOM     57  C   UNL A   1      45.730  28.634  32.563  1.00  0.00     0.049 A 
ATOM     58  C   UNL A   1      46.094  25.171  28.163  1.00  0.00     0.074 A 
ATOM     59  C   UNL A   1      46.877  28.815  33.312  1.00  0.00     0.029 A 
ATOM     60  N   UNL A   1      46.046  27.741  31.550  1.00  0.00    -0.354 N 
ATOM     61  N   UNL A   1      46.150  25.911  29.244  1.00  0.00    -0.248 NA
ATOM     62  C   UNL A   1      47.384  24.579  27.777  1.00  0.00     0.031 C 
ATOM     63  C   UNL A   1      47.897  28.055  32.732  1.00  0.00     0.029 A 
ATOM     64  C   UNL A   1      47.375  27.373  31.642  1.00  0.00     0.049 A 
ATOM     65  H   UNL A   1      45.416  27.419  30.865  1.00  0.00     0.167 HD
ATOM     66  C   UNL A   1      47.470  25.854  29.682  1.00  0.00     0.074 A 
ATOM     67  C   UNL A   1      48.178  24.992  28.758  1.00  0.00     0.031 C 
ATOM     68  C   UNL A   1      48.047  26.470  30.745  1.00  0.00     0.034 A 
BRANCH  55  69
ATOM     69  C   UNL A   1      44.261  30.267  33.824  1.00  0.00     0.023 A 
ATOM     70  C   UNL A   1      43.846  29.862  35.109  1.00  0.00     0.012 A 
ATOM     71  C   UNL A   1      44.487  31.631  33.565  1.00  0.00     0.148 A 
ATOM     72  C   UNL A   1      43.617  30.806  36.108  1.00  0.00     0.002 A 
ATOM     73  C   UNL A   1      44.299  32.562  34.579  1.00  0.00     0.091 A 
ATOM     74  F   UNL A   1      44.843  32.000  32.326  1.00  0.00    -0.205 F 
ATOM     75  C   UNL A   1      43.852  32.154  35.846  1.00  0.00     0.022 A 
BRANCH  73  76
ATOM     76  S   UNL A   1      44.644  34.308  34.348  1.00  0.00     0.127 S 
ATOM     77  O   UNL A   1      44.101  34.543  33.012  1.00  0.00    -0.237 OA
ATOM     78  O   UNL A   1      43.879  34.923  35.435  1.00  0.00    -0.237 OA
ATOM     79  O   UNL A   1      46.089  34.446  34.477  1.00  0.00    -0.744 OA
ENDBRANCH  73  76
ENDBRANCH  55  69
BRANCH  56  80
ATOM     80  C   UNL A   1      45.041  23.977  26.093  1.00  0.00     0.023 A 
ATOM     81  C   UNL A   1      45.701  24.466  24.950  1.00  0.00     0.012 A 
ATOM     82  C   UNL A   1      44.565  22.651  26.096  1.00  0.00     0.148 A 
ATOM     83  C   UNL A   1      45.871  23.657  23.825  1.00  0.00     0.002 A 
ATOM     84  C   UNL A   1      44.787  21.833  24.995  1.00  0.00     0.091 A 
ATOM     85  F   UNL A   1      43.922  22.212  27.187  1.00  0.00    -0.205 F 
ATOM     86  C   UNL A   1      45.426  22.337  23.853  1.00  0.00     0.022 A 
BRANCH  84  87
ATOM     87  S   UNL A   1      44.376  20.084  24.992  1.00  0.00     0.127 S 
ATOM     88  O   UNL A   1      45.359  19.544  25.927  1.00  0.00    -0.237 OA
ATOM     89  O   UNL A   1      42.999  20.102  25.485  1.00  0.00    -0.237 OA
ATOM     90  O   UNL A   1      44.517  19.647  23.609  1.00  0.00    -0.744 OA
ENDBRANCH  84  87
ENDBRANCH  56  80
BRANCH  68  91
ATOM     91  C   UNL A   1      49.509  26.214  31.008  1.00  0.00     0.023 A 
ATOM     92  C   UNL A   1      49.900  25.097  31.770  1.00  0.00     0.012 A 
ATOM     93  C   UNL A   1      50.492  27.009  30.386  1.00  0.00     0.148 A 
ATOM     94  C   UNL A   1      51.251  24.784  31.922  1.00  0.00     0.002 A 
ATOM     95  C   UNL A   1      51.833  26.664  30.502  1.00  0.00     0.091 A 
ATOM     96  F   UNL A   1      50.097  28.077  29.678  1.00  0.00    -0.205 F 
ATOM     97  C   UNL A   1      52.214  25.556  31.277  1.00  0.00     0.022 A 
BRANCH  95  98
ATOM     98  S   UNL A   1      53.133  27.537  29.621  1.00  0.00     0.127 S 
ATOM     99  O   UNL A   1      52.572  28.883  29.521  1.00  0.00    -0.237 OA
ATOM    100  O   UNL A   1      54.266  27.414  30.538  1.00  0.00    -0.237 OA
ATOM    101  O   UNL A   1      53.301  26.837  28.355  1.00  0.00    -0.744 OA
ENDBRANCH  95  98
ENDBRANCH  68  91
ENDBRANCH  42  43
ENDBRANCH  35  37
ENDBRANCH  34  35
ENDBRANCH  33  34
ENDBRANCH  32  33
ENDBRANCH  31  32
ENDBRANCH  30  31
ENDBRANCH  29  30
ENDBRANCH   1  29
TORSDOF 27
ENDMDL
