MODEL 1
REMARK VINA RESULT:      -9.2      0.000      0.000
REMARK SMILES CCN1C(=O)c2ccccc2[S@@](=O)c2ccc(C(=O)OCCOCCOCCOCCOC(=O)c3ccc(-c4c5nc(c(-c6cccc(S(=O)(=O)[O-])c6F)c6ccc([nH]6)c(-c6cccc(S(=O)(=O)[O-])c6F)c6nc(c(-c7cccc(S(=O)(=O)[O-])c7F)c7ccc4[nH]7)C=C6)C=C5)cc3)cc21
REMARK SMILES IDX 27 1 26 2 25 3 24 4 23 5 22 6 21 7 20 8 18 9 19 10 17 11
REMARK SMILES IDX 3 12 4 13 99 14 5 15 6 16 14 17 98 18 7 19 11 20 12 21 15 22
REMARK SMILES IDX 8 23 10 24 13 25 16 26 9 27 2 28 1 29 28 30 29 31 30 32
REMARK SMILES IDX 31 33 32 34 33 35 34 36 35 37 36 38 97 39 37 40 96 41 38 42
REMARK SMILES IDX 39 43 40 44 90 45 41 46 95 47 89 48 91 49 42 50 94 51 88 52
REMARK SMILES IDX 87 53 43 55 75 56 55 57 74 58 56 59 59 60 73 61 92 62 57 63
REMARK SMILES IDX 58 64 72 66 93 67 60 68 44 69 45 70 53 71 46 72 48 73 54 74
REMARK SMILES IDX 47 75 49 76 50 77 51 78 52 79 76 80 77 81 85 82 78 83 80 84
REMARK SMILES IDX 86 85 79 86 81 87 82 88 83 89 84 90 61 91 62 92 70 93 63 94
REMARK SMILES IDX 65 95 71 96 64 97 66 98 67 99 68 100 69 101
REMARK H PARENT 91 54 59 65
REMARK Flexibility Score: inf
ROOT
ATOM      1  C   UNL A   1      42.703  22.900  28.241  1.00  0.00     0.188 C 
ENDROOT
BRANCH   1   2
ATOM      2  O   UNL A   1      42.761  22.069  27.084  1.00  0.00    -0.377 OA
BRANCH   2   3
ATOM      3  C   UNL A   1      41.663  22.052  26.193  1.00  0.00     0.188 C 
BRANCH   3   4
ATOM      4  C   UNL A   1      40.476  21.168  26.612  1.00  0.00     0.188 C 
BRANCH   4   5
ATOM      5  O   UNL A   1      39.206  21.804  26.489  1.00  0.00    -0.376 OA
BRANCH   5   6
ATOM      6  C   UNL A   1      39.212  23.228  26.502  1.00  0.00     0.202 C 
BRANCH   6   7
ATOM      7  C   UNL A   1      37.822  23.878  26.503  1.00  0.00     0.261 C 
BRANCH   7   8
ATOM      8  O   UNL A   1      36.901  23.322  25.549  1.00  0.00    -0.460 OA
BRANCH   8   9
ATOM      9  C   UNL A   1      35.602  23.274  25.906  1.00  0.00     0.338 C 
ATOM     10  O   UNL A   1      35.119  22.681  26.855  1.00  0.00    -0.246 OA
BRANCH   9  11
ATOM     11  C   UNL A   1      34.841  24.225  25.061  1.00  0.00     0.062 A 
ATOM     12  N   UNL A   1      33.336  27.662  25.366  1.00  0.00    -0.307 N 
ATOM     13  C   UNL A   1      32.955  28.820  24.684  1.00  0.00     0.259 C 
ATOM     14  C   UNL A   1      33.699  26.404  24.753  1.00  0.00     0.061 A 
ATOM     15  O   UNL A   1      33.351  29.946  24.983  1.00  0.00    -0.269 OA
ATOM     16  C   UNL A   1      31.734  28.733  23.871  1.00  0.00     0.056 A 
ATOM     17  C   UNL A   1      33.562  26.079  23.383  1.00  0.00     0.068 A 
ATOM     18  C   UNL A   1      34.337  25.431  25.568  1.00  0.00     0.043 A 
ATOM     19  C   UNL A   1      30.653  29.541  24.265  1.00  0.00     0.015 A 
ATOM     20  C   UNL A   1      31.638  27.922  22.753  1.00  0.00     0.057 A 
ATOM     21  S   UNL A   1      33.059  27.148  22.022  1.00  0.00     0.088 S 
ATOM     22  C   UNL A   1      33.985  24.808  22.912  1.00  0.00     0.021 A 
ATOM     23  C   UNL A   1      29.459  29.517  23.551  1.00  0.00     0.001 A 
ATOM     24  C   UNL A   1      30.422  27.888  22.050  1.00  0.00     0.019 A 
ATOM     25  O   UNL A   1      34.118  28.205  21.947  1.00  0.00    -0.249 OA
ATOM     26  C   UNL A   1      34.633  23.896  23.733  1.00  0.00     0.017 A 
ATOM     27  C   UNL A   1      29.337  28.677  22.449  1.00  0.00     0.001 A 
BRANCH  12  28
ATOM     28  C   UNL A   1      33.361  27.824  26.829  1.00  0.00     0.122 C 
ATOM     29  C   UNL A   1      31.948  27.846  27.411  1.00  0.00     0.028 C 
ENDBRANCH  12  28
ENDBRANCH   9  11
ENDBRANCH   8   9
ENDBRANCH   7   8
ENDBRANCH   6   7
ENDBRANCH   5   6
ENDBRANCH   4   5
ENDBRANCH   3   4
ENDBRANCH   2   3
ENDBRANCH   1   2
BRANCH   1  30
ATOM     30  C   UNL A   1      43.966  23.354  29.005  1.00  0.00     0.188 C 
BRANCH  30  31
ATOM     31  O   UNL A   1      45.196  23.072  28.343  1.00  0.00    -0.376 OA
BRANCH  31  32
ATOM     32  C   UNL A   1      45.784  24.156  27.633  1.00  0.00     0.202 C 
BRANCH  32  33
ATOM     33  C   UNL A   1      46.624  23.695  26.437  1.00  0.00     0.261 C 
BRANCH  33  34
ATOM     34  O   UNL A   1      47.658  24.610  26.051  1.00  0.00    -0.460 OA
BRANCH  34  35
ATOM     35  C   UNL A   1      48.444  25.095  27.040  1.00  0.00     0.338 C 
ATOM     36  O   UNL A   1      49.325  24.499  27.634  1.00  0.00    -0.246 OA
BRANCH  35  37
ATOM     37  C   UNL A   1      48.187  26.546  27.142  1.00  0.00     0.060 A 
ATOM     38  C   UNL A   1      47.628  27.245  26.068  1.00  0.00     0.016 A 
ATOM     39  C   UNL A   1      48.538  27.214  28.322  1.00  0.00     0.016 A 
ATOM     40  C   UNL A   1      47.377  28.610  26.192  1.00  0.00     0.010 A 
ATOM     41  C   UNL A   1      48.294  28.584  28.441  1.00  0.00     0.010 A 
ATOM     42  C   UNL A   1      47.681  29.281  27.390  1.00  0.00    -0.014 A 
BRANCH  42  43
ATOM     43  C   UNL A   1      47.127  30.635  27.621  1.00  0.00     0.031 A 
ATOM     44  C   UNL A   1      47.845  31.883  27.219  1.00  0.00     0.074 A 
ATOM     45  C   UNL A   1      45.933  30.706  28.242  1.00  0.00     0.049 A 
ATOM     46  N   UNL A   1      47.408  33.115  27.256  1.00  0.00    -0.248 NA
ATOM     47  C   UNL A   1      49.221  31.744  26.723  1.00  0.00     0.031 C 
ATOM     48  C   UNL A   1      45.178  29.551  28.735  1.00  0.00     0.029 A 
ATOM     49  N   UNL A   1      45.150  31.782  28.564  1.00  0.00    -0.354 N 
ATOM     50  C   UNL A   1      48.452  33.905  26.798  1.00  0.00     0.074 A 
ATOM     51  C   UNL A   1      49.554  33.011  26.499  1.00  0.00     0.031 C 
ATOM     52  C   UNL A   1      44.033  29.979  29.283  1.00  0.00     0.029 A 
ATOM     53  C   UNL A   1      43.973  31.434  29.182  1.00  0.00     0.049 A 
ATOM     54  H   UNL A   1      45.404  32.714  28.372  1.00  0.00     0.167 HD
ATOM     55  C   UNL A   1      48.474  35.248  26.627  1.00  0.00     0.034 A 
ATOM     56  C   UNL A   1      42.944  32.194  29.601  1.00  0.00     0.034 A 
ATOM     57  C   UNL A   1      47.365  36.122  26.908  1.00  0.00     0.049 A 
ATOM     58  C   UNL A   1      42.982  33.673  29.367  1.00  0.00     0.074 A 
ATOM     59  C   UNL A   1      47.264  37.482  26.669  1.00  0.00     0.029 A 
ATOM     60  N   UNL A   1      46.176  35.733  27.505  1.00  0.00    -0.354 N 
ATOM     61  N   UNL A   1      43.907  34.382  28.769  1.00  0.00    -0.248 NA
ATOM     62  C   UNL A   1      41.827  34.453  29.831  1.00  0.00     0.031 C 
ATOM     63  C   UNL A   1      46.019  37.918  27.136  1.00  0.00     0.029 A 
ATOM     64  C   UNL A   1      45.343  36.828  27.657  1.00  0.00     0.049 A 
ATOM     65  H   UNL A   1      45.957  34.814  27.781  1.00  0.00     0.167 HD
ATOM     66  C   UNL A   1      43.439  35.689  28.761  1.00  0.00     0.074 A 
ATOM     67  C   UNL A   1      42.142  35.673  29.409  1.00  0.00     0.031 C 
ATOM     68  C   UNL A   1      44.038  36.799  28.268  1.00  0.00     0.034 A 
BRANCH  55  69
ATOM     69  C   UNL A   1      49.710  35.873  26.041  1.00  0.00     0.023 A 
ATOM     70  C   UNL A   1      49.934  35.769  24.654  1.00  0.00     0.012 A 
ATOM     71  C   UNL A   1      50.567  36.669  26.826  1.00  0.00     0.148 A 
ATOM     72  C   UNL A   1      50.996  36.445  24.055  1.00  0.00     0.002 A 
ATOM     73  C   UNL A   1      51.609  37.361  26.218  1.00  0.00     0.091 A 
ATOM     74  F   UNL A   1      50.339  36.744  28.145  1.00  0.00    -0.205 F 
ATOM     75  C   UNL A   1      51.824  37.249  24.834  1.00  0.00     0.022 A 
BRANCH  73  76
ATOM     76  S   UNL A   1      52.700  38.468  27.121  1.00  0.00     0.127 S 
ATOM     77  O   UNL A   1      53.527  39.008  26.042  1.00  0.00    -0.237 OA
ATOM     78  O   UNL A   1      51.757  39.422  27.704  1.00  0.00    -0.237 OA
ATOM     79  O   UNL A   1      53.404  37.638  28.088  1.00  0.00    -0.744 OA
ENDBRANCH  73  76
ENDBRANCH  55  69
BRANCH  56  80
ATOM     80  C   UNL A   1      41.751  31.521  30.176  1.00  0.00     0.023 A 
ATOM     81  C   UNL A   1      40.861  30.860  29.310  1.00  0.00     0.012 A 
ATOM     82  C   UNL A   1      41.566  31.427  31.568  1.00  0.00     0.148 A 
ATOM     83  C   UNL A   1      39.802  30.113  29.821  1.00  0.00     0.002 A 
ATOM     84  C   UNL A   1      40.531  30.650  32.072  1.00  0.00     0.091 A 
ATOM     85  F   UNL A   1      42.437  32.061  32.367  1.00  0.00    -0.205 F 
ATOM     86  C   UNL A   1      39.643  29.998  31.201  1.00  0.00     0.022 A 
BRANCH  84  87
ATOM     87  S   UNL A   1      40.309  30.349  33.829  1.00  0.00     0.127 S 
ATOM     88  O   UNL A   1      41.600  29.773  34.198  1.00  0.00    -0.237 OA
ATOM     89  O   UNL A   1      40.070  31.700  34.334  1.00  0.00    -0.237 OA
ATOM     90  O   UNL A   1      39.169  29.448  33.937  1.00  0.00    -0.744 OA
ENDBRANCH  84  87
ENDBRANCH  56  80
BRANCH  68  91
ATOM     91  C   UNL A   1      43.313  38.109  28.396  1.00  0.00     0.023 A 
ATOM     92  C   UNL A   1      42.313  38.435  27.461  1.00  0.00     0.012 A 
ATOM     93  C   UNL A   1      43.531  38.947  29.506  1.00  0.00     0.148 A 
ATOM     94  C   UNL A   1      41.537  39.582  27.628  1.00  0.00     0.002 A 
ATOM     95  C   UNL A   1      42.734  40.072  29.684  1.00  0.00     0.091 A 
ATOM     96  F   UNL A   1      44.497  38.616  30.375  1.00  0.00    -0.205 F 
ATOM     97  C   UNL A   1      41.740  40.392  28.744  1.00  0.00     0.022 A 
BRANCH  95  98
ATOM     98  S   UNL A   1      42.865  41.138  31.123  1.00  0.00     0.127 S 
ATOM     99  O   UNL A   1      42.665  40.189  32.217  1.00  0.00    -0.237 OA
ATOM    100  O   UNL A   1      44.230  41.650  31.001  1.00  0.00    -0.237 OA
ATOM    101  O   UNL A   1      41.821  42.144  30.979  1.00  0.00    -0.744 OA
ENDBRANCH  95  98
ENDBRANCH  68  91
ENDBRANCH  42  43
ENDBRANCH  35  37
ENDBRANCH  34  35
ENDBRANCH  33  34
ENDBRANCH  32  33
ENDBRANCH  31  32
ENDBRANCH  30  31
ENDBRANCH   1  30
TORSDOF 24
ENDMDL
MODEL 2
REMARK VINA RESULT:      -9.2      4.825     10.695
REMARK SMILES CCN1C(=O)c2ccccc2[S@@](=O)c2ccc(C(=O)OCCOCCOCCOCCOC(=O)c3ccc(-c4c5nc(c(-c6cccc(S(=O)(=O)[O-])c6F)c6ccc([nH]6)c(-c6cccc(S(=O)(=O)[O-])c6F)c6nc(c(-c7cccc(S(=O)(=O)[O-])c7F)c7ccc4[nH]7)C=C6)C=C5)cc3)cc21
REMARK SMILES IDX 27 1 26 2 25 3 24 4 23 5 22 6 21 7 20 8 18 9 19 10 17 11
REMARK SMILES IDX 3 12 4 13 99 14 5 15 6 16 14 17 98 18 7 19 11 20 12 21 15 22
REMARK SMILES IDX 8 23 10 24 13 25 16 26 9 27 2 28 1 29 28 30 29 31 30 32
REMARK SMILES IDX 31 33 32 34 33 35 34 36 35 37 36 38 97 39 37 40 96 41 38 42
REMARK SMILES IDX 39 43 40 44 90 45 41 46 95 47 89 48 91 49 42 50 94 51 88 52
REMARK SMILES IDX 87 53 43 55 75 56 55 57 74 58 56 59 59 60 73 61 92 62 57 63
REMARK SMILES IDX 58 64 72 66 93 67 60 68 44 69 45 70 53 71 46 72 48 73 54 74
REMARK SMILES IDX 47 75 49 76 50 77 51 78 52 79 76 80 77 81 85 82 78 83 80 84
REMARK SMILES IDX 86 85 79 86 81 87 82 88 83 89 84 90 61 91 62 92 70 93 63 94
REMARK SMILES IDX 65 95 71 96 64 97 66 98 67 99 68 100 69 101
REMARK H PARENT 91 54 59 65
REMARK Flexibility Score: inf
ROOT
ATOM      1  C   UNL A   1      34.537  34.306  28.305  1.00  0.00     0.188 C 
ENDROOT
BRANCH   1   2
ATOM      2  O   UNL A   1      35.279  33.244  28.900  1.00  0.00    -0.377 OA
BRANCH   2   3
ATOM      3  C   UNL A   1      34.671  31.973  29.036  1.00  0.00     0.188 C 
BRANCH   3   4
ATOM      4  C   UNL A   1      35.183  30.881  28.083  1.00  0.00     0.188 C 
BRANCH   4   5
ATOM      5  O   UNL A   1      34.338  30.647  26.959  1.00  0.00    -0.376 OA
BRANCH   5   6
ATOM      6  C   UNL A   1      32.971  30.374  27.246  1.00  0.00     0.202 C 
BRANCH   6   7
ATOM      7  C   UNL A   1      32.070  30.231  26.013  1.00  0.00     0.261 C 
BRANCH   7   8
ATOM      8  O   UNL A   1      31.299  29.017  25.973  1.00  0.00    -0.460 OA
BRANCH   8   9
ATOM      9  C   UNL A   1      31.673  28.026  26.805  1.00  0.00     0.338 C 
ATOM     10  O   UNL A   1      31.335  27.870  27.966  1.00  0.00    -0.246 OA
BRANCH   9  11
ATOM     11  C   UNL A   1      32.434  27.016  26.032  1.00  0.00     0.062 A 
ATOM     12  N   UNL A   1      32.754  23.270  25.861  1.00  0.00    -0.307 N 
ATOM     13  C   UNL A   1      33.062  22.173  25.054  1.00  0.00     0.259 C 
ATOM     14  C   UNL A   1      33.002  24.655  25.532  1.00  0.00     0.061 A 
ATOM     15  O   UNL A   1      32.305  21.218  24.885  1.00  0.00    -0.269 OA
ATOM     16  C   UNL A   1      34.483  21.963  24.743  1.00  0.00     0.056 A 
ATOM     17  C   UNL A   1      33.751  25.124  24.428  1.00  0.00     0.068 A 
ATOM     18  C   UNL A   1      32.366  25.647  26.326  1.00  0.00     0.043 A 
ATOM     19  C   UNL A   1      35.070  20.784  25.234  1.00  0.00     0.015 A 
ATOM     20  C   UNL A   1      35.221  22.857  23.986  1.00  0.00     0.057 A 
ATOM     21  S   UNL A   1      34.461  24.174  23.070  1.00  0.00     0.088 S 
ATOM     22  C   UNL A   1      33.894  26.520  24.211  1.00  0.00     0.021 A 
ATOM     23  C   UNL A   1      36.412  20.509  24.987  1.00  0.00     0.001 A 
ATOM     24  C   UNL A   1      36.581  22.583  23.759  1.00  0.00     0.019 A 
ATOM     25  O   UNL A   1      33.286  23.568  22.365  1.00  0.00    -0.249 OA
ATOM     26  C   UNL A   1      33.231  27.459  24.990  1.00  0.00     0.017 A 
ATOM     27  C   UNL A   1      37.174  21.419  24.261  1.00  0.00     0.001 A 
BRANCH  12  28
ATOM     28  C   UNL A   1      32.108  22.899  27.131  1.00  0.00     0.122 C 
ATOM     29  C   UNL A   1      33.118  22.322  28.123  1.00  0.00     0.028 C 
ENDBRANCH  12  28
ENDBRANCH   9  11
ENDBRANCH   8   9
ENDBRANCH   7   8
ENDBRANCH   6   7
ENDBRANCH   5   6
ENDBRANCH   4   5
ENDBRANCH   3   4
ENDBRANCH   2   3
ENDBRANCH   1   2
BRANCH   1  30
ATOM     30  C   UNL A   1      33.253  34.883  28.942  1.00  0.00     0.188 C 
BRANCH  30  31
ATOM     31  O   UNL A   1      33.472  35.933  29.880  1.00  0.00    -0.376 OA
BRANCH  31  32
ATOM     32  C   UNL A   1      32.438  36.140  30.836  1.00  0.00     0.202 C 
BRANCH  32  33
ATOM     33  C   UNL A   1      32.889  35.839  32.269  1.00  0.00     0.261 C 
BRANCH  33  34
ATOM     34  O   UNL A   1      34.192  35.248  32.369  1.00  0.00    -0.460 OA
BRANCH  34  35
ATOM     35  C   UNL A   1      34.247  33.949  32.744  1.00  0.00     0.338 C 
ATOM     36  O   UNL A   1      33.322  33.260  33.136  1.00  0.00    -0.246 OA
BRANCH  35  37
ATOM     37  C   UNL A   1      35.594  33.446  32.406  1.00  0.00     0.060 A 
ATOM     38  C   UNL A   1      36.483  34.236  31.672  1.00  0.00     0.016 A 
ATOM     39  C   UNL A   1      35.954  32.153  32.808  1.00  0.00     0.016 A 
ATOM     40  C   UNL A   1      37.756  33.748  31.379  1.00  0.00     0.010 A 
ATOM     41  C   UNL A   1      37.225  31.662  32.505  1.00  0.00     0.010 A 
ATOM     42  C   UNL A   1      38.144  32.470  31.820  1.00  0.00    -0.014 A 
BRANCH  42  43
ATOM     43  C   UNL A   1      39.576  32.096  31.781  1.00  0.00     0.031 A 
ATOM     44  C   UNL A   1      40.140  31.152  30.767  1.00  0.00     0.074 A 
ATOM     45  C   UNL A   1      40.371  32.632  32.727  1.00  0.00     0.049 A 
ATOM     46  N   UNL A   1      41.393  30.846  30.556  1.00  0.00    -0.248 NA
ATOM     47  C   UNL A   1      39.190  30.457  29.887  1.00  0.00     0.031 C 
ATOM     48  C   UNL A   1      39.911  33.514  33.803  1.00  0.00     0.029 A 
ATOM     49  N   UNL A   1      41.719  32.519  32.939  1.00  0.00    -0.354 N 
ATOM     50  C   UNL A   1      41.391  29.917  29.526  1.00  0.00     0.074 A 
ATOM     51  C   UNL A   1      40.005  29.699  29.161  1.00  0.00     0.031 C 
ATOM     52  C   UNL A   1      40.961  33.874  34.553  1.00  0.00     0.029 A 
ATOM     53  C   UNL A   1      42.165  33.250  34.014  1.00  0.00     0.049 A 
ATOM     54  H   UNL A   1      42.311  31.967  32.379  1.00  0.00     0.167 HD
ATOM     55  C   UNL A   1      42.453  29.322  28.932  1.00  0.00     0.034 A 
ATOM     56  C   UNL A   1      43.408  33.424  34.501  1.00  0.00     0.034 A 
ATOM     57  C   UNL A   1      43.827  29.565  29.290  1.00  0.00     0.049 A 
ATOM     58  C   UNL A   1      44.566  32.781  33.803  1.00  0.00     0.074 A 
ATOM     59  C   UNL A   1      44.970  29.082  28.676  1.00  0.00     0.029 A 
ATOM     60  N   UNL A   1      44.245  30.335  30.364  1.00  0.00    -0.354 N 
ATOM     61  N   UNL A   1      44.560  32.045  32.719  1.00  0.00    -0.248 NA
ATOM     62  C   UNL A   1      45.902  33.015  34.369  1.00  0.00     0.031 C 
ATOM     63  C   UNL A   1      46.080  29.550  29.388  1.00  0.00     0.029 A 
ATOM     64  C   UNL A   1      45.628  30.329  30.440  1.00  0.00     0.049 A 
ATOM     65  H   UNL A   1      43.647  30.814  30.982  1.00  0.00     0.167 HD
ATOM     66  C   UNL A   1      45.890  31.747  32.456  1.00  0.00     0.074 A 
ATOM     67  C   UNL A   1      46.677  32.387  33.491  1.00  0.00     0.031 C 
ATOM     68  C   UNL A   1      46.406  31.001  31.450  1.00  0.00     0.034 A 
BRANCH  55  69
ATOM     69  C   UNL A   1      42.198  28.396  27.775  1.00  0.00     0.023 A 
ATOM     70  C   UNL A   1      42.243  28.913  26.466  1.00  0.00     0.012 A 
ATOM     71  C   UNL A   1      42.054  27.008  27.970  1.00  0.00     0.148 A 
ATOM     72  C   UNL A   1      42.143  28.065  25.364  1.00  0.00     0.002 A 
ATOM     73  C   UNL A   1      41.980  26.165  26.867  1.00  0.00     0.091 A 
ATOM     74  F   UNL A   1      42.004  26.541  29.226  1.00  0.00    -0.205 F 
ATOM     75  C   UNL A   1      42.023  26.692  25.565  1.00  0.00     0.022 A 
BRANCH  73  76
ATOM     76  S   UNL A   1      41.882  24.376  27.014  1.00  0.00     0.127 S 
ATOM     77  O   UNL A   1      42.116  24.187  28.446  1.00  0.00    -0.237 OA
ATOM     78  O   UNL A   1      40.512  24.106  26.579  1.00  0.00    -0.237 OA
ATOM     79  O   UNL A   1      42.916  23.843  26.139  1.00  0.00    -0.744 OA
ENDBRANCH  73  76
ENDBRANCH  55  69
BRANCH  56  80
ATOM     80  C   UNL A   1      43.598  34.348  35.649  1.00  0.00     0.023 A 
ATOM     81  C   UNL A   1      43.614  33.818  36.953  1.00  0.00     0.012 A 
ATOM     82  C   UNL A   1      43.888  35.710  35.449  1.00  0.00     0.148 A 
ATOM     83  C   UNL A   1      43.914  34.631  38.042  1.00  0.00     0.002 A 
ATOM     84  C   UNL A   1      44.224  36.508  36.535  1.00  0.00     0.091 A 
ATOM     85  F   UNL A   1      43.875  36.183  34.194  1.00  0.00    -0.205 F 
ATOM     86  C   UNL A   1      44.230  35.972  37.834  1.00  0.00     0.022 A 
BRANCH  84  87
ATOM     87  S   UNL A   1      44.754  38.215  36.361  1.00  0.00     0.127 S 
ATOM     88  O   UNL A   1      44.511  38.740  37.703  1.00  0.00    -0.237 OA
ATOM     89  O   UNL A   1      46.164  38.053  36.008  1.00  0.00    -0.237 OA
ATOM     90  O   UNL A   1      43.924  38.784  35.308  1.00  0.00    -0.744 OA
ENDBRANCH  84  87
ENDBRANCH  56  80
BRANCH  68  91
ATOM     91  C   UNL A   1      47.897  30.822  31.396  1.00  0.00     0.023 A 
ATOM     92  C   UNL A   1      48.473  29.677  31.980  1.00  0.00     0.012 A 
ATOM     93  C   UNL A   1      48.704  31.711  30.660  1.00  0.00     0.148 A 
ATOM     94  C   UNL A   1      49.835  29.421  31.834  1.00  0.00     0.002 A 
ATOM     95  C   UNL A   1      50.055  31.433  30.492  1.00  0.00     0.091 A 
ATOM     96  F   UNL A   1      48.129  32.797  30.123  1.00  0.00    -0.205 F 
ATOM     97  C   UNL A   1      50.623  30.290  31.082  1.00  0.00     0.022 A 
BRANCH  95  98
ATOM     98  S   UNL A   1      51.138  32.449  29.483  1.00  0.00     0.127 S 
ATOM     99  O   UNL A   1      50.611  32.206  28.141  1.00  0.00    -0.237 OA
ATOM    100  O   UNL A   1      50.877  33.790  30.007  1.00  0.00    -0.237 OA
ATOM    101  O   UNL A   1      52.489  31.956  29.714  1.00  0.00    -0.744 OA
ENDBRANCH  95  98
ENDBRANCH  68  91
ENDBRANCH  42  43
ENDBRANCH  35  37
ENDBRANCH  34  35
ENDBRANCH  33  34
ENDBRANCH  32  33
ENDBRANCH  31  32
ENDBRANCH  30  31
ENDBRANCH   1  30
TORSDOF 24
ENDMDL
MODEL 3
REMARK VINA RESULT:      -8.7      6.195     10.398
REMARK SMILES CCN1C(=O)c2ccccc2[S@@](=O)c2ccc(C(=O)OCCOCCOCCOCCOC(=O)c3ccc(-c4c5nc(c(-c6cccc(S(=O)(=O)[O-])c6F)c6ccc([nH]6)c(-c6cccc(S(=O)(=O)[O-])c6F)c6nc(c(-c7cccc(S(=O)(=O)[O-])c7F)c7ccc4[nH]7)C=C6)C=C5)cc3)cc21
REMARK SMILES IDX 27 1 26 2 25 3 24 4 23 5 22 6 21 7 20 8 18 9 19 10 17 11
REMARK SMILES IDX 3 12 4 13 99 14 5 15 6 16 14 17 98 18 7 19 11 20 12 21 15 22
REMARK SMILES IDX 8 23 10 24 13 25 16 26 9 27 2 28 1 29 28 30 29 31 30 32
REMARK SMILES IDX 31 33 32 34 33 35 34 36 35 37 36 38 97 39 37 40 96 41 38 42
REMARK SMILES IDX 39 43 40 44 90 45 41 46 95 47 89 48 91 49 42 50 94 51 88 52
REMARK SMILES IDX 87 53 43 55 75 56 55 57 74 58 56 59 59 60 73 61 92 62 57 63
REMARK SMILES IDX 58 64 72 66 93 67 60 68 44 69 45 70 53 71 46 72 48 73 54 74
REMARK SMILES IDX 47 75 49 76 50 77 51 78 52 79 76 80 77 81 85 82 78 83 80 84
REMARK SMILES IDX 86 85 79 86 81 87 82 88 83 89 84 90 61 91 62 92 70 93 63 94
REMARK SMILES IDX 65 95 71 96 64 97 66 98 67 99 68 100 69 101
REMARK H PARENT 91 54 59 65
REMARK Flexibility Score: inf
ROOT
ATOM      1  C   UNL A   1      46.907  25.240  35.114  1.00  0.00     0.188 C 
ENDROOT
BRANCH   1   2
ATOM      2  O   UNL A   1      46.748  26.065  33.962  1.00  0.00    -0.377 OA
BRANCH   2   3
ATOM      3  C   UNL A   1      45.853  25.659  32.943  1.00  0.00     0.188 C 
BRANCH   3   4
ATOM      4  C   UNL A   1      46.073  26.303  31.564  1.00  0.00     0.188 C 
BRANCH   4   5
ATOM      5  O   UNL A   1      45.071  27.247  31.197  1.00  0.00    -0.376 OA
BRANCH   5   6
ATOM      6  C   UNL A   1      44.102  26.802  30.255  1.00  0.00     0.202 C 
BRANCH   6   7
ATOM      7  C   UNL A   1      43.845  27.765  29.089  1.00  0.00     0.261 C 
BRANCH   7   8
ATOM      8  O   UNL A   1      42.491  28.240  28.994  1.00  0.00    -0.460 OA
BRANCH   8   9
ATOM      9  C   UNL A   1      42.301  29.572  29.073  1.00  0.00     0.338 C 
ATOM     10  O   UNL A   1      42.772  30.429  28.346  1.00  0.00    -0.246 OA
BRANCH   9  11
ATOM     11  C   UNL A   1      41.258  29.845  30.090  1.00  0.00     0.062 A 
ATOM     12  N   UNL A   1      38.096  31.863  30.394  1.00  0.00    -0.307 N 
ATOM     13  C   UNL A   1      36.855  31.977  31.025  1.00  0.00     0.259 C 
ATOM     14  C   UNL A   1      39.163  30.971  30.788  1.00  0.00     0.061 A 
ATOM     15  O   UNL A   1      35.789  32.066  30.417  1.00  0.00    -0.269 OA
ATOM     16  C   UNL A   1      36.867  32.425  32.425  1.00  0.00     0.056 A 
ATOM     17  C   UNL A   1      39.203  30.198  31.971  1.00  0.00     0.068 A 
ATOM     18  C   UNL A   1      40.231  30.773  29.872  1.00  0.00     0.043 A 
ATOM     19  C   UNL A   1      36.251  33.659  32.698  1.00  0.00     0.015 A 
ATOM     20  C   UNL A   1      37.430  31.676  33.444  1.00  0.00     0.057 A 
ATOM     21  S   UNL A   1      37.915  29.984  33.215  1.00  0.00     0.088 S 
ATOM     22  C   UNL A   1      40.308  29.341  32.220  1.00  0.00     0.021 A 
ATOM     23  C   UNL A   1      36.220  34.158  33.998  1.00  0.00     0.001 A 
ATOM     24  C   UNL A   1      37.414  32.196  34.749  1.00  0.00     0.019 A 
ATOM     25  O   UNL A   1      36.784  29.319  32.492  1.00  0.00    -0.249 OA
ATOM     26  C   UNL A   1      41.317  29.150  31.286  1.00  0.00     0.017 A 
ATOM     27  C   UNL A   1      36.816  33.432  35.023  1.00  0.00     0.001 A 
BRANCH  12  28
ATOM     28  C   UNL A   1      38.243  32.749  29.228  1.00  0.00     0.122 C 
ATOM     29  C   UNL A   1      38.564  34.182  29.652  1.00  0.00     0.028 C 
ENDBRANCH  12  28
ENDBRANCH   9  11
ENDBRANCH   8   9
ENDBRANCH   7   8
ENDBRANCH   6   7
ENDBRANCH   5   6
ENDBRANCH   4   5
ENDBRANCH   3   4
ENDBRANCH   2   3
ENDBRANCH   1   2
BRANCH   1  30
ATOM     30  C   UNL A   1      45.776  25.022  36.143  1.00  0.00     0.188 C 
BRANCH  30  31
ATOM     31  O   UNL A   1      44.885  23.953  35.833  1.00  0.00    -0.376 OA
BRANCH  31  32
ATOM     32  C   UNL A   1      43.504  24.291  35.774  1.00  0.00     0.202 C 
BRANCH  32  33
ATOM     33  C   UNL A   1      43.180  25.587  36.524  1.00  0.00     0.261 C 
BRANCH  33  34
ATOM     34  O   UNL A   1      42.586  26.609  35.711  1.00  0.00    -0.460 OA
BRANCH  34  35
ATOM     35  C   UNL A   1      41.632  27.373  36.292  1.00  0.00     0.338 C 
ATOM     36  O   UNL A   1      40.852  27.034  37.165  1.00  0.00    -0.246 OA
BRANCH  35  37
ATOM     37  C   UNL A   1      41.827  28.760  35.823  1.00  0.00     0.060 A 
ATOM     38  C   UNL A   1      40.747  29.646  35.759  1.00  0.00     0.016 A 
ATOM     39  C   UNL A   1      43.105  29.164  35.417  1.00  0.00     0.016 A 
ATOM     40  C   UNL A   1      40.956  30.956  35.330  1.00  0.00     0.010 A 
ATOM     41  C   UNL A   1      43.311  30.473  34.979  1.00  0.00     0.010 A 
ATOM     42  C   UNL A   1      42.245  31.385  34.966  1.00  0.00    -0.014 A 
BRANCH  42  43
ATOM     43  C   UNL A   1      42.510  32.834  34.821  1.00  0.00     0.031 A 
ATOM     44  C   UNL A   1      42.669  33.750  35.993  1.00  0.00     0.074 A 
ATOM     45  C   UNL A   1      42.583  33.317  33.566  1.00  0.00     0.049 A 
ATOM     46  N   UNL A   1      43.024  35.008  35.994  1.00  0.00    -0.248 NA
ATOM     47  C   UNL A   1      42.388  33.199  37.326  1.00  0.00     0.031 C 
ATOM     48  C   UNL A   1      42.378  32.522  32.352  1.00  0.00     0.029 A 
ATOM     49  N   UNL A   1      42.846  34.578  33.101  1.00  0.00    -0.354 N 
ATOM     50  C   UNL A   1      43.005  35.410  37.321  1.00  0.00     0.074 A 
ATOM     51  C   UNL A   1      42.589  34.260  38.101  1.00  0.00     0.031 C 
ATOM     52  C   UNL A   1      42.538  33.311  31.280  1.00  0.00     0.029 A 
ATOM     53  C   UNL A   1      42.855  34.662  31.729  1.00  0.00     0.049 A 
ATOM     54  H   UNL A   1      43.012  35.349  33.690  1.00  0.00     0.167 HD
ATOM     55  C   UNL A   1      43.326  36.621  37.835  1.00  0.00     0.034 A 
ATOM     56  C   UNL A   1      43.113  35.704  30.916  1.00  0.00     0.034 A 
ATOM     57  C   UNL A   1      43.759  37.749  37.050  1.00  0.00     0.049 A 
ATOM     58  C   UNL A   1      43.499  37.022  31.513  1.00  0.00     0.074 A 
ATOM     59  C   UNL A   1      44.200  38.983  37.496  1.00  0.00     0.029 A 
ATOM     60  N   UNL A   1      43.785  37.791  35.665  1.00  0.00    -0.354 N 
ATOM     61  N   UNL A   1      43.648  37.334  32.777  1.00  0.00    -0.248 NA
ATOM     62  C   UNL A   1      43.784  38.121  30.580  1.00  0.00     0.031 C 
ATOM     63  C   UNL A   1      44.480  39.777  36.378  1.00  0.00     0.029 A 
ATOM     64  C   UNL A   1      44.221  39.034  35.239  1.00  0.00     0.049 A 
ATOM     65  H   UNL A   1      43.531  37.048  35.072  1.00  0.00     0.167 HD
ATOM     66  C   UNL A   1      44.068  38.658  32.794  1.00  0.00     0.074 A 
ATOM     67  C   UNL A   1      44.157  39.088  31.413  1.00  0.00     0.031 C 
ATOM     68  C   UNL A   1      44.345  39.443  33.862  1.00  0.00     0.034 A 
BRANCH  55  69
ATOM     69  C   UNL A   1      43.298  36.793  39.329  1.00  0.00     0.023 A 
ATOM     70  C   UNL A   1      44.473  36.547  40.064  1.00  0.00     0.012 A 
ATOM     71  C   UNL A   1      42.168  37.325  39.980  1.00  0.00     0.148 A 
ATOM     72  C   UNL A   1      44.525  36.822  41.431  1.00  0.00     0.002 A 
ATOM     73  C   UNL A   1      42.234  37.620  41.338  1.00  0.00     0.091 A 
ATOM     74  F   UNL A   1      41.057  37.540  39.260  1.00  0.00    -0.205 F 
ATOM     75  C   UNL A   1      43.410  37.368  42.063  1.00  0.00     0.022 A 
BRANCH  73  76
ATOM     76  S   UNL A   1      40.874  38.378  42.236  1.00  0.00     0.127 S 
ATOM     77  O   UNL A   1      41.288  38.169  43.624  1.00  0.00    -0.237 OA
ATOM     78  O   UNL A   1      40.941  39.767  41.782  1.00  0.00    -0.237 OA
ATOM     79  O   UNL A   1      39.674  37.660  41.830  1.00  0.00    -0.744 OA
ENDBRANCH  73  76
ENDBRANCH  55  69
BRANCH  56  80
ATOM     80  C   UNL A   1      43.123  35.475  29.448  1.00  0.00     0.023 A 
ATOM     81  C   UNL A   1      41.990  35.837  28.697  1.00  0.00     0.012 A 
ATOM     82  C   UNL A   1      44.281  35.024  28.788  1.00  0.00     0.148 A 
ATOM     83  C   UNL A   1      42.008  35.754  27.307  1.00  0.00     0.002 A 
ATOM     84  C   UNL A   1      44.306  34.980  27.400  1.00  0.00     0.091 A 
ATOM     85  F   UNL A   1      45.347  34.696  29.531  1.00  0.00    -0.205 F 
ATOM     86  C   UNL A   1      43.168  35.338  26.657  1.00  0.00     0.022 A 
BRANCH  84  87
ATOM     87  S   UNL A   1      45.784  34.566  26.466  1.00  0.00     0.127 S 
ATOM     88  O   UNL A   1      46.667  35.681  26.797  1.00  0.00    -0.237 OA
ATOM     89  O   UNL A   1      46.161  33.284  27.061  1.00  0.00    -0.237 OA
ATOM     90  O   UNL A   1      45.366  34.491  25.073  1.00  0.00    -0.744 OA
ENDBRANCH  84  87
ENDBRANCH  56  80
BRANCH  68  91
ATOM     91  C   UNL A   1      44.776  40.859  33.605  1.00  0.00     0.023 A 
ATOM     92  C   UNL A   1      46.101  41.111  33.200  1.00  0.00     0.012 A 
ATOM     93  C   UNL A   1      43.844  41.914  33.638  1.00  0.00     0.148 A 
ATOM     94  C   UNL A   1      46.493  42.397  32.832  1.00  0.00     0.002 A 
ATOM     95  C   UNL A   1      44.234  43.187  33.240  1.00  0.00     0.091 A 
ATOM     96  F   UNL A   1      42.592  41.646  34.037  1.00  0.00    -0.205 F 
ATOM     97  C   UNL A   1      45.559  43.431  32.841  1.00  0.00     0.022 A 
BRANCH  95  98
ATOM     98  S   UNL A   1      43.090  44.568  33.146  1.00  0.00     0.127 S 
ATOM     99  O   UNL A   1      44.003  45.707  33.057  1.00  0.00    -0.237 OA
ATOM    100  O   UNL A   1      42.357  44.276  31.914  1.00  0.00    -0.237 OA
ATOM    101  O   UNL A   1      42.287  44.514  34.360  1.00  0.00    -0.744 OA
ENDBRANCH  95  98
ENDBRANCH  68  91
ENDBRANCH  42  43
ENDBRANCH  35  37
ENDBRANCH  34  35
ENDBRANCH  33  34
ENDBRANCH  32  33
ENDBRANCH  31  32
ENDBRANCH  30  31
ENDBRANCH   1  30
TORSDOF 24
ENDMDL
