MODEL 1
REMARK VINA RESULT:     -12.2      0.000      0.000
REMARK SMILES Cc1ccc(C(=O)OCCOCCOCCOCCOC(=O)c2ccc(-c3c4nc(c(-c5cccc(S(=O)(=O)[O-])c5F)c5ccc([nH]5)c(-c5cccc(S(=O)(=O)[O-])c5F)c5nc(c(-c6cccc(S(=O)(=O)[O-])c6F)c6ccc3[nH]6)C=C5)C=C4)cc2)cc1/[NH+]=C1\NCCS1
REMARK SMILES IDX 15 1 14 2 13 3 12 4 11 5 10 6 9 7 8 8 6 9 7 10 5 11 1 12
REMARK SMILES IDX 2 13 3 14 87 15 4 16 86 17 88 18 89 19 90 21 93 22 91 23
REMARK SMILES IDX 92 25 16 26 17 27 18 28 19 29 20 30 21 31 22 32 23 33 24 34
REMARK SMILES IDX 85 35 25 36 84 37 26 38 27 39 28 40 78 41 29 42 83 43 77 44
REMARK SMILES IDX 79 45 30 46 82 47 76 48 75 49 31 51 63 52 43 53 62 54 44 55
REMARK SMILES IDX 47 56 61 57 80 58 45 59 46 60 60 62 81 63 48 64 32 65 33 66
REMARK SMILES IDX 41 67 34 68 36 69 42 70 35 71 37 72 38 73 39 74 40 75 64 76
REMARK SMILES IDX 65 77 73 78 66 79 68 80 74 81 67 82 69 83 70 84 71 85 72 86
REMARK SMILES IDX 49 87 50 88 58 89 51 90 53 91 59 92 52 93 54 94 55 95 56 96
REMARK SMILES IDX 57 97
REMARK H PARENT 88 20 90 24 79 50 47 61
REMARK Flexibility Score: inf
ROOT
ATOM      1  C   UNL A   1      35.401  22.219  24.679  1.00  0.00     0.188 C 
ENDROOT
BRANCH   1   2
ATOM      2  O   UNL A   1      34.566  22.558  25.761  1.00  0.00    -0.377 OA
BRANCH   2   3
ATOM      3  C   UNL A   1      33.683  21.514  26.058  1.00  0.00     0.188 C 
BRANCH   3   4
ATOM      4  C   UNL A   1      33.691  20.342  25.079  1.00  0.00     0.188 C 
BRANCH   4   5
ATOM      5  O   UNL A   1      32.599  20.231  23.850  1.00  0.00    -0.376 OA
BRANCH   5   6
ATOM      6  C   UNL A   1      32.185  21.418  22.594  1.00  0.00     0.202 C 
BRANCH   6   7
ATOM      7  C   UNL A   1      33.095  22.833  21.757  1.00  0.00     0.261 C 
BRANCH   7   8
ATOM      8  O   UNL A   1      33.684  24.416  22.510  1.00  0.00    -0.460 OA
BRANCH   8   9
ATOM      9  C   UNL A   1      33.556  26.020  22.476  1.00  0.00     0.338 C 
ATOM     10  O   UNL A   1      33.862  26.602  21.425  1.00  0.00    -0.246 OA
BRANCH   9  11
ATOM     11  C   UNL A   1      33.173  27.192  23.646  1.00  0.00     0.064 A 
ATOM     12  C   UNL A   1      31.906  29.620  27.136  1.00  0.00     0.049 C 
ATOM     13  C   UNL A   1      32.371  28.844  25.939  1.00  0.00    -0.004 A 
ATOM     14  C   UNL A   1      33.168  27.692  26.073  1.00  0.00     0.008 A 
ATOM     15  C   UNL A   1      32.041  29.248  24.659  1.00  0.00     0.129 A 
ATOM     16  C   UNL A   1      33.521  26.870  24.964  1.00  0.00     0.016 A 
ATOM     17  C   UNL A   1      32.538  28.477  23.585  1.00  0.00     0.067 A 
BRANCH  15  18
ATOM     18  N   UNL A   1      31.016  30.182  24.377  1.00  0.00    -0.235 N 
ATOM     19  C   UNL A   1      29.907  29.909  23.799  1.00  0.00     0.309 C 
ATOM     20  H   UNL A   1      31.168  31.116  24.649  1.00  0.00     0.313 HD
ATOM     21  N   UNL A   1      29.354  28.750  23.352  1.00  0.00    -0.268 N 
ATOM     22  S   UNL A   1      28.818  31.262  23.424  1.00  0.00    -0.035 SA
ATOM     23  C   UNL A   1      28.038  28.834  22.756  1.00  0.00     0.246 C 
ATOM     24  H   UNL A   1      29.828  27.891  23.429  1.00  0.00     0.305 HD
ATOM     25  C   UNL A   1      27.881  30.259  22.232  1.00  0.00     0.128 C 
ENDBRANCH  15  18
ENDBRANCH   9  11
ENDBRANCH   8   9
ENDBRANCH   7   8
ENDBRANCH   6   7
ENDBRANCH   5   6
ENDBRANCH   4   5
ENDBRANCH   3   4
ENDBRANCH   2   3
ENDBRANCH   1   2
BRANCH   1  26
ATOM     26  C   UNL A   1      36.899  22.498  24.918  1.00  0.00     0.188 C 
BRANCH  26  27
ATOM     27  O   UNL A   1      37.709  21.346  25.024  1.00  0.00    -0.376 OA
BRANCH  27  28
ATOM     28  C   UNL A   1      38.848  21.534  25.857  1.00  0.00     0.202 C 
BRANCH  28  29
ATOM     29  C   UNL A   1      39.273  22.989  26.350  1.00  0.00     0.261 C 
BRANCH  29  30
ATOM     30  O   UNL A   1      39.909  23.040  27.699  1.00  0.00    -0.460 OA
BRANCH  30  31
ATOM     31  C   UNL A   1      40.996  23.866  27.968  1.00  0.00     0.338 C 
ATOM     32  O   UNL A   1      42.071  23.432  28.356  1.00  0.00    -0.246 OA
BRANCH  31  33
ATOM     33  C   UNL A   1      40.598  25.374  28.014  1.00  0.00     0.060 A 
ATOM     34  C   UNL A   1      41.519  26.379  28.284  1.00  0.00     0.016 A 
ATOM     35  C   UNL A   1      39.276  25.801  28.127  1.00  0.00     0.016 A 
ATOM     36  C   UNL A   1      41.092  27.588  28.930  1.00  0.00     0.010 A 
ATOM     37  C   UNL A   1      38.924  26.848  29.052  1.00  0.00     0.010 A 
ATOM     38  C   UNL A   1      39.880  27.674  29.669  1.00  0.00    -0.014 A 
BRANCH  38  39
ATOM     39  C   UNL A   1      39.514  28.678  31.104  1.00  0.00     0.031 A 
ATOM     40  C   UNL A   1      38.915  30.038  30.111  1.00  0.00     0.074 A 
ATOM     41  C   UNL A   1      40.016  28.674  32.751  1.00  0.00     0.049 A 
ATOM     42  N   UNL A   1      39.349  31.287  30.131  1.00  0.00    -0.248 NA
ATOM     43  C   UNL A   1      37.965  29.918  28.986  1.00  0.00     0.031 C 
ATOM     44  C   UNL A   1      39.986  29.705  34.100  1.00  0.00     0.029 A 
ATOM     45  N   UNL A   1      41.028  27.809  33.620  1.00  0.00    -0.354 N 
ATOM     46  C   UNL A   1      38.338  32.073  29.654  1.00  0.00     0.074 A 
ATOM     47  C   UNL A   1      37.745  31.204  28.671  1.00  0.00     0.031 C 
ATOM     48  C   UNL A   1      40.784  29.399  35.129  1.00  0.00     0.029 A 
ATOM     49  C   UNL A   1      41.753  28.533  34.593  1.00  0.00     0.049 A 
ATOM     50  H   UNL A   1      41.142  26.840  33.490  1.00  0.00     0.167 HD
ATOM     51  C   UNL A   1      37.851  33.143  30.375  1.00  0.00     0.034 A 
ATOM     52  C   UNL A   1      43.081  28.905  34.563  1.00  0.00     0.034 A 
ATOM     53  C   UNL A   1      38.539  33.362  31.715  1.00  0.00     0.049 A 
ATOM     54  C   UNL A   1      43.178  30.480  34.511  1.00  0.00     0.074 A 
ATOM     55  C   UNL A   1      38.068  33.280  33.028  1.00  0.00     0.029 A 
ATOM     56  N   UNL A   1      39.937  33.467  31.866  1.00  0.00    -0.354 N 
ATOM     57  N   UNL A   1      42.189  31.270  34.145  1.00  0.00    -0.248 NA
ATOM     58  C   UNL A   1      44.327  31.274  34.922  1.00  0.00     0.031 C 
ATOM     59  C   UNL A   1      39.167  33.251  33.937  1.00  0.00     0.029 A 
ATOM     60  C   UNL A   1      40.346  33.353  33.214  1.00  0.00     0.049 A 
ATOM     61  H   UNL A   1      40.559  33.605  31.116  1.00  0.00     0.167 HD
ATOM     62  C   UNL A   1      42.534  32.593  34.153  1.00  0.00     0.074 A 
ATOM     63  C   UNL A   1      43.872  32.535  34.744  1.00  0.00     0.031 C 
ATOM     64  C   UNL A   1      41.738  33.610  33.654  1.00  0.00     0.034 A 
BRANCH  51  65
ATOM     65  C   UNL A   1      36.421  33.685  30.072  1.00  0.00     0.023 A 
ATOM     66  C   UNL A   1      35.986  33.784  28.732  1.00  0.00     0.012 A 
ATOM     67  C   UNL A   1      35.482  34.155  31.029  1.00  0.00     0.148 A 
ATOM     68  C   UNL A   1      34.808  34.453  28.354  1.00  0.00     0.002 A 
ATOM     69  C   UNL A   1      34.341  34.885  30.659  1.00  0.00     0.091 A 
ATOM     70  F   UNL A   1      35.610  33.795  32.311  1.00  0.00    -0.205 F 
ATOM     71  C   UNL A   1      34.010  35.049  29.315  1.00  0.00     0.022 A 
BRANCH  69  72
ATOM     72  S   UNL A   1      33.275  35.699  31.866  1.00  0.00     0.127 S 
ATOM     73  O   UNL A   1      32.652  34.567  32.556  1.00  0.00    -0.237 OA
ATOM     74  O   UNL A   1      34.232  36.448  32.679  1.00  0.00    -0.237 OA
ATOM     75  O   UNL A   1      32.336  36.508  31.094  1.00  0.00    -0.744 OA
ENDBRANCH  69  72
ENDBRANCH  51  65
BRANCH  52  76
ATOM     76  C   UNL A   1      44.036  27.903  33.928  1.00  0.00     0.023 A 
ATOM     77  C   UNL A   1      44.910  28.405  32.925  1.00  0.00     0.012 A 
ATOM     78  C   UNL A   1      44.374  26.665  34.515  1.00  0.00     0.148 A 
ATOM     79  C   UNL A   1      46.155  27.818  32.668  1.00  0.00     0.002 A 
ATOM     80  C   UNL A   1      45.643  26.104  34.284  1.00  0.00     0.091 A 
ATOM     81  F   UNL A   1      43.545  26.140  35.427  1.00  0.00    -0.205 F 
ATOM     82  C   UNL A   1      46.542  26.693  33.383  1.00  0.00     0.022 A 
BRANCH  80  83
ATOM     83  S   UNL A   1      46.276  24.780  35.340  1.00  0.00     0.127 S 
ATOM     84  O   UNL A   1      46.149  23.617  34.467  1.00  0.00    -0.237 OA
ATOM     85  O   UNL A   1      47.652  25.197  35.614  1.00  0.00    -0.237 OA
ATOM     86  O   UNL A   1      45.407  24.813  36.510  1.00  0.00    -0.744 OA
ENDBRANCH  80  83
ENDBRANCH  52  76
BRANCH  64  87
ATOM     87  C   UNL A   1      42.182  35.064  33.557  1.00  0.00     0.023 A 
ATOM     88  C   UNL A   1      42.061  35.950  34.639  1.00  0.00     0.012 A 
ATOM     89  C   UNL A   1      42.896  35.537  32.418  1.00  0.00     0.148 A 
ATOM     90  C   UNL A   1      42.577  37.248  34.586  1.00  0.00     0.002 A 
ATOM     91  C   UNL A   1      43.518  36.781  32.424  1.00  0.00     0.091 A 
ATOM     92  F   UNL A   1      42.956  34.803  31.299  1.00  0.00    -0.205 F 
ATOM     93  C   UNL A   1      43.334  37.652  33.494  1.00  0.00     0.022 A 
BRANCH  91  94
ATOM     94  S   UNL A   1      44.703  37.215  31.139  1.00  0.00     0.127 S 
ATOM     95  O   UNL A   1      45.542  36.006  31.083  1.00  0.00    -0.237 OA
ATOM     96  O   UNL A   1      43.834  37.389  29.963  1.00  0.00    -0.237 OA
ATOM     97  O   UNL A   1      45.344  38.421  31.588  1.00  0.00    -0.744 OA
ENDBRANCH  91  94
ENDBRANCH  64  87
ENDBRANCH  38  39
ENDBRANCH  31  33
ENDBRANCH  30  31
ENDBRANCH  29  30
ENDBRANCH  28  29
ENDBRANCH  27  28
ENDBRANCH  26  27
ENDBRANCH   1  26
TORSDOF 24
ENDMDL
MODEL 2
REMARK VINA RESULT:     -11.8      6.835     12.147
REMARK SMILES Cc1ccc(C(=O)OCCOCCOCCOCCOC(=O)c2ccc(-c3c4nc(c(-c5cccc(S(=O)(=O)[O-])c5F)c5ccc([nH]5)c(-c5cccc(S(=O)(=O)[O-])c5F)c5nc(c(-c6cccc(S(=O)(=O)[O-])c6F)c6ccc3[nH]6)C=C5)C=C4)cc2)cc1/[NH+]=C1\NCCS1
REMARK SMILES IDX 15 1 14 2 13 3 12 4 11 5 10 6 9 7 8 8 6 9 7 10 5 11 1 12
REMARK SMILES IDX 2 13 3 14 87 15 4 16 86 17 88 18 89 19 90 21 93 22 91 23
REMARK SMILES IDX 92 25 16 26 17 27 18 28 19 29 20 30 21 31 22 32 23 33 24 34
REMARK SMILES IDX 85 35 25 36 84 37 26 38 27 39 28 40 78 41 29 42 83 43 77 44
REMARK SMILES IDX 79 45 30 46 82 47 76 48 75 49 31 51 63 52 43 53 62 54 44 55
REMARK SMILES IDX 47 56 61 57 80 58 45 59 46 60 60 62 81 63 48 64 32 65 33 66
REMARK SMILES IDX 41 67 34 68 36 69 42 70 35 71 37 72 38 73 39 74 40 75 64 76
REMARK SMILES IDX 65 77 73 78 66 79 68 80 74 81 67 82 69 83 70 84 71 85 72 86
REMARK SMILES IDX 49 87 50 88 58 89 51 90 53 91 59 92 52 93 54 94 55 95 56 96
REMARK SMILES IDX 57 97
REMARK H PARENT 88 20 90 24 79 50 47 61
REMARK Flexibility Score: inf
ROOT
ATOM      1  C   UNL A   1      35.932  21.930  25.037  1.00  0.00     0.188 C 
ENDROOT
BRANCH   1   2
ATOM      2  O   UNL A   1      34.977  22.287  24.065  1.00  0.00    -0.377 OA
BRANCH   2   3
ATOM      3  C   UNL A   1      35.014  23.662  23.810  1.00  0.00     0.188 C 
BRANCH   3   4
ATOM      4  C   UNL A   1      34.416  24.553  24.896  1.00  0.00     0.188 C 
BRANCH   4   5
ATOM      5  O   UNL A   1      34.462  26.197  24.794  1.00  0.00    -0.376 OA
BRANCH   5   6
ATOM      6  C   UNL A   1      33.266  27.398  25.329  1.00  0.00     0.202 C 
BRANCH   6   7
ATOM      7  C   UNL A   1      31.721  27.343  26.396  1.00  0.00     0.261 C 
BRANCH   7   8
ATOM      8  O   UNL A   1      30.684  25.874  26.831  1.00  0.00    -0.460 OA
BRANCH   8   9
ATOM      9  C   UNL A   1      30.456  24.301  26.579  1.00  0.00     0.338 C 
ATOM     10  O   UNL A   1      29.720  23.690  27.369  1.00  0.00    -0.246 OA
BRANCH   9  11
ATOM     11  C   UNL A   1      31.107  23.182  25.478  1.00  0.00     0.064 A 
ATOM     12  C   UNL A   1      32.138  20.413  22.169  1.00  0.00     0.049 C 
ATOM     13  C   UNL A   1      31.848  21.351  23.304  1.00  0.00    -0.004 A 
ATOM     14  C   UNL A   1      31.447  22.681  23.076  1.00  0.00     0.008 A 
ATOM     15  C   UNL A   1      31.980  20.939  24.617  1.00  0.00     0.129 A 
ATOM     16  C   UNL A   1      31.049  23.553  24.130  1.00  0.00     0.016 A 
ATOM     17  C   UNL A   1      31.712  21.889  25.627  1.00  0.00     0.067 A 
BRANCH  15  18
ATOM     18  N   UNL A   1      32.071  19.580  25.001  1.00  0.00    -0.235 N 
ATOM     19  C   UNL A   1      33.139  18.874  24.971  1.00  0.00     0.309 C 
ATOM     20  H   UNL A   1      31.247  19.143  25.316  1.00  0.00     0.313 HD
ATOM     21  N   UNL A   1      34.431  19.157  24.653  1.00  0.00    -0.268 N 
ATOM     22  S   UNL A   1      32.997  17.149  25.371  1.00  0.00    -0.035 SA
ATOM     23  C   UNL A   1      35.388  18.078  24.763  1.00  0.00     0.246 C 
ATOM     24  H   UNL A   1      34.702  20.057  24.360  1.00  0.00     0.305 HD
ATOM     25  C   UNL A   1      34.606  16.777  24.610  1.00  0.00     0.128 C 
ENDBRANCH  15  18
ENDBRANCH   9  11
ENDBRANCH   8   9
ENDBRANCH   7   8
ENDBRANCH   6   7
ENDBRANCH   5   6
ENDBRANCH   4   5
ENDBRANCH   3   4
ENDBRANCH   2   3
ENDBRANCH   1   2
BRANCH   1  26
ATOM     26  C   UNL A   1      37.397  22.096  24.581  1.00  0.00     0.188 C 
BRANCH  26  27
ATOM     27  O   UNL A   1      38.317  21.231  25.212  1.00  0.00    -0.376 OA
BRANCH  27  28
ATOM     28  C   UNL A   1      38.984  21.830  26.318  1.00  0.00     0.202 C 
BRANCH  28  29
ATOM     29  C   UNL A   1      40.570  21.752  26.460  1.00  0.00     0.261 C 
BRANCH  29  30
ATOM     30  O   UNL A   1      41.125  22.369  27.700  1.00  0.00    -0.460 OA
BRANCH  30  31
ATOM     31  C   UNL A   1      41.415  23.729  27.777  1.00  0.00     0.338 C 
ATOM     32  O   UNL A   1      40.547  24.577  27.931  1.00  0.00    -0.246 OA
BRANCH  31  33
ATOM     33  C   UNL A   1      42.880  24.049  27.347  1.00  0.00     0.060 A 
ATOM     34  C   UNL A   1      43.968  23.322  27.814  1.00  0.00     0.016 A 
ATOM     35  C   UNL A   1      43.244  25.256  26.755  1.00  0.00     0.016 A 
ATOM     36  C   UNL A   1      45.249  23.956  27.949  1.00  0.00     0.010 A 
ATOM     37  C   UNL A   1      44.422  25.959  27.196  1.00  0.00     0.010 A 
ATOM     38  C   UNL A   1      45.401  25.368  28.014  1.00  0.00    -0.014 A 
BRANCH  38  39
ATOM     39  C   UNL A   1      46.630  26.321  28.899  1.00  0.00     0.031 A 
ATOM     40  C   UNL A   1      47.967  25.706  27.884  1.00  0.00     0.074 A 
ATOM     41  C   UNL A   1      46.699  27.084  30.441  1.00  0.00     0.049 A 
ATOM     42  N   UNL A   1      49.061  25.089  28.299  1.00  0.00    -0.248 NA
ATOM     43  C   UNL A   1      47.954  25.638  26.408  1.00  0.00     0.031 C 
ATOM     44  C   UNL A   1      47.860  27.739  31.493  1.00  0.00     0.029 A 
ATOM     45  N   UNL A   1      45.720  27.198  31.688  1.00  0.00    -0.354 N 
ATOM     46  C   UNL A   1      50.011  25.258  27.332  1.00  0.00     0.074 A 
ATOM     47  C   UNL A   1      49.207  25.237  26.139  1.00  0.00     0.031 C 
ATOM     48  C   UNL A   1      47.490  27.961  32.759  1.00  0.00     0.029 A 
ATOM     49  C   UNL A   1      46.351  27.160  32.952  1.00  0.00     0.049 A 
ATOM     50  H   UNL A   1      44.744  27.288  31.587  1.00  0.00     0.167 HD
ATOM     51  C   UNL A   1      51.249  25.797  27.620  1.00  0.00     0.034 A 
ATOM     52  C   UNL A   1      46.372  26.124  33.862  1.00  0.00     0.034 A 
ATOM     53  C   UNL A   1      51.448  26.166  29.083  1.00  0.00     0.049 A 
ATOM     54  C   UNL A   1      47.853  25.605  34.025  1.00  0.00     0.074 A 
ATOM     55  C   UNL A   1      51.646  27.396  29.716  1.00  0.00     0.029 A 
ATOM     56  N   UNL A   1      51.216  25.273  30.150  1.00  0.00    -0.354 N 
ATOM     57  N   UNL A   1      48.816  25.833  33.154  1.00  0.00    -0.248 NA
ATOM     58  C   UNL A   1      48.378  24.877  35.171  1.00  0.00     0.031 C 
ATOM     59  C   UNL A   1      51.451  27.256  31.122  1.00  0.00     0.029 A 
ATOM     60  C   UNL A   1      51.167  25.927  31.402  1.00  0.00     0.049 A 
ATOM     61  H   UNL A   1      51.103  24.302  30.037  1.00  0.00     0.167 HD
ATOM     62  C   UNL A   1      50.001  25.249  33.506  1.00  0.00     0.074 A 
ATOM     63  C   UNL A   1      49.682  24.738  34.841  1.00  0.00     0.031 C 
ATOM     64  C   UNL A   1      51.118  25.194  32.689  1.00  0.00     0.034 A 
BRANCH  51  65
ATOM     65  C   UNL A   1      52.090  26.438  26.475  1.00  0.00     0.023 A 
ATOM     66  C   UNL A   1      51.437  27.163  25.455  1.00  0.00     0.012 A 
ATOM     67  C   UNL A   1      53.497  26.330  26.307  1.00  0.00     0.148 A 
ATOM     68  C   UNL A   1      52.082  27.590  24.280  1.00  0.00     0.002 A 
ATOM     69  C   UNL A   1      54.135  26.688  25.110  1.00  0.00     0.091 A 
ATOM     70  F   UNL A   1      54.262  25.995  27.353  1.00  0.00    -0.205 F 
ATOM     71  C   UNL A   1      53.422  27.307  24.084  1.00  0.00     0.022 A 
BRANCH  69  72
ATOM     72  S   UNL A   1      55.875  26.329  24.790  1.00  0.00     0.127 S 
ATOM     73  O   UNL A   1      55.944  24.880  24.994  1.00  0.00    -0.237 OA
ATOM     74  O   UNL A   1      56.034  26.750  23.399  1.00  0.00    -0.237 OA
ATOM     75  O   UNL A   1      56.633  27.100  25.771  1.00  0.00    -0.744 OA
ENDBRANCH  69  72
ENDBRANCH  51  65
BRANCH  52  76
ATOM     76  C   UNL A   1      45.093  25.302  33.961  1.00  0.00     0.023 A 
ATOM     77  C   UNL A   1      45.243  23.888  33.935  1.00  0.00     0.012 A 
ATOM     78  C   UNL A   1      43.873  25.811  34.453  1.00  0.00     0.148 A 
ATOM     79  C   UNL A   1      44.320  23.036  34.555  1.00  0.00     0.002 A 
ATOM     80  C   UNL A   1      42.971  24.955  35.111  1.00  0.00     0.091 A 
ATOM     81  F   UNL A   1      43.680  27.137  34.443  1.00  0.00    -0.205 F 
ATOM     82  C   UNL A   1      43.207  23.575  35.185  1.00  0.00     0.022 A 
BRANCH  80  83
ATOM     83  S   UNL A   1      41.634  25.624  36.127  1.00  0.00     0.127 S 
ATOM     84  O   UNL A   1      40.802  26.286  35.128  1.00  0.00    -0.237 OA
ATOM     85  O   UNL A   1      41.040  24.429  36.730  1.00  0.00    -0.237 OA
ATOM     86  O   UNL A   1      42.313  26.488  37.084  1.00  0.00    -0.744 OA
ENDBRANCH  80  83
ENDBRANCH  52  76
BRANCH  64  87
ATOM     87  C   UNL A   1      52.391  24.437  33.043  1.00  0.00     0.023 A 
ATOM     88  C   UNL A   1      53.553  25.099  33.471  1.00  0.00     0.012 A 
ATOM     89  C   UNL A   1      52.400  23.014  33.119  1.00  0.00     0.148 A 
ATOM     90  C   UNL A   1      54.679  24.397  33.908  1.00  0.00     0.002 A 
ATOM     91  C   UNL A   1      53.475  22.330  33.677  1.00  0.00     0.091 A 
ATOM     92  F   UNL A   1      51.383  22.299  32.622  1.00  0.00    -0.205 F 
ATOM     93  C   UNL A   1      54.630  23.016  34.044  1.00  0.00     0.022 A 
BRANCH  91  94
ATOM     94  S   UNL A   1      53.328  20.584  34.094  1.00  0.00     0.127 S 
ATOM     95  O   UNL A   1      53.541  19.943  32.786  1.00  0.00    -0.237 OA
ATOM     96  O   UNL A   1      54.445  20.396  35.035  1.00  0.00    -0.237 OA
ATOM     97  O   UNL A   1      52.025  20.429  34.680  1.00  0.00    -0.744 OA
ENDBRANCH  91  94
ENDBRANCH  64  87
ENDBRANCH  38  39
ENDBRANCH  31  33
ENDBRANCH  30  31
ENDBRANCH  29  30
ENDBRANCH  28  29
ENDBRANCH  27  28
ENDBRANCH  26  27
ENDBRANCH   1  26
TORSDOF 24
ENDMDL
MODEL 3
REMARK VINA RESULT:     -10.6      6.361     13.440
REMARK SMILES Cc1ccc(C(=O)OCCOCCOCCOCCOC(=O)c2ccc(-c3c4nc(c(-c5cccc(S(=O)(=O)[O-])c5F)c5ccc([nH]5)c(-c5cccc(S(=O)(=O)[O-])c5F)c5nc(c(-c6cccc(S(=O)(=O)[O-])c6F)c6ccc3[nH]6)C=C5)C=C4)cc2)cc1/[NH+]=C1\NCCS1
REMARK SMILES IDX 15 1 14 2 13 3 12 4 11 5 10 6 9 7 8 8 6 9 7 10 5 11 1 12
REMARK SMILES IDX 2 13 3 14 87 15 4 16 86 17 88 18 89 19 90 21 93 22 91 23
REMARK SMILES IDX 92 25 16 26 17 27 18 28 19 29 20 30 21 31 22 32 23 33 24 34
REMARK SMILES IDX 85 35 25 36 84 37 26 38 27 39 28 40 78 41 29 42 83 43 77 44
REMARK SMILES IDX 79 45 30 46 82 47 76 48 75 49 31 51 63 52 43 53 62 54 44 55
REMARK SMILES IDX 47 56 61 57 80 58 45 59 46 60 60 62 81 63 48 64 32 65 33 66
REMARK SMILES IDX 41 67 34 68 36 69 42 70 35 71 37 72 38 73 39 74 40 75 64 76
REMARK SMILES IDX 65 77 73 78 66 79 68 80 74 81 67 82 69 83 70 84 71 85 72 86
REMARK SMILES IDX 49 87 50 88 58 89 51 90 53 91 59 92 52 93 54 94 55 95 56 96
REMARK SMILES IDX 57 97
REMARK H PARENT 88 20 90 24 79 50 47 61
REMARK Flexibility Score: inf
ROOT
ATOM      1  C   UNL A   1      48.020  34.341  25.759  1.00  0.00     0.188 C 
ENDROOT
BRANCH   1   2
ATOM      2  O   UNL A   1      46.641  34.596  25.626  1.00  0.00    -0.377 OA
BRANCH   2   3
ATOM      3  C   UNL A   1      46.371  35.962  25.766  1.00  0.00     0.188 C 
BRANCH   3   4
ATOM      4  C   UNL A   1      47.588  36.858  25.986  1.00  0.00     0.188 C 
BRANCH   4   5
ATOM      5  O   UNL A   1      47.494  38.249  26.865  1.00  0.00    -0.376 OA
BRANCH   5   6
ATOM      6  C   UNL A   1      46.289  38.744  28.075  1.00  0.00     0.202 C 
BRANCH   6   7
ATOM      7  C   UNL A   1      44.932  40.041  28.139  1.00  0.00     0.261 C 
BRANCH   7   8
ATOM      8  O   UNL A   1      44.365  41.169  26.787  1.00  0.00    -0.460 OA
BRANCH   8   9
ATOM      9  C   UNL A   1      44.802  42.354  25.789  1.00  0.00     0.338 C 
ATOM     10  O   UNL A   1      44.621  43.522  26.165  1.00  0.00    -0.246 OA
BRANCH   9  11
ATOM     11  C   UNL A   1      45.394  42.389  24.196  1.00  0.00     0.064 A 
ATOM     12  C   UNL A   1      47.663  42.604  20.391  1.00  0.00     0.049 C 
ATOM     13  C   UNL A   1      46.852  42.502  21.648  1.00  0.00    -0.004 A 
ATOM     14  C   UNL A   1      47.259  41.688  22.723  1.00  0.00     0.008 A 
ATOM     15  C   UNL A   1      45.665  43.197  21.786  1.00  0.00     0.129 A 
ATOM     16  C   UNL A   1      46.572  41.668  23.971  1.00  0.00     0.016 A 
ATOM     17  C   UNL A   1      44.948  43.028  22.992  1.00  0.00     0.067 A 
BRANCH  15  18
ATOM     18  N   UNL A   1      45.289  44.269  20.943  1.00  0.00    -0.235 N 
ATOM     19  C   UNL A   1      44.533  44.170  19.915  1.00  0.00     0.309 C 
ATOM     20  H   UNL A   1      45.637  45.163  21.166  1.00  0.00     0.313 HD
ATOM     21  N   UNL A   1      43.850  43.132  19.361  1.00  0.00    -0.268 N 
ATOM     22  S   UNL A   1      44.298  45.623  18.921  1.00  0.00    -0.035 SA
ATOM     23  C   UNL A   1      43.062  43.416  18.181  1.00  0.00     0.246 C 
ATOM     24  H   UNL A   1      43.892  42.226  19.745  1.00  0.00     0.305 HD
ATOM     25  C   UNL A   1      43.685  44.642  17.519  1.00  0.00     0.128 C 
ENDBRANCH  15  18
ENDBRANCH   9  11
ENDBRANCH   8   9
ENDBRANCH   7   8
ENDBRANCH   6   7
ENDBRANCH   5   6
ENDBRANCH   4   5
ENDBRANCH   3   4
ENDBRANCH   2   3
ENDBRANCH   1   2
BRANCH   1  26
ATOM     26  C   UNL A   1      48.387  33.434  26.952  1.00  0.00     0.188 C 
BRANCH  26  27
ATOM     27  O   UNL A   1      47.355  32.570  27.381  1.00  0.00    -0.376 OA
BRANCH  27  28
ATOM     28  C   UNL A   1      47.407  32.280  28.774  1.00  0.00     0.202 C 
BRANCH  28  29
ATOM     29  C   UNL A   1      48.277  33.174  29.767  1.00  0.00     0.261 C 
BRANCH  29  30
ATOM     30  O   UNL A   1      47.747  33.273  31.158  1.00  0.00    -0.460 OA
BRANCH  30  31
ATOM     31  C   UNL A   1      47.104  34.418  31.619  1.00  0.00     0.338 C 
ATOM     32  O   UNL A   1      47.555  35.541  31.442  1.00  0.00    -0.246 OA
BRANCH  31  33
ATOM     33  C   UNL A   1      45.952  34.089  32.619  1.00  0.00     0.060 A 
ATOM     34  C   UNL A   1      46.027  33.034  33.520  1.00  0.00     0.016 A 
ATOM     35  C   UNL A   1      44.660  34.587  32.469  1.00  0.00     0.016 A 
ATOM     36  C   UNL A   1      44.829  32.366  33.943  1.00  0.00     0.010 A 
ATOM     37  C   UNL A   1      43.520  33.721  32.634  1.00  0.00     0.010 A 
ATOM     38  C   UNL A   1      43.611  32.443  33.213  1.00  0.00    -0.014 A 
BRANCH  38  39
ATOM     39  C   UNL A   1      42.324  31.211  33.051  1.00  0.00     0.031 A 
ATOM     40  C   UNL A   1      42.589  31.036  31.291  1.00  0.00     0.074 A 
ATOM     41  C   UNL A   1      40.963  30.742  33.996  1.00  0.00     0.049 A 
ATOM     42  N   UNL A   1      41.691  31.190  30.333  1.00  0.00    -0.248 NA
ATOM     43  C   UNL A   1      43.905  30.872  30.640  1.00  0.00     0.031 C 
ATOM     44  C   UNL A   1      39.541  29.831  33.826  1.00  0.00     0.029 A 
ATOM     45  N   UNL A   1      40.302  31.249  35.350  1.00  0.00    -0.354 N 
ATOM     46  C   UNL A   1      42.132  30.486  29.249  1.00  0.00     0.074 A 
ATOM     47  C   UNL A   1      43.557  30.658  29.362  1.00  0.00     0.031 C 
ATOM     48  C   UNL A   1      38.593  29.987  34.757  1.00  0.00     0.029 A 
ATOM     49  C   UNL A   1      38.889  31.214  35.376  1.00  0.00     0.049 A 
ATOM     50  H   UNL A   1      40.836  31.564  36.114  1.00  0.00     0.167 HD
ATOM     51  C   UNL A   1      41.349  29.527  28.640  1.00  0.00     0.034 A 
ATOM     52  C   UNL A   1      38.009  32.271  35.286  1.00  0.00     0.034 A 
ATOM     53  C   UNL A   1      39.977  29.343  29.273  1.00  0.00     0.049 A 
ATOM     54  C   UNL A   1      37.166  32.135  33.959  1.00  0.00     0.074 A 
ATOM     55  C   UNL A   1      39.396  28.260  29.937  1.00  0.00     0.029 A 
ATOM     56  N   UNL A   1      39.080  30.404  29.512  1.00  0.00    -0.354 N 
ATOM     57  N   UNL A   1      37.520  31.388  32.932  1.00  0.00    -0.248 NA
ATOM     58  C   UNL A   1      35.866  32.741  33.711  1.00  0.00     0.031 C 
ATOM     59  C   UNL A   1      38.223  28.686  30.628  1.00  0.00     0.029 A 
ATOM     60  C   UNL A   1      38.025  30.036  30.378  1.00  0.00     0.049 A 
ATOM     61  H   UNL A   1      39.176  31.301  29.119  1.00  0.00     0.167 HD
ATOM     62  C   UNL A   1      36.638  31.463  31.890  1.00  0.00     0.074 A 
ATOM     63  C   UNL A   1      35.564  32.263  32.483  1.00  0.00     0.031 C 
ATOM     64  C   UNL A   1      36.859  30.913  30.638  1.00  0.00     0.034 A 
BRANCH  51  65
ATOM     65  C   UNL A   1      42.025  28.421  27.775  1.00  0.00     0.023 A 
ATOM     66  C   UNL A   1      42.238  28.648  26.398  1.00  0.00     0.012 A 
ATOM     67  C   UNL A   1      42.427  27.134  28.224  1.00  0.00     0.148 A 
ATOM     68  C   UNL A   1      42.641  27.640  25.504  1.00  0.00     0.002 A 
ATOM     69  C   UNL A   1      42.761  26.103  27.332  1.00  0.00     0.091 A 
ATOM     70  F   UNL A   1      42.615  26.921  29.532  1.00  0.00    -0.205 F 
ATOM     71  C   UNL A   1      42.853  26.351  25.963  1.00  0.00     0.022 A 
BRANCH  69  72
ATOM     72  S   UNL A   1      43.032  24.401  27.870  1.00  0.00     0.127 S 
ATOM     73  O   UNL A   1      43.230  23.694  26.603  1.00  0.00    -0.237 OA
ATOM     74  O   UNL A   1      44.237  24.517  28.689  1.00  0.00    -0.237 OA
ATOM     75  O   UNL A   1      41.821  24.007  28.583  1.00  0.00    -0.744 OA
ENDBRANCH  69  72
ENDBRANCH  51  65
BRANCH  52  76
ATOM     76  C   UNL A   1      38.451  33.561  35.966  1.00  0.00     0.023 A 
ATOM     77  C   UNL A   1      38.010  33.758  37.304  1.00  0.00     0.012 A 
ATOM     78  C   UNL A   1      39.538  34.344  35.525  1.00  0.00     0.148 A 
ATOM     79  C   UNL A   1      38.737  34.533  38.215  1.00  0.00     0.002 A 
ATOM     80  C   UNL A   1      40.289  35.087  36.455  1.00  0.00     0.091 A 
ATOM     81  F   UNL A   1      39.946  34.220  34.255  1.00  0.00    -0.205 F 
ATOM     82  C   UNL A   1      39.904  35.160  37.801  1.00  0.00     0.022 A 
BRANCH  80  83
ATOM     83  S   UNL A   1      41.920  35.735  36.022  1.00  0.00     0.127 S 
ATOM     84  O   UNL A   1      42.698  34.509  35.874  1.00  0.00    -0.237 OA
ATOM     85  O   UNL A   1      41.673  36.462  34.775  1.00  0.00    -0.237 OA
ATOM     86  O   UNL A   1      42.269  36.596  37.145  1.00  0.00    -0.744 OA
ENDBRANCH  80  83
ENDBRANCH  52  76
BRANCH  64  87
ATOM     87  C   UNL A   1      35.925  31.106  29.451  1.00  0.00     0.023 A 
ATOM     88  C   UNL A   1      35.442  30.020  28.704  1.00  0.00     0.012 A 
ATOM     89  C   UNL A   1      35.368  32.384  29.157  1.00  0.00     0.148 A 
ATOM     90  C   UNL A   1      34.494  30.190  27.691  1.00  0.00     0.002 A 
ATOM     91  C   UNL A   1      34.332  32.525  28.239  1.00  0.00     0.091 A 
ATOM     92  F   UNL A   1      35.856  33.488  29.737  1.00  0.00    -0.205 F 
ATOM     93  C   UNL A   1      33.914  31.434  27.482  1.00  0.00     0.022 A 
BRANCH  91  94
ATOM     94  S   UNL A   1      33.403  34.064  28.141  1.00  0.00     0.127 S 
ATOM     95  O   UNL A   1      34.292  34.901  27.319  1.00  0.00    -0.237 OA
ATOM     96  O   UNL A   1      32.177  33.640  27.444  1.00  0.00    -0.237 OA
ATOM     97  O   UNL A   1      33.198  34.486  29.499  1.00  0.00    -0.744 OA
ENDBRANCH  91  94
ENDBRANCH  64  87
ENDBRANCH  38  39
ENDBRANCH  31  33
ENDBRANCH  30  31
ENDBRANCH  29  30
ENDBRANCH  28  29
ENDBRANCH  27  28
ENDBRANCH  26  27
ENDBRANCH   1  26
TORSDOF 24
ENDMDL
