MODEL 1
REMARK VINA RESULT:     -10.2      0.000      0.000
REMARK SMILES CC[C@@](O)(C(=O)OCCOCCOCCOCCOC(=O)c1ccc(-c2c3nc(c(-c4cccc(S(=O)(=O)[O-])c4F)c4ccc([nH]4)c(-c4cccc(S(=O)(=O)[O-])c4F)c4nc(c(-c5cccc(S(=O)(=O)[O-])c5F)c5ccc2[nH]5)C=C4)C=C3)cc1)[C@@H]1CCOc2ccccc21
REMARK SMILES IDX 14 1 13 2 12 3 11 4 10 5 9 6 8 7 7 8 5 9 6 10 3 11 2 12 1 13
REMARK SMILES IDX 4 14 85 16 86 17 94 18 87 19 89 20 93 21 88 22 90 23 92 24
REMARK SMILES IDX 91 25 15 26 16 27 17 28 18 29 19 30 20 31 21 32 22 33 23 34
REMARK SMILES IDX 84 35 24 36 83 37 25 38 26 39 27 40 77 41 28 42 82 43 76 44
REMARK SMILES IDX 78 45 29 46 81 47 75 48 74 49 30 51 62 52 42 53 61 54 43 55
REMARK SMILES IDX 46 56 60 57 79 58 44 59 45 60 59 62 80 63 47 64 31 65 32 66
REMARK SMILES IDX 40 67 33 68 35 69 41 70 34 71 36 72 37 73 38 74 39 75 63 76
REMARK SMILES IDX 64 77 72 78 65 79 67 80 73 81 66 82 68 83 69 84 70 85 71 86
REMARK SMILES IDX 48 87 49 88 57 89 50 90 52 91 58 92 51 93 53 94 54 95 55 96
REMARK SMILES IDX 56 97
REMARK H PARENT 4 15 78 50 46 61
REMARK Flexibility Score: inf
ROOT
ATOM      1  C   UNL A   1      30.554  28.845  24.318  1.00  0.00     0.188 C 
ENDROOT
BRANCH   1   2
ATOM      2  O   UNL A   1      30.453  28.461  22.953  1.00  0.00    -0.377 OA
BRANCH   2   3
ATOM      3  C   UNL A   1      31.026  27.237  22.547  1.00  0.00     0.188 C 
BRANCH   3   4
ATOM      4  C   UNL A   1      32.565  27.191  22.546  1.00  0.00     0.188 C 
BRANCH   4   5
ATOM      5  O   UNL A   1      33.203  26.109  23.188  1.00  0.00    -0.376 OA
BRANCH   5   6
ATOM      6  C   UNL A   1      33.411  24.877  22.507  1.00  0.00     0.202 C 
BRANCH   6   7
ATOM      7  C   UNL A   1      32.314  23.850  22.151  1.00  0.00     0.261 C 
BRANCH   7   8
ATOM      8  O   UNL A   1      32.154  22.735  23.038  1.00  0.00    -0.461 OA
BRANCH   8   9
ATOM      9  C   UNL A   1      31.757  22.987  24.316  1.00  0.00     0.338 C 
ATOM     10  O   UNL A   1      30.955  23.867  24.609  1.00  0.00    -0.249 OA
BRANCH   9  11
ATOM     11  C   UNL A   1      32.355  21.950  25.341  1.00  0.00     0.168 C 
BRANCH  11  12
ATOM     12  C   UNL A   1      33.018  22.714  26.522  1.00  0.00     0.044 C 
ATOM     13  C   UNL A   1      33.694  21.861  27.593  1.00  0.00     0.007 C 
ENDBRANCH  11  12
BRANCH  11  14
ATOM     14  O   UNL A   1      31.233  21.226  25.883  1.00  0.00    -0.378 OA
ATOM     15  H   UNL A   1      31.379  21.063  26.828  1.00  0.00     0.212 HD
ENDBRANCH  11  14
BRANCH  11  16
ATOM     16  C   UNL A   1      33.265  20.935  24.506  1.00  0.00     0.070 C 
ATOM     17  C   UNL A   1      32.875  19.477  24.868  1.00  0.00     0.053 C 
ATOM     18  C   UNL A   1      34.791  21.066  24.556  1.00  0.00     0.001 A 
ATOM     19  C   UNL A   1      33.873  18.497  24.295  1.00  0.00     0.230 C 
ATOM     20  C   UNL A   1      35.603  19.953  24.835  1.00  0.00     0.122 A 
ATOM     21  C   UNL A   1      35.455  22.255  24.220  1.00  0.00     0.008 A 
ATOM     22  O   UNL A   1      35.129  18.672  24.945  1.00  0.00    -0.493 OA
ATOM     23  C   UNL A   1      36.985  20.078  24.993  1.00  0.00     0.047 A 
ATOM     24  C   UNL A   1      36.841  22.386  24.367  1.00  0.00     0.001 A 
ATOM     25  C   UNL A   1      37.603  21.306  24.791  1.00  0.00     0.004 A 
ENDBRANCH  11  16
ENDBRANCH   9  11
ENDBRANCH   8   9
ENDBRANCH   7   8
ENDBRANCH   6   7
ENDBRANCH   5   6
ENDBRANCH   4   5
ENDBRANCH   3   4
ENDBRANCH   2   3
ENDBRANCH   1   2
BRANCH   1  26
ATOM     26  C   UNL A   1      31.014  30.267  24.707  1.00  0.00     0.188 C 
BRANCH  26  27
ATOM     27  O   UNL A   1      32.138  30.329  25.572  1.00  0.00    -0.376 OA
BRANCH  27  28
ATOM     28  C   UNL A   1      31.977  30.886  26.868  1.00  0.00     0.202 C 
BRANCH  28  29
ATOM     29  C   UNL A   1      32.212  32.396  27.044  1.00  0.00     0.261 C 
BRANCH  29  30
ATOM     30  O   UNL A   1      32.968  32.795  28.196  1.00  0.00    -0.460 OA
BRANCH  30  31
ATOM     31  C   UNL A   1      34.042  33.594  28.001  1.00  0.00     0.338 C 
ATOM     32  O   UNL A   1      34.036  34.780  27.754  1.00  0.00    -0.246 OA
BRANCH  31  33
ATOM     33  C   UNL A   1      35.249  32.809  28.347  1.00  0.00     0.060 A 
ATOM     34  C   UNL A   1      35.114  31.433  28.574  1.00  0.00     0.016 A 
ATOM     35  C   UNL A   1      36.496  33.426  28.447  1.00  0.00     0.016 A 
ATOM     36  C   UNL A   1      36.226  30.677  28.946  1.00  0.00     0.010 A 
ATOM     37  C   UNL A   1      37.603  32.671  28.842  1.00  0.00     0.010 A 
ATOM     38  C   UNL A   1      37.464  31.302  29.132  1.00  0.00    -0.014 A 
BRANCH  38  39
ATOM     39  C   UNL A   1      38.554  30.575  29.824  1.00  0.00     0.031 A 
ATOM     40  C   UNL A   1      38.864  30.946  31.249  1.00  0.00     0.074 A 
ATOM     41  C   UNL A   1      39.251  29.603  29.211  1.00  0.00     0.049 A 
ATOM     42  N   UNL A   1      39.799  30.491  32.042  1.00  0.00    -0.248 NA
ATOM     43  C   UNL A   1      38.005  31.974  31.861  1.00  0.00     0.031 C 
ATOM     44  C   UNL A   1      39.034  29.141  27.842  1.00  0.00     0.029 A 
ATOM     45  N   UNL A   1      40.306  28.848  29.660  1.00  0.00    -0.354 N 
ATOM     46  C   UNL A   1      39.663  31.196  33.230  1.00  0.00     0.074 A 
ATOM     47  C   UNL A   1      38.564  32.118  33.053  1.00  0.00     0.031 C 
ATOM     48  C   UNL A   1      39.954  28.204  27.549  1.00  0.00     0.029 A 
ATOM     49  C   UNL A   1      40.840  28.024  28.698  1.00  0.00     0.049 A 
ATOM     50  H   UNL A   1      40.648  28.892  30.583  1.00  0.00     0.167 HD
ATOM     51  C   UNL A   1      40.379  31.080  34.373  1.00  0.00     0.034 A 
ATOM     52  C   UNL A   1      41.937  27.241  28.732  1.00  0.00     0.034 A 
ATOM     53  C   UNL A   1      41.466  30.156  34.550  1.00  0.00     0.049 A 
ATOM     54  C   UNL A   1      42.747  27.158  30.002  1.00  0.00     0.074 A 
ATOM     55  C   UNL A   1      42.231  29.935  35.681  1.00  0.00     0.029 A 
ATOM     56  N   UNL A   1      41.957  29.315  33.564  1.00  0.00    -0.354 N 
ATOM     57  N   UNL A   1      42.544  27.756  31.152  1.00  0.00    -0.248 NA
ATOM     58  C   UNL A   1      43.917  26.268  29.989  1.00  0.00     0.031 C 
ATOM     59  C   UNL A   1      43.212  28.990  35.367  1.00  0.00     0.029 A 
ATOM     60  C   UNL A   1      43.026  28.584  34.055  1.00  0.00     0.049 A 
ATOM     61  H   UNL A   1      41.600  29.247  32.649  1.00  0.00     0.167 HD
ATOM     62  C   UNL A   1      43.535  27.285  32.008  1.00  0.00     0.074 A 
ATOM     63  C   UNL A   1      44.326  26.338  31.249  1.00  0.00     0.031 C 
ATOM     64  C   UNL A   1      43.775  27.610  33.303  1.00  0.00     0.034 A 
BRANCH  51  65
ATOM     65  C   UNL A   1      40.003  31.973  35.526  1.00  0.00     0.023 A 
ATOM     66  C   UNL A   1      40.634  33.224  35.683  1.00  0.00     0.012 A 
ATOM     67  C   UNL A   1      38.991  31.592  36.429  1.00  0.00     0.148 A 
ATOM     68  C   UNL A   1      40.291  34.064  36.743  1.00  0.00     0.002 A 
ATOM     69  C   UNL A   1      38.620  32.456  37.451  1.00  0.00     0.091 A 
ATOM     70  F   UNL A   1      38.419  30.389  36.276  1.00  0.00    -0.205 F 
ATOM     71  C   UNL A   1      39.278  33.684  37.618  1.00  0.00     0.022 A 
BRANCH  69  72
ATOM     72  S   UNL A   1      37.273  32.096  38.583  1.00  0.00     0.127 S 
ATOM     73  O   UNL A   1      37.835  32.536  39.859  1.00  0.00    -0.237 OA
ATOM     74  O   UNL A   1      36.201  32.944  38.062  1.00  0.00    -0.237 OA
ATOM     75  O   UNL A   1      37.025  30.665  38.473  1.00  0.00    -0.744 OA
ENDBRANCH  69  72
ENDBRANCH  51  65
BRANCH  52  76
ATOM     76  C   UNL A   1      42.336  26.463  27.526  1.00  0.00     0.023 A 
ATOM     77  C   UNL A   1      43.042  27.096  26.484  1.00  0.00     0.012 A 
ATOM     78  C   UNL A   1      42.020  25.095  27.408  1.00  0.00     0.148 A 
ATOM     79  C   UNL A   1      43.395  26.390  25.332  1.00  0.00     0.002 A 
ATOM     80  C   UNL A   1      42.425  24.384  26.285  1.00  0.00     0.091 A 
ATOM     81  F   UNL A   1      41.334  24.516  28.403  1.00  0.00    -0.205 F 
ATOM     82  C   UNL A   1      43.096  25.033  25.237  1.00  0.00     0.022 A 
BRANCH  80  83
ATOM     83  S   UNL A   1      42.193  22.610  26.132  1.00  0.00     0.127 S 
ATOM     84  O   UNL A   1      42.853  22.117  27.338  1.00  0.00    -0.237 OA
ATOM     85  O   UNL A   1      40.734  22.499  26.138  1.00  0.00    -0.237 OA
ATOM     86  O   UNL A   1      42.821  22.236  24.872  1.00  0.00    -0.744 OA
ENDBRANCH  80  83
ENDBRANCH  52  76
BRANCH  64  87
ATOM     87  C   UNL A   1      44.905  26.904  34.010  1.00  0.00     0.023 A 
ATOM     88  C   UNL A   1      46.211  27.429  33.962  1.00  0.00     0.012 A 
ATOM     89  C   UNL A   1      44.650  25.756  34.789  1.00  0.00     0.148 A 
ATOM     90  C   UNL A   1      47.253  26.801  34.646  1.00  0.00     0.002 A 
ATOM     91  C   UNL A   1      45.680  25.169  35.511  1.00  0.00     0.091 A 
ATOM     92  F   UNL A   1      43.403  25.264  34.810  1.00  0.00    -0.205 F 
ATOM     93  C   UNL A   1      46.985  25.680  35.429  1.00  0.00     0.022 A 
BRANCH  91  94
ATOM     94  S   UNL A   1      45.412  23.784  36.625  1.00  0.00     0.127 S 
ATOM     95  O   UNL A   1      46.776  23.477  37.050  1.00  0.00    -0.237 OA
ATOM     96  O   UNL A   1      44.569  24.381  37.661  1.00  0.00    -0.237 OA
ATOM     97  O   UNL A   1      44.758  22.751  35.833  1.00  0.00    -0.744 OA
ENDBRANCH  91  94
ENDBRANCH  64  87
ENDBRANCH  38  39
ENDBRANCH  31  33
ENDBRANCH  30  31
ENDBRANCH  29  30
ENDBRANCH  28  29
ENDBRANCH  27  28
ENDBRANCH  26  27
ENDBRANCH   1  26
TORSDOF 26
ENDMDL
MODEL 2
REMARK VINA RESULT:      -9.6      2.202      3.324
REMARK SMILES CC[C@@](O)(C(=O)OCCOCCOCCOCCOC(=O)c1ccc(-c2c3nc(c(-c4cccc(S(=O)(=O)[O-])c4F)c4ccc([nH]4)c(-c4cccc(S(=O)(=O)[O-])c4F)c4nc(c(-c5cccc(S(=O)(=O)[O-])c5F)c5ccc2[nH]5)C=C4)C=C3)cc1)[C@@H]1CCOc2ccccc21
REMARK SMILES IDX 14 1 13 2 12 3 11 4 10 5 9 6 8 7 7 8 5 9 6 10 3 11 2 12 1 13
REMARK SMILES IDX 4 14 85 16 86 17 94 18 87 19 89 20 93 21 88 22 90 23 92 24
REMARK SMILES IDX 91 25 15 26 16 27 17 28 18 29 19 30 20 31 21 32 22 33 23 34
REMARK SMILES IDX 84 35 24 36 83 37 25 38 26 39 27 40 77 41 28 42 82 43 76 44
REMARK SMILES IDX 78 45 29 46 81 47 75 48 74 49 30 51 62 52 42 53 61 54 43 55
REMARK SMILES IDX 46 56 60 57 79 58 44 59 45 60 59 62 80 63 47 64 31 65 32 66
REMARK SMILES IDX 40 67 33 68 35 69 41 70 34 71 36 72 37 73 38 74 39 75 63 76
REMARK SMILES IDX 64 77 72 78 65 79 67 80 73 81 66 82 68 83 69 84 70 85 71 86
REMARK SMILES IDX 48 87 49 88 57 89 50 90 52 91 58 92 51 93 53 94 54 95 55 96
REMARK SMILES IDX 56 97
REMARK H PARENT 4 15 78 50 46 61
REMARK Flexibility Score: inf
ROOT
ATOM      1  C   UNL A   1      31.564  29.217  25.007  1.00  0.00     0.188 C 
ENDROOT
BRANCH   1   2
ATOM      2  O   UNL A   1      30.395  29.073  24.210  1.00  0.00    -0.377 OA
BRANCH   2   3
ATOM      3  C   UNL A   1      30.542  28.806  22.832  1.00  0.00     0.188 C 
BRANCH   3   4
ATOM      4  C   UNL A   1      31.749  27.930  22.449  1.00  0.00     0.188 C 
BRANCH   4   5
ATOM      5  O   UNL A   1      31.562  26.533  22.368  1.00  0.00    -0.376 OA
BRANCH   5   6
ATOM      6  C   UNL A   1      32.077  25.669  23.374  1.00  0.00     0.202 C 
BRANCH   6   7
ATOM      7  C   UNL A   1      33.064  24.505  23.139  1.00  0.00     0.261 C 
BRANCH   7   8
ATOM      8  O   UNL A   1      34.303  24.547  23.859  1.00  0.00    -0.461 OA
BRANCH   8   9
ATOM      9  C   UNL A   1      35.137  23.476  23.760  1.00  0.00     0.338 C 
ATOM     10  O   UNL A   1      35.507  23.009  22.688  1.00  0.00    -0.249 OA
BRANCH   9  11
ATOM     11  C   UNL A   1      35.654  22.991  25.168  1.00  0.00     0.168 C 
BRANCH  11  12
ATOM     12  C   UNL A   1      37.119  22.485  25.034  1.00  0.00     0.044 C 
ATOM     13  C   UNL A   1      38.189  23.295  25.763  1.00  0.00     0.007 C 
ENDBRANCH  11  12
BRANCH  11  14
ATOM     14  O   UNL A   1      35.685  24.158  26.011  1.00  0.00    -0.378 OA
ATOM     15  H   UNL A   1      36.113  24.888  25.538  1.00  0.00     0.212 HD
ENDBRANCH  11  14
BRANCH  11  16
ATOM     16  C   UNL A   1      34.565  21.971  25.742  1.00  0.00     0.070 C 
ATOM     17  C   UNL A   1      34.521  20.706  24.843  1.00  0.00     0.053 C 
ATOM     18  C   UNL A   1      33.131  22.451  25.991  1.00  0.00     0.001 A 
ATOM     19  C   UNL A   1      33.338  19.836  25.202  1.00  0.00     0.230 C 
ATOM     20  C   UNL A   1      32.032  21.737  25.485  1.00  0.00     0.122 A 
ATOM     21  C   UNL A   1      32.839  23.546  26.819  1.00  0.00     0.008 A 
ATOM     22  O   UNL A   1      32.133  20.518  24.867  1.00  0.00    -0.493 OA
ATOM     23  C   UNL A   1      30.727  22.221  25.609  1.00  0.00     0.047 A 
ATOM     24  C   UNL A   1      31.533  24.031  26.955  1.00  0.00     0.001 A 
ATOM     25  C   UNL A   1      30.479  23.389  26.318  1.00  0.00     0.004 A 
ENDBRANCH  11  16
ENDBRANCH   9  11
ENDBRANCH   8   9
ENDBRANCH   7   8
ENDBRANCH   6   7
ENDBRANCH   5   6
ENDBRANCH   4   5
ENDBRANCH   3   4
ENDBRANCH   2   3
ENDBRANCH   1   2
BRANCH   1  26
ATOM     26  C   UNL A   1      31.823  30.515  25.802  1.00  0.00     0.188 C 
BRANCH  26  27
ATOM     27  O   UNL A   1      32.446  30.341  27.066  1.00  0.00    -0.376 OA
BRANCH  27  28
ATOM     28  C   UNL A   1      33.226  31.403  27.597  1.00  0.00     0.202 C 
BRANCH  28  29
ATOM     29  C   UNL A   1      32.806  32.846  27.273  1.00  0.00     0.261 C 
BRANCH  29  30
ATOM     30  O   UNL A   1      32.316  33.631  28.369  1.00  0.00    -0.460 OA
BRANCH  30  31
ATOM     31  C   UNL A   1      33.028  34.724  28.731  1.00  0.00     0.338 C 
ATOM     32  O   UNL A   1      32.717  35.884  28.575  1.00  0.00    -0.246 OA
BRANCH  31  33
ATOM     33  C   UNL A   1      34.173  34.258  29.546  1.00  0.00     0.060 A 
ATOM     34  C   UNL A   1      35.470  34.423  29.042  1.00  0.00     0.016 A 
ATOM     35  C   UNL A   1      33.966  33.667  30.793  1.00  0.00     0.016 A 
ATOM     36  C   UNL A   1      36.564  33.953  29.769  1.00  0.00     0.010 A 
ATOM     37  C   UNL A   1      35.061  33.177  31.508  1.00  0.00     0.010 A 
ATOM     38  C   UNL A   1      36.361  33.282  30.980  1.00  0.00    -0.014 A 
BRANCH  38  39
ATOM     39  C   UNL A   1      37.474  32.514  31.587  1.00  0.00     0.031 A 
ATOM     40  C   UNL A   1      37.999  32.961  32.925  1.00  0.00     0.074 A 
ATOM     41  C   UNL A   1      38.005  31.442  30.975  1.00  0.00     0.049 A 
ATOM     42  N   UNL A   1      38.992  32.484  33.629  1.00  0.00    -0.248 NA
ATOM     43  C   UNL A   1      37.311  34.102  33.552  1.00  0.00     0.031 C 
ATOM     44  C   UNL A   1      37.572  30.902  29.688  1.00  0.00     0.029 A 
ATOM     45  N   UNL A   1      39.048  30.632  31.350  1.00  0.00    -0.354 N 
ATOM     46  C   UNL A   1      39.071  33.284  34.762  1.00  0.00     0.074 A 
ATOM     47  C   UNL A   1      38.033  34.284  34.648  1.00  0.00     0.031 C 
ATOM     48  C   UNL A   1      38.369  29.868  29.362  1.00  0.00     0.029 A 
ATOM     49  C   UNL A   1      39.383  29.695  30.401  1.00  0.00     0.049 A 
ATOM     50  H   UNL A   1      39.512  30.713  32.215  1.00  0.00     0.167 HD
ATOM     51  C   UNL A   1      39.921  33.189  35.810  1.00  0.00     0.034 A 
ATOM     52  C   UNL A   1      40.410  28.823  30.362  1.00  0.00     0.034 A 
ATOM     53  C   UNL A   1      40.946  32.188  35.926  1.00  0.00     0.049 A 
ATOM     54  C   UNL A   1      41.372  28.762  31.523  1.00  0.00     0.074 A 
ATOM     55  C   UNL A   1      41.835  31.984  36.966  1.00  0.00     0.029 A 
ATOM     56  N   UNL A   1      41.235  31.237  34.960  1.00  0.00    -0.354 N 
ATOM     57  N   UNL A   1      41.372  29.458  32.634  1.00  0.00    -0.248 NA
ATOM     58  C   UNL A   1      42.457  27.773  31.437  1.00  0.00     0.031 C 
ATOM     59  C   UNL A   1      42.689  30.935  36.611  1.00  0.00     0.029 A 
ATOM     60  C   UNL A   1      42.299  30.452  35.372  1.00  0.00     0.049 A 
ATOM     61  H   UNL A   1      40.755  31.134  34.107  1.00  0.00     0.167 HD
ATOM     62  C   UNL A   1      42.428  28.966  33.395  1.00  0.00     0.074 A 
ATOM     63  C   UNL A   1      43.034  27.899  32.625  1.00  0.00     0.031 C 
ATOM     64  C   UNL A   1      42.862  29.363  34.616  1.00  0.00     0.034 A 
BRANCH  51  65
ATOM     65  C   UNL A   1      39.772  34.195  36.922  1.00  0.00     0.023 A 
ATOM     66  C   UNL A   1      40.133  35.540  36.708  1.00  0.00     0.012 A 
ATOM     67  C   UNL A   1      39.233  33.814  38.166  1.00  0.00     0.148 A 
ATOM     68  C   UNL A   1      39.995  36.483  37.726  1.00  0.00     0.002 A 
ATOM     69  C   UNL A   1      39.051  34.769  39.159  1.00  0.00     0.091 A 
ATOM     70  F   UNL A   1      38.917  32.525  38.358  1.00  0.00    -0.205 F 
ATOM     71  C   UNL A   1      39.445  36.100  38.946  1.00  0.00     0.022 A 
BRANCH  69  72
ATOM     72  S   UNL A   1      38.277  34.394  40.735  1.00  0.00     0.127 S 
ATOM     73  O   UNL A   1      37.132  33.586  40.316  1.00  0.00    -0.237 OA
ATOM     74  O   UNL A   1      39.331  33.648  41.423  1.00  0.00    -0.237 OA
ATOM     75  O   UNL A   1      37.946  35.677  41.338  1.00  0.00    -0.744 OA
ENDBRANCH  69  72
ENDBRANCH  51  65
BRANCH  52  76
ATOM     76  C   UNL A   1      40.583  27.926  29.185  1.00  0.00     0.023 A 
ATOM     77  C   UNL A   1      39.839  26.734  29.096  1.00  0.00     0.012 A 
ATOM     78  C   UNL A   1      41.484  28.251  28.152  1.00  0.00     0.148 A 
ATOM     79  C   UNL A   1      40.012  25.865  28.016  1.00  0.00     0.002 A 
ATOM     80  C   UNL A   1      41.610  27.412  27.052  1.00  0.00     0.091 A 
ATOM     81  F   UNL A   1      42.195  29.381  28.264  1.00  0.00    -0.205 F 
ATOM     82  C   UNL A   1      40.889  26.209  26.990  1.00  0.00     0.022 A 
BRANCH  80  83
ATOM     83  S   UNL A   1      42.620  27.833  25.628  1.00  0.00     0.127 S 
ATOM     84  O   UNL A   1      41.929  29.010  25.109  1.00  0.00    -0.237 OA
ATOM     85  O   UNL A   1      43.915  28.102  26.252  1.00  0.00    -0.237 OA
ATOM     86  O   UNL A   1      42.598  26.658  24.767  1.00  0.00    -0.744 OA
ENDBRANCH  80  83
ENDBRANCH  52  76
BRANCH  64  87
ATOM     87  C   UNL A   1      44.018  28.613  35.233  1.00  0.00     0.023 A 
ATOM     88  C   UNL A   1      45.344  28.970  34.919  1.00  0.00     0.012 A 
ATOM     89  C   UNL A   1      43.782  27.601  36.185  1.00  0.00     0.148 A 
ATOM     90  C   UNL A   1      46.416  28.305  35.515  1.00  0.00     0.002 A 
ATOM     91  C   UNL A   1      44.853  26.982  36.815  1.00  0.00     0.091 A 
ATOM     92  F   UNL A   1      42.512  27.267  36.460  1.00  0.00    -0.205 F 
ATOM     93  C   UNL A   1      46.171  27.322  36.471  1.00  0.00     0.022 A 
BRANCH  91  94
ATOM     94  S   UNL A   1      44.636  25.777  38.130  1.00  0.00     0.127 S 
ATOM     95  O   UNL A   1      43.667  24.859  37.534  1.00  0.00    -0.237 OA
ATOM     96  O   UNL A   1      45.985  25.231  38.275  1.00  0.00    -0.237 OA
ATOM     97  O   UNL A   1      44.156  26.523  39.286  1.00  0.00    -0.744 OA
ENDBRANCH  91  94
ENDBRANCH  64  87
ENDBRANCH  38  39
ENDBRANCH  31  33
ENDBRANCH  30  31
ENDBRANCH  29  30
ENDBRANCH  28  29
ENDBRANCH  27  28
ENDBRANCH  26  27
ENDBRANCH   1  26
TORSDOF 26
ENDMDL
MODEL 3
REMARK VINA RESULT:      -9.2      2.329      8.117
REMARK SMILES CC[C@@](O)(C(=O)OCCOCCOCCOCCOC(=O)c1ccc(-c2c3nc(c(-c4cccc(S(=O)(=O)[O-])c4F)c4ccc([nH]4)c(-c4cccc(S(=O)(=O)[O-])c4F)c4nc(c(-c5cccc(S(=O)(=O)[O-])c5F)c5ccc2[nH]5)C=C4)C=C3)cc1)[C@@H]1CCOc2ccccc21
REMARK SMILES IDX 14 1 13 2 12 3 11 4 10 5 9 6 8 7 7 8 5 9 6 10 3 11 2 12 1 13
REMARK SMILES IDX 4 14 85 16 86 17 94 18 87 19 89 20 93 21 88 22 90 23 92 24
REMARK SMILES IDX 91 25 15 26 16 27 17 28 18 29 19 30 20 31 21 32 22 33 23 34
REMARK SMILES IDX 84 35 24 36 83 37 25 38 26 39 27 40 77 41 28 42 82 43 76 44
REMARK SMILES IDX 78 45 29 46 81 47 75 48 74 49 30 51 62 52 42 53 61 54 43 55
REMARK SMILES IDX 46 56 60 57 79 58 44 59 45 60 59 62 80 63 47 64 31 65 32 66
REMARK SMILES IDX 40 67 33 68 35 69 41 70 34 71 36 72 37 73 38 74 39 75 63 76
REMARK SMILES IDX 64 77 72 78 65 79 67 80 73 81 66 82 68 83 69 84 70 85 71 86
REMARK SMILES IDX 48 87 49 88 57 89 50 90 52 91 58 92 51 93 53 94 54 95 55 96
REMARK SMILES IDX 56 97
REMARK H PARENT 4 15 78 50 46 61
REMARK Flexibility Score: inf
ROOT
ATOM      1  C   UNL A   1      31.727  29.125  24.853  1.00  0.00     0.188 C 
ENDROOT
BRANCH   1   2
ATOM      2  O   UNL A   1      30.439  29.189  24.254  1.00  0.00    -0.377 OA
BRANCH   2   3
ATOM      3  C   UNL A   1      30.309  28.857  22.889  1.00  0.00     0.188 C 
BRANCH   3   4
ATOM      4  C   UNL A   1      31.541  28.195  22.244  1.00  0.00     0.188 C 
BRANCH   4   5
ATOM      5  O   UNL A   1      31.388  26.916  21.668  1.00  0.00    -0.376 OA
BRANCH   5   6
ATOM      6  C   UNL A   1      31.168  25.770  22.483  1.00  0.00     0.202 C 
BRANCH   6   7
ATOM      7  C   UNL A   1      31.968  24.451  22.412  1.00  0.00     0.261 C 
BRANCH   7   8
ATOM      8  O   UNL A   1      33.315  24.480  22.903  1.00  0.00    -0.461 OA
BRANCH   8   9
ATOM      9  C   UNL A   1      33.708  23.489  23.750  1.00  0.00     0.338 C 
ATOM     10  O   UNL A   1      33.397  22.313  23.597  1.00  0.00    -0.249 OA
BRANCH   9  11
ATOM     11  C   UNL A   1      34.690  24.014  24.865  1.00  0.00     0.168 C 
BRANCH  11  12
ATOM     12  C   UNL A   1      36.052  23.274  24.744  1.00  0.00     0.044 C 
ATOM     13  C   UNL A   1      36.605  23.091  23.332  1.00  0.00     0.007 C 
ENDBRANCH  11  12
BRANCH  11  14
ATOM     14  O   UNL A   1      34.934  25.402  24.568  1.00  0.00    -0.378 OA
ATOM     15  H   UNL A   1      34.097  25.890  24.596  1.00  0.00     0.212 HD
ENDBRANCH  11  14
BRANCH  11  16
ATOM     16  C   UNL A   1      33.912  23.916  26.259  1.00  0.00     0.070 C 
ATOM     17  C   UNL A   1      34.069  22.483  26.836  1.00  0.00     0.053 C 
ATOM     18  C   UNL A   1      32.437  24.322  26.336  1.00  0.00     0.001 A 
ATOM     19  C   UNL A   1      33.148  22.278  28.016  1.00  0.00     0.230 C 
ATOM     20  C   UNL A   1      31.483  23.470  26.918  1.00  0.00     0.122 A 
ATOM     21  C   UNL A   1      31.985  25.590  25.942  1.00  0.00     0.008 A 
ATOM     22  O   UNL A   1      31.795  22.305  27.568  1.00  0.00    -0.493 OA
ATOM     23  C   UNL A   1      30.119  23.777  26.896  1.00  0.00     0.047 A 
ATOM     24  C   UNL A   1      30.622  25.909  25.926  1.00  0.00     0.001 A 
ATOM     25  C   UNL A   1      29.684  24.986  26.369  1.00  0.00     0.004 A 
ENDBRANCH  11  16
ENDBRANCH   9  11
ENDBRANCH   8   9
ENDBRANCH   7   8
ENDBRANCH   6   7
ENDBRANCH   5   6
ENDBRANCH   4   5
ENDBRANCH   3   4
ENDBRANCH   2   3
ENDBRANCH   1   2
BRANCH   1  26
ATOM     26  C   UNL A   1      32.318  30.347  25.588  1.00  0.00     0.188 C 
BRANCH  26  27
ATOM     27  O   UNL A   1      32.753  30.108  26.918  1.00  0.00    -0.376 OA
BRANCH  27  28
ATOM     28  C   UNL A   1      33.414  31.150  27.622  1.00  0.00     0.202 C 
BRANCH  28  29
ATOM     29  C   UNL A   1      32.957  32.598  27.372  1.00  0.00     0.261 C 
BRANCH  29  30
ATOM     30  O   UNL A   1      32.569  33.354  28.528  1.00  0.00    -0.460 OA
BRANCH  30  31
ATOM     31  C   UNL A   1      33.212  34.522  28.763  1.00  0.00     0.338 C 
ATOM     32  O   UNL A   1      32.828  35.636  28.485  1.00  0.00    -0.246 OA
BRANCH  31  33
ATOM     33  C   UNL A   1      34.384  34.220  29.614  1.00  0.00     0.060 A 
ATOM     34  C   UNL A   1      35.667  34.368  29.071  1.00  0.00     0.016 A 
ATOM     35  C   UNL A   1      34.217  33.795  30.933  1.00  0.00     0.016 A 
ATOM     36  C   UNL A   1      36.789  34.048  29.835  1.00  0.00     0.010 A 
ATOM     37  C   UNL A   1      35.341  33.453  31.689  1.00  0.00     0.010 A 
ATOM     38  C   UNL A   1      36.629  33.540  31.129  1.00  0.00    -0.014 A 
BRANCH  38  39
ATOM     39  C   UNL A   1      37.781  32.909  31.816  1.00  0.00     0.031 A 
ATOM     40  C   UNL A   1      38.445  31.731  31.154  1.00  0.00     0.074 A 
ATOM     41  C   UNL A   1      38.237  33.369  32.993  1.00  0.00     0.049 A 
ATOM     42  N   UNL A   1      39.431  30.986  31.580  1.00  0.00    -0.248 NA
ATOM     43  C   UNL A   1      37.923  31.339  29.834  1.00  0.00     0.031 C 
ATOM     44  C   UNL A   1      37.690  34.510  33.724  1.00  0.00     0.029 A 
ATOM     45  N   UNL A   1      39.251  32.907  33.795  1.00  0.00    -0.354 N 
ATOM     46  C   UNL A   1      39.626  30.020  30.601  1.00  0.00     0.074 A 
ATOM     47  C   UNL A   1      38.649  30.265  29.564  1.00  0.00     0.031 C 
ATOM     48  C   UNL A   1      38.354  34.640  34.887  1.00  0.00     0.029 A 
ATOM     49  C   UNL A   1      39.349  33.573  34.993  1.00  0.00     0.049 A 
ATOM     50  H   UNL A   1      39.851  32.170  33.536  1.00  0.00     0.167 HD
ATOM     51  C   UNL A   1      40.542  29.025  30.560  1.00  0.00     0.034 A 
ATOM     52  C   UNL A   1      40.129  33.328  36.066  1.00  0.00     0.034 A 
ATOM     53  C   UNL A   1      41.518  28.789  31.589  1.00  0.00     0.049 A 
ATOM     54  C   UNL A   1      41.115  32.187  36.016  1.00  0.00     0.074 A 
ATOM     55  C   UNL A   1      42.514  27.830  31.625  1.00  0.00     0.029 A 
ATOM     56  N   UNL A   1      41.607  29.504  32.773  1.00  0.00    -0.354 N 
ATOM     57  N   UNL A   1      41.357  31.345  35.040  1.00  0.00    -0.248 NA
ATOM     58  C   UNL A   1      41.958  31.983  37.204  1.00  0.00     0.031 C 
ATOM     59  C   UNL A   1      43.180  27.938  32.850  1.00  0.00     0.029 A 
ATOM     60  C   UNL A   1      42.632  28.997  33.555  1.00  0.00     0.049 A 
ATOM     61  H   UNL A   1      41.028  30.259  33.023  1.00  0.00     0.167 HD
ATOM     62  C   UNL A   1      42.403  30.539  35.480  1.00  0.00     0.074 A 
ATOM     63  C   UNL A   1      42.761  31.007  36.803  1.00  0.00     0.031 C 
ATOM     64  C   UNL A   1      43.009  29.502  34.851  1.00  0.00     0.034 A 
BRANCH  51  65
ATOM     65  C   UNL A   1      40.536  28.119  29.357  1.00  0.00     0.023 A 
ATOM     66  C   UNL A   1      39.595  27.073  29.268  1.00  0.00     0.012 A 
ATOM     67  C   UNL A   1      41.434  28.333  28.293  1.00  0.00     0.148 A 
ATOM     68  C   UNL A   1      39.573  26.231  28.157  1.00  0.00     0.002 A 
ATOM     69  C   UNL A   1      41.372  27.521  27.167  1.00  0.00     0.091 A 
ATOM     70  F   UNL A   1      42.335  29.318  28.406  1.00  0.00    -0.205 F 
ATOM     71  C   UNL A   1      40.453  26.462  27.104  1.00  0.00     0.022 A 
BRANCH  69  72
ATOM     72  S   UNL A   1      42.407  27.786  25.724  1.00  0.00     0.127 S 
ATOM     73  O   UNL A   1      43.734  27.892  26.330  1.00  0.00    -0.237 OA
ATOM     74  O   UNL A   1      42.183  26.560  24.958  1.00  0.00    -0.237 OA
ATOM     75  O   UNL A   1      41.913  29.000  25.090  1.00  0.00    -0.744 OA
ENDBRANCH  69  72
ENDBRANCH  51  65
BRANCH  52  76
ATOM     76  C   UNL A   1      40.018  34.183  37.281  1.00  0.00     0.023 A 
ATOM     77  C   UNL A   1      40.641  35.445  37.309  1.00  0.00     0.012 A 
ATOM     78  C   UNL A   1      39.295  33.749  38.409  1.00  0.00     0.148 A 
ATOM     79  C   UNL A   1      40.574  36.246  38.452  1.00  0.00     0.002 A 
ATOM     80  C   UNL A   1      39.183  34.574  39.521  1.00  0.00     0.091 A 
ATOM     81  F   UNL A   1      38.724  32.537  38.367  1.00  0.00    -0.205 F 
ATOM     82  C   UNL A   1      39.838  35.815  39.552  1.00  0.00     0.022 A 
BRANCH  80  83
ATOM     83  S   UNL A   1      38.156  34.156  40.933  1.00  0.00     0.127 S 
ATOM     84  O   UNL A   1      39.063  33.336  41.731  1.00  0.00    -0.237 OA
ATOM     85  O   UNL A   1      37.865  35.477  41.490  1.00  0.00    -0.237 OA
ATOM     86  O   UNL A   1      36.996  33.464  40.387  1.00  0.00    -0.744 OA
ENDBRANCH  80  83
ENDBRANCH  52  76
BRANCH  64  87
ATOM     87  C   UNL A   1      44.161  28.827  35.552  1.00  0.00     0.023 A 
ATOM     88  C   UNL A   1      45.476  29.301  35.378  1.00  0.00     0.012 A 
ATOM     89  C   UNL A   1      43.924  27.764  36.448  1.00  0.00     0.148 A 
ATOM     90  C   UNL A   1      46.540  28.704  36.053  1.00  0.00     0.002 A 
ATOM     91  C   UNL A   1      44.981  27.211  37.159  1.00  0.00     0.091 A 
ATOM     92  F   UNL A   1      42.668  27.317  36.590  1.00  0.00    -0.205 F 
ATOM     93  C   UNL A   1      46.292  27.670  36.952  1.00  0.00     0.022 A 
BRANCH  91  94
ATOM     94  S   UNL A   1      44.745  25.944  38.412  1.00  0.00     0.127 S 
ATOM     95  O   UNL A   1      46.125  25.574  38.723  1.00  0.00    -0.237 OA
ATOM     96  O   UNL A   1      44.057  26.682  39.471  1.00  0.00    -0.237 OA
ATOM     97  O   UNL A   1      43.947  24.900  37.784  1.00  0.00    -0.744 OA
ENDBRANCH  91  94
ENDBRANCH  64  87
ENDBRANCH  38  39
ENDBRANCH  31  33
ENDBRANCH  30  31
ENDBRANCH  29  30
ENDBRANCH  28  29
ENDBRANCH  27  28
ENDBRANCH  26  27
ENDBRANCH   1  26
TORSDOF 26
ENDMDL
