MODEL 1
REMARK VINA RESULT:      -8.4      0.000      0.000
REMARK SMILES CC(C)C[C@H](NC(=O)[C@@H](NC(=O)[C@H](C)NC(=O)CNC(=O)OCc1ccccc1)C(C)C)C(=O)OCCOCCOCCOCCOC(=O)c1ccc(-c2c3nc(c(-c4cccc(S(=O)(=O)[O-])c4F)c4ccc([nH]4)c(-c4cccc(S(=O)(=O)[O-])c4F)c4nc(c(-c5cccc(S(=O)(=O)[O-])c5F)c5ccc2[nH]5)C=C4)C=C3)cc1
REMARK SMILES IDX 37 1 36 2 35 3 33 4 34 5 5 6 4 7 2 8 1 9 3 10 6 11 7 12 8 14
REMARK SMILES IDX 9 15 10 16 11 17 12 19 13 20 14 21 15 22 16 23 17 25 18 26
REMARK SMILES IDX 19 27 20 28 21 30 22 31 23 32 24 33 25 34 29 35 26 36 28 37
REMARK SMILES IDX 27 38 30 39 31 40 32 41 38 42 39 43 40 44 41 45 42 46 43 47
REMARK SMILES IDX 44 48 45 49 46 50 47 51 48 52 49 53 50 54 51 55 112 56 52 57
REMARK SMILES IDX 111 58 53 59 54 60 55 61 105 62 56 63 110 64 104 65 106 66
REMARK SMILES IDX 57 67 109 68 103 69 102 70 58 72 90 73 70 74 89 75 71 76
REMARK SMILES IDX 74 77 88 78 107 79 72 80 73 81 87 83 108 84 75 85 59 86
REMARK SMILES IDX 60 87 68 88 61 89 63 90 69 91 62 92 64 93 65 94 66 95 67 96
REMARK SMILES IDX 91 97 92 98 100 99 93 100 95 101 101 102 94 103 96 104
REMARK SMILES IDX 97 105 98 106 99 107 76 108 77 109 85 110 78 111 80 112
REMARK SMILES IDX 86 113 79 114 81 115 82 116 83 117 84 118
REMARK H PARENT 6 13 10 18 15 24 19 29 106 71 74 82
REMARK Flexibility Score: inf
ROOT
ATOM      1  C   UNL A   1      33.947  29.231  27.354  1.00  0.00     0.202 C 
ENDROOT
BRANCH   1   2
ATOM      2  C   UNL A   1      32.474  29.195  26.891  1.00  0.00     0.261 C 
BRANCH   2   3
ATOM      3  O   UNL A   1      32.271  30.013  25.742  1.00  0.00    -0.462 OA
BRANCH   3   4
ATOM      4  C   UNL A   1      32.366  29.293  24.605  1.00  0.00     0.328 C 
ATOM      5  O   UNL A   1      33.430  29.028  24.057  1.00  0.00    -0.250 OA
BRANCH   4   6
ATOM      6  C   UNL A   1      31.006  28.984  23.978  1.00  0.00     0.192 C 
BRANCH   6   7
ATOM      7  C   UNL A   1      30.195  30.275  24.120  1.00  0.00     0.040 C 
BRANCH   7   8
ATOM      8  C   UNL A   1      28.986  30.240  23.180  1.00  0.00    -0.015 C 
ATOM      9  C   UNL A   1      28.035  31.385  23.521  1.00  0.00     0.007 C 
ATOM     10  C   UNL A   1      29.437  30.266  21.729  1.00  0.00     0.007 C 
ENDBRANCH   7   8
ENDBRANCH   6   7
BRANCH   6  11
ATOM     11  N   UNL A   1      30.200  27.882  24.488  1.00  0.00    -0.341 N 
ATOM     12  C   UNL A   1      30.452  26.548  24.557  1.00  0.00     0.243 C 
ATOM     13  H   UNL A   1      29.323  28.151  24.843  1.00  0.00     0.164 HD
ATOM     14  O   UNL A   1      29.439  25.859  24.734  1.00  0.00    -0.273 OA
BRANCH  12  15
ATOM     15  C   UNL A   1      31.876  25.844  24.502  1.00  0.00     0.174 C 
BRANCH  15  16
ATOM     16  N   UNL A   1      32.848  26.082  23.395  1.00  0.00    -0.342 N 
ATOM     17  C   UNL A   1      33.388  25.337  22.372  1.00  0.00     0.242 C 
ATOM     18  H   UNL A   1      33.190  27.006  23.398  1.00  0.00     0.164 HD
ATOM     19  O   UNL A   1      33.759  25.962  21.374  1.00  0.00    -0.273 OA
BRANCH  17  20
ATOM     20  C   UNL A   1      33.551  23.798  22.462  1.00  0.00     0.168 C 
ATOM     21  C   UNL A   1      32.974  23.134  21.216  1.00  0.00     0.041 C 
BRANCH  20  22
ATOM     22  N   UNL A   1      32.984  23.100  23.644  1.00  0.00    -0.343 N 
ATOM     23  C   UNL A   1      33.357  21.977  24.352  1.00  0.00     0.240 C 
ATOM     24  H   UNL A   1      32.171  23.529  23.995  1.00  0.00     0.164 HD
ATOM     25  O   UNL A   1      32.408  21.220  24.623  1.00  0.00    -0.273 OA
BRANCH  23  26
ATOM     26  C   UNL A   1      34.767  21.678  25.052  1.00  0.00     0.219 C 
BRANCH  26  27
ATOM     27  N   UNL A   1      35.865  22.575  25.614  1.00  0.00    -0.312 N 
ATOM     28  C   UNL A   1      37.244  22.871  25.696  1.00  0.00     0.407 C 
ATOM     29  H   UNL A   1      35.409  23.250  26.167  1.00  0.00     0.167 HD
ATOM     30  O   UNL A   1      37.420  24.091  25.833  1.00  0.00    -0.225 OA
BRANCH  28  31
ATOM     31  O   UNL A   1      38.418  22.103  25.713  1.00  0.00    -0.445 OA
BRANCH  31  32
ATOM     32  C   UNL A   1      39.706  21.409  26.333  1.00  0.00     0.270 C 
BRANCH  32  33
ATOM     33  C   UNL A   1      40.812  22.366  26.535  1.00  0.00    -0.011 A 
ATOM     34  C   UNL A   1      41.980  22.100  25.837  1.00  0.00     0.007 A 
ATOM     35  C   UNL A   1      40.773  23.145  27.681  1.00  0.00     0.007 A 
ATOM     36  C   UNL A   1      43.123  22.088  26.578  1.00  0.00     0.000 A 
ATOM     37  C   UNL A   1      41.922  23.137  28.411  1.00  0.00     0.000 A 
ATOM     38  C   UNL A   1      43.025  22.443  27.912  1.00  0.00     0.000 A 
ENDBRANCH  32  33
ENDBRANCH  31  32
ENDBRANCH  28  31
ENDBRANCH  26  27
ENDBRANCH  23  26
ENDBRANCH  20  22
ENDBRANCH  17  20
ENDBRANCH  15  16
BRANCH  15  39
ATOM     39  C   UNL A   1      32.587  25.727  25.895  1.00  0.00     0.015 C 
ATOM     40  C   UNL A   1      32.210  24.505  26.752  1.00  0.00     0.010 C 
ATOM     41  C   UNL A   1      34.125  25.761  25.805  1.00  0.00     0.010 C 
ENDBRANCH  15  39
ENDBRANCH  12  15
ENDBRANCH   6  11
ENDBRANCH   4   6
ENDBRANCH   3   4
ENDBRANCH   2   3
ENDBRANCH   1   2
BRANCH   1  42
ATOM     42  O   UNL A   1      34.823  30.376  27.138  1.00  0.00    -0.376 OA
BRANCH  42  43
ATOM     43  C   UNL A   1      35.000  31.637  27.842  1.00  0.00     0.188 C 
BRANCH  43  44
ATOM     44  C   UNL A   1      34.239  32.689  28.886  1.00  0.00     0.188 C 
BRANCH  44  45
ATOM     45  O   UNL A   1      34.561  33.968  29.379  1.00  0.00    -0.377 OA
BRANCH  45  46
ATOM     46  C   UNL A   1      33.915  34.735  30.380  1.00  0.00     0.188 C 
BRANCH  46  47
ATOM     47  C   UNL A   1      34.547  35.190  31.702  1.00  0.00     0.188 C 
BRANCH  47  48
ATOM     48  O   UNL A   1      35.529  34.441  32.397  1.00  0.00    -0.376 OA
BRANCH  48  49
ATOM     49  C   UNL A   1      35.180  33.204  32.967  1.00  0.00     0.202 C 
BRANCH  49  50
ATOM     50  C   UNL A   1      35.439  31.950  32.122  1.00  0.00     0.261 C 
BRANCH  50  51
ATOM     51  O   UNL A   1      36.466  31.060  32.586  1.00  0.00    -0.460 OA
BRANCH  51  52
ATOM     52  C   UNL A   1      36.896  30.116  31.712  1.00  0.00     0.338 C 
ATOM     53  O   UNL A   1      36.207  29.270  31.155  1.00  0.00    -0.246 OA
BRANCH  52  54
ATOM     54  C   UNL A   1      38.334  30.340  31.402  1.00  0.00     0.060 A 
ATOM     55  C   UNL A   1      39.197  30.742  32.431  1.00  0.00     0.016 A 
ATOM     56  C   UNL A   1      38.836  30.173  30.106  1.00  0.00     0.016 A 
ATOM     57  C   UNL A   1      40.544  31.012  32.156  1.00  0.00     0.010 A 
ATOM     58  C   UNL A   1      40.183  30.468  29.825  1.00  0.00     0.010 A 
ATOM     59  C   UNL A   1      41.045  30.913  30.844  1.00  0.00    -0.014 A 
BRANCH  59  60
ATOM     60  C   UNL A   1      42.336  31.598  30.533  1.00  0.00     0.031 A 
ATOM     61  C   UNL A   1      43.553  30.728  30.557  1.00  0.00     0.074 A 
ATOM     62  C   UNL A   1      42.464  32.892  30.177  1.00  0.00     0.049 A 
ATOM     63  N   UNL A   1      44.782  31.036  30.263  1.00  0.00    -0.248 NA
ATOM     64  C   UNL A   1      43.366  29.351  31.047  1.00  0.00     0.031 C 
ATOM     65  C   UNL A   1      41.438  33.896  30.333  1.00  0.00     0.029 A 
ATOM     66  N   UNL A   1      43.491  33.602  29.600  1.00  0.00    -0.354 N 
ATOM     67  C   UNL A   1      45.523  29.911  30.577  1.00  0.00     0.074 A 
ATOM     68  C   UNL A   1      44.613  28.918  31.099  1.00  0.00     0.031 C 
ATOM     69  C   UNL A   1      41.757  35.014  29.668  1.00  0.00     0.029 A 
ATOM     70  C   UNL A   1      43.142  34.896  29.249  1.00  0.00     0.049 A 
ATOM     71  H   UNL A   1      44.388  33.226  29.451  1.00  0.00     0.167 HD
ATOM     72  C   UNL A   1      46.851  29.722  30.437  1.00  0.00     0.034 A 
ATOM     73  C   UNL A   1      43.873  35.906  28.737  1.00  0.00     0.034 A 
ATOM     74  C   UNL A   1      47.743  30.724  29.928  1.00  0.00     0.049 A 
ATOM     75  C   UNL A   1      45.339  35.650  28.547  1.00  0.00     0.074 A 
ATOM     76  C   UNL A   1      49.107  30.639  29.737  1.00  0.00     0.029 A 
ATOM     77  N   UNL A   1      47.357  32.000  29.540  1.00  0.00    -0.354 N 
ATOM     78  N   UNL A   1      46.013  34.549  28.775  1.00  0.00    -0.248 NA
ATOM     79  C   UNL A   1      46.153  36.767  28.054  1.00  0.00     0.031 C 
ATOM     80  C   UNL A   1      49.550  31.870  29.246  1.00  0.00     0.029 A 
ATOM     81  C   UNL A   1      48.457  32.710  29.096  1.00  0.00     0.049 A 
ATOM     82  H   UNL A   1      46.437  32.347  29.576  1.00  0.00     0.167 HD
ATOM     83  C   UNL A   1      47.330  34.836  28.455  1.00  0.00     0.074 A 
ATOM     84  C   UNL A   1      47.349  36.202  27.966  1.00  0.00     0.031 C 
ATOM     85  C   UNL A   1      48.431  34.056  28.583  1.00  0.00     0.034 A 
BRANCH  72  86
ATOM     86  C   UNL A   1      47.385  28.380  30.840  1.00  0.00     0.023 A 
ATOM     87  C   UNL A   1      47.437  27.336  29.891  1.00  0.00     0.012 A 
ATOM     88  C   UNL A   1      47.815  28.143  32.157  1.00  0.00     0.148 A 
ATOM     89  C   UNL A   1      47.878  26.068  30.257  1.00  0.00     0.002 A 
ATOM     90  C   UNL A   1      48.304  26.891  32.502  1.00  0.00     0.091 A 
ATOM     91  F   UNL A   1      47.715  29.137  33.051  1.00  0.00    -0.205 F 
ATOM     92  C   UNL A   1      48.323  25.848  31.558  1.00  0.00     0.022 A 
BRANCH  90  93
ATOM     93  S   UNL A   1      48.966  26.523  34.127  1.00  0.00     0.127 S 
ATOM     94  O   UNL A   1      47.966  27.137  35.001  1.00  0.00    -0.237 OA
ATOM     95  O   UNL A   1      48.963  25.060  34.130  1.00  0.00    -0.237 OA
ATOM     96  O   UNL A   1      50.288  27.134  34.174  1.00  0.00    -0.744 OA
ENDBRANCH  90  93
ENDBRANCH  72  86
BRANCH  73  97
ATOM     97  C   UNL A   1      43.271  37.246  28.442  1.00  0.00     0.023 A 
ATOM     98  C   UNL A   1      42.644  37.481  27.201  1.00  0.00     0.012 A 
ATOM     99  C   UNL A   1      43.309  38.297  29.383  1.00  0.00     0.148 A 
ATOM    100  C   UNL A   1      42.097  38.731  26.895  1.00  0.00     0.002 A 
ATOM    101  C   UNL A   1      42.694  39.513  29.105  1.00  0.00     0.091 A 
ATOM    102  F   UNL A   1      43.942  38.087  30.546  1.00  0.00    -0.205 F 
ATOM    103  C   UNL A   1      42.107  39.742  27.852  1.00  0.00     0.022 A 
BRANCH 101 104
ATOM    104  S   UNL A   1      42.523  40.806  30.342  1.00  0.00     0.127 S 
ATOM    105  O   UNL A   1      43.595  41.725  29.969  1.00  0.00    -0.237 OA
ATOM    106  O   UNL A   1      41.170  41.300  30.083  1.00  0.00    -0.237 OA
ATOM    107  O   UNL A   1      42.676  40.137  31.628  1.00  0.00    -0.744 OA
ENDBRANCH 101 104
ENDBRANCH  73  97
BRANCH  85 108
ATOM    108  C   UNL A   1      49.732  34.656  28.135  1.00  0.00     0.023 A 
ATOM    109  C   UNL A   1      50.414  35.568  28.965  1.00  0.00     0.012 A 
ATOM    110  C   UNL A   1      50.287  34.291  26.895  1.00  0.00     0.148 A 
ATOM    111  C   UNL A   1      51.608  36.146  28.541  1.00  0.00     0.002 A 
ATOM    112  C   UNL A   1      51.505  34.826  26.506  1.00  0.00     0.091 A 
ATOM    113  F   UNL A   1      49.606  33.438  26.115  1.00  0.00    -0.205 F 
ATOM    114  C   UNL A   1      52.158  35.768  27.318  1.00  0.00     0.022 A 
BRANCH 112 115
ATOM    115  S   UNL A   1      52.330  34.315  24.998  1.00  0.00     0.127 S 
ATOM    116  O   UNL A   1      51.278  34.511  24.002  1.00  0.00    -0.237 OA
ATOM    117  O   UNL A   1      53.437  35.268  24.913  1.00  0.00    -0.237 OA
ATOM    118  O   UNL A   1      52.740  32.934  25.214  1.00  0.00    -0.744 OA
ENDBRANCH 112 115
ENDBRANCH  85 108
ENDBRANCH  59  60
ENDBRANCH  52  54
ENDBRANCH  51  52
ENDBRANCH  50  51
ENDBRANCH  49  50
ENDBRANCH  48  49
ENDBRANCH  47  48
ENDBRANCH  46  47
ENDBRANCH  45  46
ENDBRANCH  44  45
ENDBRANCH  43  44
ENDBRANCH  42  43
ENDBRANCH   1  42
TORSDOF 36
ENDMDL
MODEL 2
REMARK VINA RESULT:      -7.8      3.199      7.788
REMARK SMILES CC(C)C[C@H](NC(=O)[C@@H](NC(=O)[C@H](C)NC(=O)CNC(=O)OCc1ccccc1)C(C)C)C(=O)OCCOCCOCCOCCOC(=O)c1ccc(-c2c3nc(c(-c4cccc(S(=O)(=O)[O-])c4F)c4ccc([nH]4)c(-c4cccc(S(=O)(=O)[O-])c4F)c4nc(c(-c5cccc(S(=O)(=O)[O-])c5F)c5ccc2[nH]5)C=C4)C=C3)cc1
REMARK SMILES IDX 37 1 36 2 35 3 33 4 34 5 5 6 4 7 2 8 1 9 3 10 6 11 7 12 8 14
REMARK SMILES IDX 9 15 10 16 11 17 12 19 13 20 14 21 15 22 16 23 17 25 18 26
REMARK SMILES IDX 19 27 20 28 21 30 22 31 23 32 24 33 25 34 29 35 26 36 28 37
REMARK SMILES IDX 27 38 30 39 31 40 32 41 38 42 39 43 40 44 41 45 42 46 43 47
REMARK SMILES IDX 44 48 45 49 46 50 47 51 48 52 49 53 50 54 51 55 112 56 52 57
REMARK SMILES IDX 111 58 53 59 54 60 55 61 105 62 56 63 110 64 104 65 106 66
REMARK SMILES IDX 57 67 109 68 103 69 102 70 58 72 90 73 70 74 89 75 71 76
REMARK SMILES IDX 74 77 88 78 107 79 72 80 73 81 87 83 108 84 75 85 59 86
REMARK SMILES IDX 60 87 68 88 61 89 63 90 69 91 62 92 64 93 65 94 66 95 67 96
REMARK SMILES IDX 91 97 92 98 100 99 93 100 95 101 101 102 94 103 96 104
REMARK SMILES IDX 97 105 98 106 99 107 76 108 77 109 85 110 78 111 80 112
REMARK SMILES IDX 86 113 79 114 81 115 82 116 83 117 84 118
REMARK H PARENT 6 13 10 18 15 24 19 29 106 71 74 82
REMARK Flexibility Score: inf
ROOT
ATOM      1  C   UNL A   1      33.556  29.916  27.381  1.00  0.00     0.202 C 
ENDROOT
BRANCH   1   2
ATOM      2  C   UNL A   1      32.110  29.529  26.998  1.00  0.00     0.261 C 
BRANCH   2   3
ATOM      3  O   UNL A   1      31.723  30.125  25.763  1.00  0.00    -0.462 OA
BRANCH   3   4
ATOM      4  C   UNL A   1      31.961  29.299  24.724  1.00  0.00     0.328 C 
ATOM      5  O   UNL A   1      33.071  28.860  24.446  1.00  0.00    -0.250 OA
BRANCH   4   6
ATOM      6  C   UNL A   1      30.739  29.100  23.827  1.00  0.00     0.192 C 
BRANCH   6   7
ATOM      7  C   UNL A   1      30.010  30.446  23.835  1.00  0.00     0.040 C 
BRANCH   7   8
ATOM      8  C   UNL A   1      28.713  30.344  23.027  1.00  0.00    -0.015 C 
ATOM      9  C   UNL A   1      27.704  31.370  23.539  1.00  0.00     0.007 C 
ATOM     10  C   UNL A   1      28.995  30.492  21.541  1.00  0.00     0.007 C 
ENDBRANCH   7   8
ENDBRANCH   6   7
BRANCH   6  11
ATOM     11  N   UNL A   1      29.769  28.056  24.135  1.00  0.00    -0.341 N 
ATOM     12  C   UNL A   1      29.849  26.703  24.028  1.00  0.00     0.243 C 
ATOM     13  H   UNL A   1      28.910  28.388  24.480  1.00  0.00     0.164 HD
ATOM     14  O   UNL A   1      28.748  26.137  24.055  1.00  0.00    -0.273 OA
BRANCH  12  15
ATOM     15  C   UNL A   1      31.174  25.830  23.946  1.00  0.00     0.174 C 
BRANCH  15  16
ATOM     16  N   UNL A   1      32.332  26.207  23.084  1.00  0.00    -0.342 N 
ATOM     17  C   UNL A   1      33.299  25.535  22.371  1.00  0.00     0.242 C 
ATOM     18  H   UNL A   1      32.430  27.184  23.005  1.00  0.00     0.164 HD
ATOM     19  O   UNL A   1      33.775  26.127  21.398  1.00  0.00    -0.273 OA
BRANCH  17  20
ATOM     20  C   UNL A   1      33.790  24.119  22.771  1.00  0.00     0.168 C 
ATOM     21  C   UNL A   1      32.640  23.121  22.690  1.00  0.00     0.041 C 
BRANCH  20  22
ATOM     22  N   UNL A   1      34.438  23.949  24.096  1.00  0.00    -0.343 N 
ATOM     23  C   UNL A   1      34.532  22.893  24.977  1.00  0.00     0.240 C 
ATOM     24  H   UNL A   1      34.896  24.761  24.411  1.00  0.00     0.164 HD
ATOM     25  O   UNL A   1      34.332  23.214  26.162  1.00  0.00    -0.273 OA
BRANCH  23  26
ATOM     26  C   UNL A   1      35.094  21.420  24.692  1.00  0.00     0.219 C 
BRANCH  26  27
ATOM     27  N   UNL A   1      36.500  20.839  24.595  1.00  0.00    -0.312 N 
ATOM     28  C   UNL A   1      37.788  20.721  25.163  1.00  0.00     0.407 C 
ATOM     29  H   UNL A   1      36.519  20.308  23.766  1.00  0.00     0.167 HD
ATOM     30  O   UNL A   1      38.283  19.615  24.894  1.00  0.00    -0.225 OA
BRANCH  28  31
ATOM     31  O   UNL A   1      38.627  21.576  25.894  1.00  0.00    -0.445 OA
BRANCH  31  32
ATOM     32  C   UNL A   1      39.839  21.987  26.835  1.00  0.00     0.270 C 
BRANCH  32  33
ATOM     33  C   UNL A   1      40.149  23.429  26.745  1.00  0.00    -0.011 A 
ATOM     34  C   UNL A   1      41.410  23.805  27.182  1.00  0.00     0.007 A 
ATOM     35  C   UNL A   1      39.077  24.303  26.674  1.00  0.00     0.007 A 
ATOM     36  C   UNL A   1      41.443  24.828  28.081  1.00  0.00     0.000 A 
ATOM     37  C   UNL A   1      39.121  25.328  27.568  1.00  0.00     0.000 A 
ATOM     38  C   UNL A   1      40.246  25.453  28.386  1.00  0.00     0.000 A 
ENDBRANCH  32  33
ENDBRANCH  31  32
ENDBRANCH  28  31
ENDBRANCH  26  27
ENDBRANCH  23  26
ENDBRANCH  20  22
ENDBRANCH  17  20
ENDBRANCH  15  16
BRANCH  15  39
ATOM     39  C   UNL A   1      31.635  25.233  25.322  1.00  0.00     0.015 C 
ATOM     40  C   UNL A   1      31.619  26.196  26.522  1.00  0.00     0.010 C 
ATOM     41  C   UNL A   1      30.850  23.975  25.739  1.00  0.00     0.010 C 
ENDBRANCH  15  39
ENDBRANCH  12  15
ENDBRANCH   6  11
ENDBRANCH   4   6
ENDBRANCH   3   4
ENDBRANCH   2   3
ENDBRANCH   1   2
BRANCH   1  42
ATOM     42  O   UNL A   1      34.079  31.271  27.250  1.00  0.00    -0.376 OA
BRANCH  42  43
ATOM     43  C   UNL A   1      34.981  32.070  28.065  1.00  0.00     0.188 C 
BRANCH  43  44
ATOM     44  C   UNL A   1      35.924  32.016  29.437  1.00  0.00     0.188 C 
BRANCH  44  45
ATOM     45  O   UNL A   1      35.955  32.774  30.623  1.00  0.00    -0.377 OA
BRANCH  45  46
ATOM     46  C   UNL A   1      36.899  33.742  31.048  1.00  0.00     0.188 C 
BRANCH  46  47
ATOM     47  C   UNL A   1      37.343  33.977  32.498  1.00  0.00     0.188 C 
BRANCH  47  48
ATOM     48  O   UNL A   1      36.612  33.522  33.623  1.00  0.00    -0.376 OA
BRANCH  48  49
ATOM     49  C   UNL A   1      36.909  34.039  34.897  1.00  0.00     0.202 C 
BRANCH  49  50
ATOM     50  C   UNL A   1      37.474  33.058  35.931  1.00  0.00     0.261 C 
BRANCH  50  51
ATOM     51  O   UNL A   1      38.657  32.335  35.556  1.00  0.00    -0.460 OA
BRANCH  51  52
ATOM     52  C   UNL A   1      39.838  32.816  36.020  1.00  0.00     0.338 C 
ATOM     53  O   UNL A   1      40.028  33.370  37.096  1.00  0.00    -0.246 OA
BRANCH  52  54
ATOM     54  C   UNL A   1      40.932  32.444  35.082  1.00  0.00     0.060 A 
ATOM     55  C   UNL A   1      40.612  31.753  33.905  1.00  0.00     0.016 A 
ATOM     56  C   UNL A   1      42.268  32.756  35.358  1.00  0.00     0.016 A 
ATOM     57  C   UNL A   1      41.627  31.343  33.031  1.00  0.00     0.010 A 
ATOM     58  C   UNL A   1      43.289  32.324  34.491  1.00  0.00     0.010 A 
ATOM     59  C   UNL A   1      42.980  31.592  33.331  1.00  0.00    -0.014 A 
BRANCH  59  60
ATOM     60  C   UNL A   1      44.017  30.793  32.610  1.00  0.00     0.031 A 
ATOM     61  C   UNL A   1      44.560  31.412  31.362  1.00  0.00     0.074 A 
ATOM     62  C   UNL A   1      44.527  29.619  33.034  1.00  0.00     0.049 A 
ATOM     63  N   UNL A   1      45.508  30.979  30.582  1.00  0.00    -0.248 NA
ATOM     64  C   UNL A   1      43.897  32.643  30.897  1.00  0.00     0.031 C 
ATOM     65  C   UNL A   1      43.952  28.796  34.072  1.00  0.00     0.029 A 
ATOM     66  N   UNL A   1      45.644  28.903  32.672  1.00  0.00    -0.354 N 
ATOM     67  C   UNL A   1      45.523  31.854  29.511  1.00  0.00     0.074 A 
ATOM     68  C   UNL A   1      44.484  32.832  29.728  1.00  0.00     0.031 C 
ATOM     69  C   UNL A   1      44.803  27.832  34.446  1.00  0.00     0.029 A 
ATOM     70  C   UNL A   1      45.891  27.810  33.485  1.00  0.00     0.049 A 
ATOM     71  H   UNL A   1      46.214  29.146  31.907  1.00  0.00     0.167 HD
ATOM     72  C   UNL A   1      46.340  31.842  28.438  1.00  0.00     0.034 A 
ATOM     73  C   UNL A   1      46.827  26.842  33.415  1.00  0.00     0.034 A 
ATOM     74  C   UNL A   1      47.360  30.855  28.231  1.00  0.00     0.049 A 
ATOM     75  C   UNL A   1      47.754  26.883  32.235  1.00  0.00     0.074 A 
ATOM     76  C   UNL A   1      48.251  30.750  27.182  1.00  0.00     0.029 A 
ATOM     77  N   UNL A   1      47.616  29.793  29.089  1.00  0.00    -0.354 N 
ATOM     78  N   UNL A   1      47.807  27.768  31.268  1.00  0.00    -0.248 NA
ATOM     79  C   UNL A   1      48.731  25.795  32.115  1.00  0.00     0.031 C 
ATOM     80  C   UNL A   1      49.038  29.615  27.397  1.00  0.00     0.029 A 
ATOM     81  C   UNL A   1      48.662  29.033  28.599  1.00  0.00     0.049 A 
ATOM     82  H   UNL A   1      47.125  29.609  29.922  1.00  0.00     0.167 HD
ATOM     83  C   UNL A   1      48.821  27.346  30.423  1.00  0.00     0.074 A 
ATOM     84  C   UNL A   1      49.391  26.154  31.023  1.00  0.00     0.031 C 
ATOM     85  C   UNL A   1      49.225  27.874  29.242  1.00  0.00     0.034 A 
BRANCH  72  86
ATOM     86  C   UNL A   1      46.146  32.938  27.433  1.00  0.00     0.023 A 
ATOM     87  C   UNL A   1      45.198  32.777  26.399  1.00  0.00     0.012 A 
ATOM     88  C   UNL A   1      46.912  34.115  27.496  1.00  0.00     0.148 A 
ATOM     89  C   UNL A   1      45.039  33.757  25.425  1.00  0.00     0.002 A 
ATOM     90  C   UNL A   1      46.710  35.112  26.552  1.00  0.00     0.091 A 
ATOM     91  F   UNL A   1      47.836  34.226  28.460  1.00  0.00    -0.205 F 
ATOM     92  C   UNL A   1      45.786  34.930  25.508  1.00  0.00     0.022 A 
BRANCH  90  93
ATOM     93  S   UNL A   1      47.567  36.687  26.608  1.00  0.00     0.127 S 
ATOM     94  O   UNL A   1      47.325  37.107  27.988  1.00  0.00    -0.237 OA
ATOM     95  O   UNL A   1      48.946  36.290  26.324  1.00  0.00    -0.237 OA
ATOM     96  O   UNL A   1      46.947  37.523  25.589  1.00  0.00    -0.744 OA
ENDBRANCH  90  93
ENDBRANCH  72  86
BRANCH  73  97
ATOM     97  C   UNL A   1      46.895  25.734  34.421  1.00  0.00     0.023 A 
ATOM     98  C   UNL A   1      47.635  25.904  35.609  1.00  0.00     0.012 A 
ATOM     99  C   UNL A   1      46.229  24.508  34.215  1.00  0.00     0.148 A 
ATOM    100  C   UNL A   1      47.732  24.874  36.550  1.00  0.00     0.002 A 
ATOM    101  C   UNL A   1      46.263  23.516  35.191  1.00  0.00     0.091 A 
ATOM    102  F   UNL A   1      45.560  24.331  33.066  1.00  0.00    -0.205 F 
ATOM    103  C   UNL A   1      47.034  23.687  36.349  1.00  0.00     0.022 A 
BRANCH 101 104
ATOM    104  S   UNL A   1      45.261  22.028  35.080  1.00  0.00     0.127 S 
ATOM    105  O   UNL A   1      45.944  21.282  34.026  1.00  0.00    -0.237 OA
ATOM    106  O   UNL A   1      45.403  21.464  36.423  1.00  0.00    -0.237 OA
ATOM    107  O   UNL A   1      43.914  22.487  34.767  1.00  0.00    -0.744 OA
ENDBRANCH 101 104
ENDBRANCH  73  97
BRANCH  85 108
ATOM    108  C   UNL A   1      50.372  27.187  28.560  1.00  0.00     0.023 A 
ATOM    109  C   UNL A   1      50.127  26.170  27.615  1.00  0.00     0.012 A 
ATOM    110  C   UNL A   1      51.695  27.572  28.843  1.00  0.00     0.148 A 
ATOM    111  C   UNL A   1      51.189  25.513  26.999  1.00  0.00     0.002 A 
ATOM    112  C   UNL A   1      52.744  26.953  28.182  1.00  0.00     0.091 A 
ATOM    113  F   UNL A   1      51.900  28.527  29.762  1.00  0.00    -0.205 F 
ATOM    114  C   UNL A   1      52.496  25.910  27.275  1.00  0.00     0.022 A 
BRANCH 112 115
ATOM    115  S   UNL A   1      54.446  27.475  28.402  1.00  0.00     0.127 S 
ATOM    116  O   UNL A   1      55.146  26.608  27.456  1.00  0.00    -0.237 OA
ATOM    117  O   UNL A   1      54.391  28.884  28.014  1.00  0.00    -0.237 OA
ATOM    118  O   UNL A   1      54.756  27.249  29.807  1.00  0.00    -0.744 OA
ENDBRANCH 112 115
ENDBRANCH  85 108
ENDBRANCH  59  60
ENDBRANCH  52  54
ENDBRANCH  51  52
ENDBRANCH  50  51
ENDBRANCH  49  50
ENDBRANCH  48  49
ENDBRANCH  47  48
ENDBRANCH  46  47
ENDBRANCH  45  46
ENDBRANCH  44  45
ENDBRANCH  43  44
ENDBRANCH  42  43
ENDBRANCH   1  42
TORSDOF 36
ENDMDL
MODEL 3
REMARK VINA RESULT:      -7.5      7.360     11.025
REMARK SMILES CC(C)C[C@H](NC(=O)[C@@H](NC(=O)[C@H](C)NC(=O)CNC(=O)OCc1ccccc1)C(C)C)C(=O)OCCOCCOCCOCCOC(=O)c1ccc(-c2c3nc(c(-c4cccc(S(=O)(=O)[O-])c4F)c4ccc([nH]4)c(-c4cccc(S(=O)(=O)[O-])c4F)c4nc(c(-c5cccc(S(=O)(=O)[O-])c5F)c5ccc2[nH]5)C=C4)C=C3)cc1
REMARK SMILES IDX 37 1 36 2 35 3 33 4 34 5 5 6 4 7 2 8 1 9 3 10 6 11 7 12 8 14
REMARK SMILES IDX 9 15 10 16 11 17 12 19 13 20 14 21 15 22 16 23 17 25 18 26
REMARK SMILES IDX 19 27 20 28 21 30 22 31 23 32 24 33 25 34 29 35 26 36 28 37
REMARK SMILES IDX 27 38 30 39 31 40 32 41 38 42 39 43 40 44 41 45 42 46 43 47
REMARK SMILES IDX 44 48 45 49 46 50 47 51 48 52 49 53 50 54 51 55 112 56 52 57
REMARK SMILES IDX 111 58 53 59 54 60 55 61 105 62 56 63 110 64 104 65 106 66
REMARK SMILES IDX 57 67 109 68 103 69 102 70 58 72 90 73 70 74 89 75 71 76
REMARK SMILES IDX 74 77 88 78 107 79 72 80 73 81 87 83 108 84 75 85 59 86
REMARK SMILES IDX 60 87 68 88 61 89 63 90 69 91 62 92 64 93 65 94 66 95 67 96
REMARK SMILES IDX 91 97 92 98 100 99 93 100 95 101 101 102 94 103 96 104
REMARK SMILES IDX 97 105 98 106 99 107 76 108 77 109 85 110 78 111 80 112
REMARK SMILES IDX 86 113 79 114 81 115 82 116 83 117 84 118
REMARK H PARENT 6 13 10 18 15 24 19 29 106 71 74 82
REMARK Flexibility Score: inf
ROOT
ATOM      1  C   UNL A   1      32.618  29.951  27.204  1.00  0.00     0.202 C 
ENDROOT
BRANCH   1   2
ATOM      2  C   UNL A   1      31.687  29.537  26.044  1.00  0.00     0.261 C 
BRANCH   2   3
ATOM      3  O   UNL A   1      32.268  29.837  24.778  1.00  0.00    -0.462 OA
BRANCH   3   4
ATOM      4  C   UNL A   1      32.513  28.714  24.073  1.00  0.00     0.328 C 
ATOM      5  O   UNL A   1      33.590  28.128  24.082  1.00  0.00    -0.250 OA
BRANCH   4   6
ATOM      6  C   UNL A   1      31.370  28.339  23.130  1.00  0.00     0.192 C 
BRANCH   6   7
ATOM      7  C   UNL A   1      30.865  29.668  22.561  1.00  0.00     0.040 C 
BRANCH   7   8
ATOM      8  C   UNL A   1      29.379  29.845  22.889  1.00  0.00    -0.015 C 
ATOM      9  C   UNL A   1      29.199  31.025  23.842  1.00  0.00     0.007 C 
ATOM     10  C   UNL A   1      28.566  29.994  21.614  1.00  0.00     0.007 C 
ENDBRANCH   7   8
ENDBRANCH   6   7
BRANCH   6  11
ATOM     11  N   UNL A   1      30.223  27.594  23.633  1.00  0.00    -0.341 N 
ATOM     12  C   UNL A   1      30.086  26.284  23.970  1.00  0.00     0.243 C 
ATOM     13  H   UNL A   1      29.407  28.132  23.749  1.00  0.00     0.164 HD
ATOM     14  O   UNL A   1      28.908  25.909  24.042  1.00  0.00    -0.273 OA
BRANCH  12  15
ATOM     15  C   UNL A   1      31.253  25.266  24.328  1.00  0.00     0.174 C 
BRANCH  15  16
ATOM     16  N   UNL A   1      32.555  25.246  23.599  1.00  0.00    -0.342 N 
ATOM     17  C   UNL A   1      33.395  24.280  23.096  1.00  0.00     0.242 C 
ATOM     18  H   UNL A   1      32.899  26.155  23.437  1.00  0.00     0.164 HD
ATOM     19  O   UNL A   1      34.107  24.612  22.144  1.00  0.00    -0.273 OA
BRANCH  17  20
ATOM     20  C   UNL A   1      33.474  22.853  23.699  1.00  0.00     0.168 C 
ATOM     21  C   UNL A   1      32.220  22.062  23.342  1.00  0.00     0.041 C 
BRANCH  20  22
ATOM     22  N   UNL A   1      33.687  22.720  25.162  1.00  0.00    -0.343 N 
ATOM     23  C   UNL A   1      34.782  22.401  25.937  1.00  0.00     0.240 C 
ATOM     24  H   UNL A   1      32.875  22.895  25.690  1.00  0.00     0.164 HD
ATOM     25  O   UNL A   1      34.531  21.591  26.846  1.00  0.00    -0.273 OA
BRANCH  23  26
ATOM     26  C   UNL A   1      36.216  23.117  25.955  1.00  0.00     0.219 C 
BRANCH  26  27
ATOM     27  N   UNL A   1      37.646  22.594  25.869  1.00  0.00    -0.312 N 
ATOM     28  C   UNL A   1      38.945  22.564  26.423  1.00  0.00     0.407 C 
ATOM     29  H   UNL A   1      37.678  22.019  25.070  1.00  0.00     0.167 HD
ATOM     30  O   UNL A   1      39.485  21.468  26.207  1.00  0.00    -0.225 OA
BRANCH  28  31
ATOM     31  O   UNL A   1      39.753  23.494  27.093  1.00  0.00    -0.445 OA
BRANCH  31  32
ATOM     32  C   UNL A   1      40.096  24.761  27.988  1.00  0.00     0.270 C 
BRANCH  32  33
ATOM     33  C   UNL A   1      41.103  25.636  27.353  1.00  0.00    -0.011 A 
ATOM     34  C   UNL A   1      42.276  25.827  28.067  1.00  0.00     0.007 A 
ATOM     35  C   UNL A   1      40.655  26.513  26.378  1.00  0.00     0.007 A 
ATOM     36  C   UNL A   1      42.655  27.124  28.244  1.00  0.00     0.000 A 
ATOM     37  C   UNL A   1      41.047  27.804  26.555  1.00  0.00     0.000 A 
ATOM     38  C   UNL A   1      41.907  28.103  27.613  1.00  0.00     0.000 A 
ENDBRANCH  32  33
ENDBRANCH  31  32
ENDBRANCH  28  31
ENDBRANCH  26  27
ENDBRANCH  23  26
ENDBRANCH  20  22
ENDBRANCH  17  20
ENDBRANCH  15  16
BRANCH  15  39
ATOM     39  C   UNL A   1      31.436  25.016  25.866  1.00  0.00     0.015 C 
ATOM     40  C   UNL A   1      31.285  26.246  26.779  1.00  0.00     0.010 C 
ATOM     41  C   UNL A   1      30.510  23.920  26.426  1.00  0.00     0.010 C 
ENDBRANCH  15  39
ENDBRANCH  12  15
ENDBRANCH   6  11
ENDBRANCH   4   6
ENDBRANCH   3   4
ENDBRANCH   2   3
ENDBRANCH   1   2
BRANCH   1  42
ATOM     42  O   UNL A   1      33.399  31.183  27.198  1.00  0.00    -0.376 OA
BRANCH  42  43
ATOM     43  C   UNL A   1      34.343  31.765  28.140  1.00  0.00     0.188 C 
BRANCH  43  44
ATOM     44  C   UNL A   1      34.701  33.170  28.959  1.00  0.00     0.188 C 
BRANCH  44  45
ATOM     45  O   UNL A   1      35.896  33.874  29.203  1.00  0.00    -0.377 OA
BRANCH  45  46
ATOM     46  C   UNL A   1      37.228  33.528  28.864  1.00  0.00     0.188 C 
BRANCH  46  47
ATOM     47  C   UNL A   1      37.836  32.122  28.955  1.00  0.00     0.188 C 
BRANCH  47  48
ATOM     48  O   UNL A   1      38.929  31.797  29.795  1.00  0.00    -0.376 OA
BRANCH  48  49
ATOM     49  C   UNL A   1      39.021  30.504  30.342  1.00  0.00     0.202 C 
BRANCH  49  50
ATOM     50  C   UNL A   1      38.751  30.364  31.846  1.00  0.00     0.261 C 
BRANCH  50  51
ATOM     51  O   UNL A   1      39.263  31.404  32.693  1.00  0.00    -0.460 OA
BRANCH  51  52
ATOM     52  C   UNL A   1      40.501  31.212  33.215  1.00  0.00     0.338 C 
ATOM     53  O   UNL A   1      41.178  30.195  33.130  1.00  0.00    -0.246 OA
BRANCH  52  54
ATOM     54  C   UNL A   1      40.999  32.486  33.803  1.00  0.00     0.060 A 
ATOM     55  C   UNL A   1      42.358  32.602  34.121  1.00  0.00     0.016 A 
ATOM     56  C   UNL A   1      40.136  33.559  34.056  1.00  0.00     0.016 A 
ATOM     57  C   UNL A   1      42.844  33.769  34.723  1.00  0.00     0.010 A 
ATOM     58  C   UNL A   1      40.619  34.722  34.684  1.00  0.00     0.010 A 
ATOM     59  C   UNL A   1      41.974  34.828  35.046  1.00  0.00    -0.014 A 
BRANCH  59  60
ATOM     60  C   UNL A   1      42.442  35.843  36.039  1.00  0.00     0.031 A 
ATOM     61  C   UNL A   1      43.002  37.104  35.463  1.00  0.00     0.074 A 
ATOM     62  C   UNL A   1      42.332  35.727  37.378  1.00  0.00     0.049 A 
ATOM     63  N   UNL A   1      43.414  38.171  36.082  1.00  0.00    -0.248 NA
ATOM     64  C   UNL A   1      43.187  37.133  34.001  1.00  0.00     0.031 C 
ATOM     65  C   UNL A   1      42.036  34.500  38.078  1.00  0.00     0.029 A 
ATOM     66  N   UNL A   1      42.439  36.637  38.403  1.00  0.00    -0.354 N 
ATOM     67  C   UNL A   1      43.952  38.978  35.095  1.00  0.00     0.074 A 
ATOM     68  C   UNL A   1      43.830  38.276  33.840  1.00  0.00     0.031 C 
ATOM     69  C   UNL A   1      41.745  34.740  39.364  1.00  0.00     0.029 A 
ATOM     70  C   UNL A   1      42.089  36.123  39.641  1.00  0.00     0.049 A 
ATOM     71  H   UNL A   1      42.736  37.566  38.270  1.00  0.00     0.167 HD
ATOM     72  C   UNL A   1      44.497  40.205  35.227  1.00  0.00     0.034 A 
ATOM     73  C   UNL A   1      42.129  36.667  40.873  1.00  0.00     0.034 A 
ATOM     74  C   UNL A   1      44.621  40.883  36.485  1.00  0.00     0.049 A 
ATOM     75  C   UNL A   1      42.695  38.052  40.983  1.00  0.00     0.074 A 
ATOM     76  C   UNL A   1      45.152  42.133  36.735  1.00  0.00     0.029 A 
ATOM     77  N   UNL A   1      44.218  40.361  37.706  1.00  0.00    -0.354 N 
ATOM     78  N   UNL A   1      43.127  38.836  40.025  1.00  0.00    -0.248 NA
ATOM     79  C   UNL A   1      42.805  38.624  42.330  1.00  0.00     0.031 C 
ATOM     80  C   UNL A   1      45.083  42.361  38.112  1.00  0.00     0.029 A 
ATOM     81  C   UNL A   1      44.477  41.270  38.716  1.00  0.00     0.049 A 
ATOM     82  H   UNL A   1      43.810  39.475  37.835  1.00  0.00     0.167 HD
ATOM     83  C   UNL A   1      43.561  39.995  40.648  1.00  0.00     0.074 A 
ATOM     84  C   UNL A   1      43.289  39.829  42.064  1.00  0.00     0.031 C 
ATOM     85  C   UNL A   1      44.159  41.085  40.109  1.00  0.00     0.034 A 
BRANCH  72  86
ATOM     86  C   UNL A   1      44.982  40.863  33.970  1.00  0.00     0.023 A 
ATOM     87  C   UNL A   1      46.335  40.732  33.592  1.00  0.00     0.012 A 
ATOM     88  C   UNL A   1      44.109  41.628  33.177  1.00  0.00     0.148 A 
ATOM     89  C   UNL A   1      46.819  41.379  32.459  1.00  0.00     0.002 A 
ATOM     90  C   UNL A   1      44.586  42.227  32.019  1.00  0.00     0.091 A 
ATOM     91  F   UNL A   1      42.840  41.774  33.581  1.00  0.00    -0.205 F 
ATOM     92  C   UNL A   1      45.943  42.116  31.666  1.00  0.00     0.022 A 
BRANCH  90  93
ATOM     93  S   UNL A   1      43.528  43.137  30.893  1.00  0.00     0.127 S 
ATOM     94  O   UNL A   1      44.485  43.579  29.879  1.00  0.00    -0.237 OA
ATOM     95  O   UNL A   1      42.600  42.098  30.446  1.00  0.00    -0.237 OA
ATOM     96  O   UNL A   1      42.922  44.203  31.679  1.00  0.00    -0.744 OA
ENDBRANCH  90  93
ENDBRANCH  72  86
BRANCH  73  97
ATOM     97  C   UNL A   1      41.700  35.902  42.089  1.00  0.00     0.023 A 
ATOM     98  C   UNL A   1      42.630  35.101  42.783  1.00  0.00     0.012 A 
ATOM     99  C   UNL A   1      40.375  35.961  42.569  1.00  0.00     0.148 A 
ATOM    100  C   UNL A   1      42.246  34.360  43.905  1.00  0.00     0.002 A 
ATOM    101  C   UNL A   1      40.017  35.285  43.731  1.00  0.00     0.091 A 
ATOM    102  F   UNL A   1      39.481  36.688  41.884  1.00  0.00    -0.205 F 
ATOM    103  C   UNL A   1      40.945  34.464  44.389  1.00  0.00     0.022 A 
BRANCH 101 104
ATOM    104  S   UNL A   1      38.410  35.497  44.507  1.00  0.00     0.127 S 
ATOM    105  O   UNL A   1      38.522  36.838  45.073  1.00  0.00    -0.237 OA
ATOM    106  O   UNL A   1      37.503  35.385  43.363  1.00  0.00    -0.237 OA
ATOM    107  O   UNL A   1      38.293  34.407  45.466  1.00  0.00    -0.744 OA
ENDBRANCH 101 104
ENDBRANCH  73  97
BRANCH  85 108
ATOM    108  C   UNL A   1      44.506  42.196  41.056  1.00  0.00     0.023 A 
ATOM    109  C   UNL A   1      45.758  42.210  41.703  1.00  0.00     0.012 A 
ATOM    110  C   UNL A   1      43.592  43.240  41.283  1.00  0.00     0.148 A 
ATOM    111  C   UNL A   1      46.073  43.226  42.602  1.00  0.00     0.002 A 
ATOM    112  C   UNL A   1      43.936  44.278  42.135  1.00  0.00     0.091 A 
ATOM    113  F   UNL A   1      42.399  43.191  40.672  1.00  0.00    -0.205 F 
ATOM    114  C   UNL A   1      45.167  44.264  42.811  1.00  0.00     0.022 A 
BRANCH 112 115
ATOM    115  S   UNL A   1      42.872  45.702  42.378  1.00  0.00     0.127 S 
ATOM    116  O   UNL A   1      43.525  46.371  43.501  1.00  0.00    -0.237 OA
ATOM    117  O   UNL A   1      42.991  46.400  41.098  1.00  0.00    -0.237 OA
ATOM    118  O   UNL A   1      41.545  45.168  42.651  1.00  0.00    -0.744 OA
ENDBRANCH 112 115
ENDBRANCH  85 108
ENDBRANCH  59  60
ENDBRANCH  52  54
ENDBRANCH  51  52
ENDBRANCH  50  51
ENDBRANCH  49  50
ENDBRANCH  48  49
ENDBRANCH  47  48
ENDBRANCH  46  47
ENDBRANCH  45  46
ENDBRANCH  44  45
ENDBRANCH  43  44
ENDBRANCH  42  43
ENDBRANCH   1  42
TORSDOF 36
ENDMDL
