MODEL 1
REMARK VINA RESULT:     -10.7      0.000      0.000
REMARK SMILES COc1ccc(-c2cc(Cl)cc3c2O[C@@H](C(F)(F)F)C(C(=O)OCCOCCOCCOCCOC(=O)c2ccc(-c4c5nc(c(-c6cccc(S(=O)(=O)[O-])c6F)c6ccc([nH]6)c(-c6cccc(S(=O)(=O)[O-])c6F)c6nc(c(-c7cccc(S(=O)(=O)[O-])c7F)c7ccc4[nH]7)C=C6)C=C5)cc2)=C3)cc1C
REMARK SMILES IDX 30 1 29 2 28 3 27 4 26 5 25 6 24 7 23 8 21 9 22 10 20 11
REMARK SMILES IDX 7 12 8 13 13 14 9 15 12 16 14 17 10 18 11 19 101 20 15 21
REMARK SMILES IDX 6 22 3 23 4 24 103 25 5 26 102 27 104 28 2 29 1 30 16 31
REMARK SMILES IDX 17 32 18 33 19 34 31 35 32 36 33 37 34 38 35 39 36 40 37 41
REMARK SMILES IDX 38 42 39 43 100 44 40 45 99 46 41 47 42 48 43 49 93 50 44 51
REMARK SMILES IDX 98 52 92 53 94 54 45 55 97 56 91 57 90 58 46 60 78 61 58 62
REMARK SMILES IDX 77 63 59 64 62 65 76 66 95 67 60 68 61 69 75 71 96 72 63 73
REMARK SMILES IDX 47 74 48 75 56 76 49 77 51 78 57 79 50 80 52 81 53 82 54 83
REMARK SMILES IDX 55 84 79 85 80 86 88 87 81 88 83 89 89 90 82 91 84 92 85 93
REMARK SMILES IDX 86 94 87 95 64 96 65 97 73 98 66 99 68 100 74 101 67 102
REMARK SMILES IDX 69 103 70 104 71 105 72 106
REMARK H PARENT 94 59 62 70
REMARK Flexibility Score: inf
ROOT
ATOM      1  C   UNL A   1      32.243  29.329  26.183  1.00  0.00     0.188 C 
ENDROOT
BRANCH   1   2
ATOM      2  O   UNL A   1      33.131  29.590  25.101  1.00  0.00    -0.377 OA
BRANCH   2   3
ATOM      3  C   UNL A   1      32.833  28.990  23.852  1.00  0.00     0.188 C 
BRANCH   3   4
ATOM      4  C   UNL A   1      33.841  28.957  22.694  1.00  0.00     0.188 C 
BRANCH   4   5
ATOM      5  O   UNL A   1      34.028  27.897  21.784  1.00  0.00    -0.376 OA
BRANCH   5   6
ATOM      6  C   UNL A   1      33.600  26.565  21.956  1.00  0.00     0.202 C 
BRANCH   6   7
ATOM      7  C   UNL A   1      34.241  25.647  23.088  1.00  0.00     0.261 C 
BRANCH   7   8
ATOM      8  O   UNL A   1      33.359  24.638  23.638  1.00  0.00    -0.460 OA
BRANCH   8   9
ATOM      9  C   UNL A   1      32.881  23.660  22.821  1.00  0.00     0.338 C 
ATOM     10  O   UNL A   1      33.402  23.178  21.869  1.00  0.00    -0.246 OA
BRANCH   9  11
ATOM     11  C   UNL A   1      31.557  23.201  23.408  1.00  0.00     0.087 C 
ATOM     12  C   UNL A   1      34.536  20.777  24.925  1.00  0.00     0.026 A 
ATOM     13  C   UNL A   1      34.509  19.467  24.408  1.00  0.00     0.033 A 
ATOM     14  C   UNL A   1      33.225  21.501  24.710  1.00  0.00     0.135 A 
ATOM     15  C   UNL A   1      33.397  18.925  23.744  1.00  0.00     0.042 A 
ATOM     16  C   UNL A   1      32.251  21.007  23.790  1.00  0.00     0.019 A 
ATOM     17  O   UNL A   1      32.705  22.655  25.397  1.00  0.00    -0.475 OA
ATOM     18  Cl  UNL A   1      33.390  17.257  23.322  1.00  0.00    -0.084 Cl
ATOM     19  C   UNL A   1      32.295  19.693  23.391  1.00  0.00     0.032 A 
ATOM     20  C   UNL A   1      31.209  21.914  23.209  1.00  0.00     0.027 C 
ATOM     21  C   UNL A   1      31.538  23.457  24.880  1.00  0.00     0.316 C 
BRANCH  12  22
ATOM     22  C   UNL A   1      36.052  21.098  25.500  1.00  0.00    -0.014 A 
ATOM     23  C   UNL A   1      38.897  22.090  25.989  1.00  0.00     0.121 A 
ATOM     24  C   UNL A   1      38.566  20.845  25.438  1.00  0.00     0.047 A 
ATOM     25  C   UNL A   1      37.819  22.920  26.217  1.00  0.00    -0.008 A 
ATOM     26  C   UNL A   1      37.212  20.388  25.153  1.00  0.00     0.013 A 
ATOM     27  C   UNL A   1      36.438  22.349  26.070  1.00  0.00     0.016 A 
ATOM     28  C   UNL A   1      38.168  24.387  26.436  1.00  0.00     0.048 C 
BRANCH  23  29
ATOM     29  O   UNL A   1      40.240  22.346  26.146  1.00  0.00    -0.496 OA
ATOM     30  C   UNL A   1      41.056  21.744  27.166  1.00  0.00     0.278 C 
ENDBRANCH  23  29
ENDBRANCH  12  22
BRANCH  21  31
ATOM     31  C   UNL A   1      31.263  24.994  25.219  1.00  0.00     0.430 C 
ATOM     32  F   UNL A   1      32.471  25.587  25.498  1.00  0.00    -0.167 F 
ATOM     33  F   UNL A   1      30.792  25.677  24.148  1.00  0.00    -0.167 F 
ATOM     34  F   UNL A   1      30.482  25.318  26.261  1.00  0.00    -0.167 F 
ENDBRANCH  21  31
ENDBRANCH   9  11
ENDBRANCH   8   9
ENDBRANCH   7   8
ENDBRANCH   6   7
ENDBRANCH   5   6
ENDBRANCH   4   5
ENDBRANCH   3   4
ENDBRANCH   2   3
ENDBRANCH   1   2
BRANCH   1  35
ATOM     35  C   UNL A   1      32.131  30.444  27.221  1.00  0.00     0.188 C 
BRANCH  35  36
ATOM     36  O   UNL A   1      31.712  31.600  26.524  1.00  0.00    -0.376 OA
BRANCH  36  37
ATOM     37  C   UNL A   1      32.104  32.876  26.974  1.00  0.00     0.202 C 
BRANCH  37  38
ATOM     38  C   UNL A   1      33.262  32.779  27.950  1.00  0.00     0.261 C 
BRANCH  38  39
ATOM     39  O   UNL A   1      33.634  34.133  28.298  1.00  0.00    -0.460 OA
BRANCH  39  40
ATOM     40  C   UNL A   1      34.210  34.267  29.526  1.00  0.00     0.338 C 
ATOM     41  O   UNL A   1      34.187  35.308  30.163  1.00  0.00    -0.246 OA
BRANCH  40  42
ATOM     42  C   UNL A   1      35.013  33.048  29.888  1.00  0.00     0.060 A 
ATOM     43  C   UNL A   1      34.834  32.410  31.118  1.00  0.00     0.016 A 
ATOM     44  C   UNL A   1      36.103  32.661  29.120  1.00  0.00     0.016 A 
ATOM     45  C   UNL A   1      35.827  31.546  31.648  1.00  0.00     0.010 A 
ATOM     46  C   UNL A   1      37.093  31.843  29.676  1.00  0.00     0.010 A 
ATOM     47  C   UNL A   1      37.021  31.329  30.974  1.00  0.00    -0.014 A 
BRANCH  47  48
ATOM     48  C   UNL A   1      38.285  30.722  31.509  1.00  0.00     0.031 A 
ATOM     49  C   UNL A   1      38.802  29.435  30.850  1.00  0.00     0.074 A 
ATOM     50  C   UNL A   1      39.140  31.551  32.182  1.00  0.00     0.049 A 
ATOM     51  N   UNL A   1      40.029  29.106  30.585  1.00  0.00    -0.248 NA
ATOM     52  C   UNL A   1      37.895  28.373  30.436  1.00  0.00     0.031 C 
ATOM     53  C   UNL A   1      40.601  31.448  32.169  1.00  0.00     0.029 A 
ATOM     54  N   UNL A   1      38.976  32.731  32.901  1.00  0.00    -0.354 N 
ATOM     55  C   UNL A   1      40.104  27.919  29.838  1.00  0.00     0.074 A 
ATOM     56  C   UNL A   1      38.735  27.471  29.885  1.00  0.00     0.031 C 
ATOM     57  C   UNL A   1      41.189  32.511  32.740  1.00  0.00     0.029 A 
ATOM     58  C   UNL A   1      40.168  33.015  33.600  1.00  0.00     0.049 A 
ATOM     59  H   UNL A   1      38.159  33.281  32.919  1.00  0.00     0.167 HD
ATOM     60  C   UNL A   1      41.337  27.466  29.360  1.00  0.00     0.034 A 
ATOM     61  C   UNL A   1      40.308  32.792  34.947  1.00  0.00     0.034 A 
ATOM     62  C   UNL A   1      42.339  27.867  30.406  1.00  0.00     0.049 A 
ATOM     63  C   UNL A   1      41.122  31.479  35.242  1.00  0.00     0.074 A 
ATOM     64  C   UNL A   1      43.631  28.348  30.423  1.00  0.00     0.029 A 
ATOM     65  N   UNL A   1      41.956  27.848  31.768  1.00  0.00    -0.354 N 
ATOM     66  N   UNL A   1      41.460  30.590  34.325  1.00  0.00    -0.248 NA
ATOM     67  C   UNL A   1      41.734  31.115  36.515  1.00  0.00     0.031 C 
ATOM     68  C   UNL A   1      43.889  28.870  31.741  1.00  0.00     0.029 A 
ATOM     69  C   UNL A   1      42.825  28.557  32.585  1.00  0.00     0.049 A 
ATOM     70  H   UNL A   1      41.157  27.380  32.101  1.00  0.00     0.167 HD
ATOM     71  C   UNL A   1      42.252  29.591  34.794  1.00  0.00     0.074 A 
ATOM     72  C   UNL A   1      42.406  29.986  36.193  1.00  0.00     0.031 C 
ATOM     73  C   UNL A   1      42.678  28.503  34.056  1.00  0.00     0.034 A 
BRANCH  60  74
ATOM     74  C   UNL A   1      41.845  26.543  28.066  1.00  0.00     0.023 A 
ATOM     75  C   UNL A   1      41.197  26.779  26.840  1.00  0.00     0.012 A 
ATOM     76  C   UNL A   1      42.719  25.380  27.924  1.00  0.00     0.148 A 
ATOM     77  C   UNL A   1      41.471  26.050  25.640  1.00  0.00     0.002 A 
ATOM     78  C   UNL A   1      43.162  24.810  26.711  1.00  0.00     0.091 A 
ATOM     79  F   UNL A   1      43.091  24.608  28.942  1.00  0.00    -0.205 F 
ATOM     80  C   UNL A   1      42.502  25.121  25.551  1.00  0.00     0.022 A 
BRANCH  78  81
ATOM     81  S   UNL A   1      44.676  23.778  26.626  1.00  0.00     0.127 S 
ATOM     82  O   UNL A   1      45.616  24.598  25.867  1.00  0.00    -0.237 OA
ATOM     83  O   UNL A   1      45.030  23.603  28.037  1.00  0.00    -0.237 OA
ATOM     84  O   UNL A   1      44.266  22.534  25.983  1.00  0.00    -0.744 OA
ENDBRANCH  78  81
ENDBRANCH  60  74
BRANCH  61  85
ATOM     85  C   UNL A   1      39.209  33.526  35.661  1.00  0.00     0.023 A 
ATOM     86  C   UNL A   1      38.146  32.676  36.097  1.00  0.00     0.012 A 
ATOM     87  C   UNL A   1      39.546  34.623  36.471  1.00  0.00     0.148 A 
ATOM     88  C   UNL A   1      37.667  32.735  37.410  1.00  0.00     0.002 A 
ATOM     89  C   UNL A   1      39.052  34.682  37.781  1.00  0.00     0.091 A 
ATOM     90  F   UNL A   1      40.470  35.480  36.020  1.00  0.00    -0.205 F 
ATOM     91  C   UNL A   1      38.169  33.702  38.271  1.00  0.00     0.022 A 
BRANCH  89  92
ATOM     92  S   UNL A   1      39.719  35.856  38.968  1.00  0.00     0.127 S 
ATOM     93  O   UNL A   1      41.113  35.440  39.054  1.00  0.00    -0.237 OA
ATOM     94  O   UNL A   1      39.501  37.136  38.297  1.00  0.00    -0.237 OA
ATOM     95  O   UNL A   1      38.916  35.664  40.166  1.00  0.00    -0.744 OA
ENDBRANCH  89  92
ENDBRANCH  61  85
BRANCH  73  96
ATOM     96  C   UNL A   1      42.953  27.148  34.706  1.00  0.00     0.023 A 
ATOM     97  C   UNL A   1      41.896  26.353  35.187  1.00  0.00     0.012 A 
ATOM     98  C   UNL A   1      44.232  26.523  34.643  1.00  0.00     0.148 A 
ATOM     99  C   UNL A   1      42.096  25.059  35.669  1.00  0.00     0.002 A 
ATOM    100  C   UNL A   1      44.396  25.187  34.995  1.00  0.00     0.091 A 
ATOM    101  F   UNL A   1      45.311  27.207  34.243  1.00  0.00    -0.205 F 
ATOM    102  C   UNL A   1      43.342  24.467  35.553  1.00  0.00     0.022 A 
BRANCH 100 103
ATOM    103  S   UNL A   1      45.899  24.288  34.575  1.00  0.00     0.127 S 
ATOM    104  O   UNL A   1      46.423  23.944  35.894  1.00  0.00    -0.237 OA
ATOM    105  O   UNL A   1      45.375  23.153  33.811  1.00  0.00    -0.237 OA
ATOM    106  O   UNL A   1      46.698  25.215  33.784  1.00  0.00    -0.744 OA
ENDBRANCH 100 103
ENDBRANCH  73  96
ENDBRANCH  47  48
ENDBRANCH  40  42
ENDBRANCH  39  40
ENDBRANCH  38  39
ENDBRANCH  37  38
ENDBRANCH  36  37
ENDBRANCH  35  36
ENDBRANCH   1  35
TORSDOF 26
ENDMDL
MODEL 2
REMARK VINA RESULT:     -10.5      1.778      2.368
REMARK SMILES COc1ccc(-c2cc(Cl)cc3c2O[C@@H](C(F)(F)F)C(C(=O)OCCOCCOCCOCCOC(=O)c2ccc(-c4c5nc(c(-c6cccc(S(=O)(=O)[O-])c6F)c6ccc([nH]6)c(-c6cccc(S(=O)(=O)[O-])c6F)c6nc(c(-c7cccc(S(=O)(=O)[O-])c7F)c7ccc4[nH]7)C=C6)C=C5)cc2)=C3)cc1C
REMARK SMILES IDX 30 1 29 2 28 3 27 4 26 5 25 6 24 7 23 8 21 9 22 10 20 11
REMARK SMILES IDX 7 12 8 13 13 14 9 15 12 16 14 17 10 18 11 19 101 20 15 21
REMARK SMILES IDX 6 22 3 23 4 24 103 25 5 26 102 27 104 28 2 29 1 30 16 31
REMARK SMILES IDX 17 32 18 33 19 34 31 35 32 36 33 37 34 38 35 39 36 40 37 41
REMARK SMILES IDX 38 42 39 43 100 44 40 45 99 46 41 47 42 48 43 49 93 50 44 51
REMARK SMILES IDX 98 52 92 53 94 54 45 55 97 56 91 57 90 58 46 60 78 61 58 62
REMARK SMILES IDX 77 63 59 64 62 65 76 66 95 67 60 68 61 69 75 71 96 72 63 73
REMARK SMILES IDX 47 74 48 75 56 76 49 77 51 78 57 79 50 80 52 81 53 82 54 83
REMARK SMILES IDX 55 84 79 85 80 86 88 87 81 88 83 89 89 90 82 91 84 92 85 93
REMARK SMILES IDX 86 94 87 95 64 96 65 97 73 98 66 99 68 100 74 101 67 102
REMARK SMILES IDX 69 103 70 104 71 105 72 106
REMARK H PARENT 94 59 62 70
REMARK Flexibility Score: inf
ROOT
ATOM      1  C   UNL A   1      32.853  28.185  25.227  1.00  0.00     0.188 C 
ENDROOT
BRANCH   1   2
ATOM      2  O   UNL A   1      33.381  29.183  24.358  1.00  0.00    -0.377 OA
BRANCH   2   3
ATOM      3  C   UNL A   1      33.029  29.107  22.987  1.00  0.00     0.188 C 
BRANCH   3   4
ATOM      4  C   UNL A   1      33.922  28.415  21.946  1.00  0.00     0.188 C 
BRANCH   4   5
ATOM      5  O   UNL A   1      33.993  27.029  21.702  1.00  0.00    -0.376 OA
BRANCH   5   6
ATOM      6  C   UNL A   1      33.356  26.017  22.450  1.00  0.00     0.202 C 
BRANCH   6   7
ATOM      7  C   UNL A   1      34.209  24.995  23.323  1.00  0.00     0.261 C 
BRANCH   7   8
ATOM      8  O   UNL A   1      33.437  23.999  24.038  1.00  0.00    -0.460 OA
BRANCH   8   9
ATOM      9  C   UNL A   1      32.842  22.995  23.338  1.00  0.00     0.338 C 
ATOM     10  O   UNL A   1      33.087  22.621  22.238  1.00  0.00    -0.246 OA
BRANCH   9  11
ATOM     11  C   UNL A   1      31.836  22.342  24.270  1.00  0.00     0.087 C 
ATOM     12  C   UNL A   1      35.600  21.000  25.311  1.00  0.00     0.026 A 
ATOM     13  C   UNL A   1      35.828  19.653  24.971  1.00  0.00     0.033 A 
ATOM     14  C   UNL A   1      34.126  21.342  25.330  1.00  0.00     0.135 A 
ATOM     15  C   UNL A   1      34.796  18.754  24.656  1.00  0.00     0.042 A 
ATOM     16  C   UNL A   1      33.161  20.478  24.729  1.00  0.00     0.019 A 
ATOM     17  O   UNL A   1      33.459  22.439  25.981  1.00  0.00    -0.475 OA
ATOM     18  Cl  UNL A   1      35.158  17.086  24.444  1.00  0.00    -0.084 Cl
ATOM     19  C   UNL A   1      33.480  19.163  24.486  1.00  0.00     0.032 A 
ATOM     20  C   UNL A   1      31.817  20.995  24.309  1.00  0.00     0.027 C 
ATOM     21  C   UNL A   1      32.040  22.837  25.665  1.00  0.00     0.316 C 
BRANCH  12  22
ATOM     22  C   UNL A   1      37.055  21.768  25.471  1.00  0.00    -0.014 A 
ATOM     23  C   UNL A   1      39.720  22.919  26.410  1.00  0.00     0.121 A 
ATOM     24  C   UNL A   1      38.515  23.630  26.358  1.00  0.00     0.047 A 
ATOM     25  C   UNL A   1      39.611  21.581  26.094  1.00  0.00    -0.008 A 
ATOM     26  C   UNL A   1      37.228  23.071  25.961  1.00  0.00     0.013 A 
ATOM     27  C   UNL A   1      38.310  21.088  25.528  1.00  0.00     0.016 A 
ATOM     28  C   UNL A   1      40.794  20.718  26.514  1.00  0.00     0.048 C 
BRANCH  23  29
ATOM     29  O   UNL A   1      40.819  23.621  26.849  1.00  0.00    -0.496 OA
ATOM     30  C   UNL A   1      41.322  23.561  28.195  1.00  0.00     0.278 C 
ENDBRANCH  23  29
ENDBRANCH  12  22
BRANCH  21  31
ATOM     31  C   UNL A   1      31.430  24.298  25.879  1.00  0.00     0.430 C 
ATOM     32  F   UNL A   1      30.364  24.188  26.739  1.00  0.00    -0.167 F 
ATOM     33  F   UNL A   1      32.295  25.123  26.518  1.00  0.00    -0.167 F 
ATOM     34  F   UNL A   1      30.945  24.980  24.830  1.00  0.00    -0.167 F 
ENDBRANCH  21  31
ENDBRANCH   9  11
ENDBRANCH   8   9
ENDBRANCH   7   8
ENDBRANCH   6   7
ENDBRANCH   5   6
ENDBRANCH   4   5
ENDBRANCH   3   4
ENDBRANCH   2   3
ENDBRANCH   1   2
BRANCH   1  35
ATOM     35  C   UNL A   1      32.417  28.682  26.604  1.00  0.00     0.188 C 
BRANCH  35  36
ATOM     36  O   UNL A   1      31.778  29.926  26.398  1.00  0.00    -0.376 OA
BRANCH  36  37
ATOM     37  C   UNL A   1      32.319  31.098  26.962  1.00  0.00     0.202 C 
BRANCH  37  38
ATOM     38  C   UNL A   1      33.666  30.824  27.605  1.00  0.00     0.261 C 
BRANCH  38  39
ATOM     39  O   UNL A   1      34.206  32.102  28.013  1.00  0.00    -0.460 OA
BRANCH  39  40
ATOM     40  C   UNL A   1      34.813  32.101  29.233  1.00  0.00     0.338 C 
ATOM     41  O   UNL A   1      34.413  32.762  30.178  1.00  0.00    -0.246 OA
BRANCH  40  42
ATOM     42  C   UNL A   1      36.110  31.341  29.195  1.00  0.00     0.060 A 
ATOM     43  C   UNL A   1      36.200  30.047  29.716  1.00  0.00     0.016 A 
ATOM     44  C   UNL A   1      37.297  31.977  28.857  1.00  0.00     0.016 A 
ATOM     45  C   UNL A   1      37.453  29.482  30.066  1.00  0.00     0.010 A 
ATOM     46  C   UNL A   1      38.521  31.425  29.249  1.00  0.00     0.010 A 
ATOM     47  C   UNL A   1      38.629  30.208  29.930  1.00  0.00    -0.014 A 
BRANCH  47  48
ATOM     48  C   UNL A   1      39.973  29.908  30.527  1.00  0.00     0.031 A 
ATOM     49  C   UNL A   1      40.883  28.913  29.791  1.00  0.00     0.074 A 
ATOM     50  C   UNL A   1      40.504  30.844  31.371  1.00  0.00     0.049 A 
ATOM     51  N   UNL A   1      42.168  28.974  29.624  1.00  0.00    -0.248 NA
ATOM     52  C   UNL A   1      40.351  27.707  29.173  1.00  0.00     0.031 C 
ATOM     53  C   UNL A   1      41.930  31.151  31.502  1.00  0.00     0.029 A 
ATOM     54  N   UNL A   1      39.957  31.826  32.191  1.00  0.00    -0.354 N 
ATOM     55  C   UNL A   1      42.633  27.965  28.765  1.00  0.00     0.074 A 
ATOM     56  C   UNL A   1      41.450  27.153  28.619  1.00  0.00     0.031 C 
ATOM     57  C   UNL A   1      42.147  32.249  32.242  1.00  0.00     0.029 A 
ATOM     58  C   UNL A   1      40.965  32.333  33.039  1.00  0.00     0.049 A 
ATOM     59  H   UNL A   1      39.018  32.121  32.182  1.00  0.00     0.167 HD
ATOM     60  C   UNL A   1      43.975  27.938  28.374  1.00  0.00     0.034 A 
ATOM     61  C   UNL A   1      41.068  31.980  34.361  1.00  0.00     0.034 A 
ATOM     62  C   UNL A   1      44.743  28.457  29.557  1.00  0.00     0.049 A 
ATOM     63  C   UNL A   1      42.201  30.915  34.597  1.00  0.00     0.074 A 
ATOM     64  C   UNL A   1      45.838  29.269  29.762  1.00  0.00     0.029 A 
ATOM     65  N   UNL A   1      44.286  28.151  30.861  1.00  0.00    -0.354 N 
ATOM     66  N   UNL A   1      42.844  30.285  33.632  1.00  0.00    -0.248 NA
ATOM     67  C   UNL A   1      42.800  30.568  35.882  1.00  0.00     0.031 C 
ATOM     68  C   UNL A   1      45.842  29.662  31.148  1.00  0.00     0.029 A 
ATOM     69  C   UNL A   1      44.855  28.957  31.837  1.00  0.00     0.049 A 
ATOM     70  H   UNL A   1      43.633  27.441  31.056  1.00  0.00     0.167 HD
ATOM     71  C   UNL A   1      43.854  29.490  34.072  1.00  0.00     0.074 A 
ATOM     72  C   UNL A   1      43.789  29.723  35.513  1.00  0.00     0.031 C 
ATOM     73  C   UNL A   1      44.626  28.670  33.270  1.00  0.00     0.034 A 
BRANCH  60  74
ATOM     74  C   UNL A   1      44.817  27.371  27.049  1.00  0.00     0.023 A 
ATOM     75  C   UNL A   1      45.580  28.319  26.345  1.00  0.00     0.012 A 
ATOM     76  C   UNL A   1      44.824  26.111  26.308  1.00  0.00     0.148 A 
ATOM     77  C   UNL A   1      46.326  28.021  25.161  1.00  0.00     0.002 A 
ATOM     78  C   UNL A   1      45.726  25.748  25.285  1.00  0.00     0.091 A 
ATOM     79  F   UNL A   1      43.867  25.192  26.407  1.00  0.00    -0.205 F 
ATOM     80  C   UNL A   1      46.464  26.726  24.672  1.00  0.00     0.022 A 
BRANCH  78  81
ATOM     81  S   UNL A   1      46.036  23.994  24.850  1.00  0.00     0.127 S 
ATOM     82  O   UNL A   1      44.796  23.569  24.206  1.00  0.00    -0.237 OA
ATOM     83  O   UNL A   1      47.186  24.081  23.946  1.00  0.00    -0.237 OA
ATOM     84  O   UNL A   1      46.350  23.327  26.109  1.00  0.00    -0.744 OA
ENDBRANCH  78  81
ENDBRANCH  60  74
BRANCH  61  85
ATOM     85  C   UNL A   1      39.757  32.280  35.030  1.00  0.00     0.023 A 
ATOM     86  C   UNL A   1      38.820  31.204  34.956  1.00  0.00     0.012 A 
ATOM     87  C   UNL A   1      39.757  33.070  36.191  1.00  0.00     0.148 A 
ATOM     88  C   UNL A   1      38.149  30.752  36.098  1.00  0.00     0.002 A 
ATOM     89  C   UNL A   1      39.072  32.618  37.326  1.00  0.00     0.091 A 
ATOM     90  F   UNL A   1      40.560  34.142  36.225  1.00  0.00    -0.205 F 
ATOM     91  C   UNL A   1      38.326  31.425  37.298  1.00  0.00     0.022 A 
BRANCH  89  92
ATOM     92  S   UNL A   1      39.322  33.395  38.928  1.00  0.00     0.127 S 
ATOM     93  O   UNL A   1      40.621  34.032  38.756  1.00  0.00    -0.237 OA
ATOM     94  O   UNL A   1      38.191  34.318  39.007  1.00  0.00    -0.237 OA
ATOM     95  O   UNL A   1      39.266  32.298  39.882  1.00  0.00    -0.744 OA
ENDBRANCH  89  92
ENDBRANCH  61  85
BRANCH  73  96
ATOM     96  C   UNL A   1      45.231  27.370  33.796  1.00  0.00     0.023 A 
ATOM     97  C   UNL A   1      46.535  27.345  34.324  1.00  0.00     0.012 A 
ATOM     98  C   UNL A   1      44.447  26.198  34.003  1.00  0.00     0.148 A 
ATOM     99  C   UNL A   1      47.073  26.210  34.929  1.00  0.00     0.002 A 
ATOM    100  C   UNL A   1      44.943  25.121  34.730  1.00  0.00     0.091 A 
ATOM    101  F   UNL A   1      43.209  26.104  33.501  1.00  0.00    -0.205 F 
ATOM    102  C   UNL A   1      46.270  25.104  35.153  1.00  0.00     0.022 A 
BRANCH 100 103
ATOM    103  S   UNL A   1      43.859  23.807  35.314  1.00  0.00     0.127 S 
ATOM    104  O   UNL A   1      44.762  23.019  36.148  1.00  0.00    -0.237 OA
ATOM    105  O   UNL A   1      42.840  24.556  36.054  1.00  0.00    -0.237 OA
ATOM    106  O   UNL A   1      43.356  23.156  34.111  1.00  0.00    -0.744 OA
ENDBRANCH 100 103
ENDBRANCH  73  96
ENDBRANCH  47  48
ENDBRANCH  40  42
ENDBRANCH  39  40
ENDBRANCH  38  39
ENDBRANCH  37  38
ENDBRANCH  36  37
ENDBRANCH  35  36
ENDBRANCH   1  35
TORSDOF 26
ENDMDL
MODEL 3
REMARK VINA RESULT:      -9.5      2.178      2.656
REMARK SMILES COc1ccc(-c2cc(Cl)cc3c2O[C@@H](C(F)(F)F)C(C(=O)OCCOCCOCCOCCOC(=O)c2ccc(-c4c5nc(c(-c6cccc(S(=O)(=O)[O-])c6F)c6ccc([nH]6)c(-c6cccc(S(=O)(=O)[O-])c6F)c6nc(c(-c7cccc(S(=O)(=O)[O-])c7F)c7ccc4[nH]7)C=C6)C=C5)cc2)=C3)cc1C
REMARK SMILES IDX 30 1 29 2 28 3 27 4 26 5 25 6 24 7 23 8 21 9 22 10 20 11
REMARK SMILES IDX 7 12 8 13 13 14 9 15 12 16 14 17 10 18 11 19 101 20 15 21
REMARK SMILES IDX 6 22 3 23 4 24 103 25 5 26 102 27 104 28 2 29 1 30 16 31
REMARK SMILES IDX 17 32 18 33 19 34 31 35 32 36 33 37 34 38 35 39 36 40 37 41
REMARK SMILES IDX 38 42 39 43 100 44 40 45 99 46 41 47 42 48 43 49 93 50 44 51
REMARK SMILES IDX 98 52 92 53 94 54 45 55 97 56 91 57 90 58 46 60 78 61 58 62
REMARK SMILES IDX 77 63 59 64 62 65 76 66 95 67 60 68 61 69 75 71 96 72 63 73
REMARK SMILES IDX 47 74 48 75 56 76 49 77 51 78 57 79 50 80 52 81 53 82 54 83
REMARK SMILES IDX 55 84 79 85 80 86 88 87 81 88 83 89 89 90 82 91 84 92 85 93
REMARK SMILES IDX 86 94 87 95 64 96 65 97 73 98 66 99 68 100 74 101 67 102
REMARK SMILES IDX 69 103 70 104 71 105 72 106
REMARK H PARENT 94 59 62 70
REMARK Flexibility Score: inf
ROOT
ATOM      1  C   UNL A   1      32.875  28.141  25.117  1.00  0.00     0.188 C 
ENDROOT
BRANCH   1   2
ATOM      2  O   UNL A   1      33.317  29.103  24.163  1.00  0.00    -0.377 OA
BRANCH   2   3
ATOM      3  C   UNL A   1      32.936  28.906  22.812  1.00  0.00     0.188 C 
BRANCH   3   4
ATOM      4  C   UNL A   1      33.838  28.182  21.802  1.00  0.00     0.188 C 
BRANCH   4   5
ATOM      5  O   UNL A   1      34.000  26.787  21.683  1.00  0.00    -0.376 OA
BRANCH   5   6
ATOM      6  C   UNL A   1      33.401  25.805  22.499  1.00  0.00     0.202 C 
BRANCH   6   7
ATOM      7  C   UNL A   1      34.295  24.848  23.404  1.00  0.00     0.261 C 
BRANCH   7   8
ATOM      8  O   UNL A   1      33.584  23.756  24.038  1.00  0.00    -0.460 OA
BRANCH   8   9
ATOM      9  C   UNL A   1      32.816  22.934  23.273  1.00  0.00     0.338 C 
ATOM     10  O   UNL A   1      32.927  22.692  22.115  1.00  0.00    -0.246 OA
BRANCH   9  11
ATOM     11  C   UNL A   1      31.812  22.274  24.202  1.00  0.00     0.087 C 
ATOM     12  C   UNL A   1      35.590  21.031  25.313  1.00  0.00     0.026 A 
ATOM     13  C   UNL A   1      35.851  19.684  24.997  1.00  0.00     0.033 A 
ATOM     14  C   UNL A   1      34.109  21.341  25.307  1.00  0.00     0.135 A 
ATOM     15  C   UNL A   1      34.843  18.757  24.683  1.00  0.00     0.042 A 
ATOM     16  C   UNL A   1      33.170  20.446  24.708  1.00  0.00     0.019 A 
ATOM     17  O   UNL A   1      33.410  22.434  25.932  1.00  0.00    -0.475 OA
ATOM     18  Cl  UNL A   1      35.244  17.095  24.503  1.00  0.00    -0.084 Cl
ATOM     19  C   UNL A   1      33.521  19.136  24.490  1.00  0.00     0.032 A 
ATOM     20  C   UNL A   1      31.822  20.928  24.263  1.00  0.00     0.027 C 
ATOM     21  C   UNL A   1      31.987  22.796  25.591  1.00  0.00     0.316 C 
BRANCH  12  22
ATOM     22  C   UNL A   1      37.026  21.833  25.478  1.00  0.00    -0.014 A 
ATOM     23  C   UNL A   1      39.613  23.124  26.453  1.00  0.00     0.121 A 
ATOM     24  C   UNL A   1      38.410  23.807  26.237  1.00  0.00     0.047 A 
ATOM     25  C   UNL A   1      39.534  21.756  26.290  1.00  0.00    -0.008 A 
ATOM     26  C   UNL A   1      37.157  23.187  25.822  1.00  0.00     0.013 A 
ATOM     27  C   UNL A   1      38.278  21.182  25.700  1.00  0.00     0.016 A 
ATOM     28  C   UNL A   1      40.691  20.965  26.888  1.00  0.00     0.048 C 
BRANCH  23  29
ATOM     29  O   UNL A   1      40.675  23.888  26.880  1.00  0.00    -0.496 OA
ATOM     30  C   UNL A   1      41.189  25.020  26.155  1.00  0.00     0.278 C 
ENDBRANCH  23  29
ENDBRANCH  12  22
BRANCH  21  31
ATOM     31  C   UNL A   1      31.343  24.246  25.774  1.00  0.00     0.430 C 
ATOM     32  F   UNL A   1      32.327  25.088  26.236  1.00  0.00    -0.167 F 
ATOM     33  F   UNL A   1      30.964  24.789  24.592  1.00  0.00    -0.167 F 
ATOM     34  F   UNL A   1      30.324  24.422  26.628  1.00  0.00    -0.167 F 
ENDBRANCH  21  31
ENDBRANCH   9  11
ENDBRANCH   8   9
ENDBRANCH   7   8
ENDBRANCH   6   7
ENDBRANCH   5   6
ENDBRANCH   4   5
ENDBRANCH   3   4
ENDBRANCH   2   3
ENDBRANCH   1   2
BRANCH   1  35
ATOM     35  C   UNL A   1      32.481  28.705  26.480  1.00  0.00     0.188 C 
BRANCH  35  36
ATOM     36  O   UNL A   1      31.716  29.867  26.228  1.00  0.00    -0.376 OA
BRANCH  36  37
ATOM     37  C   UNL A   1      32.090  31.097  26.805  1.00  0.00     0.202 C 
BRANCH  37  38
ATOM     38  C   UNL A   1      33.369  30.956  27.609  1.00  0.00     0.261 C 
BRANCH  38  39
ATOM     39  O   UNL A   1      33.843  32.295  27.882  1.00  0.00    -0.460 OA
BRANCH  39  40
ATOM     40  C   UNL A   1      34.516  32.432  29.060  1.00  0.00     0.338 C 
ATOM     41  O   UNL A   1      34.221  33.263  29.903  1.00  0.00    -0.246 OA
BRANCH  40  42
ATOM     42  C   UNL A   1      35.747  31.568  29.087  1.00  0.00     0.060 A 
ATOM     43  C   UNL A   1      35.688  30.250  29.549  1.00  0.00     0.016 A 
ATOM     44  C   UNL A   1      37.005  32.116  28.877  1.00  0.00     0.016 A 
ATOM     45  C   UNL A   1      36.859  29.568  29.969  1.00  0.00     0.010 A 
ATOM     46  C   UNL A   1      38.144  31.447  29.337  1.00  0.00     0.010 A 
ATOM     47  C   UNL A   1      38.097  30.197  29.963  1.00  0.00    -0.014 A 
BRANCH  47  48
ATOM     48  C   UNL A   1      39.358  29.760  30.650  1.00  0.00     0.031 A 
ATOM     49  C   UNL A   1      40.259  28.749  29.926  1.00  0.00     0.074 A 
ATOM     50  C   UNL A   1      39.874  30.598  31.599  1.00  0.00     0.049 A 
ATOM     51  N   UNL A   1      41.556  28.724  29.873  1.00  0.00    -0.248 NA
ATOM     52  C   UNL A   1      39.703  27.628  29.181  1.00  0.00     0.031 C 
ATOM     53  C   UNL A   1      41.300  30.788  31.872  1.00  0.00     0.029 A 
ATOM     54  N   UNL A   1      39.325  31.564  32.437  1.00  0.00    -0.354 N 
ATOM     55  C   UNL A   1      42.025  27.740  28.989  1.00  0.00     0.074 A 
ATOM     56  C   UNL A   1      40.807  27.030  28.686  1.00  0.00     0.031 C 
ATOM     57  C   UNL A   1      41.524  31.818  32.703  1.00  0.00     0.029 A 
ATOM     58  C   UNL A   1      40.285  31.939  33.400  1.00  0.00     0.049 A 
ATOM     59  H   UNL A   1      38.413  31.929  32.368  1.00  0.00     0.167 HD
ATOM     60  C   UNL A   1      43.391  27.637  28.712  1.00  0.00     0.034 A 
ATOM     61  C   UNL A   1      40.244  31.496  34.699  1.00  0.00     0.034 A 
ATOM     62  C   UNL A   1      44.085  28.021  29.989  1.00  0.00     0.049 A 
ATOM     63  C   UNL A   1      41.275  30.336  34.955  1.00  0.00     0.074 A 
ATOM     64  C   UNL A   1      45.210  28.734  30.343  1.00  0.00     0.029 A 
ATOM     65  N   UNL A   1      43.492  27.668  31.225  1.00  0.00    -0.354 N 
ATOM     66  N   UNL A   1      41.958  29.722  34.006  1.00  0.00    -0.248 NA
ATOM     67  C   UNL A   1      41.731  29.864  36.258  1.00  0.00     0.031 C 
ATOM     68  C   UNL A   1      45.116  29.037  31.748  1.00  0.00     0.029 A 
ATOM     69  C   UNL A   1      44.025  28.365  32.300  1.00  0.00     0.049 A 
ATOM     70  H   UNL A   1      42.777  26.998  31.313  1.00  0.00     0.167 HD
ATOM     71  C   UNL A   1      42.867  28.828  34.473  1.00  0.00     0.074 A 
ATOM     72  C   UNL A   1      42.689  28.972  35.916  1.00  0.00     0.031 C 
ATOM     73  C   UNL A   1      43.649  28.005  33.684  1.00  0.00     0.034 A 
BRANCH  60  74
ATOM     74  C   UNL A   1      44.308  27.095  27.427  1.00  0.00     0.023 A 
ATOM     75  C   UNL A   1      44.732  28.072  26.509  1.00  0.00     0.012 A 
ATOM     76  C   UNL A   1      44.652  25.774  26.906  1.00  0.00     0.148 A 
ATOM     77  C   UNL A   1      45.485  27.782  25.327  1.00  0.00     0.002 A 
ATOM     78  C   UNL A   1      45.579  25.496  25.878  1.00  0.00     0.091 A 
ATOM     79  F   UNL A   1      44.009  24.658  27.242  1.00  0.00    -0.205 F 
ATOM     80  C   UNL A   1      45.974  26.511  25.047  1.00  0.00     0.022 A 
BRANCH  78  81
ATOM     81  S   UNL A   1      46.368  23.849  25.711  1.00  0.00     0.127 S 
ATOM     82  O   UNL A   1      47.598  23.970  26.489  1.00  0.00    -0.237 OA
ATOM     83  O   UNL A   1      45.371  22.948  26.295  1.00  0.00    -0.237 OA
ATOM     84  O   UNL A   1      46.550  23.644  24.278  1.00  0.00    -0.744 OA
ENDBRANCH  78  81
ENDBRANCH  60  74
BRANCH  61  85
ATOM     85  C   UNL A   1      38.902  31.850  35.274  1.00  0.00     0.023 A 
ATOM     86  C   UNL A   1      38.953  32.922  36.217  1.00  0.00     0.012 A 
ATOM     87  C   UNL A   1      37.768  31.753  34.451  1.00  0.00     0.148 A 
ATOM     88  C   UNL A   1      38.074  34.008  36.123  1.00  0.00     0.002 A 
ATOM     89  C   UNL A   1      36.887  32.839  34.372  1.00  0.00     0.091 A 
ATOM     90  F   UNL A   1      37.667  30.695  33.637  1.00  0.00    -0.205 F 
ATOM     91  C   UNL A   1      37.079  33.991  35.156  1.00  0.00     0.022 A 
BRANCH  89  92
ATOM     92  S   UNL A   1      35.629  32.917  33.089  1.00  0.00     0.127 S 
ATOM     93  O   UNL A   1      36.010  34.122  32.365  1.00  0.00    -0.237 OA
ATOM     94  O   UNL A   1      35.849  31.668  32.361  1.00  0.00    -0.237 OA
ATOM     95  O   UNL A   1      34.368  32.974  33.813  1.00  0.00    -0.744 OA
ENDBRANCH  89  92
ENDBRANCH  61  85
BRANCH  73  96
ATOM     96  C   UNL A   1      44.114  26.632  34.168  1.00  0.00     0.023 A 
ATOM     97  C   UNL A   1      43.526  25.457  33.667  1.00  0.00     0.012 A 
ATOM     98  C   UNL A   1      45.297  26.463  34.943  1.00  0.00     0.148 A 
ATOM     99  C   UNL A   1      44.008  24.187  33.987  1.00  0.00     0.002 A 
ATOM    100  C   UNL A   1      45.851  25.203  35.142  1.00  0.00     0.091 A 
ATOM    101  F   UNL A   1      45.907  27.516  35.502  1.00  0.00    -0.205 F 
ATOM    102  C   UNL A   1      45.185  24.060  34.707  1.00  0.00     0.022 A 
BRANCH 100 103
ATOM    103  S   UNL A   1      47.520  25.007  35.790  1.00  0.00     0.127 S 
ATOM    104  O   UNL A   1      47.938  23.751  35.171  1.00  0.00    -0.237 OA
ATOM    105  O   UNL A   1      48.195  26.198  35.269  1.00  0.00    -0.237 OA
ATOM    106  O   UNL A   1      47.375  24.995  37.240  1.00  0.00    -0.744 OA
ENDBRANCH 100 103
ENDBRANCH  73  96
ENDBRANCH  47  48
ENDBRANCH  40  42
ENDBRANCH  39  40
ENDBRANCH  38  39
ENDBRANCH  37  38
ENDBRANCH  36  37
ENDBRANCH  35  36
ENDBRANCH   1  35
TORSDOF 26
ENDMDL
