MODEL 1
REMARK VINA RESULT:      -7.3      0.000      0.000
REMARK SMILES CC[C@H](C)N(C)C(=O)N1[C@@H](C(=O)OCCOCCOCCOCCOC(=O)c2ccc(-c3c4nc(c(-c5cccc(S(=O)(=O)[O-])c5F)c5ccc([nH]5)c(-c5cccc(S(=O)(=O)[O-])c5F)c5nc(c(-c6cccc(S(=O)(=O)[O-])c6F)c6ccc3[nH]6)C=C5)C=C4)cc2)CC[C@H]2CCCC[C@@H]21
REMARK SMILES IDX 18 1 17 2 16 3 15 4 14 5 13 6 11 7 12 8 10 9 9 10 98 11
REMARK SMILES IDX 91 12 93 13 97 14 92 15 94 16 96 17 95 18 7 19 8 20 5 21
REMARK SMILES IDX 6 22 3 23 4 24 2 25 1 26 19 27 20 28 21 29 22 30 23 31 24 32
REMARK SMILES IDX 25 33 26 34 27 35 28 36 29 37 90 38 30 39 89 40 31 41 32 42
REMARK SMILES IDX 33 43 83 44 34 45 88 46 82 47 84 48 35 49 87 50 81 51 80 52
REMARK SMILES IDX 36 54 68 55 48 56 67 57 49 58 52 59 66 60 85 61 50 62 51 63
REMARK SMILES IDX 65 65 86 66 53 67 37 68 38 69 46 70 39 71 41 72 47 73 40 74
REMARK SMILES IDX 42 75 43 76 44 77 45 78 69 79 70 80 78 81 71 82 73 83 79 84
REMARK SMILES IDX 72 85 74 86 75 87 76 88 77 89 54 90 55 91 63 92 56 93 58 94
REMARK SMILES IDX 64 95 57 96 59 97 60 98 61 99 62 100
REMARK H PARENT 84 53 52 64
REMARK Flexibility Score: inf
ROOT
ATOM      1  C   UNL A   1      44.369  40.899  29.729  1.00  0.00     0.188 C 
ENDROOT
BRANCH   1   2
ATOM      2  C   UNL A   1      44.464  39.665  28.817  1.00  0.00     0.188 C 
BRANCH   2   3
ATOM      3  O   UNL A   1      43.925  39.725  27.502  1.00  0.00    -0.376 OA
BRANCH   3   4
ATOM      4  C   UNL A   1      44.826  39.673  26.395  1.00  0.00     0.202 C 
BRANCH   4   5
ATOM      5  C   UNL A   1      45.435  40.980  25.852  1.00  0.00     0.261 C 
BRANCH   5   6
ATOM      6  O   UNL A   1      45.104  41.320  24.477  1.00  0.00    -0.462 OA
BRANCH   6   7
ATOM      7  C   UNL A   1      44.092  42.203  24.335  1.00  0.00     0.329 C 
ATOM      8  O   UNL A   1      43.428  42.600  25.298  1.00  0.00    -0.250 OA
BRANCH   7   9
ATOM      9  C   UNL A   1      43.775  42.769  22.907  1.00  0.00     0.197 C 
ATOM     10  N   UNL A   1      44.093  44.041  22.186  1.00  0.00    -0.308 N 
ATOM     11  C   UNL A   1      43.637  44.090  20.778  1.00  0.00     0.091 C 
ATOM     12  C   UNL A   1      42.202  42.686  22.900  1.00  0.00     0.038 C 
ATOM     13  C   UNL A   1      42.517  43.086  20.468  1.00  0.00     0.012 C 
ATOM     14  C   UNL A   1      44.758  43.915  19.732  1.00  0.00     0.025 C 
ATOM     15  C   UNL A   1      41.518  43.139  21.609  1.00  0.00     0.008 C 
ATOM     16  C   UNL A   1      41.910  43.409  19.102  1.00  0.00     0.006 C 
ATOM     17  C   UNL A   1      44.207  44.205  18.337  1.00  0.00     0.002 C 
ATOM     18  C   UNL A   1      42.984  43.349  18.012  1.00  0.00     0.000 C 
BRANCH  10  19
ATOM     19  C   UNL A   1      45.225  44.807  22.431  1.00  0.00     0.320 C 
ATOM     20  O   UNL A   1      45.236  46.010  22.201  1.00  0.00    -0.248 OA
BRANCH  19  21
ATOM     21  N   UNL A   1      46.308  44.094  23.011  1.00  0.00    -0.325 N 
ATOM     22  C   UNL A   1      47.172  43.200  22.238  1.00  0.00     0.149 C 
BRANCH  21  23
ATOM     23  C   UNL A   1      46.866  44.525  24.310  1.00  0.00     0.083 C 
ATOM     24  C   UNL A   1      48.098  45.345  24.041  1.00  0.00     0.031 C 
BRANCH  23  25
ATOM     25  C   UNL A   1      45.889  45.127  25.330  1.00  0.00     0.021 C 
ATOM     26  C   UNL A   1      45.980  44.496  26.721  1.00  0.00     0.006 C 
ENDBRANCH  23  25
ENDBRANCH  21  23
ENDBRANCH  19  21
ENDBRANCH  10  19
ENDBRANCH   7   9
ENDBRANCH   6   7
ENDBRANCH   5   6
ENDBRANCH   4   5
ENDBRANCH   3   4
ENDBRANCH   2   3
ENDBRANCH   1   2
BRANCH   1  27
ATOM     27  O   UNL A   1      44.161  40.575  31.080  1.00  0.00    -0.377 OA
BRANCH  27  28
ATOM     28  C   UNL A   1      42.893  40.652  31.691  1.00  0.00     0.188 C 
BRANCH  28  29
ATOM     29  C   UNL A   1      42.468  41.889  32.475  1.00  0.00     0.188 C 
BRANCH  29  30
ATOM     30  O   UNL A   1      43.435  42.665  33.174  1.00  0.00    -0.376 OA
BRANCH  30  31
ATOM     31  C   UNL A   1      44.533  42.043  33.831  1.00  0.00     0.202 C 
BRANCH  31  32
ATOM     32  C   UNL A   1      44.280  41.278  35.141  1.00  0.00     0.261 C 
BRANCH  32  33
ATOM     33  O   UNL A   1      45.201  40.185  35.349  1.00  0.00    -0.460 OA
BRANCH  33  34
ATOM     34  C   UNL A   1      44.722  39.066  35.929  1.00  0.00     0.338 C 
ATOM     35  O   UNL A   1      44.132  39.006  37.002  1.00  0.00    -0.246 OA
BRANCH  34  36
ATOM     36  C   UNL A   1      44.833  37.909  35.010  1.00  0.00     0.060 A 
ATOM     37  C   UNL A   1      44.551  38.129  33.658  1.00  0.00     0.016 A 
ATOM     38  C   UNL A   1      45.121  36.616  35.454  1.00  0.00     0.016 A 
ATOM     39  C   UNL A   1      44.493  37.059  32.759  1.00  0.00     0.010 A 
ATOM     40  C   UNL A   1      45.074  35.541  34.545  1.00  0.00     0.010 A 
ATOM     41  C   UNL A   1      44.706  35.745  33.198  1.00  0.00    -0.014 A 
BRANCH  41  42
ATOM     42  C   UNL A   1      44.356  34.598  32.299  1.00  0.00     0.031 A 
ATOM     43  C   UNL A   1      45.406  34.057  31.353  1.00  0.00     0.074 A 
ATOM     44  C   UNL A   1      43.151  33.989  32.335  1.00  0.00     0.049 A 
ATOM     45  N   UNL A   1      45.326  33.067  30.497  1.00  0.00    -0.248 NA
ATOM     46  C   UNL A   1      46.718  34.722  31.371  1.00  0.00     0.031 C 
ATOM     47  C   UNL A   1      42.032  34.369  33.193  1.00  0.00     0.029 A 
ATOM     48  N   UNL A   1      42.669  32.919  31.613  1.00  0.00    -0.354 N 
ATOM     49  C   UNL A   1      46.556  33.021  29.850  1.00  0.00     0.074 A 
ATOM     50  C   UNL A   1      47.357  34.094  30.397  1.00  0.00     0.031 C 
ATOM     51  C   UNL A   1      40.991  33.554  32.942  1.00  0.00     0.029 A 
ATOM     52  C   UNL A   1      41.355  32.609  31.884  1.00  0.00     0.049 A 
ATOM     53  H   UNL A   1      43.213  32.422  30.960  1.00  0.00     0.167 HD
ATOM     54  C   UNL A   1      46.999  32.159  28.903  1.00  0.00     0.034 A 
ATOM     55  C   UNL A   1      40.531  31.687  31.339  1.00  0.00     0.034 A 
ATOM     56  C   UNL A   1      46.242  31.057  28.376  1.00  0.00     0.049 A 
ATOM     57  C   UNL A   1      41.038  30.759  30.259  1.00  0.00     0.074 A 
ATOM     58  C   UNL A   1      46.650  30.095  27.466  1.00  0.00     0.029 A 
ATOM     59  N   UNL A   1      44.925  30.773  28.690  1.00  0.00    -0.354 N 
ATOM     60  N   UNL A   1      42.243  30.651  29.754  1.00  0.00    -0.248 NA
ATOM     61  C   UNL A   1      40.072  29.803  29.690  1.00  0.00     0.031 C 
ATOM     62  C   UNL A   1      45.564  29.258  27.196  1.00  0.00     0.029 A 
ATOM     63  C   UNL A   1      44.494  29.669  27.973  1.00  0.00     0.049 A 
ATOM     64  H   UNL A   1      44.375  31.281  29.330  1.00  0.00     0.167 HD
ATOM     65  C   UNL A   1      42.187  29.599  28.842  1.00  0.00     0.074 A 
ATOM     66  C   UNL A   1      40.836  29.085  28.876  1.00  0.00     0.031 C 
ATOM     67  C   UNL A   1      43.167  29.114  28.041  1.00  0.00     0.034 A 
BRANCH  54  68
ATOM     68  C   UNL A   1      48.397  32.361  28.374  1.00  0.00     0.023 A 
ATOM     69  C   UNL A   1      49.438  31.510  28.795  1.00  0.00     0.012 A 
ATOM     70  C   UNL A   1      48.662  33.357  27.413  1.00  0.00     0.148 A 
ATOM     71  C   UNL A   1      50.732  31.674  28.300  1.00  0.00     0.002 A 
ATOM     72  C   UNL A   1      49.942  33.481  26.887  1.00  0.00     0.091 A 
ATOM     73  F   UNL A   1      47.661  34.165  27.036  1.00  0.00    -0.205 F 
ATOM     74  C   UNL A   1      50.980  32.651  27.340  1.00  0.00     0.022 A 
BRANCH  72  75
ATOM     75  S   UNL A   1      50.345  34.650  25.585  1.00  0.00     0.127 S 
ATOM     76  O   UNL A   1      50.678  35.847  26.358  1.00  0.00    -0.237 OA
ATOM     77  O   UNL A   1      51.488  34.006  24.937  1.00  0.00    -0.237 OA
ATOM     78  O   UNL A   1      49.154  34.757  24.755  1.00  0.00    -0.744 OA
ENDBRANCH  72  75
ENDBRANCH  54  68
BRANCH  55  79
ATOM     79  C   UNL A   1      39.119  31.563  31.812  1.00  0.00     0.023 A 
ATOM     80  C   UNL A   1      38.839  30.852  32.996  1.00  0.00     0.012 A 
ATOM     81  C   UNL A   1      38.050  32.114  31.077  1.00  0.00     0.148 A 
ATOM     82  C   UNL A   1      37.523  30.662  33.421  1.00  0.00     0.002 A 
ATOM     83  C   UNL A   1      36.746  31.968  31.536  1.00  0.00     0.091 A 
ATOM     84  F   UNL A   1      38.332  32.767  29.941  1.00  0.00    -0.205 F 
ATOM     85  C   UNL A   1      36.478  31.227  32.696  1.00  0.00     0.022 A 
BRANCH  83  86
ATOM     86  S   UNL A   1      35.341  32.747  30.730  1.00  0.00     0.127 S 
ATOM     87  O   UNL A   1      35.768  34.143  30.666  1.00  0.00    -0.237 OA
ATOM     88  O   UNL A   1      35.314  32.053  29.442  1.00  0.00    -0.237 OA
ATOM     89  O   UNL A   1      34.194  32.482  31.587  1.00  0.00    -0.744 OA
ENDBRANCH  83  86
ENDBRANCH  55  79
BRANCH  67  90
ATOM     90  C   UNL A   1      42.856  27.936  27.150  1.00  0.00     0.023 A 
ATOM     91  C   UNL A   1      42.450  28.146  25.817  1.00  0.00     0.012 A 
ATOM     92  C   UNL A   1      43.067  26.616  27.602  1.00  0.00     0.148 A 
ATOM     93  C   UNL A   1      42.235  27.066  24.958  1.00  0.00     0.002 A 
ATOM     94  C   UNL A   1      42.899  25.547  26.728  1.00  0.00     0.091 A 
ATOM     95  F   UNL A   1      43.443  26.431  28.876  1.00  0.00    -0.205 F 
ATOM     96  C   UNL A   1      42.471  25.769  25.409  1.00  0.00     0.022 A 
BRANCH  94  97
ATOM     97  S   UNL A   1      43.272  23.849  27.185  1.00  0.00     0.127 S 
ATOM     98  O   UNL A   1      42.346  23.629  28.295  1.00  0.00    -0.237 OA
ATOM     99  O   UNL A   1      42.940  23.120  25.961  1.00  0.00    -0.237 OA
ATOM    100  O   UNL A   1      44.683  23.826  27.543  1.00  0.00    -0.744 OA
ENDBRANCH  94  97
ENDBRANCH  67  90
ENDBRANCH  41  42
ENDBRANCH  34  36
ENDBRANCH  33  34
ENDBRANCH  32  33
ENDBRANCH  31  32
ENDBRANCH  30  31
ENDBRANCH  29  30
ENDBRANCH  28  29
ENDBRANCH  27  28
ENDBRANCH   1  27
TORSDOF 27
ENDMDL
MODEL 2
REMARK VINA RESULT:      -7.3      6.894     12.156
REMARK SMILES CC[C@H](C)N(C)C(=O)N1[C@@H](C(=O)OCCOCCOCCOCCOC(=O)c2ccc(-c3c4nc(c(-c5cccc(S(=O)(=O)[O-])c5F)c5ccc([nH]5)c(-c5cccc(S(=O)(=O)[O-])c5F)c5nc(c(-c6cccc(S(=O)(=O)[O-])c6F)c6ccc3[nH]6)C=C5)C=C4)cc2)CC[C@H]2CCCC[C@@H]21
REMARK SMILES IDX 18 1 17 2 16 3 15 4 14 5 13 6 11 7 12 8 10 9 9 10 98 11
REMARK SMILES IDX 91 12 93 13 97 14 92 15 94 16 96 17 95 18 7 19 8 20 5 21
REMARK SMILES IDX 6 22 3 23 4 24 2 25 1 26 19 27 20 28 21 29 22 30 23 31 24 32
REMARK SMILES IDX 25 33 26 34 27 35 28 36 29 37 90 38 30 39 89 40 31 41 32 42
REMARK SMILES IDX 33 43 83 44 34 45 88 46 82 47 84 48 35 49 87 50 81 51 80 52
REMARK SMILES IDX 36 54 68 55 48 56 67 57 49 58 52 59 66 60 85 61 50 62 51 63
REMARK SMILES IDX 65 65 86 66 53 67 37 68 38 69 46 70 39 71 41 72 47 73 40 74
REMARK SMILES IDX 42 75 43 76 44 77 45 78 69 79 70 80 78 81 71 82 73 83 79 84
REMARK SMILES IDX 72 85 74 86 75 87 76 88 77 89 54 90 55 91 63 92 56 93 58 94
REMARK SMILES IDX 64 95 57 96 59 97 60 98 61 99 62 100
REMARK H PARENT 84 53 52 64
REMARK Flexibility Score: inf
ROOT
ATOM      1  C   UNL A   1      52.207  32.609  24.403  1.00  0.00     0.188 C 
ENDROOT
BRANCH   1   2
ATOM      2  C   UNL A   1      53.011  31.375  24.843  1.00  0.00     0.188 C 
BRANCH   2   3
ATOM      3  O   UNL A   1      52.370  30.360  25.606  1.00  0.00    -0.376 OA
BRANCH   3   4
ATOM      4  C   UNL A   1      52.744  29.000  25.377  1.00  0.00     0.202 C 
BRANCH   4   5
ATOM      5  C   UNL A   1      51.694  28.007  24.842  1.00  0.00     0.261 C 
BRANCH   5   6
ATOM      6  O   UNL A   1      50.331  28.504  24.743  1.00  0.00    -0.462 OA
BRANCH   6   7
ATOM      7  C   UNL A   1      49.472  27.999  25.653  1.00  0.00     0.329 C 
ATOM      8  O   UNL A   1      48.725  27.049  25.394  1.00  0.00    -0.250 OA
BRANCH   7   9
ATOM      9  C   UNL A   1      49.446  28.616  27.095  1.00  0.00     0.197 C 
ATOM     10  N   UNL A   1      49.674  28.078  28.473  1.00  0.00    -0.308 N 
ATOM     11  C   UNL A   1      49.622  29.089  29.553  1.00  0.00     0.091 C 
ATOM     12  C   UNL A   1      47.989  29.214  27.134  1.00  0.00     0.038 C 
ATOM     13  C   UNL A   1      48.867  30.366  29.153  1.00  0.00     0.012 C 
ATOM     14  C   UNL A   1      50.997  29.489  30.127  1.00  0.00     0.025 C 
ATOM     15  C   UNL A   1      47.606  29.948  28.420  1.00  0.00     0.008 C 
ATOM     16  C   UNL A   1      48.604  31.210  30.400  1.00  0.00     0.006 C 
ATOM     17  C   UNL A   1      50.801  30.356  31.369  1.00  0.00     0.002 C 
ATOM     18  C   UNL A   1      49.924  31.575  31.087  1.00  0.00     0.000 C 
BRANCH  10  19
ATOM     19  C   UNL A   1      50.507  27.003  28.756  1.00  0.00     0.320 C 
ATOM     20  O   UNL A   1      51.647  26.952  28.310  1.00  0.00    -0.248 OA
BRANCH  19  21
ATOM     21  N   UNL A   1      49.946  26.034  29.631  1.00  0.00    -0.325 N 
ATOM     22  C   UNL A   1      50.758  25.046  30.343  1.00  0.00     0.149 C 
BRANCH  21  23
ATOM     23  C   UNL A   1      48.588  26.232  30.180  1.00  0.00     0.083 C 
ATOM     24  C   UNL A   1      47.612  25.528  29.279  1.00  0.00     0.031 C 
BRANCH  23  25
ATOM     25  C   UNL A   1      48.393  25.978  31.682  1.00  0.00     0.021 C 
ATOM     26  C   UNL A   1      48.692  27.196  32.559  1.00  0.00     0.006 C 
ENDBRANCH  23  25
ENDBRANCH  21  23
ENDBRANCH  19  21
ENDBRANCH  10  19
ENDBRANCH   7   9
ENDBRANCH   6   7
ENDBRANCH   5   6
ENDBRANCH   4   5
ENDBRANCH   3   4
ENDBRANCH   2   3
ENDBRANCH   1   2
BRANCH   1  27
ATOM     27  O   UNL A   1      50.885  32.609  24.879  1.00  0.00    -0.377 OA
BRANCH  27  28
ATOM     28  C   UNL A   1      50.376  33.633  25.703  1.00  0.00     0.188 C 
BRANCH  28  29
ATOM     29  C   UNL A   1      50.204  35.055  25.180  1.00  0.00     0.188 C 
BRANCH  29  30
ATOM     30  O   UNL A   1      48.905  35.569  24.907  1.00  0.00    -0.376 OA
BRANCH  30  31
ATOM     31  C   UNL A   1      47.742  34.912  25.398  1.00  0.00     0.202 C 
BRANCH  31  32
ATOM     32  C   UNL A   1      46.594  35.761  25.969  1.00  0.00     0.261 C 
BRANCH  32  33
ATOM     33  O   UNL A   1      45.304  35.420  25.415  1.00  0.00    -0.460 OA
BRANCH  33  34
ATOM     34  C   UNL A   1      44.250  35.395  26.257  1.00  0.00     0.338 C 
ATOM     35  O   UNL A   1      43.433  36.294  26.415  1.00  0.00    -0.246 OA
BRANCH  34  36
ATOM     36  C   UNL A   1      44.086  34.048  26.851  1.00  0.00     0.060 A 
ATOM     37  C   UNL A   1      43.567  33.973  28.148  1.00  0.00     0.016 A 
ATOM     38  C   UNL A   1      44.502  32.880  26.205  1.00  0.00     0.016 A 
ATOM     39  C   UNL A   1      43.520  32.751  28.826  1.00  0.00     0.010 A 
ATOM     40  C   UNL A   1      44.443  31.649  26.886  1.00  0.00     0.010 A 
ATOM     41  C   UNL A   1      44.001  31.579  28.224  1.00  0.00    -0.014 A 
BRANCH  41  42
ATOM     42  C   UNL A   1      44.213  30.352  29.057  1.00  0.00     0.031 A 
ATOM     43  C   UNL A   1      44.681  30.506  30.488  1.00  0.00     0.074 A 
ATOM     44  C   UNL A   1      43.954  29.109  28.598  1.00  0.00     0.049 A 
ATOM     45  N   UNL A   1      44.919  29.586  31.391  1.00  0.00    -0.248 NA
ATOM     46  C   UNL A   1      44.916  31.878  30.963  1.00  0.00     0.031 C 
ATOM     47  C   UNL A   1      43.485  28.780  27.254  1.00  0.00     0.029 A 
ATOM     48  N   UNL A   1      44.063  27.885  29.222  1.00  0.00    -0.354 N 
ATOM     49  C   UNL A   1      45.369  30.263  32.519  1.00  0.00     0.074 A 
ATOM     50  C   UNL A   1      45.391  31.669  32.181  1.00  0.00     0.031 C 
ATOM     51  C   UNL A   1      43.356  27.444  27.151  1.00  0.00     0.029 A 
ATOM     52  C   UNL A   1      43.760  26.816  28.409  1.00  0.00     0.049 A 
ATOM     53  H   UNL A   1      44.334  27.783  30.163  1.00  0.00     0.167 HD
ATOM     54  C   UNL A   1      45.715  29.776  33.735  1.00  0.00     0.034 A 
ATOM     55  C   UNL A   1      43.815  25.485  28.639  1.00  0.00     0.034 A 
ATOM     56  C   UNL A   1      45.658  28.390  34.112  1.00  0.00     0.049 A 
ATOM     57  C   UNL A   1      44.237  24.964  29.994  1.00  0.00     0.074 A 
ATOM     58  C   UNL A   1      45.924  27.828  35.350  1.00  0.00     0.029 A 
ATOM     59  N   UNL A   1      45.332  27.347  33.263  1.00  0.00    -0.354 N 
ATOM     60  N   UNL A   1      44.536  25.629  31.083  1.00  0.00    -0.248 NA
ATOM     61  C   UNL A   1      44.305  23.501  30.158  1.00  0.00     0.031 C 
ATOM     62  C   UNL A   1      45.803  26.440  35.236  1.00  0.00     0.029 A 
ATOM     63  C   UNL A   1      45.416  26.142  33.941  1.00  0.00     0.049 A 
ATOM     64  H   UNL A   1      45.078  27.447  32.317  1.00  0.00     0.167 HD
ATOM     65  C   UNL A   1      44.788  24.670  32.063  1.00  0.00     0.074 A 
ATOM     66  C   UNL A   1      44.588  23.378  31.448  1.00  0.00     0.031 C 
ATOM     67  C   UNL A   1      45.164  24.852  33.353  1.00  0.00     0.034 A 
BRANCH  54  68
ATOM     68  C   UNL A   1      46.179  30.764  34.777  1.00  0.00     0.023 A 
ATOM     69  C   UNL A   1      45.238  31.390  35.619  1.00  0.00     0.012 A 
ATOM     70  C   UNL A   1      47.552  31.021  34.958  1.00  0.00     0.148 A 
ATOM     71  C   UNL A   1      45.655  32.292  36.599  1.00  0.00     0.002 A 
ATOM     72  C   UNL A   1      47.962  31.882  35.969  1.00  0.00     0.091 A 
ATOM     73  F   UNL A   1      48.428  30.425  34.137  1.00  0.00    -0.205 F 
ATOM     74  C   UNL A   1      47.015  32.528  36.779  1.00  0.00     0.022 A 
BRANCH  72  75
ATOM     75  S   UNL A   1      49.692  32.186  36.338  1.00  0.00     0.127 S 
ATOM     76  O   UNL A   1      50.253  32.359  34.998  1.00  0.00    -0.237 OA
ATOM     77  O   UNL A   1      49.625  33.413  37.134  1.00  0.00    -0.237 OA
ATOM     78  O   UNL A   1      50.163  31.016  37.064  1.00  0.00    -0.744 OA
ENDBRANCH  72  75
ENDBRANCH  54  68
BRANCH  55  79
ATOM     79  C   UNL A   1      43.441  24.517  27.564  1.00  0.00     0.023 A 
ATOM     80  C   UNL A   1      42.100  24.104  27.433  1.00  0.00     0.012 A 
ATOM     81  C   UNL A   1      44.409  23.978  26.694  1.00  0.00     0.148 A 
ATOM     82  C   UNL A   1      41.736  23.148  26.483  1.00  0.00     0.002 A 
ATOM     83  C   UNL A   1      44.031  23.068  25.713  1.00  0.00     0.091 A 
ATOM     84  F   UNL A   1      45.683  24.365  26.848  1.00  0.00    -0.205 F 
ATOM     85  C   UNL A   1      42.700  22.637  25.618  1.00  0.00     0.022 A 
BRANCH  83  86
ATOM     86  S   UNL A   1      45.179  22.432  24.486  1.00  0.00     0.127 S 
ATOM     87  O   UNL A   1      45.758  23.662  23.952  1.00  0.00    -0.237 OA
ATOM     88  O   UNL A   1      46.085  21.633  25.310  1.00  0.00    -0.237 OA
ATOM     89  O   UNL A   1      44.371  21.663  23.549  1.00  0.00    -0.744 OA
ENDBRANCH  83  86
ENDBRANCH  55  79
BRANCH  67  90
ATOM     90  C   UNL A   1      45.352  23.635  34.229  1.00  0.00     0.023 A 
ATOM     91  C   UNL A   1      44.230  22.939  34.721  1.00  0.00     0.012 A 
ATOM     92  C   UNL A   1      46.642  23.121  34.477  1.00  0.00     0.148 A 
ATOM     93  C   UNL A   1      44.389  21.768  35.464  1.00  0.00     0.002 A 
ATOM     94  C   UNL A   1      46.791  21.928  35.176  1.00  0.00     0.091 A 
ATOM     95  F   UNL A   1      47.700  23.800  34.011  1.00  0.00    -0.205 F 
ATOM     96  C   UNL A   1      45.666  21.256  35.681  1.00  0.00     0.022 A 
BRANCH  94  97
ATOM     97  S   UNL A   1      48.387  21.137  35.423  1.00  0.00     0.127 S 
ATOM     98  O   UNL A   1      48.041  20.042  36.328  1.00  0.00    -0.237 OA
ATOM     99  O   UNL A   1      48.737  20.718  34.065  1.00  0.00    -0.237 OA
ATOM    100  O   UNL A   1      49.260  22.156  35.989  1.00  0.00    -0.744 OA
ENDBRANCH  94  97
ENDBRANCH  67  90
ENDBRANCH  41  42
ENDBRANCH  34  36
ENDBRANCH  33  34
ENDBRANCH  32  33
ENDBRANCH  31  32
ENDBRANCH  30  31
ENDBRANCH  29  30
ENDBRANCH  28  29
ENDBRANCH  27  28
ENDBRANCH   1  27
TORSDOF 27
ENDMDL
MODEL 3
REMARK VINA RESULT:      -7.3      5.105     12.471
REMARK SMILES CC[C@H](C)N(C)C(=O)N1[C@@H](C(=O)OCCOCCOCCOCCOC(=O)c2ccc(-c3c4nc(c(-c5cccc(S(=O)(=O)[O-])c5F)c5ccc([nH]5)c(-c5cccc(S(=O)(=O)[O-])c5F)c5nc(c(-c6cccc(S(=O)(=O)[O-])c6F)c6ccc3[nH]6)C=C5)C=C4)cc2)CC[C@H]2CCCC[C@@H]21
REMARK SMILES IDX 18 1 17 2 16 3 15 4 14 5 13 6 11 7 12 8 10 9 9 10 98 11
REMARK SMILES IDX 91 12 93 13 97 14 92 15 94 16 96 17 95 18 7 19 8 20 5 21
REMARK SMILES IDX 6 22 3 23 4 24 2 25 1 26 19 27 20 28 21 29 22 30 23 31 24 32
REMARK SMILES IDX 25 33 26 34 27 35 28 36 29 37 90 38 30 39 89 40 31 41 32 42
REMARK SMILES IDX 33 43 83 44 34 45 88 46 82 47 84 48 35 49 87 50 81 51 80 52
REMARK SMILES IDX 36 54 68 55 48 56 67 57 49 58 52 59 66 60 85 61 50 62 51 63
REMARK SMILES IDX 65 65 86 66 53 67 37 68 38 69 46 70 39 71 41 72 47 73 40 74
REMARK SMILES IDX 42 75 43 76 44 77 45 78 69 79 70 80 78 81 71 82 73 83 79 84
REMARK SMILES IDX 72 85 74 86 75 87 76 88 77 89 54 90 55 91 63 92 56 93 58 94
REMARK SMILES IDX 64 95 57 96 59 97 60 98 61 99 62 100
REMARK H PARENT 84 53 52 64
REMARK Flexibility Score: inf
ROOT
ATOM      1  C   UNL A   1      51.221  29.566  27.046  1.00  0.00     0.188 C 
ENDROOT
BRANCH   1   2
ATOM      2  C   UNL A   1      49.778  29.553  26.516  1.00  0.00     0.188 C 
BRANCH   2   3
ATOM      3  O   UNL A   1      48.891  30.604  26.880  1.00  0.00    -0.376 OA
BRANCH   3   4
ATOM      4  C   UNL A   1      47.660  30.263  27.519  1.00  0.00     0.202 C 
BRANCH   4   5
ATOM      5  C   UNL A   1      46.652  29.359  26.785  1.00  0.00     0.261 C 
BRANCH   5   6
ATOM      6  O   UNL A   1      45.247  29.695  26.952  1.00  0.00    -0.462 OA
BRANCH   6   7
ATOM      7  C   UNL A   1      44.380  28.819  26.401  1.00  0.00     0.329 C 
ATOM      8  O   UNL A   1      44.614  28.251  25.329  1.00  0.00    -0.250 OA
BRANCH   7   9
ATOM      9  C   UNL A   1      43.051  28.485  27.165  1.00  0.00     0.197 C 
ATOM     10  N   UNL A   1      42.598  27.363  28.044  1.00  0.00    -0.308 N 
ATOM     11  C   UNL A   1      41.244  27.530  28.620  1.00  0.00     0.091 C 
ATOM     12  C   UNL A   1      42.016  28.508  25.978  1.00  0.00     0.038 C 
ATOM     13  C   UNL A   1      40.373  28.528  27.843  1.00  0.00     0.012 C 
ATOM     14  C   UNL A   1      41.223  27.917  30.113  1.00  0.00     0.025 C 
ATOM     15  C   UNL A   1      40.558  28.250  26.363  1.00  0.00     0.008 C 
ATOM     16  C   UNL A   1      38.924  28.412  28.316  1.00  0.00     0.006 C 
ATOM     17  C   UNL A   1      39.792  27.841  30.642  1.00  0.00     0.002 C 
ATOM     18  C   UNL A   1      38.828  28.693  29.819  1.00  0.00     0.000 C 
BRANCH  10  19
ATOM     19  C   UNL A   1      43.452  26.610  28.840  1.00  0.00     0.320 C 
ATOM     20  O   UNL A   1      43.970  27.088  29.841  1.00  0.00    -0.248 OA
BRANCH  19  21
ATOM     21  N   UNL A   1      43.610  25.260  28.425  1.00  0.00    -0.325 N 
ATOM     22  C   UNL A   1      42.790  24.167  28.953  1.00  0.00     0.149 C 
BRANCH  21  23
ATOM     23  C   UNL A   1      44.312  24.952  27.161  1.00  0.00     0.083 C 
ATOM     24  C   UNL A   1      45.643  24.342  27.502  1.00  0.00     0.031 C 
BRANCH  23  25
ATOM     25  C   UNL A   1      43.514  24.218  26.074  1.00  0.00     0.021 C 
ATOM     26  C   UNL A   1      42.567  25.124  25.283  1.00  0.00     0.006 C 
ENDBRANCH  23  25
ENDBRANCH  21  23
ENDBRANCH  19  21
ENDBRANCH  10  19
ENDBRANCH   7   9
ENDBRANCH   6   7
ENDBRANCH   5   6
ENDBRANCH   4   5
ENDBRANCH   3   4
ENDBRANCH   2   3
ENDBRANCH   1   2
BRANCH   1  27
ATOM     27  O   UNL A   1      51.585  28.372  27.691  1.00  0.00    -0.377 OA
BRANCH  27  28
ATOM     28  C   UNL A   1      52.923  28.059  28.008  1.00  0.00     0.188 C 
BRANCH  28  29
ATOM     29  C   UNL A   1      53.428  28.116  29.445  1.00  0.00     0.188 C 
BRANCH  29  30
ATOM     30  O   UNL A   1      54.447  29.041  29.812  1.00  0.00    -0.376 OA
BRANCH  30  31
ATOM     31  C   UNL A   1      54.433  30.375  29.320  1.00  0.00     0.202 C 
BRANCH  31  32
ATOM     32  C   UNL A   1      54.135  31.526  30.298  1.00  0.00     0.261 C 
BRANCH  32  33
ATOM     33  O   UNL A   1      52.890  31.359  31.010  1.00  0.00    -0.460 OA
BRANCH  33  34
ATOM     34  C   UNL A   1      52.309  32.466  31.518  1.00  0.00     0.338 C 
ATOM     35  O   UNL A   1      52.835  33.567  31.635  1.00  0.00    -0.246 OA
BRANCH  34  36
ATOM     36  C   UNL A   1      50.865  32.237  31.756  1.00  0.00     0.060 A 
ATOM     37  C   UNL A   1      50.174  31.448  30.830  1.00  0.00     0.016 A 
ATOM     38  C   UNL A   1      50.167  32.841  32.806  1.00  0.00     0.016 A 
ATOM     39  C   UNL A   1      48.785  31.309  30.909  1.00  0.00     0.010 A 
ATOM     40  C   UNL A   1      48.769  32.690  32.890  1.00  0.00     0.010 A 
ATOM     41  C   UNL A   1      48.056  31.967  31.911  1.00  0.00    -0.014 A 
BRANCH  41  42
ATOM     42  C   UNL A   1      46.563  32.047  31.809  1.00  0.00     0.031 A 
ATOM     43  C   UNL A   1      45.718  31.043  32.564  1.00  0.00     0.074 A 
ATOM     44  C   UNL A   1      45.934  33.015  31.109  1.00  0.00     0.049 A 
ATOM     45  N   UNL A   1      44.414  30.933  32.629  1.00  0.00    -0.248 NA
ATOM     46  C   UNL A   1      46.441  30.028  33.346  1.00  0.00     0.031 C 
ATOM     47  C   UNL A   1      46.590  34.067  30.336  1.00  0.00     0.029 A 
ATOM     48  N   UNL A   1      44.590  33.258  30.929  1.00  0.00    -0.354 N 
ATOM     49  C   UNL A   1      44.164  29.816  33.419  1.00  0.00     0.074 A 
ATOM     50  C   UNL A   1      45.450  29.272  33.794  1.00  0.00     0.031 C 
ATOM     51  C   UNL A   1      45.649  34.837  29.758  1.00  0.00     0.029 A 
ATOM     52  C   UNL A   1      44.321  34.318  30.092  1.00  0.00     0.049 A 
ATOM     53  H   UNL A   1      43.884  32.722  31.358  1.00  0.00     0.167 HD
ATOM     54  C   UNL A   1      42.980  29.294  33.822  1.00  0.00     0.034 A 
ATOM     55  C   UNL A   1      43.149  34.809  29.632  1.00  0.00     0.034 A 
ATOM     56  C   UNL A   1      41.689  29.841  33.502  1.00  0.00     0.049 A 
ATOM     57  C   UNL A   1      41.841  34.187  30.067  1.00  0.00     0.074 A 
ATOM     58  C   UNL A   1      40.446  29.409  33.934  1.00  0.00     0.029 A 
ATOM     59  N   UNL A   1      41.467  30.921  32.667  1.00  0.00    -0.354 N 
ATOM     60  N   UNL A   1      41.627  33.212  30.916  1.00  0.00    -0.248 NA
ATOM     61  C   UNL A   1      40.607  34.755  29.496  1.00  0.00     0.031 C 
ATOM     62  C   UNL A   1      39.470  30.200  33.321  1.00  0.00     0.029 A 
ATOM     63  C   UNL A   1      40.107  31.154  32.546  1.00  0.00     0.049 A 
ATOM     64  H   UNL A   1      42.172  31.446  32.223  1.00  0.00     0.167 HD
ATOM     65  C   UNL A   1      40.243  33.077  31.007  1.00  0.00     0.074 A 
ATOM     66  C   UNL A   1      39.665  34.083  30.144  1.00  0.00     0.031 C 
ATOM     67  C   UNL A   1      39.521  32.188  31.734  1.00  0.00     0.034 A 
BRANCH  54  68
ATOM     68  C   UNL A   1      43.019  28.055  34.682  1.00  0.00     0.023 A 
ATOM     69  C   UNL A   1      42.622  28.125  36.032  1.00  0.00     0.012 A 
ATOM     70  C   UNL A   1      43.392  26.813  34.131  1.00  0.00     0.148 A 
ATOM     71  C   UNL A   1      42.636  26.983  36.834  1.00  0.00     0.002 A 
ATOM     72  C   UNL A   1      43.355  25.672  34.923  1.00  0.00     0.091 A 
ATOM     73  F   UNL A   1      43.779  26.772  32.849  1.00  0.00    -0.205 F 
ATOM     74  C   UNL A   1      42.992  25.758  36.277  1.00  0.00     0.022 A 
BRANCH  72  75
ATOM     75  S   UNL A   1      43.712  24.035  34.279  1.00  0.00     0.127 S 
ATOM     76  O   UNL A   1      44.891  23.662  35.060  1.00  0.00    -0.237 OA
ATOM     77  O   UNL A   1      42.495  23.297  34.623  1.00  0.00    -0.237 OA
ATOM     78  O   UNL A   1      43.939  24.202  32.851  1.00  0.00    -0.744 OA
ENDBRANCH  72  75
ENDBRANCH  54  68
BRANCH  55  79
ATOM     79  C   UNL A   1      43.133  35.980  28.704  1.00  0.00     0.023 A 
ATOM     80  C   UNL A   1      42.975  35.771  27.320  1.00  0.00     0.012 A 
ATOM     81  C   UNL A   1      43.308  37.295  29.181  1.00  0.00     0.148 A 
ATOM     82  C   UNL A   1      43.027  36.842  26.425  1.00  0.00     0.002 A 
ATOM     83  C   UNL A   1      43.303  38.362  28.290  1.00  0.00     0.091 A 
ATOM     84  F   UNL A   1      43.481  37.472  30.498  1.00  0.00    -0.205 F 
ATOM     85  C   UNL A   1      43.182  38.137  26.911  1.00  0.00     0.022 A 
BRANCH  83  86
ATOM     86  S   UNL A   1      43.392  40.074  28.827  1.00  0.00     0.127 S 
ATOM     87  O   UNL A   1      43.643  40.770  27.568  1.00  0.00    -0.237 OA
ATOM     88  O   UNL A   1      42.057  40.280  29.389  1.00  0.00    -0.237 OA
ATOM     89  O   UNL A   1      44.475  40.130  29.800  1.00  0.00    -0.744 OA
ENDBRANCH  83  86
ENDBRANCH  55  79
BRANCH  67  90
ATOM     90  C   UNL A   1      38.014  32.267  31.680  1.00  0.00     0.023 A 
ATOM     91  C   UNL A   1      37.294  31.431  30.803  1.00  0.00     0.012 A 
ATOM     92  C   UNL A   1      37.305  33.094  32.576  1.00  0.00     0.148 A 
ATOM     93  C   UNL A   1      35.898  31.437  30.799  1.00  0.00     0.002 A 
ATOM     94  C   UNL A   1      35.915  33.058  32.602  1.00  0.00     0.091 A 
ATOM     95  F   UNL A   1      38.004  33.891  33.397  1.00  0.00    -0.205 F 
ATOM     96  C   UNL A   1      35.209  32.239  31.706  1.00  0.00     0.022 A 
BRANCH  94  97
ATOM     97  S   UNL A   1      34.940  33.982  33.797  1.00  0.00     0.127 S 
ATOM     98  O   UNL A   1      35.254  35.363  33.436  1.00  0.00    -0.237 OA
ATOM     99  O   UNL A   1      33.576  33.563  33.473  1.00  0.00    -0.237 OA
ATOM    100  O   UNL A   1      35.408  33.564  35.112  1.00  0.00    -0.744 OA
ENDBRANCH  94  97
ENDBRANCH  67  90
ENDBRANCH  41  42
ENDBRANCH  34  36
ENDBRANCH  33  34
ENDBRANCH  32  33
ENDBRANCH  31  32
ENDBRANCH  30  31
ENDBRANCH  29  30
ENDBRANCH  28  29
ENDBRANCH  27  28
ENDBRANCH   1  27
TORSDOF 27
ENDMDL
