MODEL 1
REMARK VINA RESULT:      -8.8      0.000      0.000
REMARK SMILES Nc1ccc(Cl)c(SC[C@H]2CC[C@H](C(=O)OCCOCCOCCOCCOC(=O)c3ccc(-c4c5nc(c(-c6cccc(S(=O)(=O)[O-])c6F)c6ccc([nH]6)c(-c6cccc(S(=O)(=O)[O-])c6F)c6nc(c(-c7cccc(S(=O)(=O)[O-])c7F)c7ccc4[nH]7)C=C6)C=C5)cc3)O2)c1
REMARK SMILES IDX 21 1 20 2 19 3 18 4 17 5 16 6 14 7 15 8 13 9 10 10 11 11
REMARK SMILES IDX 94 12 12 13 9 14 8 15 7 16 2 17 3 18 95 19 4 20 5 21 6 22
REMARK SMILES IDX 1 23 22 26 23 27 24 28 25 29 26 30 27 31 28 32 29 33 30 34
REMARK SMILES IDX 31 35 32 36 93 37 33 38 92 39 34 40 35 41 36 42 86 43 37 44
REMARK SMILES IDX 91 45 85 46 87 47 38 48 90 49 84 50 83 51 39 53 71 54 51 55
REMARK SMILES IDX 70 56 52 57 55 58 69 59 88 60 53 61 54 62 68 64 89 65 56 66
REMARK SMILES IDX 40 67 41 68 49 69 42 70 44 71 50 72 43 73 45 74 46 75 47 76
REMARK SMILES IDX 48 77 72 78 73 79 81 80 74 81 76 82 82 83 75 84 77 85 78 86
REMARK SMILES IDX 79 87 80 88 57 89 58 90 66 91 59 92 61 93 67 94 60 95 62 96
REMARK SMILES IDX 63 97 64 98 65 99
REMARK H PARENT 1 24 1 25 87 52 55 63
REMARK Flexibility Score: inf
ROOT
ATOM      1  C   UNL A   1      29.618  29.727  22.814  1.00  0.00     0.188 C 
ENDROOT
BRANCH   1   2
ATOM      2  C   UNL A   1      30.793  28.959  22.198  1.00  0.00     0.188 C 
BRANCH   2   3
ATOM      3  O   UNL A   1      30.635  27.632  21.727  1.00  0.00    -0.376 OA
BRANCH   3   4
ATOM      4  C   UNL A   1      30.748  26.496  22.576  1.00  0.00     0.202 C 
BRANCH   4   5
ATOM      5  C   UNL A   1      31.064  26.552  24.080  1.00  0.00     0.261 C 
BRANCH   5   6
ATOM      6  O   UNL A   1      30.585  25.470  24.885  1.00  0.00    -0.461 OA
BRANCH   6   7
ATOM      7  C   UNL A   1      31.458  25.023  25.814  1.00  0.00     0.335 C 
ATOM      8  O   UNL A   1      31.372  25.274  27.017  1.00  0.00    -0.249 OA
BRANCH   7   9
ATOM      9  C   UNL A   1      32.617  24.216  25.250  1.00  0.00     0.228 C 
ATOM     10  C   UNL A   1      34.586  24.792  24.145  1.00  0.00     0.129 C 
ATOM     11  C   UNL A   1      33.647  24.247  23.091  1.00  0.00     0.036 C 
ATOM     12  O   UNL A   1      33.748  25.100  25.257  1.00  0.00    -0.362 OA
ATOM     13  C   UNL A   1      32.587  23.537  23.889  1.00  0.00     0.047 C 
BRANCH  10  14
ATOM     14  C   UNL A   1      35.779  23.894  24.544  1.00  0.00     0.107 C 
BRANCH  14  15
ATOM     15  S   UNL A   1      35.746  22.908  26.109  1.00  0.00    -0.122 SA
BRANCH  15  16
ATOM     16  C   UNL A   1      35.206  21.239  25.642  1.00  0.00     0.028 A 
ATOM     17  C   UNL A   1      33.410  19.616  25.228  1.00  0.00     0.033 A 
ATOM     18  C   UNL A   1      34.325  18.729  24.677  1.00  0.00     0.027 A 
ATOM     19  C   UNL A   1      33.880  20.808  25.796  1.00  0.00     0.042 A 
ATOM     20  C   UNL A   1      35.670  19.083  24.585  1.00  0.00     0.024 A 
ATOM     21  C   UNL A   1      36.105  20.337  25.038  1.00  0.00     0.054 A 
ATOM     22  Cl  UNL A   1      37.787  20.693  24.807  1.00  0.00    -0.083 Cl
BRANCH  17  23
ATOM     23  N   UNL A   1      32.065  19.276  25.337  1.00  0.00    -0.399 N 
ATOM     24  H   UNL A   1      31.420  19.600  24.669  1.00  0.00     0.156 HD
ATOM     25  H   UNL A   1      31.760  18.711  26.082  1.00  0.00     0.156 HD
ENDBRANCH  17  23
ENDBRANCH  15  16
ENDBRANCH  14  15
ENDBRANCH  10  14
ENDBRANCH   7   9
ENDBRANCH   6   7
ENDBRANCH   5   6
ENDBRANCH   4   5
ENDBRANCH   3   4
ENDBRANCH   2   3
ENDBRANCH   1   2
BRANCH   1  26
ATOM     26  O   UNL A   1      29.936  30.470  23.969  1.00  0.00    -0.377 OA
BRANCH  26  27
ATOM     27  C   UNL A   1      30.589  29.831  25.057  1.00  0.00     0.188 C 
BRANCH  27  28
ATOM     28  C   UNL A   1      32.061  30.170  25.354  1.00  0.00     0.188 C 
BRANCH  28  29
ATOM     29  O   UNL A   1      32.995  29.345  24.675  1.00  0.00    -0.376 OA
BRANCH  29  30
ATOM     30  C   UNL A   1      34.091  28.818  25.407  1.00  0.00     0.202 C 
BRANCH  30  31
ATOM     31  C   UNL A   1      33.840  28.302  26.834  1.00  0.00     0.261 C 
BRANCH  31  32
ATOM     32  O   UNL A   1      33.969  29.249  27.908  1.00  0.00    -0.460 OA
BRANCH  32  33
ATOM     33  C   UNL A   1      34.790  30.314  27.755  1.00  0.00     0.338 C 
ATOM     34  O   UNL A   1      34.481  31.437  27.428  1.00  0.00    -0.246 OA
BRANCH  33  35
ATOM     35  C   UNL A   1      36.121  29.908  28.267  1.00  0.00     0.060 A 
ATOM     36  C   UNL A   1      37.249  30.077  27.453  1.00  0.00     0.016 A 
ATOM     37  C   UNL A   1      36.253  29.387  29.555  1.00  0.00     0.016 A 
ATOM     38  C   UNL A   1      38.515  29.716  27.924  1.00  0.00     0.010 A 
ATOM     39  C   UNL A   1      37.516  29.004  30.014  1.00  0.00     0.010 A 
ATOM     40  C   UNL A   1      38.651  29.149  29.196  1.00  0.00    -0.014 A 
BRANCH  40  41
ATOM     41  C   UNL A   1      39.948  28.579  29.638  1.00  0.00     0.031 A 
ATOM     42  C   UNL A   1      40.721  29.292  30.712  1.00  0.00     0.074 A 
ATOM     43  C   UNL A   1      40.457  27.475  29.060  1.00  0.00     0.049 A 
ATOM     44  N   UNL A   1      41.922  29.054  31.166  1.00  0.00    -0.248 NA
ATOM     45  C   UNL A   1      40.047  30.431  31.356  1.00  0.00     0.031 C 
ATOM     46  C   UNL A   1      39.797  26.682  28.026  1.00  0.00     0.029 A 
ATOM     47  N   UNL A   1      41.670  26.856  29.240  1.00  0.00    -0.354 N 
ATOM     48  C   UNL A   1      42.167  30.032  32.120  1.00  0.00     0.074 A 
ATOM     49  C   UNL A   1      40.987  30.868  32.182  1.00  0.00     0.031 C 
ATOM     50  C   UNL A   1      40.632  25.706  27.628  1.00  0.00     0.029 A 
ATOM     51  C   UNL A   1      41.897  25.830  28.351  1.00  0.00     0.049 A 
ATOM     52  H   UNL A   1      42.314  27.120  29.936  1.00  0.00     0.167 HD
ATOM     53  C   UNL A   1      43.272  30.218  32.881  1.00  0.00     0.034 A 
ATOM     54  C   UNL A   1      43.012  25.108  28.116  1.00  0.00     0.034 A 
ATOM     55  C   UNL A   1      44.440  29.383  32.822  1.00  0.00     0.049 A 
ATOM     56  C   UNL A   1      44.252  25.372  28.934  1.00  0.00     0.074 A 
ATOM     57  C   UNL A   1      45.590  29.460  33.589  1.00  0.00     0.029 A 
ATOM     58  N   UNL A   1      44.624  28.337  31.931  1.00  0.00    -0.354 N 
ATOM     59  N   UNL A   1      44.430  26.225  29.915  1.00  0.00    -0.248 NA
ATOM     60  C   UNL A   1      45.440  24.561  28.627  1.00  0.00     0.031 C 
ATOM     61  C   UNL A   1      46.486  28.490  33.129  1.00  0.00     0.029 A 
ATOM     62  C   UNL A   1      45.879  27.780  32.107  1.00  0.00     0.049 A 
ATOM     63  H   UNL A   1      43.960  28.036  31.270  1.00  0.00     0.167 HD
ATOM     64  C   UNL A   1      45.734  26.033  30.358  1.00  0.00     0.074 A 
ATOM     65  C   UNL A   1      46.296  24.966  29.556  1.00  0.00     0.031 C 
ATOM     66  C   UNL A   1      46.413  26.689  31.332  1.00  0.00     0.034 A 
BRANCH  53  67
ATOM     67  C   UNL A   1      43.272  31.374  33.847  1.00  0.00     0.023 A 
ATOM     68  C   UNL A   1      43.814  32.615  33.459  1.00  0.00     0.012 A 
ATOM     69  C   UNL A   1      42.682  31.242  35.119  1.00  0.00     0.148 A 
ATOM     70  C   UNL A   1      43.800  33.700  34.335  1.00  0.00     0.002 A 
ATOM     71  C   UNL A   1      42.628  32.341  35.968  1.00  0.00     0.091 A 
ATOM     72  F   UNL A   1      42.190  30.048  35.476  1.00  0.00    -0.205 F 
ATOM     73  C   UNL A   1      43.198  33.566  35.583  1.00  0.00     0.022 A 
BRANCH  71  74
ATOM     74  S   UNL A   1      41.805  32.293  37.564  1.00  0.00     0.127 S 
ATOM     75  O   UNL A   1      42.552  31.237  38.248  1.00  0.00    -0.237 OA
ATOM     76  O   UNL A   1      42.051  33.642  38.075  1.00  0.00    -0.237 OA
ATOM     77  O   UNL A   1      40.409  31.989  37.289  1.00  0.00    -0.744 OA
ENDBRANCH  71  74
ENDBRANCH  53  67
BRANCH  54  78
ATOM     78  C   UNL A   1      43.014  24.061  27.054  1.00  0.00     0.023 A 
ATOM     79  C   UNL A   1      43.620  24.331  25.811  1.00  0.00     0.012 A 
ATOM     80  C   UNL A   1      42.422  22.800  27.269  1.00  0.00     0.148 A 
ATOM     81  C   UNL A   1      43.609  23.377  24.793  1.00  0.00     0.002 A 
ATOM     82  C   UNL A   1      42.468  21.833  26.272  1.00  0.00     0.091 A 
ATOM     83  F   UNL A   1      41.835  22.569  28.451  1.00  0.00    -0.205 F 
ATOM     84  C   UNL A   1      43.043  22.126  25.026  1.00  0.00     0.022 A 
BRANCH  82  85
ATOM     85  S   UNL A   1      41.881  20.155  26.527  1.00  0.00     0.127 S 
ATOM     86  O   UNL A   1      42.597  19.767  27.740  1.00  0.00    -0.237 OA
ATOM     87  O   UNL A   1      40.443  20.364  26.699  1.00  0.00    -0.237 OA
ATOM     88  O   UNL A   1      42.241  19.420  25.322  1.00  0.00    -0.744 OA
ENDBRANCH  82  85
ENDBRANCH  54  78
BRANCH  66  89
ATOM     89  C   UNL A   1      47.832  26.265  31.617  1.00  0.00     0.023 A 
ATOM     90  C   UNL A   1      48.899  26.869  30.923  1.00  0.00     0.012 A 
ATOM     91  C   UNL A   1      48.112  25.335  32.639  1.00  0.00     0.148 A 
ATOM     92  C   UNL A   1      50.220  26.535  31.222  1.00  0.00     0.002 A 
ATOM     93  C   UNL A   1      49.432  25.046  32.967  1.00  0.00     0.091 A 
ATOM     94  F   UNL A   1      47.083  24.762  33.281  1.00  0.00    -0.205 F 
ATOM     95  C   UNL A   1      50.486  25.635  32.252  1.00  0.00     0.022 A 
BRANCH  93  96
ATOM     96  S   UNL A   1      49.877  23.973  34.338  1.00  0.00     0.127 S 
ATOM     97  O   UNL A   1      51.187  24.501  34.716  1.00  0.00    -0.237 OA
ATOM     98  O   UNL A   1      48.810  24.245  35.300  1.00  0.00    -0.237 OA
ATOM     99  O   UNL A   1      49.886  22.617  33.806  1.00  0.00    -0.744 OA
ENDBRANCH  93  96
ENDBRANCH  66  89
ENDBRANCH  40  41
ENDBRANCH  33  35
ENDBRANCH  32  33
ENDBRANCH  31  32
ENDBRANCH  30  31
ENDBRANCH  29  30
ENDBRANCH  28  29
ENDBRANCH  27  28
ENDBRANCH  26  27
ENDBRANCH   1  26
TORSDOF 27
ENDMDL
MODEL 2
REMARK VINA RESULT:      -8.7      1.699      2.021
REMARK SMILES Nc1ccc(Cl)c(SC[C@H]2CC[C@H](C(=O)OCCOCCOCCOCCOC(=O)c3ccc(-c4c5nc(c(-c6cccc(S(=O)(=O)[O-])c6F)c6ccc([nH]6)c(-c6cccc(S(=O)(=O)[O-])c6F)c6nc(c(-c7cccc(S(=O)(=O)[O-])c7F)c7ccc4[nH]7)C=C6)C=C5)cc3)O2)c1
REMARK SMILES IDX 21 1 20 2 19 3 18 4 17 5 16 6 14 7 15 8 13 9 10 10 11 11
REMARK SMILES IDX 94 12 12 13 9 14 8 15 7 16 2 17 3 18 95 19 4 20 5 21 6 22
REMARK SMILES IDX 1 23 22 26 23 27 24 28 25 29 26 30 27 31 28 32 29 33 30 34
REMARK SMILES IDX 31 35 32 36 93 37 33 38 92 39 34 40 35 41 36 42 86 43 37 44
REMARK SMILES IDX 91 45 85 46 87 47 38 48 90 49 84 50 83 51 39 53 71 54 51 55
REMARK SMILES IDX 70 56 52 57 55 58 69 59 88 60 53 61 54 62 68 64 89 65 56 66
REMARK SMILES IDX 40 67 41 68 49 69 42 70 44 71 50 72 43 73 45 74 46 75 47 76
REMARK SMILES IDX 48 77 72 78 73 79 81 80 74 81 76 82 82 83 75 84 77 85 78 86
REMARK SMILES IDX 79 87 80 88 57 89 58 90 66 91 59 92 61 93 67 94 60 95 62 96
REMARK SMILES IDX 63 97 64 98 65 99
REMARK H PARENT 1 24 1 25 87 52 55 63
REMARK Flexibility Score: inf
ROOT
ATOM      1  C   UNL A   1      29.579  29.701  23.080  1.00  0.00     0.188 C 
ENDROOT
BRANCH   1   2
ATOM      2  C   UNL A   1      30.684  29.072  22.223  1.00  0.00     0.188 C 
BRANCH   2   3
ATOM      3  O   UNL A   1      30.546  27.766  21.692  1.00  0.00    -0.376 OA
BRANCH   3   4
ATOM      4  C   UNL A   1      31.016  26.607  22.370  1.00  0.00     0.202 C 
BRANCH   4   5
ATOM      5  C   UNL A   1      31.244  26.510  23.888  1.00  0.00     0.261 C 
BRANCH   5   6
ATOM      6  O   UNL A   1      30.404  25.607  24.615  1.00  0.00    -0.461 OA
BRANCH   6   7
ATOM      7  C   UNL A   1      31.032  24.900  25.580  1.00  0.00     0.335 C 
ATOM      8  O   UNL A   1      31.112  25.260  26.755  1.00  0.00    -0.249 OA
BRANCH   7   9
ATOM      9  C   UNL A   1      31.699  23.624  25.091  1.00  0.00     0.228 C 
ATOM     10  C   UNL A   1      33.840  23.128  24.318  1.00  0.00     0.129 C 
ATOM     11  C   UNL A   1      32.943  23.168  23.099  1.00  0.00     0.036 C 
ATOM     12  O   UNL A   1      33.103  23.799  25.337  1.00  0.00    -0.362 OA
ATOM     13  C   UNL A   1      31.555  23.088  23.674  1.00  0.00     0.047 C 
BRANCH  10  14
ATOM     14  C   UNL A   1      34.331  21.735  24.773  1.00  0.00     0.107 C 
BRANCH  14  15
ATOM     15  S   UNL A   1      33.141  20.463  25.397  1.00  0.00    -0.122 SA
BRANCH  15  16
ATOM     16  C   UNL A   1      33.607  18.901  24.598  1.00  0.00     0.028 A 
ATOM     17  C   UNL A   1      34.608  16.662  24.715  1.00  0.00     0.033 A 
ATOM     18  C   UNL A   1      34.115  16.365  23.451  1.00  0.00     0.027 A 
ATOM     19  C   UNL A   1      34.437  17.957  25.221  1.00  0.00     0.042 A 
ATOM     20  C   UNL A   1      33.358  17.308  22.759  1.00  0.00     0.024 A 
ATOM     21  C   UNL A   1      33.082  18.557  23.336  1.00  0.00     0.054 A 
ATOM     22  Cl  UNL A   1      32.071  19.621  22.411  1.00  0.00    -0.083 Cl
BRANCH  17  23
ATOM     23  N   UNL A   1      35.374  15.736  25.416  1.00  0.00    -0.399 N 
ATOM     24  H   UNL A   1      35.027  14.828  25.572  1.00  0.00     0.156 HD
ATOM     25  H   UNL A   1      36.261  15.988  25.757  1.00  0.00     0.156 HD
ENDBRANCH  17  23
ENDBRANCH  15  16
ENDBRANCH  14  15
ENDBRANCH  10  14
ENDBRANCH   7   9
ENDBRANCH   6   7
ENDBRANCH   5   6
ENDBRANCH   4   5
ENDBRANCH   3   4
ENDBRANCH   2   3
ENDBRANCH   1   2
BRANCH   1  26
ATOM     26  O   UNL A   1      30.037  30.408  24.211  1.00  0.00    -0.377 OA
BRANCH  26  27
ATOM     27  C   UNL A   1      30.819  29.736  25.188  1.00  0.00     0.188 C 
BRANCH  27  28
ATOM     28  C   UNL A   1      32.292  30.140  25.378  1.00  0.00     0.188 C 
BRANCH  28  29
ATOM     29  O   UNL A   1      33.214  29.315  24.684  1.00  0.00    -0.376 OA
BRANCH  29  30
ATOM     30  C   UNL A   1      34.338  28.810  25.390  1.00  0.00     0.202 C 
BRANCH  30  31
ATOM     31  C   UNL A   1      34.138  28.331  26.838  1.00  0.00     0.261 C 
BRANCH  31  32
ATOM     32  O   UNL A   1      34.063  29.340  27.860  1.00  0.00    -0.460 OA
BRANCH  32  33
ATOM     33  C   UNL A   1      34.869  30.424  27.779  1.00  0.00     0.338 C 
ATOM     34  O   UNL A   1      34.547  31.559  27.513  1.00  0.00    -0.246 OA
BRANCH  33  35
ATOM     35  C   UNL A   1      36.200  30.009  28.285  1.00  0.00     0.060 A 
ATOM     36  C   UNL A   1      37.340  30.277  27.515  1.00  0.00     0.016 A 
ATOM     37  C   UNL A   1      36.320  29.381  29.526  1.00  0.00     0.016 A 
ATOM     38  C   UNL A   1      38.605  29.909  27.981  1.00  0.00     0.010 A 
ATOM     39  C   UNL A   1      37.583  28.991  29.979  1.00  0.00     0.010 A 
ATOM     40  C   UNL A   1      38.731  29.236  29.203  1.00  0.00    -0.014 A 
BRANCH  40  41
ATOM     41  C   UNL A   1      40.033  28.663  29.623  1.00  0.00     0.031 A 
ATOM     42  C   UNL A   1      40.832  29.382  30.675  1.00  0.00     0.074 A 
ATOM     43  C   UNL A   1      40.524  27.552  29.046  1.00  0.00     0.049 A 
ATOM     44  N   UNL A   1      42.041  29.142  31.106  1.00  0.00    -0.248 NA
ATOM     45  C   UNL A   1      40.177  30.531  31.322  1.00  0.00     0.031 C 
ATOM     46  C   UNL A   1      39.839  26.752  28.033  1.00  0.00     0.029 A 
ATOM     47  N   UNL A   1      41.737  26.927  29.207  1.00  0.00    -0.354 N 
ATOM     48  C   UNL A   1      42.310  30.128  32.046  1.00  0.00     0.074 A 
ATOM     49  C   UNL A   1      41.136  30.971  32.124  1.00  0.00     0.031 C 
ATOM     50  C   UNL A   1      40.660  25.768  27.627  1.00  0.00     0.029 A 
ATOM     51  C   UNL A   1      41.940  25.892  28.324  1.00  0.00     0.049 A 
ATOM     52  H   UNL A   1      42.397  27.194  29.887  1.00  0.00     0.167 HD
ATOM     53  C   UNL A   1      43.431  30.314  32.782  1.00  0.00     0.034 A 
ATOM     54  C   UNL A   1      43.046  25.161  28.073  1.00  0.00     0.034 A 
ATOM     55  C   UNL A   1      44.594  29.472  32.707  1.00  0.00     0.049 A 
ATOM     56  C   UNL A   1      44.305  25.426  28.862  1.00  0.00     0.074 A 
ATOM     57  C   UNL A   1      45.759  29.550  33.450  1.00  0.00     0.029 A 
ATOM     58  N   UNL A   1      44.753  28.417  31.823  1.00  0.00    -0.354 N 
ATOM     59  N   UNL A   1      44.506  26.287  29.831  1.00  0.00    -0.248 NA
ATOM     60  C   UNL A   1      45.481  24.605  28.539  1.00  0.00     0.031 C 
ATOM     61  C   UNL A   1      46.641  28.571  32.981  1.00  0.00     0.029 A 
ATOM     62  C   UNL A   1      46.008  27.854  31.979  1.00  0.00     0.049 A 
ATOM     63  H   UNL A   1      44.074  28.113  31.178  1.00  0.00     0.167 HD
ATOM     64  C   UNL A   1      45.819  26.092  30.250  1.00  0.00     0.074 A 
ATOM     65  C   UNL A   1      46.358  25.015  29.446  1.00  0.00     0.031 C 
ATOM     66  C   UNL A   1      46.521  26.753  31.203  1.00  0.00     0.034 A 
BRANCH  53  67
ATOM     67  C   UNL A   1      43.457  31.479  33.737  1.00  0.00     0.023 A 
ATOM     68  C   UNL A   1      43.956  32.726  33.312  1.00  0.00     0.012 A 
ATOM     69  C   UNL A   1      42.933  31.349  35.038  1.00  0.00     0.148 A 
ATOM     70  C   UNL A   1      43.964  33.819  34.178  1.00  0.00     0.002 A 
ATOM     71  C   UNL A   1      42.901  32.454  35.880  1.00  0.00     0.091 A 
ATOM     72  F   UNL A   1      42.483  30.149  35.429  1.00  0.00    -0.205 F 
ATOM     73  C   UNL A   1      43.427  33.686  35.456  1.00  0.00     0.022 A 
BRANCH  71  74
ATOM     74  S   UNL A   1      42.160  32.406  37.514  1.00  0.00     0.127 S 
ATOM     75  O   UNL A   1      42.402  31.018  37.906  1.00  0.00    -0.237 OA
ATOM     76  O   UNL A   1      42.961  33.392  38.242  1.00  0.00    -0.237 OA
ATOM     77  O   UNL A   1      40.762  32.768  37.334  1.00  0.00    -0.744 OA
ENDBRANCH  71  74
ENDBRANCH  53  67
BRANCH  54  78
ATOM     78  C   UNL A   1      43.021  24.104  27.020  1.00  0.00     0.023 A 
ATOM     79  C   UNL A   1      43.660  24.334  25.787  1.00  0.00     0.012 A 
ATOM     80  C   UNL A   1      42.370  22.873  27.237  1.00  0.00     0.148 A 
ATOM     81  C   UNL A   1      43.626  23.371  24.777  1.00  0.00     0.002 A 
ATOM     82  C   UNL A   1      42.391  21.895  26.250  1.00  0.00     0.091 A 
ATOM     83  F   UNL A   1      41.752  22.680  28.410  1.00  0.00    -0.205 F 
ATOM     84  C   UNL A   1      43.000  22.149  25.012  1.00  0.00     0.022 A 
BRANCH  82  85
ATOM     85  S   UNL A   1      41.725  20.247  26.510  1.00  0.00     0.127 S 
ATOM     86  O   UNL A   1      40.286  20.501  26.508  1.00  0.00    -0.237 OA
ATOM     87  O   UNL A   1      42.227  19.533  25.336  1.00  0.00    -0.237 OA
ATOM     88  O   UNL A   1      42.282  19.787  27.775  1.00  0.00    -0.744 OA
ENDBRANCH  82  85
ENDBRANCH  54  78
BRANCH  66  89
ATOM     89  C   UNL A   1      47.943  26.324  31.463  1.00  0.00     0.023 A 
ATOM     90  C   UNL A   1      48.218  25.368  32.459  1.00  0.00     0.012 A 
ATOM     91  C   UNL A   1      48.996  26.802  30.656  1.00  0.00     0.148 A 
ATOM     92  C   UNL A   1      49.521  24.912  32.667  1.00  0.00     0.002 A 
ATOM     93  C   UNL A   1      50.282  26.305  30.833  1.00  0.00     0.091 A 
ATOM     94  F   UNL A   1      48.717  27.721  29.720  1.00  0.00    -0.205 F 
ATOM     95  C   UNL A   1      50.549  25.371  31.845  1.00  0.00     0.022 A 
BRANCH  93  96
ATOM     96  S   UNL A   1      51.654  26.762  29.766  1.00  0.00     0.127 S 
ATOM     97  O   UNL A   1      51.244  26.183  28.488  1.00  0.00    -0.237 OA
ATOM     98  O   UNL A   1      51.608  28.223  29.816  1.00  0.00    -0.237 OA
ATOM     99  O   UNL A   1      52.845  26.170  30.360  1.00  0.00    -0.744 OA
ENDBRANCH  93  96
ENDBRANCH  66  89
ENDBRANCH  40  41
ENDBRANCH  33  35
ENDBRANCH  32  33
ENDBRANCH  31  32
ENDBRANCH  30  31
ENDBRANCH  29  30
ENDBRANCH  28  29
ENDBRANCH  27  28
ENDBRANCH  26  27
ENDBRANCH   1  26
TORSDOF 27
ENDMDL
MODEL 3
REMARK VINA RESULT:      -8.1      5.050     10.802
REMARK SMILES Nc1ccc(Cl)c(SC[C@H]2CC[C@H](C(=O)OCCOCCOCCOCCOC(=O)c3ccc(-c4c5nc(c(-c6cccc(S(=O)(=O)[O-])c6F)c6ccc([nH]6)c(-c6cccc(S(=O)(=O)[O-])c6F)c6nc(c(-c7cccc(S(=O)(=O)[O-])c7F)c7ccc4[nH]7)C=C6)C=C5)cc3)O2)c1
REMARK SMILES IDX 21 1 20 2 19 3 18 4 17 5 16 6 14 7 15 8 13 9 10 10 11 11
REMARK SMILES IDX 94 12 12 13 9 14 8 15 7 16 2 17 3 18 95 19 4 20 5 21 6 22
REMARK SMILES IDX 1 23 22 26 23 27 24 28 25 29 26 30 27 31 28 32 29 33 30 34
REMARK SMILES IDX 31 35 32 36 93 37 33 38 92 39 34 40 35 41 36 42 86 43 37 44
REMARK SMILES IDX 91 45 85 46 87 47 38 48 90 49 84 50 83 51 39 53 71 54 51 55
REMARK SMILES IDX 70 56 52 57 55 58 69 59 88 60 53 61 54 62 68 64 89 65 56 66
REMARK SMILES IDX 40 67 41 68 49 69 42 70 44 71 50 72 43 73 45 74 46 75 47 76
REMARK SMILES IDX 48 77 72 78 73 79 81 80 74 81 76 82 82 83 75 84 77 85 78 86
REMARK SMILES IDX 79 87 80 88 57 89 58 90 66 91 59 92 61 93 67 94 60 95 62 96
REMARK SMILES IDX 63 97 64 98 65 99
REMARK H PARENT 1 24 1 25 87 52 55 63
REMARK Flexibility Score: inf
ROOT
ATOM      1  C   UNL A   1      41.534  19.541  26.174  1.00  0.00     0.188 C 
ENDROOT
BRANCH   1   2
ATOM      2  C   UNL A   1      42.116  20.682  27.015  1.00  0.00     0.188 C 
BRANCH   2   3
ATOM      3  O   UNL A   1      41.412  21.900  27.186  1.00  0.00    -0.376 OA
BRANCH   3   4
ATOM      4  C   UNL A   1      40.492  22.398  26.223  1.00  0.00     0.202 C 
BRANCH   4   5
ATOM      5  C   UNL A   1      38.990  22.074  26.194  1.00  0.00     0.261 C 
BRANCH   5   6
ATOM      6  O   UNL A   1      38.090  23.175  26.028  1.00  0.00    -0.461 OA
BRANCH   6   7
ATOM      7  C   UNL A   1      36.818  22.829  25.733  1.00  0.00     0.335 C 
ATOM      8  O   UNL A   1      36.190  21.947  26.320  1.00  0.00    -0.249 OA
BRANCH   7   9
ATOM      9  C   UNL A   1      36.219  23.584  24.557  1.00  0.00     0.228 C 
ATOM     10  C   UNL A   1      34.045  24.182  23.972  1.00  0.00     0.129 C 
ATOM     11  C   UNL A   1      34.423  23.020  23.079  1.00  0.00     0.036 C 
ATOM     12  O   UNL A   1      34.990  24.148  25.039  1.00  0.00    -0.362 OA
ATOM     13  C   UNL A   1      35.920  22.944  23.209  1.00  0.00     0.047 C 
BRANCH  10  14
ATOM     14  C   UNL A   1      33.966  25.574  23.305  1.00  0.00     0.107 C 
BRANCH  14  15
ATOM     15  S   UNL A   1      32.451  26.622  23.468  1.00  0.00    -0.122 SA
BRANCH  15  16
ATOM     16  C   UNL A   1      32.578  27.449  25.078  1.00  0.00     0.028 A 
ATOM     17  C   UNL A   1      33.569  29.176  26.517  1.00  0.00     0.033 A 
ATOM     18  C   UNL A   1      32.618  28.919  27.497  1.00  0.00     0.027 A 
ATOM     19  C   UNL A   1      33.598  28.367  25.374  1.00  0.00     0.042 A 
ATOM     20  C   UNL A   1      31.638  27.952  27.280  1.00  0.00     0.024 A 
ATOM     21  C   UNL A   1      31.600  27.240  26.071  1.00  0.00     0.054 A 
ATOM     22  Cl  UNL A   1      30.293  26.114  25.887  1.00  0.00    -0.083 Cl
BRANCH  17  23
ATOM     23  N   UNL A   1      34.560  30.130  26.721  1.00  0.00    -0.399 N 
ATOM     24  H   UNL A   1      34.331  31.087  26.713  1.00  0.00     0.156 HD
ATOM     25  H   UNL A   1      35.491  29.849  26.872  1.00  0.00     0.156 HD
ENDBRANCH  17  23
ENDBRANCH  15  16
ENDBRANCH  14  15
ENDBRANCH  10  14
ENDBRANCH   7   9
ENDBRANCH   6   7
ENDBRANCH   5   6
ENDBRANCH   4   5
ENDBRANCH   3   4
ENDBRANCH   2   3
ENDBRANCH   1   2
BRANCH   1  26
ATOM     26  O   UNL A   1      42.393  19.046  25.171  1.00  0.00    -0.377 OA
BRANCH  26  27
ATOM     27  C   UNL A   1      43.799  19.157  25.336  1.00  0.00     0.188 C 
BRANCH  27  28
ATOM     28  C   UNL A   1      44.703  19.169  24.089  1.00  0.00     0.188 C 
BRANCH  28  29
ATOM     29  O   UNL A   1      45.793  20.073  24.171  1.00  0.00    -0.376 OA
BRANCH  29  30
ATOM     30  C   UNL A   1      45.601  21.309  24.842  1.00  0.00     0.202 C 
BRANCH  30  31
ATOM     31  C   UNL A   1      44.938  22.464  24.075  1.00  0.00     0.261 C 
BRANCH  31  32
ATOM     32  O   UNL A   1      44.514  23.605  24.840  1.00  0.00    -0.460 OA
BRANCH  32  33
ATOM     33  C   UNL A   1      44.531  23.538  26.192  1.00  0.00     0.338 C 
ATOM     34  O   UNL A   1      44.862  22.597  26.874  1.00  0.00    -0.246 OA
BRANCH  33  35
ATOM     35  C   UNL A   1      44.269  24.909  26.693  1.00  0.00     0.060 A 
ATOM     36  C   UNL A   1      43.834  25.895  25.798  1.00  0.00     0.016 A 
ATOM     37  C   UNL A   1      44.429  25.208  28.048  1.00  0.00     0.016 A 
ATOM     38  C   UNL A   1      43.565  27.189  26.254  1.00  0.00     0.010 A 
ATOM     39  C   UNL A   1      44.184  26.508  28.497  1.00  0.00     0.010 A 
ATOM     40  C   UNL A   1      43.769  27.510  27.601  1.00  0.00    -0.014 A 
BRANCH  40  41
ATOM     41  C   UNL A   1      43.681  28.917  28.067  1.00  0.00     0.031 A 
ATOM     42  C   UNL A   1      44.897  29.793  27.947  1.00  0.00     0.074 A 
ATOM     43  C   UNL A   1      42.559  29.394  28.634  1.00  0.00     0.049 A 
ATOM     44  N   UNL A   1      45.094  31.003  28.396  1.00  0.00    -0.248 NA
ATOM     45  C   UNL A   1      46.046  29.223  27.226  1.00  0.00     0.031 C 
ATOM     46  C   UNL A   1      41.309  28.653  28.789  1.00  0.00     0.029 A 
ATOM     47  N   UNL A   1      42.307  30.610  29.222  1.00  0.00    -0.354 N 
ATOM     48  C   UNL A   1      46.398  31.328  28.049  1.00  0.00     0.074 A 
ATOM     49  C   UNL A   1      46.947  30.186  27.348  1.00  0.00     0.031 C 
ATOM     50  C   UNL A   1      40.435  29.413  29.472  1.00  0.00     0.029 A 
ATOM     51  C   UNL A   1      41.076  30.677  29.834  1.00  0.00     0.049 A 
ATOM     52  H   UNL A   1      42.944  31.360  29.207  1.00  0.00     0.167 HD
ATOM     53  C   UNL A   1      47.079  32.474  28.287  1.00  0.00     0.034 A 
ATOM     54  C   UNL A   1      40.548  31.626  30.633  1.00  0.00     0.034 A 
ATOM     55  C   UNL A   1      46.530  33.609  28.978  1.00  0.00     0.049 A 
ATOM     56  C   UNL A   1      41.348  32.870  30.936  1.00  0.00     0.074 A 
ATOM     57  C   UNL A   1      47.124  34.835  29.223  1.00  0.00     0.029 A 
ATOM     58  N   UNL A   1      45.272  33.652  29.558  1.00  0.00    -0.354 N 
ATOM     59  N   UNL A   1      42.537  33.213  30.503  1.00  0.00    -0.248 NA
ATOM     60  C   UNL A   1      40.725  33.865  31.821  1.00  0.00     0.031 C 
ATOM     61  C   UNL A   1      46.243  35.601  29.992  1.00  0.00     0.029 A 
ATOM     62  C   UNL A   1      45.082  34.870  30.187  1.00  0.00     0.049 A 
ATOM     63  H   UNL A   1      44.611  32.923  29.528  1.00  0.00     0.167 HD
ATOM     64  C   UNL A   1      42.791  34.472  31.038  1.00  0.00     0.074 A 
ATOM     65  C   UNL A   1      41.622  34.842  31.808  1.00  0.00     0.031 C 
ATOM     66  C   UNL A   1      43.897  35.247  30.915  1.00  0.00     0.034 A 
BRANCH  53  67
ATOM     67  C   UNL A   1      48.500  32.560  27.796  1.00  0.00     0.023 A 
ATOM     68  C   UNL A   1      48.778  33.149  26.546  1.00  0.00     0.012 A 
ATOM     69  C   UNL A   1      49.564  32.108  28.600  1.00  0.00     0.148 A 
ATOM     70  C   UNL A   1      50.091  33.257  26.089  1.00  0.00     0.002 A 
ATOM     71  C   UNL A   1      50.873  32.261  28.159  1.00  0.00     0.091 A 
ATOM     72  F   UNL A   1      49.277  31.532  29.775  1.00  0.00    -0.205 F 
ATOM     73  C   UNL A   1      51.137  32.824  26.899  1.00  0.00     0.022 A 
BRANCH  71  74
ATOM     74  S   UNL A   1      52.292  31.807  29.160  1.00  0.00     0.127 S 
ATOM     75  O   UNL A   1      52.344  30.360  28.959  1.00  0.00    -0.237 OA
ATOM     76  O   UNL A   1      53.374  32.551  28.513  1.00  0.00    -0.237 OA
ATOM     77  O   UNL A   1      51.983  32.237  30.516  1.00  0.00    -0.744 OA
ENDBRANCH  71  74
ENDBRANCH  53  67
BRANCH  54  78
ATOM     78  C   UNL A   1      39.186  31.442  31.214  1.00  0.00     0.023 A 
ATOM     79  C   UNL A   1      39.034  30.739  32.425  1.00  0.00     0.012 A 
ATOM     80  C   UNL A   1      38.043  31.961  30.574  1.00  0.00     0.148 A 
ATOM     81  C   UNL A   1      37.767  30.531  32.971  1.00  0.00     0.002 A 
ATOM     82  C   UNL A   1      36.790  31.802  31.154  1.00  0.00     0.091 A 
ATOM     83  F   UNL A   1      38.206  32.610  29.413  1.00  0.00    -0.205 F 
ATOM     84  C   UNL A   1      36.647  31.069  32.343  1.00  0.00     0.022 A 
BRANCH  82  85
ATOM     85  S   UNL A   1      35.311  32.570  30.485  1.00  0.00     0.127 S 
ATOM     86  O   UNL A   1      34.314  32.234  31.498  1.00  0.00    -0.237 OA
ATOM     87  O   UNL A   1      35.698  33.980  30.444  1.00  0.00    -0.237 OA
ATOM     88  O   UNL A   1      35.106  31.966  29.175  1.00  0.00    -0.744 OA
ENDBRANCH  82  85
ENDBRANCH  54  78
BRANCH  66  89
ATOM     89  C   UNL A   1      43.902  36.591  31.601  1.00  0.00     0.023 A 
ATOM     90  C   UNL A   1      44.174  36.674  32.980  1.00  0.00     0.012 A 
ATOM     91  C   UNL A   1      43.728  37.776  30.859  1.00  0.00     0.148 A 
ATOM     92  C   UNL A   1      44.247  37.915  33.615  1.00  0.00     0.002 A 
ATOM     93  C   UNL A   1      43.854  39.010  31.487  1.00  0.00     0.091 A 
ATOM     94  F   UNL A   1      43.458  37.676  29.549  1.00  0.00    -0.205 F 
ATOM     95  C   UNL A   1      44.101  39.081  32.867  1.00  0.00     0.022 A 
BRANCH  93  96
ATOM     96  S   UNL A   1      43.775  40.566  30.593  1.00  0.00     0.127 S 
ATOM     97  O   UNL A   1      44.326  40.191  29.292  1.00  0.00    -0.237 OA
ATOM     98  O   UNL A   1      42.340  40.847  30.591  1.00  0.00    -0.237 OA
ATOM     99  O   UNL A   1      44.579  41.513  31.356  1.00  0.00    -0.744 OA
ENDBRANCH  93  96
ENDBRANCH  66  89
ENDBRANCH  40  41
ENDBRANCH  33  35
ENDBRANCH  32  33
ENDBRANCH  31  32
ENDBRANCH  30  31
ENDBRANCH  29  30
ENDBRANCH  28  29
ENDBRANCH  27  28
ENDBRANCH  26  27
ENDBRANCH   1  26
TORSDOF 27
ENDMDL
