MODEL 1
REMARK VINA RESULT:      -7.3      0.000      0.000
REMARK SMILES CCCN(CC(=O)OC)C(=O)N1CC[C@H](C(=O)OCCOCCOCCOCCOC(=O)c2ccc(-c3c4nc(c(-c5cccc(S(=O)(=O)[O-])c5F)c5ccc([nH]5)c(-c5cccc(S(=O)(=O)[O-])c5F)c5nc(c(-c6cccc(S(=O)(=O)[O-])c6F)c6ccc3[nH]6)C=C5)C=C4)cc2)[C@H]1C
REMARK SMILES IDX 23 1 22 2 21 3 20 4 19 5 18 6 16 7 17 8 15 9 12 10 13 11
REMARK SMILES IDX 96 12 14 13 97 14 10 15 11 16 4 17 3 18 2 19 1 20 5 21 6 22
REMARK SMILES IDX 7 23 8 24 9 25 24 26 25 27 26 28 27 29 28 30 29 31 30 32
REMARK SMILES IDX 31 33 32 34 33 35 34 36 95 37 35 38 94 39 36 40 37 41 38 42
REMARK SMILES IDX 88 43 39 44 93 45 87 46 89 47 40 48 92 49 86 50 85 51 41 53
REMARK SMILES IDX 73 54 53 55 72 56 54 57 57 58 71 59 90 60 55 61 56 62 70 64
REMARK SMILES IDX 91 65 58 66 42 67 43 68 51 69 44 70 46 71 52 72 45 73 47 74
REMARK SMILES IDX 48 75 49 76 50 77 74 78 75 79 83 80 76 81 78 82 84 83 77 84
REMARK SMILES IDX 79 85 80 86 81 87 82 88 59 89 60 90 68 91 61 92 63 93 69 94
REMARK SMILES IDX 62 95 64 96 65 97 66 98 67 99
REMARK H PARENT 89 52 57 63
REMARK Flexibility Score: inf
ROOT
ATOM      1  C   UNL A   1      40.497  26.364  27.840  1.00  0.00     0.188 C 
ENDROOT
BRANCH   1   2
ATOM      2  C   UNL A   1      39.984  25.365  26.788  1.00  0.00     0.188 C 
BRANCH   2   3
ATOM      3  O   UNL A   1      39.136  24.284  27.152  1.00  0.00    -0.376 OA
BRANCH   3   4
ATOM      4  C   UNL A   1      37.952  24.017  26.425  1.00  0.00     0.202 C 
BRANCH   4   5
ATOM      5  C   UNL A   1      37.806  22.782  25.506  1.00  0.00     0.261 C 
BRANCH   5   6
ATOM      6  O   UNL A   1      36.648  22.663  24.652  1.00  0.00    -0.463 OA
BRANCH   6   7
ATOM      7  C   UNL A   1      35.918  21.538  24.829  1.00  0.00     0.311 C 
ATOM      8  O   UNL A   1      36.367  20.524  25.357  1.00  0.00    -0.252 OA
BRANCH   7   9
ATOM      9  C   UNL A   1      34.534  21.595  24.169  1.00  0.00     0.123 C 
ATOM     10  N   UNL A   1      33.379  23.648  24.715  1.00  0.00    -0.321 N 
ATOM     11  C   UNL A   1      33.295  22.724  25.845  1.00  0.00     0.122 C 
ATOM     12  C   UNL A   1      33.976  22.920  23.564  1.00  0.00     0.098 C 
ATOM     13  C   UNL A   1      33.486  21.333  25.263  1.00  0.00     0.039 C 
ATOM     14  C   UNL A   1      32.918  22.538  22.509  1.00  0.00     0.032 C 
BRANCH  10  15
ATOM     15  C   UNL A   1      33.625  24.971  25.069  1.00  0.00     0.320 C 
ATOM     16  O   UNL A   1      34.743  25.314  25.462  1.00  0.00    -0.248 OA
BRANCH  15  17
ATOM     17  N   UNL A   1      32.569  25.852  25.177  1.00  0.00    -0.314 N 
BRANCH  17  18
ATOM     18  C   UNL A   1      32.182  26.296  26.525  1.00  0.00     0.122 C 
BRANCH  18  19
ATOM     19  C   UNL A   1      32.696  27.712  26.854  1.00  0.00     0.018 C 
ATOM     20  C   UNL A   1      31.647  28.624  27.482  1.00  0.00     0.006 C 
ENDBRANCH  18  19
ENDBRANCH  17  18
BRANCH  17  21
ATOM     21  C   UNL A   1      31.709  26.298  24.086  1.00  0.00     0.243 C 
BRANCH  21  22
ATOM     22  C   UNL A   1      30.418  25.495  23.889  1.00  0.00     0.325 C 
ATOM     23  O   UNL A   1      30.389  24.454  23.240  1.00  0.00    -0.250 OA
BRANCH  22  24
ATOM     24  O   UNL A   1      29.352  26.030  24.545  1.00  0.00    -0.468 OA
ATOM     25  C   UNL A   1      28.428  26.795  23.759  1.00  0.00     0.282 C 
ENDBRANCH  22  24
ENDBRANCH  21  22
ENDBRANCH  17  21
ENDBRANCH  15  17
ENDBRANCH  10  15
ENDBRANCH   7   9
ENDBRANCH   6   7
ENDBRANCH   5   6
ENDBRANCH   4   5
ENDBRANCH   3   4
ENDBRANCH   2   3
ENDBRANCH   1   2
BRANCH   1  26
ATOM     26  O   UNL A   1      39.495  27.155  28.453  1.00  0.00    -0.377 OA
BRANCH  26  27
ATOM     27  C   UNL A   1      39.198  28.376  27.803  1.00  0.00     0.188 C 
BRANCH  27  28
ATOM     28  C   UNL A   1      38.426  29.406  28.646  1.00  0.00     0.188 C 
BRANCH  28  29
ATOM     29  O   UNL A   1      37.493  30.154  27.884  1.00  0.00    -0.376 OA
BRANCH  29  30
ATOM     30  C   UNL A   1      36.190  30.415  28.363  1.00  0.00     0.202 C 
BRANCH  30  31
ATOM     31  C   UNL A   1      35.548  31.810  28.270  1.00  0.00     0.261 C 
BRANCH  31  32
ATOM     32  O   UNL A   1      34.416  32.093  29.099  1.00  0.00    -0.460 OA
BRANCH  32  33
ATOM     33  C   UNL A   1      34.469  33.204  29.863  1.00  0.00     0.338 C 
ATOM     34  O   UNL A   1      33.691  34.146  29.822  1.00  0.00    -0.246 OA
BRANCH  33  35
ATOM     35  C   UNL A   1      35.490  33.003  30.918  1.00  0.00     0.060 A 
ATOM     36  C   UNL A   1      36.521  33.945  31.029  1.00  0.00     0.016 A 
ATOM     37  C   UNL A   1      35.439  31.913  31.794  1.00  0.00     0.016 A 
ATOM     38  C   UNL A   1      37.527  33.781  31.980  1.00  0.00     0.010 A 
ATOM     39  C   UNL A   1      36.469  31.733  32.728  1.00  0.00     0.010 A 
ATOM     40  C   UNL A   1      37.538  32.644  32.796  1.00  0.00    -0.014 A 
BRANCH  40  41
ATOM     41  C   UNL A   1      38.775  32.314  33.547  1.00  0.00     0.031 A 
ATOM     42  C   UNL A   1      38.858  32.722  34.995  1.00  0.00     0.074 A 
ATOM     43  C   UNL A   1      39.784  31.630  32.981  1.00  0.00     0.049 A 
ATOM     44  N   UNL A   1      39.830  32.555  35.850  1.00  0.00    -0.248 NA
ATOM     45  C   UNL A   1      37.679  33.410  35.550  1.00  0.00     0.031 C 
ATOM     46  C   UNL A   1      39.811  31.148  31.601  1.00  0.00     0.029 A 
ATOM     47  N   UNL A   1      40.994  31.236  33.500  1.00  0.00    -0.354 N 
ATOM     48  C   UNL A   1      39.399  33.143  37.034  1.00  0.00     0.074 A 
ATOM     49  C   UNL A   1      38.079  33.679  36.784  1.00  0.00     0.031 C 
ATOM     50  C   UNL A   1      40.993  30.550  31.372  1.00  0.00     0.029 A 
ATOM     51  C   UNL A   1      41.816  30.630  32.579  1.00  0.00     0.049 A 
ATOM     52  H   UNL A   1      41.247  31.375  34.441  1.00  0.00     0.167 HD
ATOM     53  C   UNL A   1      40.036  33.222  38.225  1.00  0.00     0.034 A 
ATOM     54  C   UNL A   1      43.095  30.218  32.691  1.00  0.00     0.034 A 
ATOM     55  C   UNL A   1      41.343  32.679  38.474  1.00  0.00     0.049 A 
ATOM     56  C   UNL A   1      43.803  30.360  34.015  1.00  0.00     0.074 A 
ATOM     57  C   UNL A   1      42.060  32.675  39.658  1.00  0.00     0.029 A 
ATOM     58  N   UNL A   1      42.139  32.060  37.523  1.00  0.00    -0.354 N 
ATOM     59  N   UNL A   1      43.346  30.830  35.151  1.00  0.00    -0.248 NA
ATOM     60  C   UNL A   1      45.194  29.886  34.081  1.00  0.00     0.031 C 
ATOM     61  C   UNL A   1      43.307  32.093  39.410  1.00  0.00     0.029 A 
ATOM     62  C   UNL A   1      43.347  31.689  38.085  1.00  0.00     0.049 A 
ATOM     63  H   UNL A   1      41.881  31.908  36.585  1.00  0.00     0.167 HD
ATOM     64  C   UNL A   1      44.376  30.673  36.073  1.00  0.00     0.074 A 
ATOM     65  C   UNL A   1      45.476  30.048  35.367  1.00  0.00     0.031 C 
ATOM     66  C   UNL A   1      44.415  31.023  37.384  1.00  0.00     0.034 A 
BRANCH  53  67
ATOM     67  C   UNL A   1      39.328  33.926  39.352  1.00  0.00     0.023 A 
ATOM     68  C   UNL A   1      39.574  35.292  39.597  1.00  0.00     0.012 A 
ATOM     69  C   UNL A   1      38.381  33.242  40.139  1.00  0.00     0.148 A 
ATOM     70  C   UNL A   1      38.915  35.957  40.631  1.00  0.00     0.002 A 
ATOM     71  C   UNL A   1      37.693  33.923  41.135  1.00  0.00     0.091 A 
ATOM     72  F   UNL A   1      38.180  31.937  39.906  1.00  0.00    -0.205 F 
ATOM     73  C   UNL A   1      37.967  35.276  41.391  1.00  0.00     0.022 A 
BRANCH  71  74
ATOM     74  S   UNL A   1      36.398  33.156  42.115  1.00  0.00     0.127 S 
ATOM     75  O   UNL A   1      36.001  34.258  42.992  1.00  0.00    -0.237 OA
ATOM     76  O   UNL A   1      35.410  32.804  41.094  1.00  0.00    -0.237 OA
ATOM     77  O   UNL A   1      37.016  32.020  42.783  1.00  0.00    -0.744 OA
ENDBRANCH  71  74
ENDBRANCH  53  67
BRANCH  54  78
ATOM     78  C   UNL A   1      43.795  29.621  31.517  1.00  0.00     0.023 A 
ATOM     79  C   UNL A   1      44.427  30.458  30.577  1.00  0.00     0.012 A 
ATOM     80  C   UNL A   1      43.835  28.226  31.329  1.00  0.00     0.148 A 
ATOM     81  C   UNL A   1      45.056  29.917  29.454  1.00  0.00     0.002 A 
ATOM     82  C   UNL A   1      44.512  27.691  30.241  1.00  0.00     0.091 A 
ATOM     83  F   UNL A   1      43.212  27.447  32.225  1.00  0.00    -0.205 F 
ATOM     84  C   UNL A   1      45.108  28.535  29.291  1.00  0.00     0.022 A 
BRANCH  82  85
ATOM     85  S   UNL A   1      44.738  25.923  30.017  1.00  0.00     0.127 S 
ATOM     86  O   UNL A   1      45.395  25.545  31.266  1.00  0.00    -0.237 OA
ATOM     87  O   UNL A   1      43.356  25.460  29.882  1.00  0.00    -0.237 OA
ATOM     88  O   UNL A   1      45.543  25.776  28.812  1.00  0.00    -0.744 OA
ENDBRANCH  82  85
ENDBRANCH  54  78
BRANCH  66  89
ATOM     89  C   UNL A   1      45.663  30.697  38.165  1.00  0.00     0.023 A 
ATOM     90  C   UNL A   1      46.646  31.682  38.376  1.00  0.00     0.012 A 
ATOM     91  C   UNL A   1      45.820  29.426  38.757  1.00  0.00     0.148 A 
ATOM     92  C   UNL A   1      47.782  31.400  39.133  1.00  0.00     0.002 A 
ATOM     93  C   UNL A   1      46.928  29.169  39.555  1.00  0.00     0.091 A 
ATOM     94  F   UNL A   1      44.880  28.496  38.533  1.00  0.00    -0.205 F 
ATOM     95  C   UNL A   1      47.917  30.149  39.732  1.00  0.00     0.022 A 
BRANCH  93  96
ATOM     96  S   UNL A   1      47.137  27.623  40.447  1.00  0.00     0.127 S 
ATOM     97  O   UNL A   1      47.011  26.641  39.373  1.00  0.00    -0.237 OA
ATOM     98  O   UNL A   1      48.488  27.764  40.992  1.00  0.00    -0.237 OA
ATOM     99  O   UNL A   1      46.080  27.589  41.449  1.00  0.00    -0.744 OA
ENDBRANCH  93  96
ENDBRANCH  66  89
ENDBRANCH  40  41
ENDBRANCH  33  35
ENDBRANCH  32  33
ENDBRANCH  31  32
ENDBRANCH  30  31
ENDBRANCH  29  30
ENDBRANCH  28  29
ENDBRANCH  27  28
ENDBRANCH  26  27
ENDBRANCH   1  26
TORSDOF 30
ENDMDL
MODEL 2
REMARK VINA RESULT:      -6.8      9.491     14.858
REMARK SMILES CCCN(CC(=O)OC)C(=O)N1CC[C@H](C(=O)OCCOCCOCCOCCOC(=O)c2ccc(-c3c4nc(c(-c5cccc(S(=O)(=O)[O-])c5F)c5ccc([nH]5)c(-c5cccc(S(=O)(=O)[O-])c5F)c5nc(c(-c6cccc(S(=O)(=O)[O-])c6F)c6ccc3[nH]6)C=C5)C=C4)cc2)[C@H]1C
REMARK SMILES IDX 23 1 22 2 21 3 20 4 19 5 18 6 16 7 17 8 15 9 12 10 13 11
REMARK SMILES IDX 96 12 14 13 97 14 10 15 11 16 4 17 3 18 2 19 1 20 5 21 6 22
REMARK SMILES IDX 7 23 8 24 9 25 24 26 25 27 26 28 27 29 28 30 29 31 30 32
REMARK SMILES IDX 31 33 32 34 33 35 34 36 95 37 35 38 94 39 36 40 37 41 38 42
REMARK SMILES IDX 88 43 39 44 93 45 87 46 89 47 40 48 92 49 86 50 85 51 41 53
REMARK SMILES IDX 73 54 53 55 72 56 54 57 57 58 71 59 90 60 55 61 56 62 70 64
REMARK SMILES IDX 91 65 58 66 42 67 43 68 51 69 44 70 46 71 52 72 45 73 47 74
REMARK SMILES IDX 48 75 49 76 50 77 74 78 75 79 83 80 76 81 78 82 84 83 77 84
REMARK SMILES IDX 79 85 80 86 81 87 82 88 59 89 60 90 68 91 61 92 63 93 69 94
REMARK SMILES IDX 62 95 64 96 65 97 66 98 67 99
REMARK H PARENT 89 52 57 63
REMARK Flexibility Score: inf
ROOT
ATOM      1  C   UNL A   1      40.739  31.003  33.623  1.00  0.00     0.188 C 
ENDROOT
BRANCH   1   2
ATOM      2  C   UNL A   1      40.461  29.495  33.753  1.00  0.00     0.188 C 
BRANCH   2   3
ATOM      3  O   UNL A   1      40.200  28.694  32.609  1.00  0.00    -0.376 OA
BRANCH   3   4
ATOM      4  C   UNL A   1      38.918  28.134  32.395  1.00  0.00     0.202 C 
BRANCH   4   5
ATOM      5  C   UNL A   1      37.653  29.006  32.215  1.00  0.00     0.261 C 
BRANCH   5   6
ATOM      6  O   UNL A   1      37.747  30.257  31.501  1.00  0.00    -0.463 OA
BRANCH   6   7
ATOM      7  C   UNL A   1      37.365  30.207  30.203  1.00  0.00     0.311 C 
ATOM      8  O   UNL A   1      37.139  29.155  29.612  1.00  0.00    -0.252 OA
BRANCH   7   9
ATOM      9  C   UNL A   1      37.395  31.571  29.503  1.00  0.00     0.123 C 
ATOM     10  N   UNL A   1      35.642  33.023  30.319  1.00  0.00    -0.321 N 
ATOM     11  C   UNL A   1      35.078  32.054  29.381  1.00  0.00     0.122 C 
ATOM     12  C   UNL A   1      37.124  32.893  30.286  1.00  0.00     0.098 C 
ATOM     13  C   UNL A   1      36.232  31.605  28.499  1.00  0.00     0.039 C 
ATOM     14  C   UNL A   1      37.787  34.042  29.499  1.00  0.00     0.032 C 
BRANCH  10  15
ATOM     15  C   UNL A   1      34.863  33.254  31.448  1.00  0.00     0.320 C 
ATOM     16  O   UNL A   1      34.180  32.348  31.931  1.00  0.00    -0.248 OA
BRANCH  15  17
ATOM     17  N   UNL A   1      34.693  34.546  31.901  1.00  0.00    -0.314 N 
BRANCH  17  18
ATOM     18  C   UNL A   1      35.825  35.184  32.593  1.00  0.00     0.122 C 
BRANCH  18  19
ATOM     19  C   UNL A   1      36.452  34.275  33.669  1.00  0.00     0.018 C 
ATOM     20  C   UNL A   1      35.649  34.200  34.963  1.00  0.00     0.006 C 
ENDBRANCH  18  19
ENDBRANCH  17  18
BRANCH  17  21
ATOM     21  C   UNL A   1      33.451  35.310  31.872  1.00  0.00     0.243 C 
BRANCH  21  22
ATOM     22  C   UNL A   1      33.267  36.231  30.660  1.00  0.00     0.325 C 
ATOM     23  O   UNL A   1      32.671  37.300  30.738  1.00  0.00    -0.250 OA
BRANCH  22  24
ATOM     24  O   UNL A   1      33.873  35.761  29.536  1.00  0.00    -0.468 OA
ATOM     25  C   UNL A   1      33.042  35.064  28.598  1.00  0.00     0.282 C 
ENDBRANCH  22  24
ENDBRANCH  21  22
ENDBRANCH  17  21
ENDBRANCH  15  17
ENDBRANCH  10  15
ENDBRANCH   7   9
ENDBRANCH   6   7
ENDBRANCH   5   6
ENDBRANCH   4   5
ENDBRANCH   3   4
ENDBRANCH   2   3
ENDBRANCH   1   2
BRANCH   1  26
ATOM     26  O   UNL A   1      40.860  31.698  34.851  1.00  0.00    -0.377 OA
BRANCH  26  27
ATOM     27  C   UNL A   1      39.957  31.303  35.867  1.00  0.00     0.188 C 
BRANCH  27  28
ATOM     28  C   UNL A   1      38.536  31.881  35.753  1.00  0.00     0.188 C 
BRANCH  28  29
ATOM     29  O   UNL A   1      38.019  32.324  36.997  1.00  0.00    -0.376 OA
BRANCH  29  30
ATOM     30  C   UNL A   1      38.829  33.011  37.929  1.00  0.00     0.202 C 
BRANCH  30  31
ATOM     31  C   UNL A   1      38.272  33.535  39.265  1.00  0.00     0.261 C 
BRANCH  31  32
ATOM     32  O   UNL A   1      39.004  34.558  39.950  1.00  0.00    -0.460 OA
BRANCH  32  33
ATOM     33  C   UNL A   1      38.330  35.308  40.845  1.00  0.00     0.338 C 
ATOM     34  O   UNL A   1      37.432  34.924  41.579  1.00  0.00    -0.246 OA
BRANCH  33  35
ATOM     35  C   UNL A   1      39.003  36.624  40.960  1.00  0.00     0.060 A 
ATOM     36  C   UNL A   1      38.710  37.604  40.002  1.00  0.00     0.016 A 
ATOM     37  C   UNL A   1      39.904  36.903  41.994  1.00  0.00     0.016 A 
ATOM     38  C   UNL A   1      39.345  38.843  40.043  1.00  0.00     0.010 A 
ATOM     39  C   UNL A   1      40.566  38.138  42.015  1.00  0.00     0.010 A 
ATOM     40  C   UNL A   1      40.319  39.098  41.016  1.00  0.00    -0.014 A 
BRANCH  40  41
ATOM     41  C   UNL A   1      41.217  40.266  40.842  1.00  0.00     0.031 A 
ATOM     42  C   UNL A   1      42.463  40.086  40.015  1.00  0.00     0.074 A 
ATOM     43  C   UNL A   1      40.921  41.469  41.362  1.00  0.00     0.049 A 
ATOM     44  N   UNL A   1      43.401  40.949  39.728  1.00  0.00    -0.248 NA
ATOM     45  C   UNL A   1      42.675  38.751  39.429  1.00  0.00     0.031 C 
ATOM     46  C   UNL A   1      39.731  41.781  42.151  1.00  0.00     0.029 A 
ATOM     47  N   UNL A   1      41.615  42.654  41.315  1.00  0.00    -0.354 N 
ATOM     48  C   UNL A   1      44.330  40.257  38.959  1.00  0.00     0.074 A 
ATOM     49  C   UNL A   1      43.846  38.900  38.830  1.00  0.00     0.031 C 
ATOM     50  C   UNL A   1      39.792  43.066  42.542  1.00  0.00     0.029 A 
ATOM     51  C   UNL A   1      41.037  43.659  42.055  1.00  0.00     0.049 A 
ATOM     52  H   UNL A   1      42.447  42.771  40.802  1.00  0.00     0.167 HD
ATOM     53  C   UNL A   1      45.476  40.709  38.401  1.00  0.00     0.034 A 
ATOM     54  C   UNL A   1      41.479  44.903  42.330  1.00  0.00     0.034 A 
ATOM     55  C   UNL A   1      45.950  42.061  38.520  1.00  0.00     0.049 A 
ATOM     56  C   UNL A   1      42.785  45.371  41.736  1.00  0.00     0.074 A 
ATOM     57  C   UNL A   1      47.081  42.628  37.960  1.00  0.00     0.029 A 
ATOM     58  N   UNL A   1      45.331  43.054  39.264  1.00  0.00    -0.354 N 
ATOM     59  N   UNL A   1      43.602  44.735  40.931  1.00  0.00    -0.248 NA
ATOM     60  C   UNL A   1      43.214  46.739  42.065  1.00  0.00     0.031 C 
ATOM     61  C   UNL A   1      47.169  43.951  38.402  1.00  0.00     0.029 A 
ATOM     62  C   UNL A   1      46.065  44.224  39.196  1.00  0.00     0.049 A 
ATOM     63  H   UNL A   1      44.491  42.942  39.766  1.00  0.00     0.167 HD
ATOM     64  C   UNL A   1      44.618  45.636  40.627  1.00  0.00     0.074 A 
ATOM     65  C   UNL A   1      44.303  46.869  41.320  1.00  0.00     0.031 C 
ATOM     66  C   UNL A   1      45.717  45.459  39.851  1.00  0.00     0.034 A 
BRANCH  53  67
ATOM     67  C   UNL A   1      46.303  39.731  37.609  1.00  0.00     0.023 A 
ATOM     68  C   UNL A   1      47.310  38.979  38.246  1.00  0.00     0.012 A 
ATOM     69  C   UNL A   1      46.047  39.523  36.240  1.00  0.00     0.148 A 
ATOM     70  C   UNL A   1      48.074  38.061  37.525  1.00  0.00     0.002 A 
ATOM     71  C   UNL A   1      46.779  38.572  35.539  1.00  0.00     0.091 A 
ATOM     72  F   UNL A   1      45.101  40.266  35.646  1.00  0.00    -0.205 F 
ATOM     73  C   UNL A   1      47.800  37.850  36.176  1.00  0.00     0.022 A 
BRANCH  71  74
ATOM     74  S   UNL A   1      46.449  38.171  33.820  1.00  0.00     0.127 S 
ATOM     75  O   UNL A   1      47.445  37.130  33.565  1.00  0.00    -0.237 OA
ATOM     76  O   UNL A   1      45.068  37.691  33.878  1.00  0.00    -0.237 OA
ATOM     77  O   UNL A   1      46.634  39.407  33.073  1.00  0.00    -0.744 OA
ENDBRANCH  71  74
ENDBRANCH  53  67
BRANCH  54  78
ATOM     78  C   UNL A   1      40.678  45.806  43.207  1.00  0.00     0.023 A 
ATOM     79  C   UNL A   1      40.976  45.894  44.580  1.00  0.00     0.012 A 
ATOM     80  C   UNL A   1      39.622  46.575  42.683  1.00  0.00     0.148 A 
ATOM     81  C   UNL A   1      40.214  46.708  45.422  1.00  0.00     0.002 A 
ATOM     82  C   UNL A   1      38.904  47.426  43.514  1.00  0.00     0.091 A 
ATOM     83  F   UNL A   1      39.343  46.462  41.377  1.00  0.00    -0.205 F 
ATOM     84  C   UNL A   1      39.186  47.480  44.888  1.00  0.00     0.022 A 
BRANCH  82  85
ATOM     85  S   UNL A   1      37.648  48.550  42.893  1.00  0.00     0.127 S 
ATOM     86  O   UNL A   1      36.594  47.624  42.486  1.00  0.00    -0.237 OA
ATOM     87  O   UNL A   1      37.345  49.347  44.082  1.00  0.00    -0.237 OA
ATOM     88  O   UNL A   1      38.283  49.295  41.814  1.00  0.00    -0.744 OA
ENDBRANCH  82  85
ENDBRANCH  54  78
BRANCH  66  89
ATOM     89  C   UNL A   1      46.644  46.633  39.661  1.00  0.00     0.023 A 
ATOM     90  C   UNL A   1      47.698  46.859  40.567  1.00  0.00     0.012 A 
ATOM     91  C   UNL A   1      46.511  47.469  38.533  1.00  0.00     0.148 A 
ATOM     92  C   UNL A   1      48.584  47.918  40.374  1.00  0.00     0.002 A 
ATOM     93  C   UNL A   1      47.431  48.488  38.318  1.00  0.00     0.091 A 
ATOM     94  F   UNL A   1      45.493  47.248  37.689  1.00  0.00    -0.205 F 
ATOM     95  C   UNL A   1      48.458  48.724  39.245  1.00  0.00     0.022 A 
BRANCH  93  96
ATOM     96  S   UNL A   1      47.408  49.513  36.842  1.00  0.00     0.127 S 
ATOM     97  O   UNL A   1      48.508  50.439  37.106  1.00  0.00    -0.237 OA
ATOM     98  O   UNL A   1      47.674  48.535  35.786  1.00  0.00    -0.237 OA
ATOM     99  O   UNL A   1      46.084  50.117  36.789  1.00  0.00    -0.744 OA
ENDBRANCH  93  96
ENDBRANCH  66  89
ENDBRANCH  40  41
ENDBRANCH  33  35
ENDBRANCH  32  33
ENDBRANCH  31  32
ENDBRANCH  30  31
ENDBRANCH  29  30
ENDBRANCH  28  29
ENDBRANCH  27  28
ENDBRANCH  26  27
ENDBRANCH   1  26
TORSDOF 30
ENDMDL
MODEL 3
REMARK VINA RESULT:      -6.8      5.539      9.968
REMARK SMILES CCCN(CC(=O)OC)C(=O)N1CC[C@H](C(=O)OCCOCCOCCOCCOC(=O)c2ccc(-c3c4nc(c(-c5cccc(S(=O)(=O)[O-])c5F)c5ccc([nH]5)c(-c5cccc(S(=O)(=O)[O-])c5F)c5nc(c(-c6cccc(S(=O)(=O)[O-])c6F)c6ccc3[nH]6)C=C5)C=C4)cc2)[C@H]1C
REMARK SMILES IDX 23 1 22 2 21 3 20 4 19 5 18 6 16 7 17 8 15 9 12 10 13 11
REMARK SMILES IDX 96 12 14 13 97 14 10 15 11 16 4 17 3 18 2 19 1 20 5 21 6 22
REMARK SMILES IDX 7 23 8 24 9 25 24 26 25 27 26 28 27 29 28 30 29 31 30 32
REMARK SMILES IDX 31 33 32 34 33 35 34 36 95 37 35 38 94 39 36 40 37 41 38 42
REMARK SMILES IDX 88 43 39 44 93 45 87 46 89 47 40 48 92 49 86 50 85 51 41 53
REMARK SMILES IDX 73 54 53 55 72 56 54 57 57 58 71 59 90 60 55 61 56 62 70 64
REMARK SMILES IDX 91 65 58 66 42 67 43 68 51 69 44 70 46 71 52 72 45 73 47 74
REMARK SMILES IDX 48 75 49 76 50 77 74 78 75 79 83 80 76 81 78 82 84 83 77 84
REMARK SMILES IDX 79 85 80 86 81 87 82 88 59 89 60 90 68 91 61 92 63 93 69 94
REMARK SMILES IDX 62 95 64 96 65 97 66 98 67 99
REMARK H PARENT 89 52 57 63
REMARK Flexibility Score: inf
ROOT
ATOM      1  C   UNL A   1      34.020  32.691  28.228  1.00  0.00     0.188 C 
ENDROOT
BRANCH   1   2
ATOM      2  C   UNL A   1      32.771  32.196  27.479  1.00  0.00     0.188 C 
BRANCH   2   3
ATOM      3  O   UNL A   1      32.548  30.810  27.254  1.00  0.00    -0.376 OA
BRANCH   3   4
ATOM      4  C   UNL A   1      33.451  30.050  26.474  1.00  0.00     0.202 C 
BRANCH   4   5
ATOM      5  C   UNL A   1      33.649  28.530  26.682  1.00  0.00     0.261 C 
BRANCH   5   6
ATOM      6  O   UNL A   1      34.085  27.712  25.576  1.00  0.00    -0.463 OA
BRANCH   6   7
ATOM      7  C   UNL A   1      33.636  26.434  25.597  1.00  0.00     0.311 C 
ATOM      8  O   UNL A   1      34.375  25.468  25.764  1.00  0.00    -0.252 OA
BRANCH   7   9
ATOM      9  C   UNL A   1      32.151  26.300  25.238  1.00  0.00     0.123 C 
ATOM     10  N   UNL A   1      31.548  23.998  24.814  1.00  0.00    -0.321 N 
ATOM     11  C   UNL A   1      32.239  24.545  23.648  1.00  0.00     0.122 C 
ATOM     12  C   UNL A   1      31.291  25.112  25.766  1.00  0.00     0.098 C 
ATOM     13  C   UNL A   1      32.059  26.052  23.724  1.00  0.00     0.039 C 
ATOM     14  C   UNL A   1      29.816  25.562  25.745  1.00  0.00     0.032 C 
BRANCH  10  15
ATOM     15  C   UNL A   1      31.919  22.700  25.148  1.00  0.00     0.320 C 
ATOM     16  O   UNL A   1      31.571  22.209  26.225  1.00  0.00    -0.248 OA
BRANCH  15  17
ATOM     17  N   UNL A   1      32.845  22.038  24.369  1.00  0.00    -0.314 N 
BRANCH  17  18
ATOM     18  C   UNL A   1      32.374  20.904  23.558  1.00  0.00     0.122 C 
BRANCH  18  19
ATOM     19  C   UNL A   1      32.534  19.551  24.280  1.00  0.00     0.018 C 
ATOM     20  C   UNL A   1      32.691  18.360  23.340  1.00  0.00     0.006 C 
ENDBRANCH  18  19
ENDBRANCH  17  18
BRANCH  17  21
ATOM     21  C   UNL A   1      34.284  22.274  24.361  1.00  0.00     0.243 C 
BRANCH  21  22
ATOM     22  C   UNL A   1      35.037  21.822  25.618  1.00  0.00     0.325 C 
ATOM     23  O   UNL A   1      34.470  21.271  26.556  1.00  0.00    -0.250 OA
BRANCH  22  24
ATOM     24  O   UNL A   1      36.377  22.049  25.548  1.00  0.00    -0.468 OA
ATOM     25  C   UNL A   1      36.809  23.096  24.666  1.00  0.00     0.282 C 
ENDBRANCH  22  24
ENDBRANCH  21  22
ENDBRANCH  17  21
ENDBRANCH  15  17
ENDBRANCH  10  15
ENDBRANCH   7   9
ENDBRANCH   6   7
ENDBRANCH   5   6
ENDBRANCH   4   5
ENDBRANCH   3   4
ENDBRANCH   2   3
ENDBRANCH   1   2
BRANCH   1  26
ATOM     26  O   UNL A   1      34.420  34.013  27.918  1.00  0.00    -0.377 OA
BRANCH  26  27
ATOM     27  C   UNL A   1      34.424  34.921  29.004  1.00  0.00     0.188 C 
BRANCH  27  28
ATOM     28  C   UNL A   1      33.050  35.209  29.633  1.00  0.00     0.188 C 
BRANCH  28  29
ATOM     29  O   UNL A   1      33.048  35.067  31.044  1.00  0.00    -0.376 OA
BRANCH  29  30
ATOM     30  C   UNL A   1      33.918  35.822  31.863  1.00  0.00     0.202 C 
BRANCH  30  31
ATOM     31  C   UNL A   1      35.179  35.210  32.498  1.00  0.00     0.261 C 
BRANCH  31  32
ATOM     32  O   UNL A   1      35.081  33.907  33.083  1.00  0.00    -0.460 OA
BRANCH  32  33
ATOM     33  C   UNL A   1      35.036  32.852  32.244  1.00  0.00     0.338 C 
ATOM     34  O   UNL A   1      34.027  32.331  31.791  1.00  0.00    -0.246 OA
BRANCH  33  35
ATOM     35  C   UNL A   1      36.413  32.563  31.776  1.00  0.00     0.060 A 
ATOM     36  C   UNL A   1      37.304  31.959  32.673  1.00  0.00     0.016 A 
ATOM     37  C   UNL A   1      36.829  32.871  30.476  1.00  0.00     0.016 A 
ATOM     38  C   UNL A   1      38.620  31.701  32.294  1.00  0.00     0.010 A 
ATOM     39  C   UNL A   1      38.161  32.641  30.107  1.00  0.00     0.010 A 
ATOM     40  C   UNL A   1      39.072  32.093  31.029  1.00  0.00    -0.014 A 
BRANCH  40  41
ATOM     41  C   UNL A   1      40.533  32.128  30.770  1.00  0.00     0.031 A 
ATOM     42  C   UNL A   1      41.123  31.065  29.881  1.00  0.00     0.074 A 
ATOM     43  C   UNL A   1      41.316  33.101  31.269  1.00  0.00     0.049 A 
ATOM     44  N   UNL A   1      42.364  30.881  29.517  1.00  0.00    -0.248 NA
ATOM     45  C   UNL A   1      40.180  30.078  29.326  1.00  0.00     0.031 C 
ATOM     46  C   UNL A   1      40.861  34.204  32.112  1.00  0.00     0.029 A 
ATOM     47  N   UNL A   1      42.669  33.303  31.148  1.00  0.00    -0.354 N 
ATOM     48  C   UNL A   1      42.360  29.742  28.719  1.00  0.00     0.074 A 
ATOM     49  C   UNL A   1      40.993  29.273  28.659  1.00  0.00     0.031 C 
ATOM     50  C   UNL A   1      41.924  34.952  32.459  1.00  0.00     0.029 A 
ATOM     51  C   UNL A   1      43.135  34.365  31.887  1.00  0.00     0.049 A 
ATOM     52  H   UNL A   1      43.250  32.740  30.586  1.00  0.00     0.167 HD
ATOM     53  C   UNL A   1      43.396  29.146  28.085  1.00  0.00     0.034 A 
ATOM     54  C   UNL A   1      44.395  34.793  32.099  1.00  0.00     0.034 A 
ATOM     55  C   UNL A   1      44.751  29.621  28.138  1.00  0.00     0.049 A 
ATOM     56  C   UNL A   1      45.541  34.083  31.420  1.00  0.00     0.074 A 
ATOM     57  C   UNL A   1      45.866  29.108  27.499  1.00  0.00     0.029 A 
ATOM     58  N   UNL A   1      45.181  30.707  28.884  1.00  0.00    -0.354 N 
ATOM     59  N   UNL A   1      45.509  33.067  30.591  1.00  0.00    -0.248 NA
ATOM     60  C   UNL A   1      46.893  34.598  31.683  1.00  0.00     0.031 C 
ATOM     61  C   UNL A   1      46.978  29.857  27.895  1.00  0.00     0.029 A 
ATOM     62  C   UNL A   1      46.547  30.869  28.739  1.00  0.00     0.049 A 
ATOM     63  H   UNL A   1      44.599  31.279  29.434  1.00  0.00     0.167 HD
ATOM     64  C   UNL A   1      46.827  32.847  30.204  1.00  0.00     0.074 A 
ATOM     65  C   UNL A   1      47.631  33.848  30.876  1.00  0.00     0.031 C 
ATOM     66  C   UNL A   1      47.330  31.898  29.375  1.00  0.00     0.034 A 
BRANCH  53  67
ATOM     67  C   UNL A   1      43.103  27.908  27.280  1.00  0.00     0.023 A 
ATOM     68  C   UNL A   1      42.720  28.018  25.928  1.00  0.00     0.012 A 
ATOM     69  C   UNL A   1      43.254  26.630  27.853  1.00  0.00     0.148 A 
ATOM     70  C   UNL A   1      42.457  26.877  25.169  1.00  0.00     0.002 A 
ATOM     71  C   UNL A   1      43.039  25.497  27.078  1.00  0.00     0.091 A 
ATOM     72  F   UNL A   1      43.595  26.546  29.147  1.00  0.00    -0.205 F 
ATOM     73  C   UNL A   1      42.629  25.619  25.741  1.00  0.00     0.022 A 
BRANCH  71  74
ATOM     74  S   UNL A   1      43.309  23.834  27.698  1.00  0.00     0.127 S 
ATOM     75  O   UNL A   1      42.267  23.728  28.720  1.00  0.00    -0.237 OA
ATOM     76  O   UNL A   1      43.075  23.021  26.504  1.00  0.00    -0.237 OA
ATOM     77  O   UNL A   1      44.676  23.806  28.197  1.00  0.00    -0.744 OA
ENDBRANCH  71  74
ENDBRANCH  53  67
BRANCH  54  78
ATOM     78  C   UNL A   1      44.649  35.962  32.991  1.00  0.00     0.023 A 
ATOM     79  C   UNL A   1      45.048  35.752  34.325  1.00  0.00     0.012 A 
ATOM     80  C   UNL A   1      44.496  37.280  32.520  1.00  0.00     0.148 A 
ATOM     81  C   UNL A   1      45.256  36.834  35.183  1.00  0.00     0.002 A 
ATOM     82  C   UNL A   1      44.761  38.353  33.362  1.00  0.00     0.091 A 
ATOM     83  F   UNL A   1      44.098  37.458  31.252  1.00  0.00    -0.205 F 
ATOM     84  C   UNL A   1      45.122  38.133  34.699  1.00  0.00     0.022 A 
BRANCH  82  85
ATOM     85  S   UNL A   1      44.736  40.056  32.792  1.00  0.00     0.127 S 
ATOM     86  O   UNL A   1      44.403  40.777  34.018  1.00  0.00    -0.237 OA
ATOM     87  O   UNL A   1      46.111  40.235  32.324  1.00  0.00    -0.237 OA
ATOM     88  O   UNL A   1      43.730  40.106  31.739  1.00  0.00    -0.744 OA
ENDBRANCH  82  85
ENDBRANCH  54  78
BRANCH  66  89
ATOM     89  C   UNL A   1      48.812  31.916  29.099  1.00  0.00     0.023 A 
ATOM     90  C   UNL A   1      49.685  31.111  29.855  1.00  0.00     0.012 A 
ATOM     91  C   UNL A   1      49.328  32.679  28.030  1.00  0.00     0.148 A 
ATOM     92  C   UNL A   1      51.051  31.090  29.578  1.00  0.00     0.002 A 
ATOM     93  C   UNL A   1      50.682  32.611  27.724  1.00  0.00     0.091 A 
ATOM     94  F   UNL A   1      48.484  33.451  27.330  1.00  0.00    -0.205 F 
ATOM     95  C   UNL A   1      51.547  31.830  28.506  1.00  0.00     0.022 A 
BRANCH  93  96
ATOM     96  S   UNL A   1      51.393  33.449  26.303  1.00  0.00     0.127 S 
ATOM     97  O   UNL A   1      52.743  32.890  26.275  1.00  0.00    -0.237 OA
ATOM     98  O   UNL A   1      50.524  33.000  25.215  1.00  0.00    -0.237 OA
ATOM     99  O   UNL A   1      51.315  34.874  26.593  1.00  0.00    -0.744 OA
ENDBRANCH  93  96
ENDBRANCH  66  89
ENDBRANCH  40  41
ENDBRANCH  33  35
ENDBRANCH  32  33
ENDBRANCH  31  32
ENDBRANCH  30  31
ENDBRANCH  29  30
ENDBRANCH  28  29
ENDBRANCH  27  28
ENDBRANCH  26  27
ENDBRANCH   1  26
TORSDOF 30
ENDMDL
