MODEL 1
REMARK VINA RESULT:     -11.2      0.000      0.000
REMARK SMILES Cc1ncc(CO)c([C@H]2[NH2+][C@@H](C(=O)OCCOCCOCCOCCOC(=O)c3ccc(-c4c5nc(c(-c6cccc(S(=O)(=O)[O-])c6F)c6ccc([nH]6)c(-c6cccc(S(=O)(=O)[O-])c6F)c6nc(c(-c7cccc(S(=O)(=O)[O-])c7F)c7ccc4[nH]7)C=C6)C=C5)cc3)Cc3[nH]cnc32)c1O
REMARK SMILES IDX 20 1 19 2 18 3 17 4 16 5 15 6 14 7 12 8 13 9 11 10 9 11
REMARK SMILES IDX 10 12 97 13 93 16 96 17 92 18 94 19 95 20 8 22 1 23 2 24
REMARK SMILES IDX 3 25 98 26 4 27 5 28 99 29 6 31 7 32 21 34 22 35 23 36 24 37
REMARK SMILES IDX 25 38 26 39 27 40 28 41 29 42 30 43 91 44 31 45 90 46 32 47
REMARK SMILES IDX 33 48 34 49 84 50 35 51 89 52 83 53 85 54 36 55 88 56 82 57
REMARK SMILES IDX 81 58 37 60 69 61 49 62 68 63 50 64 53 65 67 66 86 67 51 68
REMARK SMILES IDX 52 69 66 71 87 72 54 73 38 74 39 75 47 76 40 77 42 78 48 79
REMARK SMILES IDX 41 80 43 81 44 82 45 83 46 84 70 85 71 86 79 87 72 88 74 89
REMARK SMILES IDX 80 90 73 91 75 92 76 93 77 94 78 95 55 96 56 97 64 98 57 99
REMARK SMILES IDX 59 100 65 101 58 102 60 103 61 104 62 105 63 106
REMARK H PARENT 10 14 10 15 94 21 99 30 7 33 85 59 53 70
REMARK Flexibility Score: inf
ROOT
ATOM      1  O   UNL A   1      37.291  22.054  25.749  1.00  0.00    -0.377 OA
ENDROOT
BRANCH   1   2
ATOM      2  C   UNL A   1      36.248  22.980  26.020  1.00  0.00     0.188 C 
BRANCH   2   3
ATOM      3  C   UNL A   1      34.834  22.554  25.527  1.00  0.00     0.188 C 
BRANCH   3   4
ATOM      4  O   UNL A   1      34.316  22.983  24.272  1.00  0.00    -0.376 OA
BRANCH   4   5
ATOM      5  C   UNL A   1      32.950  22.772  23.971  1.00  0.00     0.202 C 
BRANCH   5   6
ATOM      6  C   UNL A   1      32.377  23.315  22.653  1.00  0.00     0.261 C 
BRANCH   6   7
ATOM      7  O   UNL A   1      33.312  23.935  21.758  1.00  0.00    -0.459 OA
BRANCH   7   8
ATOM      8  C   UNL A   1      32.996  25.177  21.282  1.00  0.00     0.365 C 
ATOM      9  O   UNL A   1      33.126  25.531  20.117  1.00  0.00    -0.245 OA
BRANCH   8  10
ATOM     10  C   UNL A   1      32.459  26.053  22.428  1.00  0.00     0.300 C 
ATOM     11  C   UNL A   1      30.814  27.673  23.187  1.00  0.00     0.270 C 
ATOM     12  N   UNL A   1      31.441  27.074  21.976  1.00  0.00    -0.323 N 
ATOM     13  C   UNL A   1      31.889  28.409  23.919  1.00  0.00     0.124 A 
ATOM     14  H   UNL A   1      31.901  27.802  21.429  1.00  0.00     0.347 HD
ATOM     15  H   UNL A   1      30.731  26.630  21.393  1.00  0.00     0.347 HD
ATOM     16  C   UNL A   1      33.180  27.902  23.927  1.00  0.00     0.051 A 
ATOM     17  N   UNL A   1      31.797  29.467  24.782  1.00  0.00    -0.235 NA
ATOM     18  C   UNL A   1      33.661  26.726  23.145  1.00  0.00     0.133 C 
ATOM     19  N   UNL A   1      33.891  28.684  24.779  1.00  0.00    -0.348 N 
ATOM     20  C   UNL A   1      33.016  29.618  25.266  1.00  0.00     0.197 A 
ATOM     21  H   UNL A   1      34.847  28.597  25.002  1.00  0.00     0.167 HD
BRANCH  11  22
ATOM     22  C   UNL A   1      29.489  28.351  22.883  1.00  0.00     0.066 A 
ATOM     23  C   UNL A   1      28.575  31.618  21.043  1.00  0.00     0.071 C 
ATOM     24  C   UNL A   1      28.477  30.373  21.876  1.00  0.00     0.079 A 
ATOM     25  N   UNL A   1      27.249  30.034  22.305  1.00  0.00    -0.257 NA
ATOM     26  C   UNL A   1      29.587  29.567  22.144  1.00  0.00     0.146 A 
ATOM     27  C   UNL A   1      27.143  28.882  23.003  1.00  0.00     0.118 A 
ATOM     28  C   UNL A   1      28.202  28.018  23.342  1.00  0.00     0.009 A 
BRANCH  26  29
ATOM     29  O   UNL A   1      30.820  30.007  21.726  1.00  0.00    -0.505 OA
ATOM     30  H   UNL A   1      30.974  30.923  21.605  1.00  0.00     0.293 HD
ENDBRANCH  26  29
BRANCH  28  31
ATOM     31  C   UNL A   1      27.833  26.801  24.139  1.00  0.00     0.194 C 
BRANCH  31  32
ATOM     32  O   UNL A   1      28.421  25.633  23.561  1.00  0.00    -0.392 OA
ATOM     33  H   UNL A   1      29.310  25.503  23.927  1.00  0.00     0.211 HD
ENDBRANCH  31  32
ENDBRANCH  28  31
ENDBRANCH  11  22
ENDBRANCH   8  10
ENDBRANCH   7   8
ENDBRANCH   6   7
ENDBRANCH   5   6
ENDBRANCH   4   5
ENDBRANCH   3   4
ENDBRANCH   2   3
ENDBRANCH   1   2
BRANCH   1  34
ATOM     34  C   UNL A   1      38.595  22.523  26.074  1.00  0.00     0.188 C 
BRANCH  34  35
ATOM     35  C   UNL A   1      39.704  21.448  26.108  1.00  0.00     0.188 C 
BRANCH  35  36
ATOM     36  O   UNL A   1      40.265  21.233  27.399  1.00  0.00    -0.376 OA
BRANCH  36  37
ATOM     37  C   UNL A   1      41.654  21.024  27.589  1.00  0.00     0.202 C 
BRANCH  37  38
ATOM     38  C   UNL A   1      42.575  21.530  26.483  1.00  0.00     0.261 C 
BRANCH  38  39
ATOM     39  O   UNL A   1      43.207  22.755  26.796  1.00  0.00    -0.460 OA
BRANCH  39  40
ATOM     40  C   UNL A   1      42.642  23.835  26.240  1.00  0.00     0.338 C 
ATOM     41  O   UNL A   1      42.755  24.224  25.078  1.00  0.00    -0.246 OA
BRANCH  40  42
ATOM     42  C   UNL A   1      41.922  24.564  27.275  1.00  0.00     0.060 A 
ATOM     43  C   UNL A   1      40.884  25.379  26.830  1.00  0.00     0.016 A 
ATOM     44  C   UNL A   1      42.541  24.720  28.524  1.00  0.00     0.016 A 
ATOM     45  C   UNL A   1      40.684  26.551  27.502  1.00  0.00     0.010 A 
ATOM     46  C   UNL A   1      42.357  25.903  29.182  1.00  0.00     0.010 A 
ATOM     47  C   UNL A   1      41.513  26.836  28.593  1.00  0.00    -0.014 A 
BRANCH  47  48
ATOM     48  C   UNL A   1      41.427  28.157  29.153  1.00  0.00     0.031 A 
ATOM     49  C   UNL A   1      42.437  29.054  28.570  1.00  0.00     0.074 A 
ATOM     50  C   UNL A   1      40.484  28.477  30.055  1.00  0.00     0.049 A 
ATOM     51  N   UNL A   1      43.505  29.502  29.139  1.00  0.00    -0.248 NA
ATOM     52  C   UNL A   1      42.386  29.270  27.116  1.00  0.00     0.031 C 
ATOM     53  C   UNL A   1      39.302  27.698  30.439  1.00  0.00     0.029 A 
ATOM     54  N   UNL A   1      40.308  29.651  30.713  1.00  0.00    -0.354 N 
ATOM     55  C   UNL A   1      44.112  30.289  28.170  1.00  0.00     0.074 A 
ATOM     56  C   UNL A   1      43.548  29.889  26.911  1.00  0.00     0.031 C 
ATOM     57  C   UNL A   1      38.413  28.522  31.039  1.00  0.00     0.029 A 
ATOM     58  C   UNL A   1      39.015  29.836  31.183  1.00  0.00     0.049 A 
ATOM     59  H   UNL A   1      41.029  30.309  30.843  1.00  0.00     0.167 HD
ATOM     60  C   UNL A   1      44.765  31.428  28.519  1.00  0.00     0.034 A 
ATOM     61  C   UNL A   1      38.464  31.021  31.547  1.00  0.00     0.034 A 
ATOM     62  C   UNL A   1      45.089  31.429  29.924  1.00  0.00     0.049 A 
ATOM     63  C   UNL A   1      39.576  31.973  31.787  1.00  0.00     0.074 A 
ATOM     64  C   UNL A   1      45.819  30.606  30.759  1.00  0.00     0.029 A 
ATOM     65  N   UNL A   1      44.285  32.190  30.740  1.00  0.00    -0.354 N 
ATOM     66  N   UNL A   1      40.426  31.854  32.770  1.00  0.00    -0.248 NA
ATOM     67  C   UNL A   1      40.019  32.801  30.677  1.00  0.00     0.031 C 
ATOM     68  C   UNL A   1      45.111  30.608  31.995  1.00  0.00     0.029 A 
ATOM     69  C   UNL A   1      44.023  31.476  31.876  1.00  0.00     0.049 A 
ATOM     70  H   UNL A   1      43.954  33.096  30.539  1.00  0.00     0.167 HD
ATOM     71  C   UNL A   1      41.652  32.190  32.207  1.00  0.00     0.074 A 
ATOM     72  C   UNL A   1      41.323  32.876  30.961  1.00  0.00     0.031 C 
ATOM     73  C   UNL A   1      42.807  31.611  32.650  1.00  0.00     0.034 A 
BRANCH  60  74
ATOM     74  C   UNL A   1      44.722  32.706  27.713  1.00  0.00     0.023 A 
ATOM     75  C   UNL A   1      45.832  32.966  26.882  1.00  0.00     0.012 A 
ATOM     76  C   UNL A   1      43.823  33.779  27.930  1.00  0.00     0.148 A 
ATOM     77  C   UNL A   1      46.074  34.240  26.359  1.00  0.00     0.002 A 
ATOM     78  C   UNL A   1      44.022  35.020  27.341  1.00  0.00     0.091 A 
ATOM     79  F   UNL A   1      42.832  33.670  28.815  1.00  0.00    -0.205 F 
ATOM     80  C   UNL A   1      45.167  35.268  26.584  1.00  0.00     0.022 A 
BRANCH  78  81
ATOM     81  S   UNL A   1      42.851  36.365  27.568  1.00  0.00     0.127 S 
ATOM     82  O   UNL A   1      42.955  36.604  29.004  1.00  0.00    -0.237 OA
ATOM     83  O   UNL A   1      43.427  37.407  26.719  1.00  0.00    -0.237 OA
ATOM     84  O   UNL A   1      41.568  35.856  27.096  1.00  0.00    -0.744 OA
ENDBRANCH  78  81
ENDBRANCH  60  74
BRANCH  61  85
ATOM     85  C   UNL A   1      37.062  31.472  31.400  1.00  0.00     0.023 A 
ATOM     86  C   UNL A   1      36.341  31.896  32.534  1.00  0.00     0.012 A 
ATOM     87  C   UNL A   1      36.512  31.735  30.125  1.00  0.00     0.148 A 
ATOM     88  C   UNL A   1      35.125  32.576  32.402  1.00  0.00     0.002 A 
ATOM     89  C   UNL A   1      35.296  32.398  29.998  1.00  0.00     0.091 A 
ATOM     90  F   UNL A   1      37.226  31.420  29.036  1.00  0.00    -0.205 F 
ATOM     91  C   UNL A   1      34.603  32.831  31.136  1.00  0.00     0.022 A 
BRANCH  89  92
ATOM     92  S   UNL A   1      34.575  32.776  28.395  1.00  0.00     0.127 S 
ATOM     93  O   UNL A   1      34.096  31.462  27.964  1.00  0.00    -0.237 OA
ATOM     94  O   UNL A   1      33.523  33.724  28.752  1.00  0.00    -0.237 OA
ATOM     95  O   UNL A   1      35.660  33.315  27.585  1.00  0.00    -0.744 OA
ENDBRANCH  89  92
ENDBRANCH  61  85
BRANCH  73  96
ATOM     96  C   UNL A   1      42.761  30.835  33.943  1.00  0.00     0.023 A 
ATOM     97  C   UNL A   1      42.830  31.457  35.207  1.00  0.00     0.012 A 
ATOM     98  C   UNL A   1      42.452  29.467  33.874  1.00  0.00     0.148 A 
ATOM     99  C   UNL A   1      42.612  30.723  36.376  1.00  0.00     0.002 A 
ATOM    100  C   UNL A   1      42.186  28.753  35.034  1.00  0.00     0.091 A 
ATOM    101  F   UNL A   1      42.390  28.892  32.663  1.00  0.00    -0.205 F 
ATOM    102  C   UNL A   1      42.274  29.374  36.289  1.00  0.00     0.022 A 
BRANCH 100 103
ATOM    103  S   UNL A   1      41.610  27.054  34.971  1.00  0.00     0.127 S 
ATOM    104  O   UNL A   1      40.479  27.150  34.051  1.00  0.00    -0.237 OA
ATOM    105  O   UNL A   1      42.775  26.347  34.437  1.00  0.00    -0.237 OA
ATOM    106  O   UNL A   1      41.277  26.694  36.343  1.00  0.00    -0.744 OA
ENDBRANCH 100 103
ENDBRANCH  73  96
ENDBRANCH  47  48
ENDBRANCH  40  42
ENDBRANCH  39  40
ENDBRANCH  38  39
ENDBRANCH  37  38
ENDBRANCH  36  37
ENDBRANCH  35  36
ENDBRANCH  34  35
ENDBRANCH   1  34
TORSDOF 27
ENDMDL
MODEL 2
REMARK VINA RESULT:      -9.8      3.037      5.422
REMARK SMILES Cc1ncc(CO)c([C@H]2[NH2+][C@@H](C(=O)OCCOCCOCCOCCOC(=O)c3ccc(-c4c5nc(c(-c6cccc(S(=O)(=O)[O-])c6F)c6ccc([nH]6)c(-c6cccc(S(=O)(=O)[O-])c6F)c6nc(c(-c7cccc(S(=O)(=O)[O-])c7F)c7ccc4[nH]7)C=C6)C=C5)cc3)Cc3[nH]cnc32)c1O
REMARK SMILES IDX 20 1 19 2 18 3 17 4 16 5 15 6 14 7 12 8 13 9 11 10 9 11
REMARK SMILES IDX 10 12 97 13 93 16 96 17 92 18 94 19 95 20 8 22 1 23 2 24
REMARK SMILES IDX 3 25 98 26 4 27 5 28 99 29 6 31 7 32 21 34 22 35 23 36 24 37
REMARK SMILES IDX 25 38 26 39 27 40 28 41 29 42 30 43 91 44 31 45 90 46 32 47
REMARK SMILES IDX 33 48 34 49 84 50 35 51 89 52 83 53 85 54 36 55 88 56 82 57
REMARK SMILES IDX 81 58 37 60 69 61 49 62 68 63 50 64 53 65 67 66 86 67 51 68
REMARK SMILES IDX 52 69 66 71 87 72 54 73 38 74 39 75 47 76 40 77 42 78 48 79
REMARK SMILES IDX 41 80 43 81 44 82 45 83 46 84 70 85 71 86 79 87 72 88 74 89
REMARK SMILES IDX 80 90 73 91 75 92 76 93 77 94 78 95 55 96 56 97 64 98 57 99
REMARK SMILES IDX 59 100 65 101 58 102 60 103 61 104 62 105 63 106
REMARK H PARENT 10 14 10 15 94 21 99 30 7 33 85 59 53 70
REMARK Flexibility Score: inf
ROOT
ATOM      1  O   UNL A   1      37.143  21.311  25.180  1.00  0.00    -0.377 OA
ENDROOT
BRANCH   1   2
ATOM      2  C   UNL A   1      35.898  21.558  25.816  1.00  0.00     0.188 C 
BRANCH   2   3
ATOM      3  C   UNL A   1      34.637  21.292  24.941  1.00  0.00     0.188 C 
BRANCH   3   4
ATOM      4  O   UNL A   1      34.398  22.008  23.734  1.00  0.00    -0.376 OA
BRANCH   4   5
ATOM      5  C   UNL A   1      33.090  22.053  23.196  1.00  0.00     0.202 C 
BRANCH   5   6
ATOM      6  C   UNL A   1      32.577  23.360  22.572  1.00  0.00     0.261 C 
BRANCH   6   7
ATOM      7  O   UNL A   1      33.307  23.857  21.441  1.00  0.00    -0.459 OA
BRANCH   7   8
ATOM      8  C   UNL A   1      32.994  25.109  20.993  1.00  0.00     0.365 C 
ATOM      9  O   UNL A   1      33.077  25.473  19.827  1.00  0.00    -0.245 OA
BRANCH   8  10
ATOM     10  C   UNL A   1      32.531  25.983  22.171  1.00  0.00     0.300 C 
ATOM     11  C   UNL A   1      30.907  27.562  23.052  1.00  0.00     0.270 C 
ATOM     12  N   UNL A   1      31.446  26.967  21.798  1.00  0.00    -0.323 N 
ATOM     13  C   UNL A   1      32.017  28.341  23.682  1.00  0.00     0.124 A 
ATOM     14  H   UNL A   1      31.835  27.702  21.206  1.00  0.00     0.347 HD
ATOM     15  H   UNL A   1      30.703  26.494  21.283  1.00  0.00     0.347 HD
ATOM     16  C   UNL A   1      33.320  27.872  23.584  1.00  0.00     0.051 A 
ATOM     17  N   UNL A   1      31.967  29.406  24.538  1.00  0.00    -0.235 NA
ATOM     18  C   UNL A   1      33.768  26.702  22.775  1.00  0.00     0.133 C 
ATOM     19  N   UNL A   1      34.076  28.687  24.363  1.00  0.00    -0.348 N 
ATOM     20  C   UNL A   1      33.217  29.601  24.914  1.00  0.00     0.197 A 
ATOM     21  H   UNL A   1      35.049  28.632  24.504  1.00  0.00     0.167 HD
BRANCH  11  22
ATOM     22  C   UNL A   1      29.540  28.196  22.857  1.00  0.00     0.066 A 
ATOM     23  C   UNL A   1      28.373  31.422  21.090  1.00  0.00     0.071 C 
ATOM     24  C   UNL A   1      28.384  30.179  21.931  1.00  0.00     0.079 A 
ATOM     25  N   UNL A   1      27.207  29.803  22.460  1.00  0.00    -0.257 NA
ATOM     26  C   UNL A   1      29.538  29.411  22.109  1.00  0.00     0.146 A 
ATOM     27  C   UNL A   1      27.196  28.652  23.168  1.00  0.00     0.118 A 
ATOM     28  C   UNL A   1      28.307  27.824  23.421  1.00  0.00     0.009 A 
BRANCH  26  29
ATOM     29  O   UNL A   1      30.718  29.888  21.590  1.00  0.00    -0.505 OA
ATOM     30  H   UNL A   1      31.370  29.290  21.284  1.00  0.00     0.293 HD
ENDBRANCH  26  29
BRANCH  28  31
ATOM     31  C   UNL A   1      28.043  26.600  24.249  1.00  0.00     0.194 C 
BRANCH  31  32
ATOM     32  O   UNL A   1      26.684  26.182  24.095  1.00  0.00    -0.392 OA
ATOM     33  H   UNL A   1      26.147  26.932  23.797  1.00  0.00     0.211 HD
ENDBRANCH  31  32
ENDBRANCH  28  31
ENDBRANCH  11  22
ENDBRANCH   8  10
ENDBRANCH   7   8
ENDBRANCH   6   7
ENDBRANCH   5   6
ENDBRANCH   4   5
ENDBRANCH   3   4
ENDBRANCH   2   3
ENDBRANCH   1   2
BRANCH   1  34
ATOM     34  C   UNL A   1      38.256  21.956  25.790  1.00  0.00     0.188 C 
BRANCH  34  35
ATOM     35  C   UNL A   1      39.583  21.165  25.772  1.00  0.00     0.188 C 
BRANCH  35  36
ATOM     36  O   UNL A   1      39.932  20.588  27.025  1.00  0.00    -0.376 OA
BRANCH  36  37
ATOM     37  C   UNL A   1      41.265  20.221  27.337  1.00  0.00     0.202 C 
BRANCH  37  38
ATOM     38  C   UNL A   1      42.301  20.416  26.233  1.00  0.00     0.261 C 
BRANCH  38  39
ATOM     39  O   UNL A   1      43.118  21.553  26.425  1.00  0.00    -0.460 OA
BRANCH  39  40
ATOM     40  C   UNL A   1      43.105  22.431  25.413  1.00  0.00     0.338 C 
ATOM     41  O   UNL A   1      43.457  22.236  24.250  1.00  0.00    -0.246 OA
BRANCH  40  42
ATOM     42  C   UNL A   1      42.688  23.726  25.929  1.00  0.00     0.060 A 
ATOM     43  C   UNL A   1      43.347  24.832  25.396  1.00  0.00     0.016 A 
ATOM     44  C   UNL A   1      41.995  23.759  27.149  1.00  0.00     0.016 A 
ATOM     45  C   UNL A   1      43.584  25.879  26.241  1.00  0.00     0.010 A 
ATOM     46  C   UNL A   1      42.252  24.796  28.000  1.00  0.00     0.010 A 
ATOM     47  C   UNL A   1      43.132  25.778  27.561  1.00  0.00    -0.014 A 
BRANCH  47  48
ATOM     48  C   UNL A   1      43.570  26.790  28.483  1.00  0.00     0.031 A 
ATOM     49  C   UNL A   1      44.647  26.293  29.353  1.00  0.00     0.074 A 
ATOM     50  C   UNL A   1      43.053  28.030  28.462  1.00  0.00     0.049 A 
ATOM     51  N   UNL A   1      44.563  25.998  30.606  1.00  0.00    -0.248 NA
ATOM     52  C   UNL A   1      45.883  25.834  28.701  1.00  0.00     0.031 C 
ATOM     53  C   UNL A   1      42.196  28.632  27.435  1.00  0.00     0.029 A 
ATOM     54  N   UNL A   1      43.317  29.070  29.292  1.00  0.00    -0.354 N 
ATOM     55  C   UNL A   1      45.840  25.572  30.949  1.00  0.00     0.074 A 
ATOM     56  C   UNL A   1      46.500  25.236  29.719  1.00  0.00     0.031 C 
ATOM     57  C   UNL A   1      42.240  29.978  27.565  1.00  0.00     0.029 A 
ATOM     58  C   UNL A   1      43.020  30.310  28.743  1.00  0.00     0.049 A 
ATOM     59  H   UNL A   1      43.686  28.955  30.198  1.00  0.00     0.167 HD
ATOM     60  C   UNL A   1      46.354  25.859  32.173  1.00  0.00     0.034 A 
ATOM     61  C   UNL A   1      43.495  31.504  29.176  1.00  0.00     0.034 A 
ATOM     62  C   UNL A   1      45.311  26.216  33.103  1.00  0.00     0.049 A 
ATOM     63  C   UNL A   1      43.992  31.310  30.560  1.00  0.00     0.074 A 
ATOM     64  C   UNL A   1      44.179  25.591  33.587  1.00  0.00     0.029 A 
ATOM     65  N   UNL A   1      45.155  27.556  33.366  1.00  0.00    -0.354 N 
ATOM     66  N   UNL A   1      43.214  31.041  31.573  1.00  0.00    -0.248 NA
ATOM     67  C   UNL A   1      45.394  30.967  30.742  1.00  0.00     0.031 C 
ATOM     68  C   UNL A   1      43.213  26.629  33.727  1.00  0.00     0.029 A 
ATOM     69  C   UNL A   1      43.818  27.840  33.382  1.00  0.00     0.049 A 
ATOM     70  H   UNL A   1      45.884  28.202  33.517  1.00  0.00     0.167 HD
ATOM     71  C   UNL A   1      43.919  30.092  32.305  1.00  0.00     0.074 A 
ATOM     72  C   UNL A   1      45.292  30.178  31.816  1.00  0.00     0.031 C 
ATOM     73  C   UNL A   1      43.263  29.125  33.012  1.00  0.00     0.034 A 
BRANCH  60  74
ATOM     74  C   UNL A   1      47.797  26.241  32.414  1.00  0.00     0.023 A 
ATOM     75  C   UNL A   1      48.439  25.626  33.510  1.00  0.00     0.012 A 
ATOM     76  C   UNL A   1      48.458  27.348  31.828  1.00  0.00     0.148 A 
ATOM     77  C   UNL A   1      49.631  26.129  34.039  1.00  0.00     0.002 A 
ATOM     78  C   UNL A   1      49.683  27.795  32.305  1.00  0.00     0.091 A 
ATOM     79  F   UNL A   1      47.860  28.081  30.888  1.00  0.00    -0.205 F 
ATOM     80  C   UNL A   1      50.257  27.212  33.435  1.00  0.00     0.022 A 
BRANCH  78  81
ATOM     81  S   UNL A   1      50.551  29.163  31.525  1.00  0.00     0.127 S 
ATOM     82  O   UNL A   1      49.678  30.286  31.850  1.00  0.00    -0.237 OA
ATOM     83  O   UNL A   1      51.832  29.143  32.231  1.00  0.00    -0.237 OA
ATOM     84  O   UNL A   1      50.646  28.817  30.111  1.00  0.00    -0.744 OA
ENDBRANCH  78  81
ENDBRANCH  60  74
BRANCH  61  85
ATOM     85  C   UNL A   1      43.832  32.708  28.382  1.00  0.00     0.023 A 
ATOM     86  C   UNL A   1      44.602  32.580  27.210  1.00  0.00     0.012 A 
ATOM     87  C   UNL A   1      43.185  33.942  28.622  1.00  0.00     0.148 A 
ATOM     88  C   UNL A   1      44.709  33.637  26.299  1.00  0.00     0.002 A 
ATOM     89  C   UNL A   1      43.306  34.995  27.722  1.00  0.00     0.091 A 
ATOM     90  F   UNL A   1      42.376  34.051  29.685  1.00  0.00    -0.205 F 
ATOM     91  C   UNL A   1      44.060  34.843  26.552  1.00  0.00     0.022 A 
BRANCH  89  92
ATOM     92  S   UNL A   1      42.479  36.571  27.977  1.00  0.00     0.127 S 
ATOM     93  O   UNL A   1      41.157  36.146  28.440  1.00  0.00    -0.237 OA
ATOM     94  O   UNL A   1      43.317  37.190  29.000  1.00  0.00    -0.237 OA
ATOM     95  O   UNL A   1      42.476  37.235  26.679  1.00  0.00    -0.744 OA
ENDBRANCH  89  92
ENDBRANCH  61  85
BRANCH  73  96
ATOM     96  C   UNL A   1      41.777  29.285  33.221  1.00  0.00     0.023 A 
ATOM     97  C   UNL A   1      41.235  30.101  34.236  1.00  0.00     0.012 A 
ATOM     98  C   UNL A   1      40.919  28.745  32.250  1.00  0.00     0.148 A 
ATOM     99  C   UNL A   1      39.862  30.356  34.288  1.00  0.00     0.002 A 
ATOM    100  C   UNL A   1      39.563  29.043  32.275  1.00  0.00     0.091 A 
ATOM    101  F   UNL A   1      41.452  27.972  31.292  1.00  0.00    -0.205 F 
ATOM    102  C   UNL A   1      39.027  29.840  33.299  1.00  0.00     0.022 A 
BRANCH 100 103
ATOM    103  S   UNL A   1      38.471  28.523  30.950  1.00  0.00     0.127 S 
ATOM    104  O   UNL A   1      37.162  28.933  31.455  1.00  0.00    -0.237 OA
ATOM    105  O   UNL A   1      38.960  29.304  29.813  1.00  0.00    -0.237 OA
ATOM    106  O   UNL A   1      38.669  27.086  30.810  1.00  0.00    -0.744 OA
ENDBRANCH 100 103
ENDBRANCH  73  96
ENDBRANCH  47  48
ENDBRANCH  40  42
ENDBRANCH  39  40
ENDBRANCH  38  39
ENDBRANCH  37  38
ENDBRANCH  36  37
ENDBRANCH  35  36
ENDBRANCH  34  35
ENDBRANCH   1  34
TORSDOF 27
ENDMDL
MODEL 3
REMARK VINA RESULT:      -9.7      3.733      8.582
REMARK SMILES Cc1ncc(CO)c([C@H]2[NH2+][C@@H](C(=O)OCCOCCOCCOCCOC(=O)c3ccc(-c4c5nc(c(-c6cccc(S(=O)(=O)[O-])c6F)c6ccc([nH]6)c(-c6cccc(S(=O)(=O)[O-])c6F)c6nc(c(-c7cccc(S(=O)(=O)[O-])c7F)c7ccc4[nH]7)C=C6)C=C5)cc3)Cc3[nH]cnc32)c1O
REMARK SMILES IDX 20 1 19 2 18 3 17 4 16 5 15 6 14 7 12 8 13 9 11 10 9 11
REMARK SMILES IDX 10 12 97 13 93 16 96 17 92 18 94 19 95 20 8 22 1 23 2 24
REMARK SMILES IDX 3 25 98 26 4 27 5 28 99 29 6 31 7 32 21 34 22 35 23 36 24 37
REMARK SMILES IDX 25 38 26 39 27 40 28 41 29 42 30 43 91 44 31 45 90 46 32 47
REMARK SMILES IDX 33 48 34 49 84 50 35 51 89 52 83 53 85 54 36 55 88 56 82 57
REMARK SMILES IDX 81 58 37 60 69 61 49 62 68 63 50 64 53 65 67 66 86 67 51 68
REMARK SMILES IDX 52 69 66 71 87 72 54 73 38 74 39 75 47 76 40 77 42 78 48 79
REMARK SMILES IDX 41 80 43 81 44 82 45 83 46 84 70 85 71 86 79 87 72 88 74 89
REMARK SMILES IDX 80 90 73 91 75 92 76 93 77 94 78 95 55 96 56 97 64 98 57 99
REMARK SMILES IDX 59 100 65 101 58 102 60 103 61 104 62 105 63 106
REMARK H PARENT 10 14 10 15 94 21 99 30 7 33 85 59 53 70
REMARK Flexibility Score: inf
ROOT
ATOM      1  O   UNL A   1      30.219  29.935  24.234  1.00  0.00    -0.377 OA
ENDROOT
BRANCH   1   2
ATOM      2  C   UNL A   1      30.898  29.251  23.191  1.00  0.00     0.188 C 
BRANCH   2   3
ATOM      3  C   UNL A   1      30.509  27.753  23.011  1.00  0.00     0.188 C 
BRANCH   3   4
ATOM      4  O   UNL A   1      30.673  27.079  21.768  1.00  0.00    -0.376 OA
BRANCH   4   5
ATOM      5  C   UNL A   1      31.404  25.869  21.720  1.00  0.00     0.202 C 
BRANCH   5   6
ATOM      6  C   UNL A   1      32.858  25.887  21.224  1.00  0.00     0.261 C 
BRANCH   6   7
ATOM      7  O   UNL A   1      33.870  25.596  22.200  1.00  0.00    -0.459 OA
BRANCH   7   8
ATOM      8  C   UNL A   1      33.974  26.442  23.268  1.00  0.00     0.365 C 
ATOM      9  O   UNL A   1      33.960  27.664  23.192  1.00  0.00    -0.245 OA
BRANCH   8  10
ATOM     10  C   UNL A   1      34.116  25.629  24.566  1.00  0.00     0.300 C 
ATOM     11  C   UNL A   1      35.074  23.702  25.696  1.00  0.00     0.270 C 
ATOM     12  N   UNL A   1      34.758  24.277  24.359  1.00  0.00    -0.323 N 
ATOM     13  C   UNL A   1      33.772  23.476  26.395  1.00  0.00     0.124 A 
ATOM     14  H   UNL A   1      34.113  23.661  23.862  1.00  0.00     0.347 HD
ATOM     15  H   UNL A   1      35.609  24.371  23.805  1.00  0.00     0.347 HD
ATOM     16  C   UNL A   1      32.728  24.369  26.200  1.00  0.00     0.051 A 
ATOM     17  N   UNL A   1      33.451  22.592  27.390  1.00  0.00    -0.235 NA
ATOM     18  C   UNL A   1      32.717  25.500  25.228  1.00  0.00     0.133 C 
ATOM     19  N   UNL A   1      31.746  24.000  27.061  1.00  0.00    -0.348 N 
ATOM     20  C   UNL A   1      32.226  22.920  27.755  1.00  0.00     0.197 A 
ATOM     21  H   UNL A   1      30.863  24.425  27.167  1.00  0.00     0.167 HD
BRANCH  11  22
ATOM     22  C   UNL A   1      36.110  22.593  25.625  1.00  0.00     0.066 A 
ATOM     23  C   UNL A   1      39.907  22.503  26.307  1.00  0.00     0.071 C 
ATOM     24  C   UNL A   1      38.525  22.114  25.868  1.00  0.00     0.079 A 
ATOM     25  N   UNL A   1      38.374  20.858  25.411  1.00  0.00    -0.257 NA
ATOM     26  C   UNL A   1      37.435  22.980  25.984  1.00  0.00     0.146 A 
ATOM     27  C   UNL A   1      37.122  20.480  25.071  1.00  0.00     0.118 A 
ATOM     28  C   UNL A   1      35.968  21.285  25.130  1.00  0.00     0.009 A 
BRANCH  26  29
ATOM     29  O   UNL A   1      37.675  24.267  26.402  1.00  0.00    -0.505 OA
ATOM     30  H   UNL A   1      37.844  24.940  25.773  1.00  0.00     0.293 HD
ENDBRANCH  26  29
BRANCH  28  31
ATOM     31  C   UNL A   1      34.689  20.639  24.684  1.00  0.00     0.194 C 
BRANCH  31  32
ATOM     32  O   UNL A   1      34.039  20.009  25.792  1.00  0.00    -0.392 OA
ATOM     33  H   UNL A   1      33.900  19.070  25.594  1.00  0.00     0.211 HD
ENDBRANCH  31  32
ENDBRANCH  28  31
ENDBRANCH  11  22
ENDBRANCH   8  10
ENDBRANCH   7   8
ENDBRANCH   6   7
ENDBRANCH   5   6
ENDBRANCH   4   5
ENDBRANCH   3   4
ENDBRANCH   2   3
ENDBRANCH   1   2
BRANCH   1  34
ATOM     34  C   UNL A   1      31.068  30.444  25.256  1.00  0.00     0.188 C 
BRANCH  34  35
ATOM     35  C   UNL A   1      32.466  29.793  25.353  1.00  0.00     0.188 C 
BRANCH  35  36
ATOM     36  O   UNL A   1      33.003  29.765  26.671  1.00  0.00    -0.376 OA
BRANCH  36  37
ATOM     37  C   UNL A   1      34.319  29.309  26.936  1.00  0.00     0.202 C 
BRANCH  37  38
ATOM     38  C   UNL A   1      35.240  30.280  27.671  1.00  0.00     0.261 C 
BRANCH  38  39
ATOM     39  O   UNL A   1      35.695  29.788  28.916  1.00  0.00    -0.460 OA
BRANCH  39  40
ATOM     40  C   UNL A   1      36.906  30.226  29.282  1.00  0.00     0.338 C 
ATOM     41  O   UNL A   1      37.186  31.306  29.801  1.00  0.00    -0.246 OA
BRANCH  40  42
ATOM     42  C   UNL A   1      37.897  29.240  28.875  1.00  0.00     0.060 A 
ATOM     43  C   UNL A   1      38.277  28.324  29.853  1.00  0.00     0.016 A 
ATOM     44  C   UNL A   1      38.668  29.510  27.734  1.00  0.00     0.016 A 
ATOM     45  C   UNL A   1      39.582  27.918  29.850  1.00  0.00     0.010 A 
ATOM     46  C   UNL A   1      39.978  29.123  27.744  1.00  0.00     0.010 A 
ATOM     47  C   UNL A   1      40.429  28.428  28.859  1.00  0.00    -0.014 A 
BRANCH  47  48
ATOM     48  C   UNL A   1      41.834  28.156  28.996  1.00  0.00     0.031 A 
ATOM     49  C   UNL A   1      42.250  27.040  28.132  1.00  0.00     0.074 A 
ATOM     50  C   UNL A   1      42.620  28.902  29.791  1.00  0.00     0.049 A 
ATOM     51  N   UNL A   1      42.566  25.845  28.501  1.00  0.00    -0.248 NA
ATOM     52  C   UNL A   1      42.048  27.197  26.684  1.00  0.00     0.031 C 
ATOM     53  C   UNL A   1      42.298  30.180  30.434  1.00  0.00     0.029 A 
ATOM     54  N   UNL A   1      43.938  28.740  30.067  1.00  0.00    -0.354 N 
ATOM     55  C   UNL A   1      42.869  25.185  27.317  1.00  0.00     0.074 A 
ATOM     56  C   UNL A   1      42.278  25.955  26.260  1.00  0.00     0.031 C 
ATOM     57  C   UNL A   1      43.450  30.793  30.787  1.00  0.00     0.029 A 
ATOM     58  C   UNL A   1      44.561  29.901  30.505  1.00  0.00     0.049 A 
ATOM     59  H   UNL A   1      44.408  27.881  29.966  1.00  0.00     0.167 HD
ATOM     60  C   UNL A   1      43.864  24.261  27.282  1.00  0.00     0.034 A 
ATOM     61  C   UNL A   1      45.897  30.131  30.512  1.00  0.00     0.034 A 
ATOM     62  C   UNL A   1      44.187  23.796  28.608  1.00  0.00     0.049 A 
ATOM     63  C   UNL A   1      46.575  28.815  30.413  1.00  0.00     0.074 A 
ATOM     64  C   UNL A   1      43.484  23.183  29.626  1.00  0.00     0.029 A 
ATOM     65  N   UNL A   1      45.323  24.317  29.182  1.00  0.00    -0.354 N 
ATOM     66  N   UNL A   1      46.537  27.913  31.354  1.00  0.00    -0.248 NA
ATOM     67  C   UNL A   1      46.917  28.320  29.088  1.00  0.00     0.031 C 
ATOM     68  C   UNL A   1      44.013  23.735  30.828  1.00  0.00     0.029 A 
ATOM     69  C   UNL A   1      45.050  24.608  30.490  1.00  0.00     0.049 A 
ATOM     70  H   UNL A   1      46.185  24.457  28.728  1.00  0.00     0.167 HD
ATOM     71  C   UNL A   1      46.387  26.710  30.673  1.00  0.00     0.074 A 
ATOM     72  C   UNL A   1      46.748  27.010  29.290  1.00  0.00     0.031 C 
ATOM     73  C   UNL A   1      45.694  25.673  31.230  1.00  0.00     0.034 A 
BRANCH  60  74
ATOM     74  C   UNL A   1      44.829  24.103  26.128  1.00  0.00     0.023 A 
ATOM     75  C   UNL A   1      45.023  22.792  25.642  1.00  0.00     0.012 A 
ATOM     76  C   UNL A   1      45.749  25.087  25.692  1.00  0.00     0.148 A 
ATOM     77  C   UNL A   1      46.113  22.465  24.830  1.00  0.00     0.002 A 
ATOM     78  C   UNL A   1      46.783  24.775  24.819  1.00  0.00     0.091 A 
ATOM     79  F   UNL A   1      45.734  26.314  26.213  1.00  0.00    -0.205 F 
ATOM     80  C   UNL A   1      46.992  23.457  24.414  1.00  0.00     0.022 A 
BRANCH  78  81
ATOM     81  S   UNL A   1      47.916  26.035  24.219  1.00  0.00     0.127 S 
ATOM     82  O   UNL A   1      48.984  25.965  25.212  1.00  0.00    -0.237 OA
ATOM     83  O   UNL A   1      48.261  25.518  22.895  1.00  0.00    -0.237 OA
ATOM     84  O   UNL A   1      47.150  27.276  24.191  1.00  0.00    -0.744 OA
ENDBRANCH  78  81
ENDBRANCH  60  74
BRANCH  61  85
ATOM     85  C   UNL A   1      46.617  31.405  30.286  1.00  0.00     0.023 A 
ATOM     86  C   UNL A   1      47.545  31.864  31.241  1.00  0.00     0.012 A 
ATOM     87  C   UNL A   1      46.595  32.038  29.023  1.00  0.00     0.148 A 
ATOM     88  C   UNL A   1      48.432  32.905  30.943  1.00  0.00     0.002 A 
ATOM     89  C   UNL A   1      47.467  33.082  28.734  1.00  0.00     0.091 A 
ATOM     90  F   UNL A   1      45.783  31.556  28.072  1.00  0.00    -0.205 F 
ATOM     91  C   UNL A   1      48.396  33.512  29.690  1.00  0.00     0.022 A 
BRANCH  89  92
ATOM     92  S   UNL A   1      47.489  33.897  27.132  1.00  0.00     0.127 S 
ATOM     93  O   UNL A   1      47.862  32.798  26.241  1.00  0.00    -0.237 OA
ATOM     94  O   UNL A   1      46.106  34.348  27.003  1.00  0.00    -0.237 OA
ATOM     95  O   UNL A   1      48.489  34.953  27.234  1.00  0.00    -0.744 OA
ENDBRANCH  89  92
ENDBRANCH  61  85
BRANCH  73  96
ATOM     96  C   UNL A   1      45.357  25.753  32.698  1.00  0.00     0.023 A 
ATOM     97  C   UNL A   1      44.182  26.369  33.176  1.00  0.00     0.012 A 
ATOM     98  C   UNL A   1      46.156  25.023  33.593  1.00  0.00     0.148 A 
ATOM     99  C   UNL A   1      43.824  26.272  34.524  1.00  0.00     0.002 A 
ATOM    100  C   UNL A   1      45.770  24.886  34.919  1.00  0.00     0.091 A 
ATOM    101  F   UNL A   1      47.270  24.444  33.120  1.00  0.00    -0.205 F 
ATOM    102  C   UNL A   1      44.610  25.518  35.393  1.00  0.00     0.022 A 
BRANCH 100 103
ATOM    103  S   UNL A   1      46.667  23.813  36.044  1.00  0.00     0.127 S 
ATOM    104  O   UNL A   1      46.357  22.488  35.512  1.00  0.00    -0.237 OA
ATOM    105  O   UNL A   1      48.053  24.242  35.850  1.00  0.00    -0.237 OA
ATOM    106  O   UNL A   1      46.140  24.097  37.373  1.00  0.00    -0.744 OA
ENDBRANCH 100 103
ENDBRANCH  73  96
ENDBRANCH  47  48
ENDBRANCH  40  42
ENDBRANCH  39  40
ENDBRANCH  38  39
ENDBRANCH  37  38
ENDBRANCH  36  37
ENDBRANCH  35  36
ENDBRANCH  34  35
ENDBRANCH   1  34
TORSDOF 27
ENDMDL
