MODEL 1
REMARK VINA RESULT:      -8.0      0.000      0.000
REMARK SMILES Cc1cc2c(c(C)c1Br)C=C(C(=O)OCCOCCOCCOCCOC(=O)c1ccc(-c3c4nc(c(-c5cccc(S(=O)(=O)[O-])c5F)c5ccc([nH]5)c(-c5cccc(S(=O)(=O)[O-])c5F)c5nc(c(-c6cccc(S(=O)(=O)[O-])c6F)c6ccc3[nH]6)C=C5)C=C4)cc1)[C@@H](C(F)(F)F)O2
REMARK SMILES IDX 21 1 20 2 19 3 18 4 17 5 16 6 15 7 14 8 12 9 13 10 11 11
REMARK SMILES IDX 1 12 2 13 3 14 8 15 4 16 6 17 9 18 5 19 97 20 7 21 10 22
REMARK SMILES IDX 92 23 93 24 94 25 95 26 96 27 22 28 23 29 24 30 25 31 26 32
REMARK SMILES IDX 27 33 28 34 29 35 30 36 91 37 31 38 90 39 32 40 33 41 34 42
REMARK SMILES IDX 84 43 35 44 89 45 83 46 85 47 36 48 88 49 82 50 81 51 37 53
REMARK SMILES IDX 69 54 49 55 68 56 50 57 53 58 67 59 86 60 51 61 52 62 66 64
REMARK SMILES IDX 87 65 54 66 38 67 39 68 47 69 40 70 42 71 48 72 41 73 43 74
REMARK SMILES IDX 44 75 45 76 46 77 70 78 71 79 79 80 72 81 74 82 80 83 73 84
REMARK SMILES IDX 75 85 76 86 77 87 78 88 55 89 56 90 64 91 57 92 59 93 65 94
REMARK SMILES IDX 58 95 60 96 61 97 62 98 63 99
REMARK H PARENT 85 52 53 63
REMARK Flexibility Score: inf
ROOT
ATOM      1  C   UNL A   1      42.699  22.629  26.802  1.00  0.00     0.188 C 
ENDROOT
BRANCH   1   2
ATOM      2  O   UNL A   1      41.446  23.315  26.764  1.00  0.00    -0.377 OA
BRANCH   2   3
ATOM      3  C   UNL A   1      41.415  24.679  27.144  1.00  0.00     0.188 C 
BRANCH   3   4
ATOM      4  C   UNL A   1      40.709  25.581  26.114  1.00  0.00     0.188 C 
BRANCH   4   5
ATOM      5  O   UNL A   1      40.913  26.965  26.339  1.00  0.00    -0.376 OA
BRANCH   5   6
ATOM      6  C   UNL A   1      40.045  27.707  27.181  1.00  0.00     0.202 C 
BRANCH   6   7
ATOM      7  C   UNL A   1      40.372  28.096  28.636  1.00  0.00     0.261 C 
BRANCH   7   8
ATOM      8  O   UNL A   1      39.488  29.011  29.284  1.00  0.00    -0.460 OA
BRANCH   8   9
ATOM      9  C   UNL A   1      38.554  28.509  30.109  1.00  0.00     0.338 C 
ATOM     10  O   UNL A   1      38.524  27.390  30.589  1.00  0.00    -0.246 OA
BRANCH   9  11
ATOM     11  C   UNL A   1      37.663  29.624  30.500  1.00  0.00     0.087 C 
ATOM     12  C   UNL A   1      34.037  34.949  30.851  1.00  0.00     0.046 C 
ATOM     13  C   UNL A   1      34.616  33.607  30.490  1.00  0.00    -0.033 A 
ATOM     14  C   UNL A   1      35.396  32.954  31.451  1.00  0.00     0.051 A 
ATOM     15  C   UNL A   1      34.397  32.975  29.248  1.00  0.00     0.024 A 
ATOM     16  C   UNL A   1      36.060  31.769  31.150  1.00  0.00     0.128 A 
ATOM     17  C   UNL A   1      35.047  31.756  28.931  1.00  0.00    -0.026 A 
ATOM     18  Br  UNL A   1      33.219  33.813  27.994  1.00  0.00    -0.050 Br
ATOM     19  C   UNL A   1      35.945  31.200  29.879  1.00  0.00     0.021 A 
ATOM     20  O   UNL A   1      36.810  31.256  32.168  1.00  0.00    -0.475 OA
ATOM     21  C   UNL A   1      34.807  31.022  27.632  1.00  0.00     0.046 C 
ATOM     22  C   UNL A   1      36.829  30.083  29.559  1.00  0.00     0.027 C 
ATOM     23  C   UNL A   1      37.681  30.123  31.919  1.00  0.00     0.316 C 
BRANCH  23  24
ATOM     24  C   UNL A   1      39.094  30.505  32.383  1.00  0.00     0.430 C 
ATOM     25  F   UNL A   1      39.786  29.418  32.797  1.00  0.00    -0.167 F 
ATOM     26  F   UNL A   1      39.811  31.088  31.399  1.00  0.00    -0.167 F 
ATOM     27  F   UNL A   1      39.049  31.375  33.421  1.00  0.00    -0.167 F 
ENDBRANCH  23  24
ENDBRANCH   9  11
ENDBRANCH   8   9
ENDBRANCH   7   8
ENDBRANCH   6   7
ENDBRANCH   5   6
ENDBRANCH   4   5
ENDBRANCH   3   4
ENDBRANCH   2   3
ENDBRANCH   1   2
BRANCH   1  28
ATOM     28  C   UNL A   1      43.253  21.864  25.574  1.00  0.00     0.188 C 
BRANCH  28  29
ATOM     29  O   UNL A   1      44.581  21.375  25.730  1.00  0.00    -0.376 OA
BRANCH  29  30
ATOM     30  C   UNL A   1      45.459  21.480  24.621  1.00  0.00     0.202 C 
BRANCH  30  31
ATOM     31  C   UNL A   1      45.845  22.905  24.205  1.00  0.00     0.261 C 
BRANCH  31  32
ATOM     32  O   UNL A   1      45.685  23.912  25.214  1.00  0.00    -0.460 OA
BRANCH  32  33
ATOM     33  C   UNL A   1      46.435  25.030  25.103  1.00  0.00     0.338 C 
ATOM     34  O   UNL A   1      47.263  25.277  24.243  1.00  0.00    -0.246 OA
BRANCH  33  35
ATOM     35  C   UNL A   1      45.933  25.999  26.098  1.00  0.00     0.060 A 
ATOM     36  C   UNL A   1      46.842  26.604  26.977  1.00  0.00     0.016 A 
ATOM     37  C   UNL A   1      44.576  26.323  26.147  1.00  0.00     0.016 A 
ATOM     38  C   UNL A   1      46.385  27.515  27.930  1.00  0.00     0.010 A 
ATOM     39  C   UNL A   1      44.117  27.216  27.118  1.00  0.00     0.010 A 
ATOM     40  C   UNL A   1      45.016  27.788  28.034  1.00  0.00    -0.014 A 
BRANCH  40  41
ATOM     41  C   UNL A   1      44.498  28.496  29.229  1.00  0.00     0.031 A 
ATOM     42  C   UNL A   1      44.345  27.711  30.503  1.00  0.00     0.074 A 
ATOM     43  C   UNL A   1      44.180  29.803  29.193  1.00  0.00     0.049 A 
ATOM     44  N   UNL A   1      43.889  28.097  31.664  1.00  0.00    -0.248 NA
ATOM     45  C   UNL A   1      44.764  26.298  30.462  1.00  0.00     0.031 C 
ATOM     46  C   UNL A   1      44.305  30.673  28.025  1.00  0.00     0.029 A 
ATOM     47  N   UNL A   1      43.667  30.621  30.170  1.00  0.00    -0.354 N 
ATOM     48  C   UNL A   1      43.948  26.977  32.484  1.00  0.00     0.074 A 
ATOM     49  C   UNL A   1      44.468  25.890  31.687  1.00  0.00     0.031 C 
ATOM     50  C   UNL A   1      43.859  31.899  28.348  1.00  0.00     0.029 A 
ATOM     51  C   UNL A   1      43.393  31.896  29.734  1.00  0.00     0.049 A 
ATOM     52  H   UNL A   1      43.511  30.322  31.096  1.00  0.00     0.167 HD
ATOM     53  C   UNL A   1      43.617  26.869  33.791  1.00  0.00     0.034 A 
ATOM     54  C   UNL A   1      42.815  32.932  30.378  1.00  0.00     0.034 A 
ATOM     55  C   UNL A   1      43.117  27.955  34.586  1.00  0.00     0.049 A 
ATOM     56  C   UNL A   1      42.409  32.769  31.823  1.00  0.00     0.074 A 
ATOM     57  C   UNL A   1      42.782  27.948  35.928  1.00  0.00     0.029 A 
ATOM     58  N   UNL A   1      42.868  29.235  34.115  1.00  0.00    -0.354 N 
ATOM     59  N   UNL A   1      42.569  31.735  32.614  1.00  0.00    -0.248 NA
ATOM     60  C   UNL A   1      41.767  33.923  32.473  1.00  0.00     0.031 C 
ATOM     61  C   UNL A   1      42.300  29.217  36.263  1.00  0.00     0.029 A 
ATOM     62  C   UNL A   1      42.370  30.023  35.138  1.00  0.00     0.049 A 
ATOM     63  H   UNL A   1      43.023  29.537  33.191  1.00  0.00     0.167 HD
ATOM     64  C   UNL A   1      42.081  32.125  33.858  1.00  0.00     0.074 A 
ATOM     65  C   UNL A   1      41.641  33.496  33.722  1.00  0.00     0.031 C 
ATOM     66  C   UNL A   1      41.989  31.406  35.005  1.00  0.00     0.034 A 
BRANCH  53  67
ATOM     67  C   UNL A   1      43.818  25.539  34.465  1.00  0.00     0.023 A 
ATOM     68  C   UNL A   1      42.766  24.603  34.478  1.00  0.00     0.012 A 
ATOM     69  C   UNL A   1      45.075  25.178  34.986  1.00  0.00     0.148 A 
ATOM     70  C   UNL A   1      42.958  23.329  35.011  1.00  0.00     0.002 A 
ATOM     71  C   UNL A   1      45.274  23.892  35.471  1.00  0.00     0.091 A 
ATOM     72  F   UNL A   1      46.054  26.094  34.983  1.00  0.00    -0.205 F 
ATOM     73  C   UNL A   1      44.214  22.969  35.493  1.00  0.00     0.022 A 
BRANCH  71  74
ATOM     74  S   UNL A   1      46.873  23.300  36.031  1.00  0.00     0.127 S 
ATOM     75  O   UNL A   1      46.494  22.124  36.815  1.00  0.00    -0.237 OA
ATOM     76  O   UNL A   1      47.546  22.998  34.767  1.00  0.00    -0.237 OA
ATOM     77  O   UNL A   1      47.463  24.388  36.797  1.00  0.00    -0.744 OA
ENDBRANCH  71  74
ENDBRANCH  53  67
BRANCH  54  78
ATOM     78  C   UNL A   1      42.616  34.233  29.674  1.00  0.00     0.023 A 
ATOM     79  C   UNL A   1      41.380  34.504  29.052  1.00  0.00     0.012 A 
ATOM     80  C   UNL A   1      43.632  35.207  29.626  1.00  0.00     0.148 A 
ATOM     81  C   UNL A   1      41.171  35.706  28.374  1.00  0.00     0.002 A 
ATOM     82  C   UNL A   1      43.397  36.426  29.002  1.00  0.00     0.091 A 
ATOM     83  F   UNL A   1      44.809  34.923  30.204  1.00  0.00    -0.205 F 
ATOM     84  C   UNL A   1      42.174  36.671  28.360  1.00  0.00     0.022 A 
BRANCH  82  85
ATOM     85  S   UNL A   1      44.579  37.778  29.046  1.00  0.00     0.127 S 
ATOM     86  O   UNL A   1      45.658  37.260  28.207  1.00  0.00    -0.237 OA
ATOM     87  O   UNL A   1      43.806  38.869  28.453  1.00  0.00    -0.237 OA
ATOM     88  O   UNL A   1      44.909  37.967  30.452  1.00  0.00    -0.744 OA
ENDBRANCH  82  85
ENDBRANCH  54  78
BRANCH  66  89
ATOM     89  C   UNL A   1      41.415  32.076  36.229  1.00  0.00     0.023 A 
ATOM     90  C   UNL A   1      42.204  32.984  36.962  1.00  0.00     0.012 A 
ATOM     91  C   UNL A   1      40.059  31.906  36.572  1.00  0.00     0.148 A 
ATOM     92  C   UNL A   1      41.659  33.695  38.030  1.00  0.00     0.002 A 
ATOM     93  C   UNL A   1      39.508  32.658  37.602  1.00  0.00     0.091 A 
ATOM     94  F   UNL A   1      39.327  31.029  35.869  1.00  0.00    -0.205 F 
ATOM     95  C   UNL A   1      40.309  33.544  38.341  1.00  0.00     0.022 A 
BRANCH  93  96
ATOM     96  S   UNL A   1      37.756  32.617  38.004  1.00  0.00     0.127 S 
ATOM     97  O   UNL A   1      37.581  31.230  38.431  1.00  0.00    -0.237 OA
ATOM     98  O   UNL A   1      37.663  33.603  39.081  1.00  0.00    -0.237 OA
ATOM     99  O   UNL A   1      37.054  32.985  36.782  1.00  0.00    -0.744 OA
ENDBRANCH  93  96
ENDBRANCH  66  89
ENDBRANCH  40  41
ENDBRANCH  33  35
ENDBRANCH  32  33
ENDBRANCH  31  32
ENDBRANCH  30  31
ENDBRANCH  29  30
ENDBRANCH  28  29
ENDBRANCH   1  28
TORSDOF 24
ENDMDL
MODEL 2
REMARK VINA RESULT:      -7.8      5.374     10.771
REMARK SMILES Cc1cc2c(c(C)c1Br)C=C(C(=O)OCCOCCOCCOCCOC(=O)c1ccc(-c3c4nc(c(-c5cccc(S(=O)(=O)[O-])c5F)c5ccc([nH]5)c(-c5cccc(S(=O)(=O)[O-])c5F)c5nc(c(-c6cccc(S(=O)(=O)[O-])c6F)c6ccc3[nH]6)C=C5)C=C4)cc1)[C@@H](C(F)(F)F)O2
REMARK SMILES IDX 21 1 20 2 19 3 18 4 17 5 16 6 15 7 14 8 12 9 13 10 11 11
REMARK SMILES IDX 1 12 2 13 3 14 8 15 4 16 6 17 9 18 5 19 97 20 7 21 10 22
REMARK SMILES IDX 92 23 93 24 94 25 95 26 96 27 22 28 23 29 24 30 25 31 26 32
REMARK SMILES IDX 27 33 28 34 29 35 30 36 91 37 31 38 90 39 32 40 33 41 34 42
REMARK SMILES IDX 84 43 35 44 89 45 83 46 85 47 36 48 88 49 82 50 81 51 37 53
REMARK SMILES IDX 69 54 49 55 68 56 50 57 53 58 67 59 86 60 51 61 52 62 66 64
REMARK SMILES IDX 87 65 54 66 38 67 39 68 47 69 40 70 42 71 48 72 41 73 43 74
REMARK SMILES IDX 44 75 45 76 46 77 70 78 71 79 79 80 72 81 74 82 80 83 73 84
REMARK SMILES IDX 75 85 76 86 77 87 78 88 55 89 56 90 64 91 57 92 59 93 65 94
REMARK SMILES IDX 58 95 60 96 61 97 62 98 63 99
REMARK H PARENT 85 52 53 63
REMARK Flexibility Score: inf
ROOT
ATOM      1  C   UNL A   1      34.597  29.109  26.869  1.00  0.00     0.188 C 
ENDROOT
BRANCH   1   2
ATOM      2  O   UNL A   1      33.188  29.001  26.661  1.00  0.00    -0.377 OA
BRANCH   2   3
ATOM      3  C   UNL A   1      32.565  29.927  25.789  1.00  0.00     0.188 C 
BRANCH   3   4
ATOM      4  C   UNL A   1      31.571  29.269  24.813  1.00  0.00     0.188 C 
BRANCH   4   5
ATOM      5  O   UNL A   1      32.197  28.515  23.790  1.00  0.00    -0.376 OA
BRANCH   5   6
ATOM      6  C   UNL A   1      31.470  27.558  23.034  1.00  0.00     0.202 C 
BRANCH   6   7
ATOM      7  C   UNL A   1      30.692  26.378  23.648  1.00  0.00     0.261 C 
BRANCH   7   8
ATOM      8  O   UNL A   1      31.280  25.081  23.543  1.00  0.00    -0.460 OA
BRANCH   8   9
ATOM      9  C   UNL A   1      31.401  24.351  24.665  1.00  0.00     0.338 C 
ATOM     10  O   UNL A   1      30.571  24.216  25.546  1.00  0.00    -0.246 OA
BRANCH   9  11
ATOM     11  C   UNL A   1      32.652  23.569  24.550  1.00  0.00     0.087 C 
ATOM     12  C   UNL A   1      37.447  19.276  24.994  1.00  0.00     0.046 C 
ATOM     13  C   UNL A   1      36.133  19.964  24.739  1.00  0.00    -0.033 A 
ATOM     14  C   UNL A   1      36.148  21.353  24.564  1.00  0.00     0.051 A 
ATOM     15  C   UNL A   1      34.903  19.281  24.652  1.00  0.00     0.024 A 
ATOM     16  C   UNL A   1      34.963  22.072  24.443  1.00  0.00     0.128 A 
ATOM     17  C   UNL A   1      33.687  19.994  24.506  1.00  0.00    -0.026 A 
ATOM     18  Br  UNL A   1      34.912  17.370  24.757  1.00  0.00    -0.050 Br
ATOM     19  C   UNL A   1      33.732  21.412  24.479  1.00  0.00     0.021 A 
ATOM     20  O   UNL A   1      35.120  23.421  24.310  1.00  0.00    -0.475 OA
ATOM     21  C   UNL A   1      32.351  19.301  24.364  1.00  0.00     0.046 C 
ATOM     22  C   UNL A   1      32.528  22.236  24.563  1.00  0.00     0.027 C 
ATOM     23  C   UNL A   1      33.958  24.288  24.349  1.00  0.00     0.316 C 
BRANCH  23  24
ATOM     24  C   UNL A   1      34.204  25.356  25.425  1.00  0.00     0.430 C 
ATOM     25  F   UNL A   1      34.024  26.602  24.930  1.00  0.00    -0.167 F 
ATOM     26  F   UNL A   1      33.371  25.217  26.479  1.00  0.00    -0.167 F 
ATOM     27  F   UNL A   1      35.471  25.288  25.899  1.00  0.00    -0.167 F 
ENDBRANCH  23  24
ENDBRANCH   9  11
ENDBRANCH   8   9
ENDBRANCH   7   8
ENDBRANCH   6   7
ENDBRANCH   5   6
ENDBRANCH   4   5
ENDBRANCH   3   4
ENDBRANCH   2   3
ENDBRANCH   1   2
BRANCH   1  28
ATOM     28  C   UNL A   1      35.191  29.845  28.095  1.00  0.00     0.188 C 
BRANCH  28  29
ATOM     29  O   UNL A   1      35.282  31.258  27.952  1.00  0.00    -0.376 OA
BRANCH  29  30
ATOM     30  C   UNL A   1      34.255  32.049  28.526  1.00  0.00     0.202 C 
BRANCH  30  31
ATOM     31  C   UNL A   1      34.545  32.611  29.924  1.00  0.00     0.261 C 
BRANCH  31  32
ATOM     32  O   UNL A   1      34.977  31.655  30.901  1.00  0.00    -0.460 OA
BRANCH  32  33
ATOM     33  C   UNL A   1      35.860  32.073  31.834  1.00  0.00     0.338 C 
ATOM     34  O   UNL A   1      35.608  32.474  32.957  1.00  0.00    -0.246 OA
BRANCH  33  35
ATOM     35  C   UNL A   1      37.214  31.770  31.328  1.00  0.00     0.060 A 
ATOM     36  C   UNL A   1      37.690  32.456  30.203  1.00  0.00     0.016 A 
ATOM     37  C   UNL A   1      38.016  30.827  31.977  1.00  0.00     0.016 A 
ATOM     38  C   UNL A   1      38.962  32.176  29.705  1.00  0.00     0.010 A 
ATOM     39  C   UNL A   1      39.280  30.531  31.461  1.00  0.00     0.010 A 
ATOM     40  C   UNL A   1      39.743  31.180  30.304  1.00  0.00    -0.014 A 
BRANCH  40  41
ATOM     41  C   UNL A   1      40.941  30.665  29.600  1.00  0.00     0.031 A 
ATOM     42  C   UNL A   1      40.873  29.283  29.009  1.00  0.00     0.074 A 
ATOM     43  C   UNL A   1      42.061  31.402  29.478  1.00  0.00     0.049 A 
ATOM     44  N   UNL A   1      41.793  28.606  28.377  1.00  0.00    -0.248 NA
ATOM     45  C   UNL A   1      39.591  28.568  29.150  1.00  0.00     0.031 C 
ATOM     46  C   UNL A   1      42.239  32.759  29.989  1.00  0.00     0.029 A 
ATOM     47  N   UNL A   1      43.266  31.098  28.896  1.00  0.00    -0.354 N 
ATOM     48  C   UNL A   1      41.212  27.384  28.061  1.00  0.00     0.074 A 
ATOM     49  C   UNL A   1      39.866  27.402  28.584  1.00  0.00     0.031 C 
ATOM     50  C   UNL A   1      43.493  33.163  29.717  1.00  0.00     0.029 A 
ATOM     51  C   UNL A   1      44.212  32.087  29.037  1.00  0.00     0.049 A 
ATOM     52  H   UNL A   1      43.438  30.251  28.422  1.00  0.00     0.167 HD
ATOM     53  C   UNL A   1      41.747  26.347  27.378  1.00  0.00     0.034 A 
ATOM     54  C   UNL A   1      45.511  32.108  28.675  1.00  0.00     0.034 A 
ATOM     55  C   UNL A   1      43.080  26.337  26.844  1.00  0.00     0.049 A 
ATOM     56  C   UNL A   1      46.097  30.916  27.958  1.00  0.00     0.074 A 
ATOM     57  C   UNL A   1      43.700  25.341  26.111  1.00  0.00     0.029 A 
ATOM     58  N   UNL A   1      44.002  27.361  26.992  1.00  0.00    -0.354 N 
ATOM     59  N   UNL A   1      45.506  29.810  27.573  1.00  0.00    -0.248 NA
ATOM     60  C   UNL A   1      47.523  30.983  27.600  1.00  0.00     0.031 C 
ATOM     61  C   UNL A   1      45.009  25.750  25.842  1.00  0.00     0.029 A 
ATOM     62  C   UNL A   1      45.191  27.016  26.376  1.00  0.00     0.049 A 
ATOM     63  H   UNL A   1      43.834  28.208  27.465  1.00  0.00     0.167 HD
ATOM     64  C   UNL A   1      46.474  29.069  26.902  1.00  0.00     0.074 A 
ATOM     65  C   UNL A   1      47.685  29.861  26.911  1.00  0.00     0.031 C 
ATOM     66  C   UNL A   1      46.374  27.837  26.342  1.00  0.00     0.034 A 
BRANCH  53  67
ATOM     67  C   UNL A   1      40.883  25.141  27.131  1.00  0.00     0.023 A 
ATOM     68  C   UNL A   1      39.624  25.303  26.520  1.00  0.00     0.012 A 
ATOM     69  C   UNL A   1      41.360  23.844  27.401  1.00  0.00     0.148 A 
ATOM     70  C   UNL A   1      38.846  24.193  26.193  1.00  0.00     0.002 A 
ATOM     71  C   UNL A   1      40.603  22.741  27.029  1.00  0.00     0.091 A 
ATOM     72  F   UNL A   1      42.551  23.715  28.003  1.00  0.00    -0.205 F 
ATOM     73  C   UNL A   1      39.341  22.914  26.433  1.00  0.00     0.022 A 
BRANCH  71  74
ATOM     74  S   UNL A   1      41.186  21.053  27.212  1.00  0.00     0.127 S 
ATOM     75  O   UNL A   1      40.881  20.786  28.617  1.00  0.00    -0.237 OA
ATOM     76  O   UNL A   1      40.342  20.333  26.258  1.00  0.00    -0.237 OA
ATOM     77  O   UNL A   1      42.604  21.076  26.881  1.00  0.00    -0.744 OA
ENDBRANCH  71  74
ENDBRANCH  53  67
BRANCH  54  78
ATOM     78  C   UNL A   1      46.346  33.315  28.950  1.00  0.00     0.023 A 
ATOM     79  C   UNL A   1      46.974  33.453  30.204  1.00  0.00     0.012 A 
ATOM     80  C   UNL A   1      46.531  34.319  27.979  1.00  0.00     0.148 A 
ATOM     81  C   UNL A   1      47.748  34.578  30.494  1.00  0.00     0.002 A 
ATOM     82  C   UNL A   1      47.351  35.407  28.253  1.00  0.00     0.091 A 
ATOM     83  F   UNL A   1      45.906  34.183  26.800  1.00  0.00    -0.205 F 
ATOM     84  C   UNL A   1      47.946  35.548  29.515  1.00  0.00     0.022 A 
BRANCH  82  85
ATOM     85  S   UNL A   1      47.770  36.636  27.013  1.00  0.00     0.127 S 
ATOM     86  O   UNL A   1      48.656  35.882  26.129  1.00  0.00    -0.237 OA
ATOM     87  O   UNL A   1      46.457  36.950  26.448  1.00  0.00    -0.237 OA
ATOM     88  O   UNL A   1      48.391  37.734  27.741  1.00  0.00    -0.744 OA
ENDBRANCH  82  85
ENDBRANCH  54  78
BRANCH  66  89
ATOM     89  C   UNL A   1      47.591  27.256  25.666  1.00  0.00     0.023 A 
ATOM     90  C   UNL A   1      47.739  27.381  24.270  1.00  0.00     0.012 A 
ATOM     91  C   UNL A   1      48.642  26.704  26.426  1.00  0.00     0.148 A 
ATOM     92  C   UNL A   1      48.905  26.946  23.640  1.00  0.00     0.002 A 
ATOM     93  C   UNL A   1      49.822  26.324  25.798  1.00  0.00     0.091 A 
ATOM     94  F   UNL A   1      48.476  26.583  27.751  1.00  0.00    -0.205 F 
ATOM     95  C   UNL A   1      49.950  26.433  24.404  1.00  0.00     0.022 A 
BRANCH  93  96
ATOM     96  S   UNL A   1      51.265  25.757  26.707  1.00  0.00     0.127 S 
ATOM     97  O   UNL A   1      50.768  24.526  27.318  1.00  0.00    -0.237 OA
ATOM     98  O   UNL A   1      52.244  25.557  25.639  1.00  0.00    -0.237 OA
ATOM     99  O   UNL A   1      51.597  26.824  27.642  1.00  0.00    -0.744 OA
ENDBRANCH  93  96
ENDBRANCH  66  89
ENDBRANCH  40  41
ENDBRANCH  33  35
ENDBRANCH  32  33
ENDBRANCH  31  32
ENDBRANCH  30  31
ENDBRANCH  29  30
ENDBRANCH  28  29
ENDBRANCH   1  28
TORSDOF 24
ENDMDL
MODEL 3
REMARK VINA RESULT:      -7.6      5.336     11.247
REMARK SMILES Cc1cc2c(c(C)c1Br)C=C(C(=O)OCCOCCOCCOCCOC(=O)c1ccc(-c3c4nc(c(-c5cccc(S(=O)(=O)[O-])c5F)c5ccc([nH]5)c(-c5cccc(S(=O)(=O)[O-])c5F)c5nc(c(-c6cccc(S(=O)(=O)[O-])c6F)c6ccc3[nH]6)C=C5)C=C4)cc1)[C@@H](C(F)(F)F)O2
REMARK SMILES IDX 21 1 20 2 19 3 18 4 17 5 16 6 15 7 14 8 12 9 13 10 11 11
REMARK SMILES IDX 1 12 2 13 3 14 8 15 4 16 6 17 9 18 5 19 97 20 7 21 10 22
REMARK SMILES IDX 92 23 93 24 94 25 95 26 96 27 22 28 23 29 24 30 25 31 26 32
REMARK SMILES IDX 27 33 28 34 29 35 30 36 91 37 31 38 90 39 32 40 33 41 34 42
REMARK SMILES IDX 84 43 35 44 89 45 83 46 85 47 36 48 88 49 82 50 81 51 37 53
REMARK SMILES IDX 69 54 49 55 68 56 50 57 53 58 67 59 86 60 51 61 52 62 66 64
REMARK SMILES IDX 87 65 54 66 38 67 39 68 47 69 40 70 42 71 48 72 41 73 43 74
REMARK SMILES IDX 44 75 45 76 46 77 70 78 71 79 79 80 72 81 74 82 80 83 73 84
REMARK SMILES IDX 75 85 76 86 77 87 78 88 55 89 56 90 64 91 57 92 59 93 65 94
REMARK SMILES IDX 58 95 60 96 61 97 62 98 63 99
REMARK H PARENT 85 52 53 63
REMARK Flexibility Score: inf
ROOT
ATOM      1  C   UNL A   1      36.517  33.171  28.219  1.00  0.00     0.188 C 
ENDROOT
BRANCH   1   2
ATOM      2  O   UNL A   1      35.283  33.386  27.534  1.00  0.00    -0.377 OA
BRANCH   2   3
ATOM      3  C   UNL A   1      34.077  33.078  28.210  1.00  0.00     0.188 C 
BRANCH   3   4
ATOM      4  C   UNL A   1      33.662  31.600  28.070  1.00  0.00     0.188 C 
BRANCH   4   5
ATOM      5  O   UNL A   1      32.857  31.343  26.933  1.00  0.00    -0.376 OA
BRANCH   5   6
ATOM      6  C   UNL A   1      32.546  30.016  26.539  1.00  0.00     0.202 C 
BRANCH   6   7
ATOM      7  C   UNL A   1      33.496  28.815  26.712  1.00  0.00     0.261 C 
BRANCH   7   8
ATOM      8  O   UNL A   1      33.012  27.533  26.308  1.00  0.00    -0.460 OA
BRANCH   8   9
ATOM      9  C   UNL A   1      33.416  27.054  25.120  1.00  0.00     0.338 C 
ATOM     10  O   UNL A   1      33.861  27.692  24.183  1.00  0.00    -0.246 OA
BRANCH   9  11
ATOM     11  C   UNL A   1      33.415  25.577  25.216  1.00  0.00     0.087 C 
ATOM     12  C   UNL A   1      34.499  19.240  24.683  1.00  0.00     0.046 C 
ATOM     13  C   UNL A   1      34.617  20.715  24.954  1.00  0.00    -0.033 A 
ATOM     14  C   UNL A   1      33.435  21.438  25.150  1.00  0.00     0.051 A 
ATOM     15  C   UNL A   1      35.851  21.394  25.037  1.00  0.00     0.024 A 
ATOM     16  C   UNL A   1      33.456  22.822  25.288  1.00  0.00     0.128 A 
ATOM     17  C   UNL A   1      35.894  22.801  25.200  1.00  0.00    -0.026 A 
ATOM     18  Br  UNL A   1      37.464  20.372  24.903  1.00  0.00    -0.050 Br
ATOM     19  C   UNL A   1      34.669  23.516  25.249  1.00  0.00     0.021 A 
ATOM     20  O   UNL A   1      32.232  23.404  25.441  1.00  0.00    -0.475 OA
ATOM     21  C   UNL A   1      37.192  23.563  25.339  1.00  0.00     0.046 C 
ATOM     22  C   UNL A   1      34.609  24.974  25.183  1.00  0.00     0.027 C 
ATOM     23  C   UNL A   1      32.114  24.850  25.421  1.00  0.00     0.316 C 
BRANCH  23  24
ATOM     24  C   UNL A   1      31.067  25.222  24.361  1.00  0.00     0.430 C 
ATOM     25  F   UNL A   1      30.126  26.050  24.869  1.00  0.00    -0.167 F 
ATOM     26  F   UNL A   1      31.620  25.845  23.298  1.00  0.00    -0.167 F 
ATOM     27  F   UNL A   1      30.430  24.120  23.897  1.00  0.00    -0.167 F 
ENDBRANCH  23  24
ENDBRANCH   9  11
ENDBRANCH   8   9
ENDBRANCH   7   8
ENDBRANCH   6   7
ENDBRANCH   5   6
ENDBRANCH   4   5
ENDBRANCH   3   4
ENDBRANCH   2   3
ENDBRANCH   1   2
BRANCH   1  28
ATOM     28  C   UNL A   1      36.566  32.688  29.690  1.00  0.00     0.188 C 
BRANCH  28  29
ATOM     29  O   UNL A   1      36.560  33.732  30.658  1.00  0.00    -0.376 OA
BRANCH  29  30
ATOM     30  C   UNL A   1      36.607  33.365  32.027  1.00  0.00     0.202 C 
BRANCH  30  31
ATOM     31  C   UNL A   1      35.731  32.172  32.431  1.00  0.00     0.261 C 
BRANCH  31  32
ATOM     32  O   UNL A   1      36.435  31.018  32.909  1.00  0.00    -0.460 OA
BRANCH  32  33
ATOM     33  C   UNL A   1      36.781  30.078  32.002  1.00  0.00     0.338 C 
ATOM     34  O   UNL A   1      36.135  29.720  31.032  1.00  0.00    -0.246 OA
BRANCH  33  35
ATOM     35  C   UNL A   1      38.181  29.696  32.274  1.00  0.00     0.060 A 
ATOM     36  C   UNL A   1      39.184  30.670  32.178  1.00  0.00     0.016 A 
ATOM     37  C   UNL A   1      38.496  28.386  32.643  1.00  0.00     0.016 A 
ATOM     38  C   UNL A   1      40.514  30.324  32.421  1.00  0.00     0.010 A 
ATOM     39  C   UNL A   1      39.831  28.037  32.862  1.00  0.00     0.010 A 
ATOM     40  C   UNL A   1      40.847  28.997  32.718  1.00  0.00    -0.014 A 
BRANCH  40  41
ATOM     41  C   UNL A   1      42.264  28.568  32.665  1.00  0.00     0.031 A 
ATOM     42  C   UNL A   1      42.763  27.936  31.393  1.00  0.00     0.074 A 
ATOM     43  C   UNL A   1      43.095  28.739  33.710  1.00  0.00     0.049 A 
ATOM     44  N   UNL A   1      43.945  27.455  31.115  1.00  0.00    -0.248 NA
ATOM     45  C   UNL A   1      41.797  27.833  30.285  1.00  0.00     0.031 C 
ATOM     46  C   UNL A   1      42.734  29.356  34.984  1.00  0.00     0.029 A 
ATOM     47  N   UNL A   1      44.413  28.389  33.864  1.00  0.00    -0.354 N 
ATOM     48  C   UNL A   1      43.861  26.979  29.813  1.00  0.00     0.074 A 
ATOM     49  C   UNL A   1      42.510  27.211  29.358  1.00  0.00     0.031 C 
ATOM     50  C   UNL A   1      43.802  29.321  35.801  1.00  0.00     0.029 A 
ATOM     51  C   UNL A   1      44.912  28.657  35.118  1.00  0.00     0.049 A 
ATOM     52  H   UNL A   1      44.952  27.984  33.146  1.00  0.00     0.167 HD
ATOM     53  C   UNL A   1      44.830  26.416  29.056  1.00  0.00     0.034 A 
ATOM     54  C   UNL A   1      46.119  28.380  35.654  1.00  0.00     0.034 A 
ATOM     55  C   UNL A   1      46.178  26.202  29.504  1.00  0.00     0.049 A 
ATOM     56  C   UNL A   1      47.167  27.705  34.802  1.00  0.00     0.074 A 
ATOM     57  C   UNL A   1      47.238  25.665  28.797  1.00  0.00     0.029 A 
ATOM     58  N   UNL A   1      46.649  26.501  30.772  1.00  0.00    -0.354 N 
ATOM     59  N   UNL A   1      47.106  27.356  33.539  1.00  0.00    -0.248 NA
ATOM     60  C   UNL A   1      48.460  27.409  35.439  1.00  0.00     0.031 C 
ATOM     61  C   UNL A   1      48.345  25.610  29.648  1.00  0.00     0.029 A 
ATOM     62  C   UNL A   1      47.983  26.147  30.873  1.00  0.00     0.049 A 
ATOM     63  H   UNL A   1      46.115  26.905  31.493  1.00  0.00     0.167 HD
ATOM     64  C   UNL A   1      48.357  26.833  33.224  1.00  0.00     0.074 A 
ATOM     65  C   UNL A   1      49.163  26.932  34.421  1.00  0.00     0.031 C 
ATOM     66  C   UNL A   1      48.793  26.303  32.054  1.00  0.00     0.034 A 
BRANCH  53  67
ATOM     67  C   UNL A   1      44.488  26.020  27.646  1.00  0.00     0.023 A 
ATOM     68  C   UNL A   1      44.753  26.915  26.591  1.00  0.00     0.012 A 
ATOM     69  C   UNL A   1      44.007  24.729  27.356  1.00  0.00     0.148 A 
ATOM     70  C   UNL A   1      44.534  26.535  25.267  1.00  0.00     0.002 A 
ATOM     71  C   UNL A   1      43.837  24.340  26.034  1.00  0.00     0.091 A 
ATOM     72  F   UNL A   1      43.740  23.903  28.378  1.00  0.00    -0.205 F 
ATOM     73  C   UNL A   1      44.092  25.245  24.988  1.00  0.00     0.022 A 
BRANCH  71  74
ATOM     74  S   UNL A   1      43.358  22.675  25.563  1.00  0.00     0.127 S 
ATOM     75  O   UNL A   1      41.979  22.617  26.050  1.00  0.00    -0.237 OA
ATOM     76  O   UNL A   1      43.489  22.720  24.106  1.00  0.00    -0.237 OA
ATOM     77  O   UNL A   1      44.288  21.780  26.236  1.00  0.00    -0.744 OA
ENDBRANCH  71  74
ENDBRANCH  53  67
BRANCH  54  78
ATOM     78  C   UNL A   1      46.420  28.771  37.062  1.00  0.00     0.023 A 
ATOM     79  C   UNL A   1      47.096  29.981  37.318  1.00  0.00     0.012 A 
ATOM     80  C   UNL A   1      46.033  27.962  38.149  1.00  0.00     0.148 A 
ATOM     81  C   UNL A   1      47.404  30.364  38.624  1.00  0.00     0.002 A 
ATOM     82  C   UNL A   1      46.289  28.378  39.450  1.00  0.00     0.091 A 
ATOM     83  F   UNL A   1      45.412  26.803  37.887  1.00  0.00    -0.205 F 
ATOM     84  C   UNL A   1      46.990  29.570  39.690  1.00  0.00     0.022 A 
BRANCH  82  85
ATOM     85  S   UNL A   1      45.680  27.489  40.887  1.00  0.00     0.127 S 
ATOM     86  O   UNL A   1      45.325  26.194  40.309  1.00  0.00    -0.237 OA
ATOM     87  O   UNL A   1      46.860  27.476  41.752  1.00  0.00    -0.237 OA
ATOM     88  O   UNL A   1      44.567  28.279  41.396  1.00  0.00    -0.744 OA
ENDBRANCH  82  85
ENDBRANCH  54  78
BRANCH  66  89
ATOM     89  C   UNL A   1      50.214  25.803  31.978  1.00  0.00     0.023 A 
ATOM     90  C   UNL A   1      51.241  26.679  31.575  1.00  0.00     0.012 A 
ATOM     91  C   UNL A   1      50.547  24.510  32.430  1.00  0.00     0.148 A 
ATOM     92  C   UNL A   1      52.574  26.268  31.602  1.00  0.00     0.002 A 
ATOM     93  C   UNL A   1      51.880  24.127  32.506  1.00  0.00     0.091 A 
ATOM     94  F   UNL A   1      49.554  23.687  32.798  1.00  0.00    -0.205 F 
ATOM     95  C   UNL A   1      52.894  25.000  32.080  1.00  0.00     0.022 A 
BRANCH  93  96
ATOM     96  S   UNL A   1      52.401  22.558  33.212  1.00  0.00     0.127 S 
ATOM     97  O   UNL A   1      53.857  22.679  33.167  1.00  0.00    -0.237 OA
ATOM     98  O   UNL A   1      51.824  22.618  34.556  1.00  0.00    -0.237 OA
ATOM     99  O   UNL A   1      51.837  21.523  32.356  1.00  0.00    -0.744 OA
ENDBRANCH  93  96
ENDBRANCH  66  89
ENDBRANCH  40  41
ENDBRANCH  33  35
ENDBRANCH  32  33
ENDBRANCH  31  32
ENDBRANCH  30  31
ENDBRANCH  29  30
ENDBRANCH  28  29
ENDBRANCH   1  28
TORSDOF 24
ENDMDL
