MODEL 1
REMARK VINA RESULT:     -10.3      0.000      0.000
REMARK SMILES C[C@@H]1[C@H](C(=O)OCCOCCOCCOCCOC(=O)c2ccc(-c3c4nc(c(-c5cccc(S(=O)(=O)[O-])c5F)c5ccc([nH]5)c(-c5cccc(S(=O)(=O)[O-])c5F)c5nc(c(-c6cccc(S(=O)(=O)[O-])c6F)c6ccc3[nH]6)C=C5)C=C4)cc2)[C@@H](C)CC(=O)N1CC(C)(C)S(C)(=O)=O
REMARK SMILES IDX 12 1 11 2 10 3 9 4 8 5 7 6 6 7 4 8 5 9 3 10 1 11 2 12 89 13
REMARK SMILES IDX 84 14 87 15 86 16 85 17 88 18 90 19 91 20 92 21 93 22 94 23
REMARK SMILES IDX 95 24 96 25 97 26 13 27 14 28 15 29 16 30 17 31 18 32 19 33
REMARK SMILES IDX 20 34 21 35 22 36 83 37 23 38 82 39 24 40 25 41 26 42 76 43
REMARK SMILES IDX 27 44 81 45 75 46 77 47 28 48 80 49 74 50 73 51 29 53 61 54
REMARK SMILES IDX 41 55 60 56 42 57 45 58 59 59 78 60 43 61 44 62 58 64 79 65
REMARK SMILES IDX 46 66 30 67 31 68 39 69 32 70 34 71 40 72 33 73 35 74 36 75
REMARK SMILES IDX 37 76 38 77 62 78 63 79 71 80 64 81 66 82 72 83 65 84 67 85
REMARK SMILES IDX 68 86 69 87 70 88 47 89 48 90 56 91 49 92 51 93 57 94 50 95
REMARK SMILES IDX 52 96 53 97 54 98 55 99
REMARK H PARENT 77 52 45 63
REMARK Flexibility Score: inf
ROOT
ATOM      1  O   UNL A   1      38.915  22.128  25.770  1.00  0.00    -0.377 OA
ENDROOT
BRANCH   1   2
ATOM      2  C   UNL A   1      37.841  21.787  24.908  1.00  0.00     0.188 C 
BRANCH   2   3
ATOM      3  C   UNL A   1      36.412  21.782  25.469  1.00  0.00     0.188 C 
BRANCH   3   4
ATOM      4  O   UNL A   1      35.793  20.520  25.495  1.00  0.00    -0.376 OA
BRANCH   4   5
ATOM      5  C   UNL A   1      34.569  20.270  24.836  1.00  0.00     0.202 C 
BRANCH   5   6
ATOM      6  C   UNL A   1      33.232  19.901  25.510  1.00  0.00     0.261 C 
BRANCH   6   7
ATOM      7  O   UNL A   1      32.212  20.894  25.659  1.00  0.00    -0.463 OA
BRANCH   7   8
ATOM      8  C   UNL A   1      32.575  21.997  26.339  1.00  0.00     0.311 C 
ATOM      9  O   UNL A   1      33.389  21.966  27.260  1.00  0.00    -0.252 OA
BRANCH   8  10
ATOM     10  C   UNL A   1      31.907  23.307  25.911  1.00  0.00     0.125 C 
ATOM     11  C   UNL A   1      31.894  23.100  23.307  1.00  0.00     0.032 C 
ATOM     12  C   UNL A   1      32.211  23.961  24.531  1.00  0.00     0.096 C 
ATOM     13  N   UNL A   1      31.520  25.295  24.408  1.00  0.00    -0.338 N 
ATOM     14  C   UNL A   1      30.387  23.209  26.129  1.00  0.00     0.011 C 
ATOM     15  C   UNL A   1      30.220  25.465  24.874  1.00  0.00     0.223 C 
ATOM     16  C   UNL A   1      29.789  24.598  26.026  1.00  0.00     0.104 C 
ATOM     17  C   UNL A   1      29.992  22.650  27.508  1.00  0.00     0.009 C 
ATOM     18  O   UNL A   1      29.512  26.433  24.603  1.00  0.00    -0.275 OA
BRANCH  13  19
ATOM     19  C   UNL A   1      32.292  26.510  24.071  1.00  0.00     0.142 C 
BRANCH  19  20
ATOM     20  C   UNL A   1      32.260  27.241  22.687  1.00  0.00     0.084 C 
ATOM     21  C   UNL A   1      33.627  27.625  22.101  1.00  0.00     0.030 C 
ATOM     22  C   UNL A   1      31.631  26.243  21.675  1.00  0.00     0.030 C 
BRANCH  20  23
ATOM     23  S   UNL A   1      31.240  28.751  22.701  1.00  0.00     0.154 S 
ATOM     24  C   UNL A   1      30.986  29.177  24.409  1.00  0.00     0.158 C 
ATOM     25  O   UNL A   1      31.992  29.827  22.093  1.00  0.00    -0.229 OA
ATOM     26  O   UNL A   1      29.927  28.402  22.181  1.00  0.00    -0.229 OA
ENDBRANCH  20  23
ENDBRANCH  19  20
ENDBRANCH  13  19
ENDBRANCH   8  10
ENDBRANCH   7   8
ENDBRANCH   6   7
ENDBRANCH   5   6
ENDBRANCH   4   5
ENDBRANCH   3   4
ENDBRANCH   2   3
ENDBRANCH   1   2
BRANCH   1  27
ATOM     27  C   UNL A   1      39.677  21.101  26.409  1.00  0.00     0.188 C 
BRANCH  27  28
ATOM     28  C   UNL A   1      39.891  19.724  25.737  1.00  0.00     0.188 C 
BRANCH  28  29
ATOM     29  O   UNL A   1      41.226  19.249  25.772  1.00  0.00    -0.376 OA
BRANCH  29  30
ATOM     30  C   UNL A   1      42.148  19.926  26.610  1.00  0.00     0.202 C 
BRANCH  30  31
ATOM     31  C   UNL A   1      43.241  20.765  25.931  1.00  0.00     0.261 C 
BRANCH  31  32
ATOM     32  O   UNL A   1      43.402  22.112  26.398  1.00  0.00    -0.460 OA
BRANCH  32  33
ATOM     33  C   UNL A   1      43.232  23.117  25.506  1.00  0.00     0.338 C 
ATOM     34  O   UNL A   1      43.407  23.076  24.308  1.00  0.00    -0.246 OA
BRANCH  33  35
ATOM     35  C   UNL A   1      42.603  24.239  26.233  1.00  0.00     0.060 A 
ATOM     36  C   UNL A   1      43.016  25.553  25.967  1.00  0.00     0.016 A 
ATOM     37  C   UNL A   1      41.613  23.979  27.178  1.00  0.00     0.016 A 
ATOM     38  C   UNL A   1      42.466  26.615  26.686  1.00  0.00     0.010 A 
ATOM     39  C   UNL A   1      41.080  25.037  27.911  1.00  0.00     0.010 A 
ATOM     40  C   UNL A   1      41.536  26.351  27.697  1.00  0.00    -0.014 A 
BRANCH  40  41
ATOM     41  C   UNL A   1      41.214  27.380  28.712  1.00  0.00     0.031 A 
ATOM     42  C   UNL A   1      42.053  27.407  29.960  1.00  0.00     0.074 A 
ATOM     43  C   UNL A   1      40.167  28.209  28.573  1.00  0.00     0.049 A 
ATOM     44  N   UNL A   1      41.869  28.066  31.071  1.00  0.00    -0.248 NA
ATOM     45  C   UNL A   1      43.254  26.554  29.953  1.00  0.00     0.031 C 
ATOM     46  C   UNL A   1      39.300  28.288  27.402  1.00  0.00     0.029 A 
ATOM     47  N   UNL A   1      39.628  29.108  29.460  1.00  0.00    -0.354 N 
ATOM     48  C   UNL A   1      42.895  27.663  31.917  1.00  0.00     0.074 A 
ATOM     49  C   UNL A   1      43.700  26.709  31.189  1.00  0.00     0.031 C 
ATOM     50  C   UNL A   1      38.303  29.152  27.660  1.00  0.00     0.029 A 
ATOM     51  C   UNL A   1      38.439  29.647  29.029  1.00  0.00     0.049 A 
ATOM     52  H   UNL A   1      40.051  29.343  30.318  1.00  0.00     0.167 HD
ATOM     53  C   UNL A   1      43.140  28.049  33.190  1.00  0.00     0.034 A 
ATOM     54  C   UNL A   1      37.540  30.408  29.686  1.00  0.00     0.034 A 
ATOM     55  C   UNL A   1      42.334  29.001  33.901  1.00  0.00     0.049 A 
ATOM     56  C   UNL A   1      37.813  30.806  31.114  1.00  0.00     0.074 A 
ATOM     57  C   UNL A   1      42.523  29.504  35.176  1.00  0.00     0.029 A 
ATOM     58  N   UNL A   1      41.171  29.572  33.410  1.00  0.00    -0.354 N 
ATOM     59  N   UNL A   1      38.833  30.494  31.877  1.00  0.00    -0.248 NA
ATOM     60  C   UNL A   1      36.825  31.679  31.766  1.00  0.00     0.031 C 
ATOM     61  C   UNL A   1      41.446  30.344  35.472  1.00  0.00     0.029 A 
ATOM     62  C   UNL A   1      40.620  30.412  34.361  1.00  0.00     0.049 A 
ATOM     63  H   UNL A   1      40.793  29.405  32.516  1.00  0.00     0.167 HD
ATOM     64  C   UNL A   1      38.637  31.171  33.078  1.00  0.00     0.074 A 
ATOM     65  C   UNL A   1      37.397  31.907  32.943  1.00  0.00     0.031 C 
ATOM     66  C   UNL A   1      39.415  31.183  34.187  1.00  0.00     0.034 A 
BRANCH  53  67
ATOM     67  C   UNL A   1      44.315  27.422  33.893  1.00  0.00     0.023 A 
ATOM     68  C   UNL A   1      45.588  28.023  33.825  1.00  0.00     0.012 A 
ATOM     69  C   UNL A   1      44.149  26.238  34.638  1.00  0.00     0.148 A 
ATOM     70  C   UNL A   1      46.687  27.429  34.443  1.00  0.00     0.002 A 
ATOM     71  C   UNL A   1      45.238  25.681  35.298  1.00  0.00     0.091 A 
ATOM     72  F   UNL A   1      42.937  25.666  34.673  1.00  0.00    -0.205 F 
ATOM     73  C   UNL A   1      46.510  26.265  35.186  1.00  0.00     0.022 A 
BRANCH  71  74
ATOM     74  S   UNL A   1      45.092  24.233  36.348  1.00  0.00     0.127 S 
ATOM     75  O   UNL A   1      46.495  23.892  36.576  1.00  0.00    -0.237 OA
ATOM     76  O   UNL A   1      44.398  24.773  37.519  1.00  0.00    -0.237 OA
ATOM     77  O   UNL A   1      44.326  23.259  35.586  1.00  0.00    -0.744 OA
ENDBRANCH  71  74
ENDBRANCH  53  67
BRANCH  54  78
ATOM     78  C   UNL A   1      36.301  30.851  28.989  1.00  0.00     0.023 A 
ATOM     79  C   UNL A   1      35.431  29.891  28.436  1.00  0.00     0.012 A 
ATOM     80  C   UNL A   1      35.961  32.216  28.907  1.00  0.00     0.148 A 
ATOM     81  C   UNL A   1      34.254  30.284  27.798  1.00  0.00     0.002 A 
ATOM     82  C   UNL A   1      34.761  32.596  28.318  1.00  0.00     0.091 A 
ATOM     83  F   UNL A   1      36.809  33.112  29.431  1.00  0.00    -0.205 F 
ATOM     84  C   UNL A   1      33.914  31.632  27.749  1.00  0.00     0.022 A 
BRANCH  82  85
ATOM     85  S   UNL A   1      34.175  34.293  28.317  1.00  0.00     0.127 S 
ATOM     86  O   UNL A   1      34.859  34.844  27.149  1.00  0.00    -0.237 OA
ATOM     87  O   UNL A   1      32.732  34.105  28.155  1.00  0.00    -0.237 OA
ATOM     88  O   UNL A   1      34.576  34.851  29.599  1.00  0.00    -0.744 OA
ENDBRANCH  82  85
ENDBRANCH  54  78
BRANCH  66  89
ATOM     89  C   UNL A   1      39.017  32.080  35.331  1.00  0.00     0.023 A 
ATOM     90  C   UNL A   1      38.185  31.601  36.360  1.00  0.00     0.012 A 
ATOM     91  C   UNL A   1      39.588  33.365  35.442  1.00  0.00     0.148 A 
ATOM     92  C   UNL A   1      37.915  32.394  37.476  1.00  0.00     0.002 A 
ATOM     93  C   UNL A   1      39.359  34.127  36.579  1.00  0.00     0.091 A 
ATOM     94  F   UNL A   1      40.364  33.805  34.441  1.00  0.00    -0.205 F 
ATOM     95  C   UNL A   1      38.514  33.648  37.593  1.00  0.00     0.022 A 
BRANCH  93  96
ATOM     96  S   UNL A   1      40.174  35.701  36.865  1.00  0.00     0.127 S 
ATOM     97  O   UNL A   1      41.584  35.335  36.740  1.00  0.00    -0.237 OA
ATOM     98  O   UNL A   1      39.656  36.520  35.767  1.00  0.00    -0.237 OA
ATOM     99  O   UNL A   1      39.763  36.137  38.192  1.00  0.00    -0.744 OA
ENDBRANCH  93  96
ENDBRANCH  66  89
ENDBRANCH  40  41
ENDBRANCH  33  35
ENDBRANCH  32  33
ENDBRANCH  31  32
ENDBRANCH  30  31
ENDBRANCH  29  30
ENDBRANCH  28  29
ENDBRANCH  27  28
ENDBRANCH   1  27
TORSDOF 26
ENDMDL
MODEL 2
REMARK VINA RESULT:     -10.1      4.145      5.134
REMARK SMILES C[C@@H]1[C@H](C(=O)OCCOCCOCCOCCOC(=O)c2ccc(-c3c4nc(c(-c5cccc(S(=O)(=O)[O-])c5F)c5ccc([nH]5)c(-c5cccc(S(=O)(=O)[O-])c5F)c5nc(c(-c6cccc(S(=O)(=O)[O-])c6F)c6ccc3[nH]6)C=C5)C=C4)cc2)[C@@H](C)CC(=O)N1CC(C)(C)S(C)(=O)=O
REMARK SMILES IDX 12 1 11 2 10 3 9 4 8 5 7 6 6 7 4 8 5 9 3 10 1 11 2 12 89 13
REMARK SMILES IDX 84 14 87 15 86 16 85 17 88 18 90 19 91 20 92 21 93 22 94 23
REMARK SMILES IDX 95 24 96 25 97 26 13 27 14 28 15 29 16 30 17 31 18 32 19 33
REMARK SMILES IDX 20 34 21 35 22 36 83 37 23 38 82 39 24 40 25 41 26 42 76 43
REMARK SMILES IDX 27 44 81 45 75 46 77 47 28 48 80 49 74 50 73 51 29 53 61 54
REMARK SMILES IDX 41 55 60 56 42 57 45 58 59 59 78 60 43 61 44 62 58 64 79 65
REMARK SMILES IDX 46 66 30 67 31 68 39 69 32 70 34 71 40 72 33 73 35 74 36 75
REMARK SMILES IDX 37 76 38 77 62 78 63 79 71 80 64 81 66 82 72 83 65 84 67 85
REMARK SMILES IDX 68 86 69 87 70 88 47 89 48 90 56 91 49 92 51 93 57 94 50 95
REMARK SMILES IDX 52 96 53 97 54 98 55 99
REMARK H PARENT 77 52 45 63
REMARK Flexibility Score: inf
ROOT
ATOM      1  O   UNL A   1      34.231  22.898  26.482  1.00  0.00    -0.377 OA
ENDROOT
BRANCH   1   2
ATOM      2  C   UNL A   1      33.265  21.867  26.602  1.00  0.00     0.188 C 
BRANCH   2   3
ATOM      3  C   UNL A   1      31.916  22.027  25.887  1.00  0.00     0.188 C 
BRANCH   3   4
ATOM      4  O   UNL A   1      31.791  21.296  24.693  1.00  0.00    -0.376 OA
BRANCH   4   5
ATOM      5  C   UNL A   1      32.633  21.521  23.582  1.00  0.00     0.202 C 
BRANCH   5   6
ATOM      6  C   UNL A   1      32.598  22.747  22.647  1.00  0.00     0.261 C 
BRANCH   6   7
ATOM      7  O   UNL A   1      32.162  24.014  23.151  1.00  0.00    -0.463 OA
BRANCH   7   8
ATOM      8  C   UNL A   1      32.580  25.086  22.455  1.00  0.00     0.311 C 
ATOM      9  O   UNL A   1      33.228  24.986  21.414  1.00  0.00    -0.252 OA
BRANCH   8  10
ATOM     10  C   UNL A   1      32.216  26.456  23.035  1.00  0.00     0.125 C 
ATOM     11  C   UNL A   1      29.662  26.192  23.517  1.00  0.00     0.032 C 
ATOM     12  C   UNL A   1      30.777  27.038  22.902  1.00  0.00     0.096 C 
ATOM     13  N   UNL A   1      30.715  28.441  23.450  1.00  0.00    -0.338 N 
ATOM     14  C   UNL A   1      32.689  26.542  24.497  1.00  0.00     0.011 C 
ATOM     15  C   UNL A   1      31.385  28.773  24.623  1.00  0.00     0.223 C 
ATOM     16  C   UNL A   1      32.629  27.989  24.945  1.00  0.00     0.104 C 
ATOM     17  C   UNL A   1      34.138  26.065  24.710  1.00  0.00     0.009 C 
ATOM     18  O   UNL A   1      31.196  29.810  25.255  1.00  0.00    -0.275 OA
BRANCH  13  19
ATOM     19  C   UNL A   1      30.202  29.548  22.617  1.00  0.00     0.142 C 
BRANCH  19  20
ATOM     20  C   UNL A   1      28.703  29.992  22.534  1.00  0.00     0.084 C 
ATOM     21  C   UNL A   1      28.130  30.155  21.118  1.00  0.00     0.030 C 
ATOM     22  C   UNL A   1      27.870  28.862  23.200  1.00  0.00     0.030 C 
BRANCH  20  23
ATOM     23  S   UNL A   1      28.369  31.545  23.429  1.00  0.00     0.154 S 
ATOM     24  C   UNL A   1      28.633  32.867  22.269  1.00  0.00     0.158 C 
ATOM     25  O   UNL A   1      26.974  31.573  23.808  1.00  0.00    -0.229 OA
ATOM     26  O   UNL A   1      29.398  31.698  24.445  1.00  0.00    -0.229 OA
ENDBRANCH  20  23
ENDBRANCH  19  20
ENDBRANCH  13  19
ENDBRANCH   8  10
ENDBRANCH   7   8
ENDBRANCH   6   7
ENDBRANCH   5   6
ENDBRANCH   4   5
ENDBRANCH   3   4
ENDBRANCH   2   3
ENDBRANCH   1   2
BRANCH   1  27
ATOM     27  C   UNL A   1      35.429  22.677  25.734  1.00  0.00     0.188 C 
BRANCH  27  28
ATOM     28  C   UNL A   1      35.882  21.249  25.349  1.00  0.00     0.188 C 
BRANCH  28  29
ATOM     29  O   UNL A   1      37.093  21.188  24.616  1.00  0.00    -0.376 OA
BRANCH  29  30
ATOM     30  C   UNL A   1      38.289  20.923  25.332  1.00  0.00     0.202 C 
BRANCH  30  31
ATOM     31  C   UNL A   1      38.943  22.094  26.080  1.00  0.00     0.261 C 
BRANCH  31  32
ATOM     32  O   UNL A   1      40.202  21.829  26.716  1.00  0.00    -0.460 OA
BRANCH  32  33
ATOM     33  C   UNL A   1      41.290  22.503  26.275  1.00  0.00     0.338 C 
ATOM     34  O   UNL A   1      42.155  22.099  25.530  1.00  0.00    -0.246 OA
BRANCH  33  35
ATOM     35  C   UNL A   1      41.138  23.906  26.715  1.00  0.00     0.060 A 
ATOM     36  C   UNL A   1      40.947  24.914  25.759  1.00  0.00     0.016 A 
ATOM     37  C   UNL A   1      41.193  24.211  28.074  1.00  0.00     0.016 A 
ATOM     38  C   UNL A   1      40.854  26.246  26.162  1.00  0.00     0.010 A 
ATOM     39  C   UNL A   1      41.123  25.544  28.473  1.00  0.00     0.010 A 
ATOM     40  C   UNL A   1      40.997  26.567  27.516  1.00  0.00    -0.014 A 
BRANCH  40  41
ATOM     41  C   UNL A   1      41.276  27.959  27.935  1.00  0.00     0.031 A 
ATOM     42  C   UNL A   1      42.716  28.385  28.007  1.00  0.00     0.074 A 
ATOM     43  C   UNL A   1      40.295  28.793  28.318  1.00  0.00     0.049 A 
ATOM     44  N   UNL A   1      43.238  29.466  28.519  1.00  0.00    -0.248 NA
ATOM     45  C   UNL A   1      43.699  27.447  27.439  1.00  0.00     0.031 C 
ATOM     46  C   UNL A   1      38.867  28.498  28.269  1.00  0.00     0.029 A 
ATOM     47  N   UNL A   1      40.367  30.046  28.874  1.00  0.00    -0.354 N 
ATOM     48  C   UNL A   1      44.613  29.312  28.390  1.00  0.00     0.074 A 
ATOM     49  C   UNL A   1      44.843  28.038  27.746  1.00  0.00     0.031 C 
ATOM     50  C   UNL A   1      38.195  29.522  28.824  1.00  0.00     0.029 A 
ATOM     51  C   UNL A   1      39.151  30.518  29.306  1.00  0.00     0.049 A 
ATOM     52  H   UNL A   1      41.207  30.556  28.956  1.00  0.00     0.167 HD
ATOM     53  C   UNL A   1      45.597  30.154  28.778  1.00  0.00     0.034 A 
ATOM     54  C   UNL A   1      38.853  31.602  30.051  1.00  0.00     0.034 A 
ATOM     55  C   UNL A   1      45.356  31.420  29.413  1.00  0.00     0.049 A 
ATOM     56  C   UNL A   1      39.964  32.516  30.502  1.00  0.00     0.074 A 
ATOM     57  C   UNL A   1      46.277  32.376  29.800  1.00  0.00     0.029 A 
ATOM     58  N   UNL A   1      44.106  31.892  29.780  1.00  0.00    -0.354 N 
ATOM     59  N   UNL A   1      41.255  32.411  30.296  1.00  0.00    -0.248 NA
ATOM     60  C   UNL A   1      39.578  33.711  31.267  1.00  0.00     0.031 C 
ATOM     61  C   UNL A   1      45.586  33.406  30.445  1.00  0.00     0.029 A 
ATOM     62  C   UNL A   1      44.230  33.120  30.404  1.00  0.00     0.049 A 
ATOM     63  H   UNL A   1      43.255  31.423  29.620  1.00  0.00     0.167 HD
ATOM     64  C   UNL A   1      41.828  33.547  30.860  1.00  0.00     0.074 A 
ATOM     65  C   UNL A   1      40.744  34.326  31.421  1.00  0.00     0.031 C 
ATOM     66  C   UNL A   1      43.133  33.910  30.904  1.00  0.00     0.034 A 
BRANCH  53  67
ATOM     67  C   UNL A   1      47.020  29.719  28.544  1.00  0.00     0.023 A 
ATOM     68  C   UNL A   1      47.655  29.999  27.317  1.00  0.00     0.012 A 
ATOM     69  C   UNL A   1      47.732  29.042  29.552  1.00  0.00     0.148 A 
ATOM     70  C   UNL A   1      48.959  29.567  27.079  1.00  0.00     0.002 A 
ATOM     71  C   UNL A   1      49.050  28.663  29.328  1.00  0.00     0.091 A 
ATOM     72  F   UNL A   1      47.105  28.763  30.703  1.00  0.00    -0.205 F 
ATOM     73  C   UNL A   1      49.658  28.909  28.087  1.00  0.00     0.022 A 
BRANCH  71  74
ATOM     74  S   UNL A   1      50.059  27.888  30.594  1.00  0.00     0.127 S 
ATOM     75  O   UNL A   1      49.090  27.010  31.246  1.00  0.00    -0.237 OA
ATOM     76  O   UNL A   1      51.071  27.193  29.796  1.00  0.00    -0.237 OA
ATOM     77  O   UNL A   1      50.576  28.972  31.416  1.00  0.00    -0.744 OA
ENDBRANCH  71  74
ENDBRANCH  53  67
BRANCH  54  78
ATOM     78  C   UNL A   1      37.434  31.884  30.406  1.00  0.00     0.023 A 
ATOM     79  C   UNL A   1      36.936  31.480  31.659  1.00  0.00     0.012 A 
ATOM     80  C   UNL A   1      36.590  32.587  29.524  1.00  0.00     0.148 A 
ATOM     81  C   UNL A   1      35.616  31.754  32.020  1.00  0.00     0.002 A 
ATOM     82  C   UNL A   1      35.294  32.903  29.912  1.00  0.00     0.091 A 
ATOM     83  F   UNL A   1      37.083  32.953  28.332  1.00  0.00    -0.205 F 
ATOM     84  C   UNL A   1      34.800  32.474  31.153  1.00  0.00     0.022 A 
BRANCH  82  85
ATOM     85  S   UNL A   1      34.208  33.934  28.920  1.00  0.00     0.127 S 
ATOM     86  O   UNL A   1      33.676  32.969  27.960  1.00  0.00    -0.237 OA
ATOM     87  O   UNL A   1      33.248  34.399  29.923  1.00  0.00    -0.237 OA
ATOM     88  O   UNL A   1      35.054  34.975  28.358  1.00  0.00    -0.744 OA
ENDBRANCH  82  85
ENDBRANCH  54  78
BRANCH  66  89
ATOM     89  C   UNL A   1      43.483  35.248  31.502  1.00  0.00     0.023 A 
ATOM     90  C   UNL A   1      43.811  35.360  32.867  1.00  0.00     0.012 A 
ATOM     91  C   UNL A   1      43.613  36.375  30.664  1.00  0.00     0.148 A 
ATOM     92  C   UNL A   1      44.249  36.576  33.391  1.00  0.00     0.002 A 
ATOM     93  C   UNL A   1      44.101  37.568  31.180  1.00  0.00     0.091 A 
ATOM     94  F   UNL A   1      43.279  36.249  29.372  1.00  0.00    -0.205 F 
ATOM     95  C   UNL A   1      44.409  37.674  32.546  1.00  0.00     0.022 A 
BRANCH  93  96
ATOM     96  S   UNL A   1      44.442  38.997  30.147  1.00  0.00     0.127 S 
ATOM     97  O   UNL A   1      43.178  39.157  29.432  1.00  0.00    -0.237 OA
ATOM     98  O   UNL A   1      44.718  40.036  31.141  1.00  0.00    -0.237 OA
ATOM     99  O   UNL A   1      45.583  38.635  29.316  1.00  0.00    -0.744 OA
ENDBRANCH  93  96
ENDBRANCH  66  89
ENDBRANCH  40  41
ENDBRANCH  33  35
ENDBRANCH  32  33
ENDBRANCH  31  32
ENDBRANCH  30  31
ENDBRANCH  29  30
ENDBRANCH  28  29
ENDBRANCH  27  28
ENDBRANCH   1  27
TORSDOF 26
ENDMDL
MODEL 3
REMARK VINA RESULT:      -9.9      2.366      2.968
REMARK SMILES C[C@@H]1[C@H](C(=O)OCCOCCOCCOCCOC(=O)c2ccc(-c3c4nc(c(-c5cccc(S(=O)(=O)[O-])c5F)c5ccc([nH]5)c(-c5cccc(S(=O)(=O)[O-])c5F)c5nc(c(-c6cccc(S(=O)(=O)[O-])c6F)c6ccc3[nH]6)C=C5)C=C4)cc2)[C@@H](C)CC(=O)N1CC(C)(C)S(C)(=O)=O
REMARK SMILES IDX 12 1 11 2 10 3 9 4 8 5 7 6 6 7 4 8 5 9 3 10 1 11 2 12 89 13
REMARK SMILES IDX 84 14 87 15 86 16 85 17 88 18 90 19 91 20 92 21 93 22 94 23
REMARK SMILES IDX 95 24 96 25 97 26 13 27 14 28 15 29 16 30 17 31 18 32 19 33
REMARK SMILES IDX 20 34 21 35 22 36 83 37 23 38 82 39 24 40 25 41 26 42 76 43
REMARK SMILES IDX 27 44 81 45 75 46 77 47 28 48 80 49 74 50 73 51 29 53 61 54
REMARK SMILES IDX 41 55 60 56 42 57 45 58 59 59 78 60 43 61 44 62 58 64 79 65
REMARK SMILES IDX 46 66 30 67 31 68 39 69 32 70 34 71 40 72 33 73 35 74 36 75
REMARK SMILES IDX 37 76 38 77 62 78 63 79 71 80 64 81 66 82 72 83 65 84 67 85
REMARK SMILES IDX 68 86 69 87 70 88 47 89 48 90 56 91 49 92 51 93 57 94 50 95
REMARK SMILES IDX 52 96 53 97 54 98 55 99
REMARK H PARENT 77 52 45 63
REMARK Flexibility Score: inf
ROOT
ATOM      1  O   UNL A   1      40.846  20.126  27.951  1.00  0.00    -0.377 OA
ENDROOT
BRANCH   1   2
ATOM      2  C   UNL A   1      40.816  21.499  27.596  1.00  0.00     0.188 C 
BRANCH   2   3
ATOM      3  C   UNL A   1      39.599  22.042  26.835  1.00  0.00     0.188 C 
BRANCH   3   4
ATOM      4  O   UNL A   1      39.131  21.212  25.802  1.00  0.00    -0.376 OA
BRANCH   4   5
ATOM      5  C   UNL A   1      37.942  21.492  25.092  1.00  0.00     0.202 C 
BRANCH   5   6
ATOM      6  C   UNL A   1      36.606  20.733  25.223  1.00  0.00     0.261 C 
BRANCH   6   7
ATOM      7  O   UNL A   1      35.437  21.231  24.564  1.00  0.00    -0.463 OA
BRANCH   7   8
ATOM      8  C   UNL A   1      35.225  22.554  24.686  1.00  0.00     0.311 C 
ATOM      9  O   UNL A   1      36.078  23.389  24.389  1.00  0.00    -0.252 OA
BRANCH   8  10
ATOM     10  C   UNL A   1      33.857  22.974  25.231  1.00  0.00     0.125 C 
ATOM     11  C   UNL A   1      32.249  21.279  24.061  1.00  0.00     0.032 C 
ATOM     12  C   UNL A   1      32.550  22.736  24.418  1.00  0.00     0.096 C 
ATOM     13  N   UNL A   1      31.363  23.344  25.120  1.00  0.00    -0.338 N 
ATOM     14  C   UNL A   1      33.689  22.452  26.669  1.00  0.00     0.011 C 
ATOM     15  C   UNL A   1      31.231  23.244  26.502  1.00  0.00     0.223 C 
ATOM     16  C   UNL A   1      32.501  23.147  27.304  1.00  0.00     0.104 C 
ATOM     17  C   UNL A   1      34.905  22.722  27.574  1.00  0.00     0.009 C 
ATOM     18  O   UNL A   1      30.197  23.498  27.115  1.00  0.00    -0.275 OA
BRANCH  13  19
ATOM     19  C   UNL A   1      30.485  24.300  24.415  1.00  0.00     0.142 C 
BRANCH  19  20
ATOM     20  C   UNL A   1      30.764  25.833  24.259  1.00  0.00     0.084 C 
ATOM     21  C   UNL A   1      29.542  26.708  23.946  1.00  0.00     0.030 C 
ATOM     22  C   UNL A   1      31.299  26.326  25.631  1.00  0.00     0.030 C 
BRANCH  20  23
ATOM     23  S   UNL A   1      32.025  26.201  22.994  1.00  0.00     0.154 S 
ATOM     24  C   UNL A   1      33.600  26.158  23.818  1.00  0.00     0.158 C 
ATOM     25  O   UNL A   1      32.020  25.141  22.010  1.00  0.00    -0.229 OA
ATOM     26  O   UNL A   1      31.836  27.580  22.572  1.00  0.00    -0.229 OA
ENDBRANCH  20  23
ENDBRANCH  19  20
ENDBRANCH  13  19
ENDBRANCH   8  10
ENDBRANCH   7   8
ENDBRANCH   6   7
ENDBRANCH   5   6
ENDBRANCH   4   5
ENDBRANCH   3   4
ENDBRANCH   2   3
ENDBRANCH   1   2
BRANCH   1  27
ATOM     27  C   UNL A   1      41.949  19.305  27.558  1.00  0.00     0.188 C 
BRANCH  27  28
ATOM     28  C   UNL A   1      42.331  19.135  26.069  1.00  0.00     0.188 C 
BRANCH  28  29
ATOM     29  O   UNL A   1      43.699  19.363  25.778  1.00  0.00    -0.376 OA
BRANCH  29  30
ATOM     30  C   UNL A   1      44.041  20.557  25.093  1.00  0.00     0.202 C 
BRANCH  30  31
ATOM     31  C   UNL A   1      43.971  21.872  25.883  1.00  0.00     0.261 C 
BRANCH  31  32
ATOM     32  O   UNL A   1      43.469  23.019  25.182  1.00  0.00    -0.460 OA
BRANCH  32  33
ATOM     33  C   UNL A   1      44.226  24.142  25.177  1.00  0.00     0.338 C 
ATOM     34  O   UNL A   1      45.242  24.343  24.550  1.00  0.00    -0.246 OA
BRANCH  33  35
ATOM     35  C   UNL A   1      43.482  25.168  25.938  1.00  0.00     0.060 A 
ATOM     36  C   UNL A   1      43.798  26.524  25.762  1.00  0.00     0.016 A 
ATOM     37  C   UNL A   1      42.481  24.777  26.825  1.00  0.00     0.016 A 
ATOM     38  C   UNL A   1      43.137  27.495  26.514  1.00  0.00     0.010 A 
ATOM     39  C   UNL A   1      41.838  25.747  27.591  1.00  0.00     0.010 A 
ATOM     40  C   UNL A   1      42.194  27.102  27.469  1.00  0.00    -0.014 A 
BRANCH  40  41
ATOM     41  C   UNL A   1      41.753  28.042  28.524  1.00  0.00     0.031 A 
ATOM     42  C   UNL A   1      42.594  28.130  29.768  1.00  0.00     0.074 A 
ATOM     43  C   UNL A   1      40.607  28.734  28.423  1.00  0.00     0.049 A 
ATOM     44  N   UNL A   1      42.337  28.717  30.905  1.00  0.00    -0.248 NA
ATOM     45  C   UNL A   1      43.894  27.439  29.723  1.00  0.00     0.031 C 
ATOM     46  C   UNL A   1      39.726  28.746  27.259  1.00  0.00     0.029 A 
ATOM     47  N   UNL A   1      39.966  29.523  29.346  1.00  0.00    -0.354 N 
ATOM     48  C   UNL A   1      43.415  28.417  31.730  1.00  0.00     0.074 A 
ATOM     49  C   UNL A   1      44.328  27.603  30.962  1.00  0.00     0.031 C 
ATOM     50  C   UNL A   1      38.628  29.464  27.555  1.00  0.00     0.029 A 
ATOM     51  C   UNL A   1      38.713  29.920  28.942  1.00  0.00     0.049 A 
ATOM     52  H   UNL A   1      40.364  29.778  30.210  1.00  0.00     0.167 HD
ATOM     53  C   UNL A   1      43.620  28.783  33.015  1.00  0.00     0.034 A 
ATOM     54  C   UNL A   1      37.731  30.534  29.632  1.00  0.00     0.034 A 
ATOM     55  C   UNL A   1      42.706  29.597  33.767  1.00  0.00     0.049 A 
ATOM     56  C   UNL A   1      37.964  30.910  31.073  1.00  0.00     0.074 A 
ATOM     57  C   UNL A   1      42.841  30.072  35.059  1.00  0.00     0.029 A 
ATOM     58  N   UNL A   1      41.475  30.032  33.304  1.00  0.00    -0.354 N 
ATOM     59  N   UNL A   1      39.023  30.703  31.819  1.00  0.00    -0.248 NA
ATOM     60  C   UNL A   1      36.879  31.624  31.763  1.00  0.00     0.031 C 
ATOM     61  C   UNL A   1      41.669  30.755  35.393  1.00  0.00     0.029 A 
ATOM     62  C   UNL A   1      40.830  30.758  34.289  1.00  0.00     0.049 A 
ATOM     63  H   UNL A   1      41.112  29.852  32.406  1.00  0.00     0.167 HD
ATOM     64  C   UNL A   1      38.753  31.304  33.045  1.00  0.00     0.074 A 
ATOM     65  C   UNL A   1      37.428  31.879  32.944  1.00  0.00     0.031 C 
ATOM     66  C   UNL A   1      39.534  31.374  34.150  1.00  0.00     0.034 A 
BRANCH  53  67
ATOM     67  C   UNL A   1      44.872  28.287  33.689  1.00  0.00     0.023 A 
ATOM     68  C   UNL A   1      44.849  27.096  34.443  1.00  0.00     0.012 A 
ATOM     69  C   UNL A   1      46.081  28.998  33.559  1.00  0.00     0.148 A 
ATOM     70  C   UNL A   1      45.995  26.649  35.099  1.00  0.00     0.002 A 
ATOM     71  C   UNL A   1      47.232  28.517  34.171  1.00  0.00     0.091 A 
ATOM     72  F   UNL A   1      46.080  30.141  32.859  1.00  0.00    -0.205 F 
ATOM     73  C   UNL A   1      47.186  27.354  34.954  1.00  0.00     0.022 A 
BRANCH  71  74
ATOM     74  S   UNL A   1      48.831  29.308  33.972  1.00  0.00     0.127 S 
ATOM     75  O   UNL A   1      49.265  29.448  35.361  1.00  0.00    -0.237 OA
ATOM     76  O   UNL A   1      49.573  28.310  33.200  1.00  0.00    -0.237 OA
ATOM     77  O   UNL A   1      48.579  30.555  33.266  1.00  0.00    -0.744 OA
ENDBRANCH  71  74
ENDBRANCH  53  67
BRANCH  54  78
ATOM     78  C   UNL A   1      36.439  30.840  28.958  1.00  0.00     0.023 A 
ATOM     79  C   UNL A   1      35.653  29.790  28.447  1.00  0.00     0.012 A 
ATOM     80  C   UNL A   1      35.966  32.164  28.857  1.00  0.00     0.148 A 
ATOM     81  C   UNL A   1      34.429  30.053  27.832  1.00  0.00     0.002 A 
ATOM     82  C   UNL A   1      34.722  32.414  28.292  1.00  0.00     0.091 A 
ATOM     83  F   UNL A   1      36.736  33.149  29.342  1.00  0.00    -0.205 F 
ATOM     84  C   UNL A   1      33.958  31.361  27.764  1.00  0.00     0.022 A 
BRANCH  82  85
ATOM     85  S   UNL A   1      33.975  34.046  28.272  1.00  0.00     0.127 S 
ATOM     86  O   UNL A   1      34.838  34.758  27.332  1.00  0.00    -0.237 OA
ATOM     87  O   UNL A   1      32.631  33.748  27.772  1.00  0.00    -0.237 OA
ATOM     88  O   UNL A   1      34.021  34.520  29.647  1.00  0.00    -0.744 OA
ENDBRANCH  82  85
ENDBRANCH  54  78
BRANCH  66  89
ATOM     89  C   UNL A   1      39.035  32.169  35.330  1.00  0.00     0.023 A 
ATOM     90  C   UNL A   1      39.008  33.575  35.286  1.00  0.00     0.012 A 
ATOM     91  C   UNL A   1      38.468  31.497  36.433  1.00  0.00     0.148 A 
ATOM     92  C   UNL A   1      38.436  34.303  36.330  1.00  0.00     0.002 A 
ATOM     93  C   UNL A   1      37.853  32.225  37.442  1.00  0.00     0.091 A 
ATOM     94  F   UNL A   1      38.521  30.158  36.460  1.00  0.00    -0.205 F 
ATOM     95  C   UNL A   1      37.845  33.629  37.399  1.00  0.00     0.022 A 
BRANCH  93  96
ATOM     96  S   UNL A   1      36.972  31.441  38.797  1.00  0.00     0.127 S 
ATOM     97  O   UNL A   1      36.816  30.075  38.301  1.00  0.00    -0.237 OA
ATOM     98  O   UNL A   1      37.920  31.583  39.903  1.00  0.00    -0.237 OA
ATOM     99  O   UNL A   1      35.732  32.186  38.962  1.00  0.00    -0.744 OA
ENDBRANCH  93  96
ENDBRANCH  66  89
ENDBRANCH  40  41
ENDBRANCH  33  35
ENDBRANCH  32  33
ENDBRANCH  31  32
ENDBRANCH  30  31
ENDBRANCH  29  30
ENDBRANCH  28  29
ENDBRANCH  27  28
ENDBRANCH   1  27
TORSDOF 26
ENDMDL
