MODEL 1
REMARK VINA RESULT:      -9.5      0.000      0.000
REMARK SMILES COCC(=O)N1[C@@H](C(=O)OCCOCCOCCOCCOC(=O)c2ccc(-c3c4nc(c(-c5cccc(S(=O)(=O)[O-])c5F)c5ccc([nH]5)c(-c5cccc(S(=O)(=O)[O-])c5F)c5nc(c(-c6cccc(S(=O)(=O)[O-])c6F)c6ccc3[nH]6)C=C5)C=C4)cc2)CC[C@@H]2CCCC[C@H]21
REMARK SMILES IDX 16 1 15 2 14 3 13 4 12 5 11 6 10 7 8 8 9 9 7 10 6 11 95 12
REMARK SMILES IDX 88 13 90 14 94 15 89 16 91 17 93 18 92 19 4 20 5 21 3 22
REMARK SMILES IDX 2 23 1 24 17 25 18 26 19 27 20 28 21 29 22 30 23 31 24 32
REMARK SMILES IDX 25 33 26 34 87 35 27 36 86 37 28 38 29 39 30 40 80 41 31 42
REMARK SMILES IDX 85 43 79 44 81 45 32 46 84 47 78 48 77 49 33 51 65 52 45 53
REMARK SMILES IDX 64 54 46 55 49 56 63 57 82 58 47 59 48 60 62 62 83 63 50 64
REMARK SMILES IDX 34 65 35 66 43 67 36 68 38 69 44 70 37 71 39 72 40 73 41 74
REMARK SMILES IDX 42 75 66 76 67 77 75 78 68 79 70 80 76 81 69 82 71 83 72 84
REMARK SMILES IDX 73 85 74 86 51 87 52 88 60 89 53 90 55 91 61 92 54 93 56 94
REMARK SMILES IDX 57 95 58 96 59 97
REMARK H PARENT 81 50 49 61
REMARK Flexibility Score: inf
ROOT
ATOM      1  O   UNL A   1      33.475  28.291  25.395  1.00  0.00    -0.377 OA
ENDROOT
BRANCH   1   2
ATOM      2  C   UNL A   1      33.445  28.226  23.974  1.00  0.00     0.188 C 
BRANCH   2   3
ATOM      3  C   UNL A   1      32.116  28.225  23.201  1.00  0.00     0.188 C 
BRANCH   3   4
ATOM      4  O   UNL A   1      30.960  28.010  23.992  1.00  0.00    -0.376 OA
BRANCH   4   5
ATOM      5  C   UNL A   1      29.968  27.188  23.411  1.00  0.00     0.202 C 
BRANCH   5   6
ATOM      6  C   UNL A   1      29.995  25.711  23.804  1.00  0.00     0.261 C 
BRANCH   6   7
ATOM      7  O   UNL A   1      31.188  25.201  24.421  1.00  0.00    -0.462 OA
BRANCH   7   8
ATOM      8  C   UNL A   1      31.741  24.081  23.898  1.00  0.00     0.328 C 
ATOM      9  O   UNL A   1      31.129  23.262  23.218  1.00  0.00    -0.250 OA
BRANCH   8  10
ATOM     10  C   UNL A   1      33.228  23.913  24.294  1.00  0.00     0.195 C 
ATOM     11  N   UNL A   1      33.696  22.530  24.566  1.00  0.00    -0.324 N 
ATOM     12  C   UNL A   1      35.166  22.407  24.599  1.00  0.00     0.089 C 
ATOM     13  C   UNL A   1      33.771  24.850  25.389  1.00  0.00     0.037 C 
ATOM     14  C   UNL A   1      35.823  23.391  25.595  1.00  0.00     0.012 C 
ATOM     15  C   UNL A   1      35.681  20.975  24.841  1.00  0.00     0.025 C 
ATOM     16  C   UNL A   1      35.306  24.819  25.383  1.00  0.00     0.008 C 
ATOM     17  C   UNL A   1      37.353  23.330  25.460  1.00  0.00     0.006 C 
ATOM     18  C   UNL A   1      37.205  20.900  24.770  1.00  0.00     0.002 C 
ATOM     19  C   UNL A   1      37.871  21.913  25.698  1.00  0.00     0.000 C 
BRANCH  11  20
ATOM     20  C   UNL A   1      32.952  21.784  25.489  1.00  0.00     0.249 C 
ATOM     21  O   UNL A   1      33.000  21.974  26.702  1.00  0.00    -0.272 OA
BRANCH  20  22
ATOM     22  C   UNL A   1      32.151  20.611  24.892  1.00  0.00     0.259 C 
BRANCH  22  23
ATOM     23  O   UNL A   1      32.378  19.318  25.412  1.00  0.00    -0.375 OA
ATOM     24  C   UNL A   1      32.823  18.385  24.436  1.00  0.00     0.195 C 
ENDBRANCH  22  23
ENDBRANCH  20  22
ENDBRANCH  11  20
ENDBRANCH   8  10
ENDBRANCH   7   8
ENDBRANCH   6   7
ENDBRANCH   5   6
ENDBRANCH   4   5
ENDBRANCH   3   4
ENDBRANCH   2   3
ENDBRANCH   1   2
BRANCH   1  25
ATOM     25  C   UNL A   1      33.334  29.546  26.057  1.00  0.00     0.188 C 
BRANCH  25  26
ATOM     26  C   UNL A   1      32.032  29.806  26.838  1.00  0.00     0.188 C 
BRANCH  26  27
ATOM     27  O   UNL A   1      31.650  31.171  26.854  1.00  0.00    -0.376 OA
BRANCH  27  28
ATOM     28  C   UNL A   1      32.634  32.127  27.220  1.00  0.00     0.202 C 
BRANCH  28  29
ATOM     29  C   UNL A   1      32.252  33.606  27.409  1.00  0.00     0.261 C 
BRANCH  29  30
ATOM     30  O   UNL A   1      33.263  34.501  27.901  1.00  0.00    -0.460 OA
BRANCH  30  31
ATOM     31  C   UNL A   1      33.395  34.666  29.227  1.00  0.00     0.338 C 
ATOM     32  O   UNL A   1      32.611  35.243  29.981  1.00  0.00    -0.246 OA
BRANCH  31  33
ATOM     33  C   UNL A   1      34.568  33.887  29.666  1.00  0.00     0.060 A 
ATOM     34  C   UNL A   1      34.404  32.842  30.585  1.00  0.00     0.016 A 
ATOM     35  C   UNL A   1      35.839  34.198  29.173  1.00  0.00     0.016 A 
ATOM     36  C   UNL A   1      35.516  32.138  31.051  1.00  0.00     0.010 A 
ATOM     37  C   UNL A   1      36.953  33.504  29.655  1.00  0.00     0.010 A 
ATOM     38  C   UNL A   1      36.801  32.500  30.626  1.00  0.00    -0.014 A 
BRANCH  38  39
ATOM     39  C   UNL A   1      37.992  31.981  31.345  1.00  0.00     0.031 A 
ATOM     40  C   UNL A   1      38.771  30.860  30.709  1.00  0.00     0.074 A 
ATOM     41  C   UNL A   1      38.366  32.474  32.539  1.00  0.00     0.049 A 
ATOM     42  N   UNL A   1      39.804  30.203  31.167  1.00  0.00    -0.248 NA
ATOM     43  C   UNL A   1      38.323  30.420  29.376  1.00  0.00     0.031 C 
ATOM     44  C   UNL A   1      37.697  33.558  33.256  1.00  0.00     0.029 A 
ATOM     45  N   UNL A   1      39.389  32.097  33.375  1.00  0.00    -0.354 N 
ATOM     46  C   UNL A   1      40.105  29.251  30.200  1.00  0.00     0.074 A 
ATOM     47  C   UNL A   1      39.148  29.415  29.128  1.00  0.00     0.031 C 
ATOM     48  C   UNL A   1      38.302  33.731  34.445  1.00  0.00     0.029 A 
ATOM     49  C   UNL A   1      39.382  32.755  34.584  1.00  0.00     0.049 A 
ATOM     50  H   UNL A   1      40.061  31.419  33.134  1.00  0.00     0.167 HD
ATOM     51  C   UNL A   1      41.094  28.328  30.200  1.00  0.00     0.034 A 
ATOM     52  C   UNL A   1      40.140  32.567  35.684  1.00  0.00     0.034 A 
ATOM     53  C   UNL A   1      42.059  28.181  31.254  1.00  0.00     0.049 A 
ATOM     54  C   UNL A   1      41.227  31.520  35.661  1.00  0.00     0.074 A 
ATOM     55  C   UNL A   1      43.136  27.314  31.316  1.00  0.00     0.029 A 
ATOM     56  N   UNL A   1      42.057  28.905  32.434  1.00  0.00    -0.354 N 
ATOM     57  N   UNL A   1      41.582  30.718  34.687  1.00  0.00    -0.248 NA
ATOM     58  C   UNL A   1      42.038  31.375  36.879  1.00  0.00     0.031 C 
ATOM     59  C   UNL A   1      43.768  27.494  32.551  1.00  0.00     0.029 A 
ATOM     60  C   UNL A   1      43.103  28.495  33.241  1.00  0.00     0.049 A 
ATOM     61  H   UNL A   1      41.406  29.607  32.665  1.00  0.00     0.167 HD
ATOM     62  C   UNL A   1      42.677  30.001  35.160  1.00  0.00     0.074 A 
ATOM     63  C   UNL A   1      42.941  30.480  36.501  1.00  0.00     0.031 C 
ATOM     64  C   UNL A   1      43.391  29.024  34.549  1.00  0.00     0.034 A 
BRANCH  51  65
ATOM     65  C   UNL A   1      41.198  27.408  29.014  1.00  0.00     0.023 A 
ATOM     66  C   UNL A   1      40.311  26.320  28.891  1.00  0.00     0.012 A 
ATOM     67  C   UNL A   1      42.124  27.668  27.985  1.00  0.00     0.148 A 
ATOM     68  C   UNL A   1      40.356  25.493  27.769  1.00  0.00     0.002 A 
ATOM     69  C   UNL A   1      42.134  26.865  26.851  1.00  0.00     0.091 A 
ATOM     70  F   UNL A   1      42.974  28.694  28.135  1.00  0.00    -0.205 F 
ATOM     71  C   UNL A   1      41.259  25.772  26.746  1.00  0.00     0.022 A 
BRANCH  69  72
ATOM     72  S   UNL A   1      43.204  27.187  25.444  1.00  0.00     0.127 S 
ATOM     73  O   UNL A   1      44.374  27.777  26.092  1.00  0.00    -0.237 OA
ATOM     74  O   UNL A   1      43.417  25.843  24.908  1.00  0.00    -0.237 OA
ATOM     75  O   UNL A   1      42.461  28.082  24.568  1.00  0.00    -0.744 OA
ENDBRANCH  69  72
ENDBRANCH  51  65
BRANCH  52  76
ATOM     76  C   UNL A   1      39.911  33.391  36.904  1.00  0.00     0.023 A 
ATOM     77  C   UNL A   1      40.526  34.653  37.024  1.00  0.00     0.012 A 
ATOM     78  C   UNL A   1      39.093  32.927  37.952  1.00  0.00     0.148 A 
ATOM     79  C   UNL A   1      40.363  35.419  38.179  1.00  0.00     0.002 A 
ATOM     80  C   UNL A   1      38.888  33.719  39.076  1.00  0.00     0.091 A 
ATOM     81  F   UNL A   1      38.534  31.713  37.833  1.00  0.00    -0.205 F 
ATOM     82  C   UNL A   1      39.536  34.957  39.201  1.00  0.00     0.022 A 
BRANCH  80  83
ATOM     83  S   UNL A   1      37.738  33.259  40.377  1.00  0.00     0.127 S 
ATOM     84  O   UNL A   1      38.416  32.117  40.985  1.00  0.00    -0.237 OA
ATOM     85  O   UNL A   1      37.712  34.470  41.198  1.00  0.00    -0.237 OA
ATOM     86  O   UNL A   1      36.482  32.968  39.700  1.00  0.00    -0.744 OA
ENDBRANCH  80  83
ENDBRANCH  52  76
BRANCH  64  87
ATOM     87  C   UNL A   1      44.558  28.430  35.295  1.00  0.00     0.023 A 
ATOM     88  C   UNL A   1      45.843  28.989  35.147  1.00  0.00     0.012 A 
ATOM     89  C   UNL A   1      44.363  27.375  36.208  1.00  0.00     0.148 A 
ATOM     90  C   UNL A   1      46.922  28.483  35.871  1.00  0.00     0.002 A 
ATOM     91  C   UNL A   1      45.433  26.910  36.963  1.00  0.00     0.091 A 
ATOM     92  F   UNL A   1      43.136  26.846  36.323  1.00  0.00    -0.205 F 
ATOM     93  C   UNL A   1      46.715  27.454  36.787  1.00  0.00     0.022 A 
BRANCH  91  94
ATOM     94  S   UNL A   1      45.240  25.657  38.236  1.00  0.00     0.127 S 
ATOM     95  O   UNL A   1      44.776  26.454  39.370  1.00  0.00    -0.237 OA
ATOM     96  O   UNL A   1      44.226  24.776  37.654  1.00  0.00    -0.237 OA
ATOM     97  O   UNL A   1      46.551  25.043  38.397  1.00  0.00    -0.744 OA
ENDBRANCH  91  94
ENDBRANCH  64  87
ENDBRANCH  38  39
ENDBRANCH  31  33
ENDBRANCH  30  31
ENDBRANCH  29  30
ENDBRANCH  28  29
ENDBRANCH  27  28
ENDBRANCH  26  27
ENDBRANCH  25  26
ENDBRANCH   1  25
TORSDOF 26
ENDMDL
MODEL 2
REMARK VINA RESULT:      -8.7      1.697      2.235
REMARK SMILES COCC(=O)N1[C@@H](C(=O)OCCOCCOCCOCCOC(=O)c2ccc(-c3c4nc(c(-c5cccc(S(=O)(=O)[O-])c5F)c5ccc([nH]5)c(-c5cccc(S(=O)(=O)[O-])c5F)c5nc(c(-c6cccc(S(=O)(=O)[O-])c6F)c6ccc3[nH]6)C=C5)C=C4)cc2)CC[C@@H]2CCCC[C@H]21
REMARK SMILES IDX 16 1 15 2 14 3 13 4 12 5 11 6 10 7 8 8 9 9 7 10 6 11 95 12
REMARK SMILES IDX 88 13 90 14 94 15 89 16 91 17 93 18 92 19 4 20 5 21 3 22
REMARK SMILES IDX 2 23 1 24 17 25 18 26 19 27 20 28 21 29 22 30 23 31 24 32
REMARK SMILES IDX 25 33 26 34 87 35 27 36 86 37 28 38 29 39 30 40 80 41 31 42
REMARK SMILES IDX 85 43 79 44 81 45 32 46 84 47 78 48 77 49 33 51 65 52 45 53
REMARK SMILES IDX 64 54 46 55 49 56 63 57 82 58 47 59 48 60 62 62 83 63 50 64
REMARK SMILES IDX 34 65 35 66 43 67 36 68 38 69 44 70 37 71 39 72 40 73 41 74
REMARK SMILES IDX 42 75 66 76 67 77 75 78 68 79 70 80 76 81 69 82 71 83 72 84
REMARK SMILES IDX 73 85 74 86 51 87 52 88 60 89 53 90 55 91 61 92 54 93 56 94
REMARK SMILES IDX 57 95 58 96 59 97
REMARK H PARENT 81 50 49 61
REMARK Flexibility Score: inf
ROOT
ATOM      1  O   UNL A   1      33.118  28.812  26.492  1.00  0.00    -0.377 OA
ENDROOT
BRANCH   1   2
ATOM      2  C   UNL A   1      33.348  28.283  25.192  1.00  0.00     0.188 C 
BRANCH   2   3
ATOM      3  C   UNL A   1      32.194  28.083  24.194  1.00  0.00     0.188 C 
BRANCH   3   4
ATOM      4  O   UNL A   1      30.904  28.006  24.775  1.00  0.00    -0.376 OA
BRANCH   4   5
ATOM      5  C   UNL A   1      30.074  26.975  24.280  1.00  0.00     0.202 C 
BRANCH   5   6
ATOM      6  C   UNL A   1      30.235  25.601  24.932  1.00  0.00     0.261 C 
BRANCH   6   7
ATOM      7  O   UNL A   1      31.320  25.419  25.857  1.00  0.00    -0.462 OA
BRANCH   7   8
ATOM      8  C   UNL A   1      31.380  24.250  26.537  1.00  0.00     0.328 C 
ATOM      9  O   UNL A   1      30.478  23.818  27.249  1.00  0.00    -0.250 OA
BRANCH   8  10
ATOM     10  C   UNL A   1      32.741  23.532  26.364  1.00  0.00     0.195 C 
ATOM     11  N   UNL A   1      33.265  23.417  24.979  1.00  0.00    -0.324 N 
ATOM     12  C   UNL A   1      34.690  23.039  24.923  1.00  0.00     0.089 C 
ATOM     13  C   UNL A   1      32.915  22.180  27.079  1.00  0.00     0.037 C 
ATOM     14  C   UNL A   1      34.993  21.743  25.710  1.00  0.00     0.012 C 
ATOM     15  C   UNL A   1      35.271  22.949  23.498  1.00  0.00     0.025 C 
ATOM     16  C   UNL A   1      34.403  21.805  27.125  1.00  0.00     0.008 C 
ATOM     17  C   UNL A   1      36.509  21.498  25.753  1.00  0.00     0.006 C 
ATOM     18  C   UNL A   1      36.768  22.648  23.514  1.00  0.00     0.002 C 
ATOM     19  C   UNL A   1      37.093  21.408  24.344  1.00  0.00     0.000 C 
BRANCH  11  20
ATOM     20  C   UNL A   1      32.401  22.868  24.022  1.00  0.00     0.249 C 
ATOM     21  O   UNL A   1      31.748  21.845  24.214  1.00  0.00    -0.272 OA
BRANCH  20  22
ATOM     22  C   UNL A   1      32.410  23.567  22.650  1.00  0.00     0.259 C 
BRANCH  22  23
ATOM     23  O   UNL A   1      32.752  24.937  22.604  1.00  0.00    -0.375 OA
ATOM     24  C   UNL A   1      32.390  25.570  21.383  1.00  0.00     0.195 C 
ENDBRANCH  22  23
ENDBRANCH  20  22
ENDBRANCH  11  20
ENDBRANCH   8  10
ENDBRANCH   7   8
ENDBRANCH   6   7
ENDBRANCH   5   6
ENDBRANCH   4   5
ENDBRANCH   3   4
ENDBRANCH   2   3
ENDBRANCH   1   2
BRANCH   1  25
ATOM     25  C   UNL A   1      32.906  30.211  26.669  1.00  0.00     0.188 C 
BRANCH  25  26
ATOM     26  C   UNL A   1      31.470  30.746  26.518  1.00  0.00     0.188 C 
BRANCH  26  27
ATOM     27  O   UNL A   1      31.350  32.126  26.818  1.00  0.00    -0.376 OA
BRANCH  27  28
ATOM     28  C   UNL A   1      32.463  32.769  27.421  1.00  0.00     0.202 C 
BRANCH  28  29
ATOM     29  C   UNL A   1      32.469  34.295  27.618  1.00  0.00     0.261 C 
BRANCH  29  30
ATOM     30  O   UNL A   1      33.580  34.875  28.322  1.00  0.00    -0.460 OA
BRANCH  30  31
ATOM     31  C   UNL A   1      33.678  34.687  29.648  1.00  0.00     0.338 C 
ATOM     32  O   UNL A   1      32.857  35.018  30.504  1.00  0.00    -0.246 OA
BRANCH  31  33
ATOM     33  C   UNL A   1      34.871  33.856  29.900  1.00  0.00     0.060 A 
ATOM     34  C   UNL A   1      34.759  32.698  30.682  1.00  0.00     0.016 A 
ATOM     35  C   UNL A   1      36.109  34.230  29.370  1.00  0.00     0.016 A 
ATOM     36  C   UNL A   1      35.893  31.939  30.976  1.00  0.00     0.010 A 
ATOM     37  C   UNL A   1      37.246  33.479  29.680  1.00  0.00     0.010 A 
ATOM     38  C   UNL A   1      37.151  32.355  30.517  1.00  0.00    -0.014 A 
BRANCH  38  39
ATOM     39  C   UNL A   1      38.382  31.745  31.080  1.00  0.00     0.031 A 
ATOM     40  C   UNL A   1      39.065  30.665  30.284  1.00  0.00     0.074 A 
ATOM     41  C   UNL A   1      38.875  32.122  32.273  1.00  0.00     0.049 A 
ATOM     42  N   UNL A   1      40.112  29.944  30.590  1.00  0.00    -0.248 NA
ATOM     43  C   UNL A   1      38.488  30.354  28.964  1.00  0.00     0.031 C 
ATOM     44  C   UNL A   1      38.307  33.156  33.136  1.00  0.00     0.029 A 
ATOM     45  N   UNL A   1      39.953  31.648  32.979  1.00  0.00    -0.354 N 
ATOM     46  C   UNL A   1      40.296  29.073  29.524  1.00  0.00     0.074 A 
ATOM     47  C   UNL A   1      39.256  29.354  28.559  1.00  0.00     0.031 C 
ATOM     48  C   UNL A   1      39.018  33.209  34.277  1.00  0.00     0.029 A 
ATOM     49  C   UNL A   1      40.074  32.198  34.235  1.00  0.00     0.049 A 
ATOM     50  H   UNL A   1      40.580  30.977  32.622  1.00  0.00     0.167 HD
ATOM     51  C   UNL A   1      41.251  28.128  29.357  1.00  0.00     0.034 A 
ATOM     52  C   UNL A   1      40.918  31.896  35.242  1.00  0.00     0.034 A 
ATOM     53  C   UNL A   1      42.299  27.866  30.303  1.00  0.00     0.049 A 
ATOM     54  C   UNL A   1      41.963  30.827  35.034  1.00  0.00     0.074 A 
ATOM     55  C   UNL A   1      43.348  26.970  30.195  1.00  0.00     0.029 A 
ATOM     56  N   UNL A   1      42.423  28.485  31.536  1.00  0.00    -0.354 N 
ATOM     57  N   UNL A   1      42.206  30.105  33.967  1.00  0.00    -0.248 NA
ATOM     58  C   UNL A   1      42.873  30.557  36.158  1.00  0.00     0.031 C 
ATOM     59  C   UNL A   1      44.091  27.026  31.378  1.00  0.00     0.029 A 
ATOM     60  C   UNL A   1      43.522  27.980  32.208  1.00  0.00     0.049 A 
ATOM     61  H   UNL A   1      41.818  29.180  31.883  1.00  0.00     0.167 HD
ATOM     62  C   UNL A   1      43.314  29.322  34.278  1.00  0.00     0.074 A 
ATOM     63  C   UNL A   1      43.709  29.676  35.626  1.00  0.00     0.031 C 
ATOM     64  C   UNL A   1      43.939  28.384  33.525  1.00  0.00     0.034 A 
BRANCH  51  65
ATOM     65  C   UNL A   1      41.221  27.313  28.092  1.00  0.00     0.023 A 
ATOM     66  C   UNL A   1      41.700  27.869  26.889  1.00  0.00     0.012 A 
ATOM     67  C   UNL A   1      40.790  25.972  28.113  1.00  0.00     0.148 A 
ATOM     68  C   UNL A   1      41.733  27.108  25.721  1.00  0.00     0.002 A 
ATOM     69  C   UNL A   1      40.866  25.208  26.956  1.00  0.00     0.091 A 
ATOM     70  F   UNL A   1      40.316  25.473  29.264  1.00  0.00    -0.205 F 
ATOM     71  C   UNL A   1      41.328  25.776  25.758  1.00  0.00     0.022 A 
BRANCH  69  72
ATOM     72  S   UNL A   1      40.442  23.463  26.917  1.00  0.00     0.127 S 
ATOM     73  O   UNL A   1      39.061  23.505  26.440  1.00  0.00    -0.237 OA
ATOM     74  O   UNL A   1      41.406  22.935  25.951  1.00  0.00    -0.237 OA
ATOM     75  O   UNL A   1      40.615  22.974  28.278  1.00  0.00    -0.744 OA
ENDBRANCH  69  72
ENDBRANCH  51  65
BRANCH  52  76
ATOM     76  C   UNL A   1      40.823  32.616  36.544  1.00  0.00     0.023 A 
ATOM     77  C   UNL A   1      41.798  33.573  36.889  1.00  0.00     0.012 A 
ATOM     78  C   UNL A   1      39.776  32.350  37.447  1.00  0.00     0.148 A 
ATOM     79  C   UNL A   1      41.754  34.223  38.123  1.00  0.00     0.002 A 
ATOM     80  C   UNL A   1      39.706  33.043  38.650  1.00  0.00     0.091 A 
ATOM     81  F   UNL A   1      38.870  31.420  37.115  1.00  0.00    -0.205 F 
ATOM     82  C   UNL A   1      40.703  33.966  39.000  1.00  0.00     0.022 A 
BRANCH  80  83
ATOM     83  S   UNL A   1      38.317  32.868  39.777  1.00  0.00     0.127 S 
ATOM     84  O   UNL A   1      38.799  31.832  40.687  1.00  0.00    -0.237 OA
ATOM     85  O   UNL A   1      38.231  34.209  40.359  1.00  0.00    -0.237 OA
ATOM     86  O   UNL A   1      37.181  32.504  38.941  1.00  0.00    -0.744 OA
ENDBRANCH  80  83
ENDBRANCH  52  76
BRANCH  64  87
ATOM     87  C   UNL A   1      45.147  27.699  34.110  1.00  0.00     0.023 A 
ATOM     88  C   UNL A   1      46.417  28.297  33.995  1.00  0.00     0.012 A 
ATOM     89  C   UNL A   1      45.007  26.507  34.848  1.00  0.00     0.148 A 
ATOM     90  C   UNL A   1      47.536  27.700  34.578  1.00  0.00     0.002 A 
ATOM     91  C   UNL A   1      46.117  25.945  35.467  1.00  0.00     0.091 A 
ATOM     92  F   UNL A   1      43.792  25.945  34.932  1.00  0.00    -0.205 F 
ATOM     93  C   UNL A   1      47.383  26.533  35.323  1.00  0.00     0.022 A 
BRANCH  91  94
ATOM     94  S   UNL A   1      45.997  24.500  36.528  1.00  0.00     0.127 S 
ATOM     95  O   UNL A   1      44.796  24.799  37.306  1.00  0.00    -0.237 OA
ATOM     96  O   UNL A   1      45.842  23.415  35.559  1.00  0.00    -0.237 OA
ATOM     97  O   UNL A   1      47.239  24.456  37.288  1.00  0.00    -0.744 OA
ENDBRANCH  91  94
ENDBRANCH  64  87
ENDBRANCH  38  39
ENDBRANCH  31  33
ENDBRANCH  30  31
ENDBRANCH  29  30
ENDBRANCH  28  29
ENDBRANCH  27  28
ENDBRANCH  26  27
ENDBRANCH  25  26
ENDBRANCH   1  25
TORSDOF 26
ENDMDL
MODEL 3
REMARK VINA RESULT:      -8.5      2.019      7.597
REMARK SMILES COCC(=O)N1[C@@H](C(=O)OCCOCCOCCOCCOC(=O)c2ccc(-c3c4nc(c(-c5cccc(S(=O)(=O)[O-])c5F)c5ccc([nH]5)c(-c5cccc(S(=O)(=O)[O-])c5F)c5nc(c(-c6cccc(S(=O)(=O)[O-])c6F)c6ccc3[nH]6)C=C5)C=C4)cc2)CC[C@@H]2CCCC[C@H]21
REMARK SMILES IDX 16 1 15 2 14 3 13 4 12 5 11 6 10 7 8 8 9 9 7 10 6 11 95 12
REMARK SMILES IDX 88 13 90 14 94 15 89 16 91 17 93 18 92 19 4 20 5 21 3 22
REMARK SMILES IDX 2 23 1 24 17 25 18 26 19 27 20 28 21 29 22 30 23 31 24 32
REMARK SMILES IDX 25 33 26 34 87 35 27 36 86 37 28 38 29 39 30 40 80 41 31 42
REMARK SMILES IDX 85 43 79 44 81 45 32 46 84 47 78 48 77 49 33 51 65 52 45 53
REMARK SMILES IDX 64 54 46 55 49 56 63 57 82 58 47 59 48 60 62 62 83 63 50 64
REMARK SMILES IDX 34 65 35 66 43 67 36 68 38 69 44 70 37 71 39 72 40 73 41 74
REMARK SMILES IDX 42 75 66 76 67 77 75 78 68 79 70 80 76 81 69 82 71 83 72 84
REMARK SMILES IDX 73 85 74 86 51 87 52 88 60 89 53 90 55 91 61 92 54 93 56 94
REMARK SMILES IDX 57 95 58 96 59 97
REMARK H PARENT 81 50 49 61
REMARK Flexibility Score: inf
ROOT
ATOM      1  O   UNL A   1      33.021  28.653  27.237  1.00  0.00    -0.377 OA
ENDROOT
BRANCH   1   2
ATOM      2  C   UNL A   1      33.074  27.842  26.070  1.00  0.00     0.188 C 
BRANCH   2   3
ATOM      3  C   UNL A   1      32.056  28.013  24.930  1.00  0.00     0.188 C 
BRANCH   3   4
ATOM      4  O   UNL A   1      30.789  27.423  25.162  1.00  0.00    -0.376 OA
BRANCH   4   5
ATOM      5  C   UNL A   1      30.324  26.559  24.145  1.00  0.00     0.202 C 
BRANCH   5   6
ATOM      6  C   UNL A   1      30.345  25.064  24.463  1.00  0.00     0.261 C 
BRANCH   6   7
ATOM      7  O   UNL A   1      30.426  24.670  25.843  1.00  0.00    -0.462 OA
BRANCH   7   8
ATOM      8  C   UNL A   1      30.854  23.416  26.118  1.00  0.00     0.328 C 
ATOM      9  O   UNL A   1      30.112  22.478  26.394  1.00  0.00    -0.250 OA
BRANCH   8  10
ATOM     10  C   UNL A   1      32.398  23.298  26.098  1.00  0.00     0.195 C 
ATOM     11  N   UNL A   1      33.020  22.881  24.816  1.00  0.00    -0.324 N 
ATOM     12  C   UNL A   1      34.476  23.118  24.770  1.00  0.00     0.089 C 
ATOM     13  C   UNL A   1      33.055  22.517  27.251  1.00  0.00     0.037 C 
ATOM     14  C   UNL A   1      35.223  22.463  25.955  1.00  0.00     0.012 C 
ATOM     15  C   UNL A   1      35.144  22.729  23.435  1.00  0.00     0.025 C 
ATOM     16  C   UNL A   1      34.560  22.821  27.291  1.00  0.00     0.008 C 
ATOM     17  C   UNL A   1      36.701  22.884  25.941  1.00  0.00     0.006 C 
ATOM     18  C   UNL A   1      36.629  23.086  23.419  1.00  0.00     0.002 C 
ATOM     19  C   UNL A   1      37.370  22.504  24.621  1.00  0.00     0.000 C 
BRANCH  11  20
ATOM     20  C   UNL A   1      32.525  21.711  24.226  1.00  0.00     0.249 C 
ATOM     21  O   UNL A   1      31.776  21.715  23.252  1.00  0.00    -0.272 OA
BRANCH  20  22
ATOM     22  C   UNL A   1      32.883  20.403  24.957  1.00  0.00     0.259 C 
BRANCH  22  23
ATOM     23  O   UNL A   1      32.082  19.266  24.716  1.00  0.00    -0.375 OA
ATOM     24  C   UNL A   1      32.546  18.465  23.636  1.00  0.00     0.195 C 
ENDBRANCH  22  23
ENDBRANCH  20  22
ENDBRANCH  11  20
ENDBRANCH   8  10
ENDBRANCH   7   8
ENDBRANCH   6   7
ENDBRANCH   5   6
ENDBRANCH   4   5
ENDBRANCH   3   4
ENDBRANCH   2   3
ENDBRANCH   1   2
BRANCH   1  25
ATOM     25  C   UNL A   1      32.983  30.074  27.120  1.00  0.00     0.188 C 
BRANCH  25  26
ATOM     26  C   UNL A   1      31.715  30.713  26.523  1.00  0.00     0.188 C 
BRANCH  26  27
ATOM     27  O   UNL A   1      31.635  32.112  26.743  1.00  0.00    -0.376 OA
BRANCH  27  28
ATOM     28  C   UNL A   1      32.722  32.738  27.409  1.00  0.00     0.202 C 
BRANCH  28  29
ATOM     29  C   UNL A   1      32.710  34.256  27.662  1.00  0.00     0.261 C 
BRANCH  29  30
ATOM     30  O   UNL A   1      33.761  34.809  28.471  1.00  0.00    -0.460 OA
BRANCH  30  31
ATOM     31  C   UNL A   1      33.749  34.582  29.795  1.00  0.00     0.338 C 
ATOM     32  O   UNL A   1      32.898  34.959  30.601  1.00  0.00    -0.246 OA
BRANCH  31  33
ATOM     33  C   UNL A   1      34.850  33.651  30.105  1.00  0.00     0.060 A 
ATOM     34  C   UNL A   1      34.606  32.530  30.911  1.00  0.00     0.016 A 
ATOM     35  C   UNL A   1      36.134  33.894  29.606  1.00  0.00     0.016 A 
ATOM     36  C   UNL A   1      35.655  31.676  31.259  1.00  0.00     0.010 A 
ATOM     37  C   UNL A   1      37.185  33.048  29.971  1.00  0.00     0.010 A 
ATOM     38  C   UNL A   1      36.959  31.961  30.831  1.00  0.00    -0.014 A 
BRANCH  38  39
ATOM     39  C   UNL A   1      38.110  31.254  31.448  1.00  0.00     0.031 A 
ATOM     40  C   UNL A   1      38.565  31.697  32.813  1.00  0.00     0.074 A 
ATOM     41  C   UNL A   1      38.750  30.257  30.811  1.00  0.00     0.049 A 
ATOM     42  N   UNL A   1      39.577  31.279  33.528  1.00  0.00    -0.248 NA
ATOM     43  C   UNL A   1      37.773  32.758  33.459  1.00  0.00     0.031 C 
ATOM     44  C   UNL A   1      38.405  29.736  29.490  1.00  0.00     0.029 A 
ATOM     45  N   UNL A   1      39.853  29.528  31.184  1.00  0.00    -0.354 N 
ATOM     46  C   UNL A   1      39.566  32.047  34.685  1.00  0.00     0.074 A 
ATOM     47  C   UNL A   1      38.446  32.957  34.582  1.00  0.00     0.031 C 
ATOM     48  C   UNL A   1      39.305  28.798  29.143  1.00  0.00     0.029 A 
ATOM     49  C   UNL A   1      40.302  28.671  30.205  1.00  0.00     0.049 A 
ATOM     50  H   UNL A   1      40.282  29.611  32.066  1.00  0.00     0.167 HD
ATOM     51  C   UNL A   1      40.406  31.995  35.744  1.00  0.00     0.034 A 
ATOM     52  C   UNL A   1      41.408  27.900  30.161  1.00  0.00     0.034 A 
ATOM     53  C   UNL A   1      41.503  31.075  35.858  1.00  0.00     0.049 A 
ATOM     54  C   UNL A   1      42.336  27.872  31.351  1.00  0.00     0.074 A 
ATOM     55  C   UNL A   1      42.375  30.906  36.920  1.00  0.00     0.029 A 
ATOM     56  N   UNL A   1      41.890  30.182  34.873  1.00  0.00    -0.354 N 
ATOM     57  N   UNL A   1      42.236  28.508  32.493  1.00  0.00    -0.248 NA
ATOM     58  C   UNL A   1      43.513  26.994  31.258  1.00  0.00     0.031 C 
ATOM     59  C   UNL A   1      43.309  29.929  36.563  1.00  0.00     0.029 A 
ATOM     60  C   UNL A   1      42.999  29.468  35.293  1.00  0.00     0.049 A 
ATOM     61  H   UNL A   1      41.444  30.072  34.002  1.00  0.00     0.167 HD
ATOM     62  C   UNL A   1      43.312  28.082  33.265  1.00  0.00     0.074 A 
ATOM     63  C   UNL A   1      44.040  27.116  32.469  1.00  0.00     0.031 C 
ATOM     64  C   UNL A   1      43.677  28.466  34.513  1.00  0.00     0.034 A 
BRANCH  51  65
ATOM     65  C   UNL A   1      40.166  32.951  36.882  1.00  0.00     0.023 A 
ATOM     66  C   UNL A   1      39.128  32.699  37.801  1.00  0.00     0.012 A 
ATOM     67  C   UNL A   1      41.017  34.055  37.082  1.00  0.00     0.148 A 
ATOM     68  C   UNL A   1      38.928  33.543  38.892  1.00  0.00     0.002 A 
ATOM     69  C   UNL A   1      40.839  34.866  38.195  1.00  0.00     0.091 A 
ATOM     70  F   UNL A   1      41.982  34.288  36.181  1.00  0.00    -0.205 F 
ATOM     71  C   UNL A   1      39.790  34.618  39.096  1.00  0.00     0.022 A 
BRANCH  69  72
ATOM     72  S   UNL A   1      41.941  36.229  38.589  1.00  0.00     0.127 S 
ATOM     73  O   UNL A   1      41.917  36.997  37.346  1.00  0.00    -0.237 OA
ATOM     74  O   UNL A   1      41.253  36.864  39.713  1.00  0.00    -0.237 OA
ATOM     75  O   UNL A   1      43.225  35.627  38.922  1.00  0.00    -0.744 OA
ENDBRANCH  69  72
ENDBRANCH  51  65
BRANCH  52  76
ATOM     76  C   UNL A   1      41.703  27.077  28.954  1.00  0.00     0.023 A 
ATOM     77  C   UNL A   1      41.146  25.789  28.829  1.00  0.00     0.012 A 
ATOM     78  C   UNL A   1      42.542  27.562  27.932  1.00  0.00     0.148 A 
ATOM     79  C   UNL A   1      41.449  24.985  27.729  1.00  0.00     0.002 A 
ATOM     80  C   UNL A   1      42.794  26.778  26.812  1.00  0.00     0.091 A 
ATOM     81  F   UNL A   1      43.084  28.780  28.078  1.00  0.00    -0.205 F 
ATOM     82  C   UNL A   1      42.265  25.483  26.716  1.00  0.00     0.022 A 
BRANCH  80  83
ATOM     83  S   UNL A   1      43.726  27.392  25.403  1.00  0.00     0.127 S 
ATOM     84  O   UNL A   1      44.421  26.187  24.958  1.00  0.00    -0.237 OA
ATOM     85  O   UNL A   1      42.658  27.852  24.513  1.00  0.00    -0.237 OA
ATOM     86  O   UNL A   1      44.569  28.457  25.928  1.00  0.00    -0.744 OA
ENDBRANCH  80  83
ENDBRANCH  52  76
BRANCH  64  87
ATOM     87  C   UNL A   1      44.889  27.814  35.126  1.00  0.00     0.023 A 
ATOM     88  C   UNL A   1      44.746  26.629  35.874  1.00  0.00     0.012 A 
ATOM     89  C   UNL A   1      46.178  28.330  34.887  1.00  0.00     0.148 A 
ATOM     90  C   UNL A   1      45.865  25.986  36.404  1.00  0.00     0.002 A 
ATOM     91  C   UNL A   1      47.292  27.656  35.375  1.00  0.00     0.091 A 
ATOM     92  F   UNL A   1      46.293  29.467  34.186  1.00  0.00    -0.205 F 
ATOM     93  C   UNL A   1      47.136  26.492  36.143  1.00  0.00     0.022 A 
BRANCH  91  94
ATOM     94  S   UNL A   1      48.970  28.179  35.005  1.00  0.00     0.127 S 
ATOM     95  O   UNL A   1      49.206  27.534  33.714  1.00  0.00    -0.237 OA
ATOM     96  O   UNL A   1      48.836  29.635  34.943  1.00  0.00    -0.237 OA
ATOM     97  O   UNL A   1      49.793  27.696  36.105  1.00  0.00    -0.744 OA
ENDBRANCH  91  94
ENDBRANCH  64  87
ENDBRANCH  38  39
ENDBRANCH  31  33
ENDBRANCH  30  31
ENDBRANCH  29  30
ENDBRANCH  28  29
ENDBRANCH  27  28
ENDBRANCH  26  27
ENDBRANCH  25  26
ENDBRANCH   1  25
TORSDOF 26
ENDMDL
