MODEL 1
REMARK VINA RESULT:      -7.2      0.000      0.000
REMARK SMILES CC(C)(C)OC(=O)N1CCC[C@H]1C(=O)N[C@@H](Cc1ccccc1)C(=O)OCCOCCOCCOCCOC(=O)c1ccc(-c2c3nc(c(-c4cccc(S(=O)(=O)[O-])c4F)c4ccc([nH]4)c(-c4cccc(S(=O)(=O)[O-])c4F)c4nc(c(-c5cccc(S(=O)(=O)[O-])c5F)c5ccc2[nH]5)C=C4)C=C3)cc1
REMARK SMILES IDX 31 1 30 2 29 3 28 4 27 5 26 6 24 7 25 8 16 9 15 10 13 11
REMARK SMILES IDX 14 12 12 14 8 15 9 16 10 17 11 18 6 19 7 20 5 21 2 22 1 23
REMARK SMILES IDX 3 24 4 25 17 26 18 27 19 28 23 29 20 30 22 31 21 32 32 33
REMARK SMILES IDX 33 34 34 35 35 36 36 37 37 38 38 39 39 40 40 41 41 42 42 43
REMARK SMILES IDX 103 44 43 45 102 46 44 47 45 48 46 49 96 50 47 51 101 52
REMARK SMILES IDX 95 53 97 54 48 55 100 56 94 57 93 58 49 60 81 61 61 62 80 63
REMARK SMILES IDX 62 64 65 65 79 66 98 67 63 68 64 69 78 71 99 72 66 73 50 74
REMARK SMILES IDX 51 75 59 76 52 77 54 78 60 79 53 80 55 81 56 82 57 83 58 84
REMARK SMILES IDX 82 85 83 86 91 87 84 88 86 89 92 90 85 91 87 92 88 93 89 94
REMARK SMILES IDX 90 95 67 96 68 97 76 98 69 99 71 100 77 101 70 102 72 103
REMARK SMILES IDX 73 104 74 105 75 106
REMARK H PARENT 15 13 97 59 65 70
REMARK Flexibility Score: inf
ROOT
ATOM      1  C   UNL A   1      39.716  27.034  29.318  1.00  0.00     0.188 C 
ENDROOT
BRANCH   1   2
ATOM      2  C   UNL A   1      40.094  28.461  28.920  1.00  0.00     0.188 C 
BRANCH   2   3
ATOM      3  O   UNL A   1      39.211  29.195  28.084  1.00  0.00    -0.376 OA
BRANCH   3   4
ATOM      4  C   UNL A   1      37.827  29.254  28.400  1.00  0.00     0.202 C 
BRANCH   4   5
ATOM      5  C   UNL A   1      36.849  30.257  27.751  1.00  0.00     0.261 C 
BRANCH   5   6
ATOM      6  O   UNL A   1      35.801  29.723  26.924  1.00  0.00    -0.462 OA
BRANCH   6   7
ATOM      7  C   UNL A   1      34.532  29.731  27.411  1.00  0.00     0.329 C 
ATOM      8  O   UNL A   1      34.071  28.849  28.130  1.00  0.00    -0.250 OA
BRANCH   7   9
ATOM      9  C   UNL A   1      33.663  30.862  26.790  1.00  0.00     0.196 C 
BRANCH   9  10
ATOM     10  N   UNL A   1      32.477  30.482  25.992  1.00  0.00    -0.341 N 
ATOM     11  C   UNL A   1      32.247  29.545  25.026  1.00  0.00     0.243 C 
ATOM     12  O   UNL A   1      31.073  29.441  24.645  1.00  0.00    -0.273 OA
ATOM     13  H   UNL A   1      31.681  31.022  26.203  1.00  0.00     0.164 HD
BRANCH  11  14
ATOM     14  C   UNL A   1      33.345  28.594  24.462  1.00  0.00     0.178 C 
ATOM     15  N   UNL A   1      32.948  27.172  24.423  1.00  0.00    -0.296 N 
ATOM     16  C   UNL A   1      32.625  26.750  23.074  1.00  0.00     0.124 C 
ATOM     17  C   UNL A   1      33.595  27.572  22.243  1.00  0.00     0.024 C 
ATOM     18  C   UNL A   1      33.629  28.917  22.969  1.00  0.00     0.037 C 
BRANCH  15  19
ATOM     19  C   UNL A   1      33.257  26.327  25.467  1.00  0.00     0.410 C 
ATOM     20  O   UNL A   1      32.570  26.300  26.472  1.00  0.00    -0.224 OA
BRANCH  19  21
ATOM     21  O   UNL A   1      34.358  25.555  25.258  1.00  0.00    -0.444 OA
BRANCH  21  22
ATOM     22  C   UNL A   1      34.291  24.097  25.085  1.00  0.00     0.106 C 
ATOM     23  C   UNL A   1      34.781  23.478  26.398  1.00  0.00     0.056 C 
ATOM     24  C   UNL A   1      35.273  23.694  23.980  1.00  0.00     0.056 C 
ATOM     25  C   UNL A   1      32.917  23.500  24.748  1.00  0.00     0.056 C 
ENDBRANCH  21  22
ENDBRANCH  19  21
ENDBRANCH  15  19
ENDBRANCH  11  14
ENDBRANCH   9  10
BRANCH   9  26
ATOM     26  C   UNL A   1      33.253  31.778  27.964  1.00  0.00     0.072 C 
BRANCH  26  27
ATOM     27  C   UNL A   1      34.404  32.491  28.643  1.00  0.00    -0.045 A 
ATOM     28  C   UNL A   1      34.643  32.319  30.013  1.00  0.00     0.004 A 
ATOM     29  C   UNL A   1      35.280  33.300  27.900  1.00  0.00     0.004 A 
ATOM     30  C   UNL A   1      35.738  32.936  30.622  1.00  0.00     0.000 A 
ATOM     31  C   UNL A   1      36.377  33.910  28.511  1.00  0.00     0.000 A 
ATOM     32  C   UNL A   1      36.604  33.729  29.872  1.00  0.00     0.000 A 
ENDBRANCH  26  27
ENDBRANCH   9  26
ENDBRANCH   7   9
ENDBRANCH   6   7
ENDBRANCH   5   6
ENDBRANCH   4   5
ENDBRANCH   3   4
ENDBRANCH   2   3
ENDBRANCH   1   2
BRANCH   1  33
ATOM     33  O   UNL A   1      39.479  26.192  28.215  1.00  0.00    -0.377 OA
BRANCH  33  34
ATOM     34  C   UNL A   1      40.196  24.971  28.219  1.00  0.00     0.188 C 
BRANCH  34  35
ATOM     35  C   UNL A   1      40.570  24.334  26.861  1.00  0.00     0.188 C 
BRANCH  35  36
ATOM     36  O   UNL A   1      39.805  23.190  26.496  1.00  0.00    -0.376 OA
BRANCH  36  37
ATOM     37  C   UNL A   1      40.128  21.913  27.021  1.00  0.00     0.202 C 
BRANCH  37  38
ATOM     38  C   UNL A   1      41.293  21.122  26.403  1.00  0.00     0.261 C 
BRANCH  38  39
ATOM     39  O   UNL A   1      42.055  21.785  25.390  1.00  0.00    -0.460 OA
BRANCH  39  40
ATOM     40  C   UNL A   1      43.384  21.546  25.338  1.00  0.00     0.338 C 
ATOM     41  O   UNL A   1      43.934  20.577  24.850  1.00  0.00    -0.246 OA
BRANCH  40  42
ATOM     42  C   UNL A   1      44.068  22.785  25.776  1.00  0.00     0.060 A 
ATOM     43  C   UNL A   1      43.900  23.953  25.017  1.00  0.00     0.016 A 
ATOM     44  C   UNL A   1      44.814  22.811  26.956  1.00  0.00     0.016 A 
ATOM     45  C   UNL A   1      44.503  25.142  25.421  1.00  0.00     0.010 A 
ATOM     46  C   UNL A   1      45.449  23.994  27.340  1.00  0.00     0.010 A 
ATOM     47  C   UNL A   1      45.325  25.155  26.554  1.00  0.00    -0.014 A 
BRANCH  47  48
ATOM     48  C   UNL A   1      46.243  26.296  26.771  1.00  0.00     0.031 A 
ATOM     49  C   UNL A   1      45.810  27.362  27.741  1.00  0.00     0.074 A 
ATOM     50  C   UNL A   1      47.431  26.381  26.147  1.00  0.00     0.049 A 
ATOM     51  N   UNL A   1      46.401  28.482  28.062  1.00  0.00    -0.248 NA
ATOM     52  C   UNL A   1      44.536  27.132  28.446  1.00  0.00     0.031 C 
ATOM     53  C   UNL A   1      47.972  25.396  25.212  1.00  0.00     0.029 A 
ATOM     54  N   UNL A   1      48.388  27.364  26.192  1.00  0.00    -0.354 N 
ATOM     55  C   UNL A   1      45.562  29.099  28.982  1.00  0.00     0.074 A 
ATOM     56  C   UNL A   1      44.415  28.239  29.160  1.00  0.00     0.031 C 
ATOM     57  C   UNL A   1      49.152  25.843  24.745  1.00  0.00     0.029 A 
ATOM     58  C   UNL A   1      49.432  27.156  25.323  1.00  0.00     0.049 A 
ATOM     59  H   UNL A   1      48.331  28.144  26.790  1.00  0.00     0.167 HD
ATOM     60  C   UNL A   1      45.739  30.270  29.635  1.00  0.00     0.034 A 
ATOM     61  C   UNL A   1      50.474  27.953  25.011  1.00  0.00     0.034 A 
ATOM     62  C   UNL A   1      46.884  31.120  29.462  1.00  0.00     0.049 A 
ATOM     63  C   UNL A   1      50.612  29.287  25.708  1.00  0.00     0.074 A 
ATOM     64  C   UNL A   1      47.165  32.320  30.088  1.00  0.00     0.029 A 
ATOM     65  N   UNL A   1      47.930  30.865  28.592  1.00  0.00    -0.354 N 
ATOM     66  N   UNL A   1      49.859  29.816  26.641  1.00  0.00    -0.248 NA
ATOM     67  C   UNL A   1      51.765  30.118  25.329  1.00  0.00     0.031 C 
ATOM     68  C   UNL A   1      48.367  32.809  29.570  1.00  0.00     0.029 A 
ATOM     69  C   UNL A   1      48.857  31.889  28.658  1.00  0.00     0.049 A 
ATOM     70  H   UNL A   1      48.004  30.072  28.012  1.00  0.00     0.167 HD
ATOM     71  C   UNL A   1      50.472  31.014  26.995  1.00  0.00     0.074 A 
ATOM     72  C   UNL A   1      51.669  31.124  26.188  1.00  0.00     0.031 C 
ATOM     73  C   UNL A   1      50.077  31.949  27.896  1.00  0.00     0.034 A 
BRANCH  60  74
ATOM     74  C   UNL A   1      44.677  30.696  30.613  1.00  0.00     0.023 A 
ATOM     75  C   UNL A   1      44.860  30.458  31.991  1.00  0.00     0.012 A 
ATOM     76  C   UNL A   1      43.534  31.393  30.177  1.00  0.00     0.148 A 
ATOM     77  C   UNL A   1      43.911  30.888  32.917  1.00  0.00     0.002 A 
ATOM     78  C   UNL A   1      42.617  31.860  31.108  1.00  0.00     0.091 A 
ATOM     79  F   UNL A   1      43.370  31.588  28.860  1.00  0.00    -0.205 F 
ATOM     80  C   UNL A   1      42.798  31.600  32.477  1.00  0.00     0.022 A 
BRANCH  78  81
ATOM     81  S   UNL A   1      41.192  32.854  30.655  1.00  0.00     0.127 S 
ATOM     82  O   UNL A   1      41.792  33.836  29.752  1.00  0.00    -0.237 OA
ATOM     83  O   UNL A   1      40.331  31.869  30.000  1.00  0.00    -0.237 OA
ATOM     84  O   UNL A   1      40.665  33.398  31.898  1.00  0.00    -0.744 OA
ENDBRANCH  78  81
ENDBRANCH  60  74
BRANCH  61  85
ATOM     85  C   UNL A   1      51.482  27.531  23.994  1.00  0.00     0.023 A 
ATOM     86  C   UNL A   1      52.696  26.952  24.412  1.00  0.00     0.012 A 
ATOM     87  C   UNL A   1      51.261  27.740  22.619  1.00  0.00     0.148 A 
ATOM     88  C   UNL A   1      53.694  26.643  23.486  1.00  0.00     0.002 A 
ATOM     89  C   UNL A   1      52.233  27.371  21.697  1.00  0.00     0.091 A 
ATOM     90  F   UNL A   1      50.108  28.308  22.239  1.00  0.00    -0.205 F 
ATOM     91  C   UNL A   1      53.460  26.845  22.129  1.00  0.00     0.022 A 
BRANCH  89  92
ATOM     92  S   UNL A   1      51.963  27.473  19.924  1.00  0.00     0.127 S 
ATOM     93  O   UNL A   1      50.880  26.515  19.730  1.00  0.00    -0.237 OA
ATOM     94  O   UNL A   1      51.585  28.877  19.759  1.00  0.00    -0.237 OA
ATOM     95  O   UNL A   1      53.239  27.124  19.313  1.00  0.00    -0.744 OA
ENDBRANCH  89  92
ENDBRANCH  61  85
BRANCH  73  96
ATOM     96  C   UNL A   1      50.975  33.138  28.117  1.00  0.00     0.023 A 
ATOM     97  C   UNL A   1      50.780  34.324  27.382  1.00  0.00     0.012 A 
ATOM     98  C   UNL A   1      51.971  33.099  29.115  1.00  0.00     0.148 A 
ATOM     99  C   UNL A   1      51.587  35.439  27.609  1.00  0.00     0.002 A 
ATOM    100  C   UNL A   1      52.733  34.231  29.374  1.00  0.00     0.091 A 
ATOM    101  F   UNL A   1      52.149  31.958  29.796  1.00  0.00    -0.205 F 
ATOM    102  C   UNL A   1      52.554  35.396  28.611  1.00  0.00     0.022 A 
BRANCH 100 103
ATOM    103  S   UNL A   1      53.928  34.305  30.712  1.00  0.00     0.127 S 
ATOM    104  O   UNL A   1      54.964  33.389  30.235  1.00  0.00    -0.237 OA
ATOM    105  O   UNL A   1      54.313  35.716  30.704  1.00  0.00    -0.237 OA
ATOM    106  O   UNL A   1      53.221  33.875  31.911  1.00  0.00    -0.744 OA
ENDBRANCH 100 103
ENDBRANCH  73  96
ENDBRANCH  47  48
ENDBRANCH  40  42
ENDBRANCH  39  40
ENDBRANCH  38  39
ENDBRANCH  37  38
ENDBRANCH  36  37
ENDBRANCH  35  36
ENDBRANCH  34  35
ENDBRANCH  33  34
ENDBRANCH   1  33
TORSDOF 30
ENDMDL
MODEL 2
REMARK VINA RESULT:      -6.9      3.281      5.443
REMARK SMILES CC(C)(C)OC(=O)N1CCC[C@H]1C(=O)N[C@@H](Cc1ccccc1)C(=O)OCCOCCOCCOCCOC(=O)c1ccc(-c2c3nc(c(-c4cccc(S(=O)(=O)[O-])c4F)c4ccc([nH]4)c(-c4cccc(S(=O)(=O)[O-])c4F)c4nc(c(-c5cccc(S(=O)(=O)[O-])c5F)c5ccc2[nH]5)C=C4)C=C3)cc1
REMARK SMILES IDX 31 1 30 2 29 3 28 4 27 5 26 6 24 7 25 8 16 9 15 10 13 11
REMARK SMILES IDX 14 12 12 14 8 15 9 16 10 17 11 18 6 19 7 20 5 21 2 22 1 23
REMARK SMILES IDX 3 24 4 25 17 26 18 27 19 28 23 29 20 30 22 31 21 32 32 33
REMARK SMILES IDX 33 34 34 35 35 36 36 37 37 38 38 39 39 40 40 41 41 42 42 43
REMARK SMILES IDX 103 44 43 45 102 46 44 47 45 48 46 49 96 50 47 51 101 52
REMARK SMILES IDX 95 53 97 54 48 55 100 56 94 57 93 58 49 60 81 61 61 62 80 63
REMARK SMILES IDX 62 64 65 65 79 66 98 67 63 68 64 69 78 71 99 72 66 73 50 74
REMARK SMILES IDX 51 75 59 76 52 77 54 78 60 79 53 80 55 81 56 82 57 83 58 84
REMARK SMILES IDX 82 85 83 86 91 87 84 88 86 89 92 90 85 91 87 92 88 93 89 94
REMARK SMILES IDX 90 95 67 96 68 97 76 98 69 99 71 100 77 101 70 102 72 103
REMARK SMILES IDX 73 104 74 105 75 106
REMARK H PARENT 15 13 97 59 65 70
REMARK Flexibility Score: inf
ROOT
ATOM      1  C   UNL A   1      40.165  26.587  29.145  1.00  0.00     0.188 C 
ENDROOT
BRANCH   1   2
ATOM      2  C   UNL A   1      39.884  28.046  28.783  1.00  0.00     0.188 C 
BRANCH   2   3
ATOM      3  O   UNL A   1      38.590  28.397  28.313  1.00  0.00    -0.376 OA
BRANCH   3   4
ATOM      4  C   UNL A   1      38.344  29.717  27.849  1.00  0.00     0.202 C 
BRANCH   4   5
ATOM      5  C   UNL A   1      36.930  30.267  27.563  1.00  0.00     0.261 C 
BRANCH   5   6
ATOM      6  O   UNL A   1      36.351  31.152  28.539  1.00  0.00    -0.462 OA
BRANCH   6   7
ATOM      7  C   UNL A   1      35.672  32.242  28.094  1.00  0.00     0.329 C 
ATOM      8  O   UNL A   1      36.204  33.190  27.523  1.00  0.00    -0.250 OA
BRANCH   7   9
ATOM      9  C   UNL A   1      34.193  32.259  28.574  1.00  0.00     0.196 C 
BRANCH   9  10
ATOM     10  N   UNL A   1      33.735  33.392  29.407  1.00  0.00    -0.341 N 
ATOM     11  C   UNL A   1      34.067  33.848  30.651  1.00  0.00     0.243 C 
ATOM     12  O   UNL A   1      33.538  34.914  30.993  1.00  0.00    -0.273 OA
ATOM     13  H   UNL A   1      33.040  33.937  28.970  1.00  0.00     0.164 HD
BRANCH  11  14
ATOM     14  C   UNL A   1      35.097  33.144  31.585  1.00  0.00     0.178 C 
ATOM     15  N   UNL A   1      36.361  33.887  31.755  1.00  0.00    -0.296 N 
ATOM     16  C   UNL A   1      36.420  34.542  33.047  1.00  0.00     0.124 C 
ATOM     17  C   UNL A   1      35.675  33.560  33.935  1.00  0.00     0.024 C 
ATOM     18  C   UNL A   1      34.545  33.059  33.035  1.00  0.00     0.037 C 
BRANCH  15  19
ATOM     19  C   UNL A   1      37.447  33.620  30.949  1.00  0.00     0.410 C 
ATOM     20  O   UNL A   1      37.940  34.492  30.257  1.00  0.00    -0.224 OA
BRANCH  19  21
ATOM     21  O   UNL A   1      37.894  32.336  31.016  1.00  0.00    -0.444 OA
BRANCH  21  22
ATOM     22  C   UNL A   1      38.903  31.891  31.989  1.00  0.00     0.106 C 
ATOM     23  C   UNL A   1      39.896  31.015  31.218  1.00  0.00     0.056 C 
ATOM     24  C   UNL A   1      38.211  31.009  33.035  1.00  0.00     0.056 C 
ATOM     25  C   UNL A   1      39.688  32.985  32.726  1.00  0.00     0.056 C 
ENDBRANCH  21  22
ENDBRANCH  19  21
ENDBRANCH  15  19
ENDBRANCH  11  14
ENDBRANCH   9  10
BRANCH   9  26
ATOM     26  C   UNL A   1      33.330  32.144  27.298  1.00  0.00     0.072 C 
BRANCH  26  27
ATOM     27  C   UNL A   1      32.825  30.747  26.999  1.00  0.00    -0.045 A 
ATOM     28  C   UNL A   1      31.904  30.526  25.967  1.00  0.00     0.004 A 
ATOM     29  C   UNL A   1      33.308  29.644  27.723  1.00  0.00     0.004 A 
ATOM     30  C   UNL A   1      31.484  29.229  25.661  1.00  0.00     0.000 A 
ATOM     31  C   UNL A   1      32.891  28.349  27.410  1.00  0.00     0.000 A 
ATOM     32  C   UNL A   1      31.977  28.143  26.381  1.00  0.00     0.000 A 
ENDBRANCH  26  27
ENDBRANCH   9  26
ENDBRANCH   7   9
ENDBRANCH   6   7
ENDBRANCH   5   6
ENDBRANCH   4   5
ENDBRANCH   3   4
ENDBRANCH   2   3
ENDBRANCH   1   2
BRANCH   1  33
ATOM     33  O   UNL A   1      40.383  25.765  28.023  1.00  0.00    -0.377 OA
BRANCH  33  34
ATOM     34  C   UNL A   1      41.381  24.774  28.182  1.00  0.00     0.188 C 
BRANCH  34  35
ATOM     35  C   UNL A   1      42.417  24.588  27.050  1.00  0.00     0.188 C 
BRANCH  35  36
ATOM     36  O   UNL A   1      42.015  23.719  25.996  1.00  0.00    -0.376 OA
BRANCH  36  37
ATOM     37  C   UNL A   1      42.055  22.313  26.171  1.00  0.00     0.202 C 
BRANCH  37  38
ATOM     38  C   UNL A   1      43.309  21.538  25.731  1.00  0.00     0.261 C 
BRANCH  38  39
ATOM     39  O   UNL A   1      44.282  22.265  24.975  1.00  0.00    -0.460 OA
BRANCH  39  40
ATOM     40  C   UNL A   1      45.587  22.037  25.237  1.00  0.00     0.338 C 
ATOM     41  O   UNL A   1      46.243  21.070  24.901  1.00  0.00    -0.246 OA
BRANCH  40  42
ATOM     42  C   UNL A   1      46.142  23.287  25.808  1.00  0.00     0.060 A 
ATOM     43  C   UNL A   1      46.706  24.234  24.940  1.00  0.00     0.016 A 
ATOM     44  C   UNL A   1      46.048  23.551  27.176  1.00  0.00     0.016 A 
ATOM     45  C   UNL A   1      47.205  25.434  25.443  1.00  0.00     0.010 A 
ATOM     46  C   UNL A   1      46.583  24.737  27.684  1.00  0.00     0.010 A 
ATOM     47  C   UNL A   1      47.196  25.666  26.823  1.00  0.00    -0.014 A 
BRANCH  47  48
ATOM     48  C   UNL A   1      48.040  26.746  27.382  1.00  0.00     0.031 A 
ATOM     49  C   UNL A   1      47.374  28.061  27.690  1.00  0.00     0.074 A 
ATOM     50  C   UNL A   1      49.350  26.568  27.629  1.00  0.00     0.049 A 
ATOM     51  N   UNL A   1      47.899  29.174  28.129  1.00  0.00    -0.248 NA
ATOM     52  C   UNL A   1      45.918  28.126  27.475  1.00  0.00     0.031 C 
ATOM     53  C   UNL A   1      50.097  25.333  27.402  1.00  0.00     0.029 A 
ATOM     54  N   UNL A   1      50.290  27.449  28.105  1.00  0.00    -0.354 N 
ATOM     55  C   UNL A   1      46.845  30.075  28.217  1.00  0.00     0.074 A 
ATOM     56  C   UNL A   1      45.654  29.388  27.774  1.00  0.00     0.031 C 
ATOM     57  C   UNL A   1      51.391  25.545  27.708  1.00  0.00     0.029 A 
ATOM     58  C   UNL A   1      51.565  26.937  28.121  1.00  0.00     0.049 A 
ATOM     59  H   UNL A   1      50.071  28.360  28.407  1.00  0.00     0.167 HD
ATOM     60  C   UNL A   1      46.863  31.359  28.644  1.00  0.00     0.034 A 
ATOM     61  C   UNL A   1      52.739  27.538  28.404  1.00  0.00     0.034 A 
ATOM     62  C   UNL A   1      48.048  32.038  29.090  1.00  0.00     0.049 A 
ATOM     63  C   UNL A   1      52.738  28.991  28.816  1.00  0.00     0.074 A 
ATOM     64  C   UNL A   1      48.170  33.333  29.558  1.00  0.00     0.029 A 
ATOM     65  N   UNL A   1      49.315  31.480  29.114  1.00  0.00    -0.354 N 
ATOM     66  N   UNL A   1      51.723  29.806  28.981  1.00  0.00    -0.248 NA
ATOM     67  C   UNL A   1      54.044  29.599  29.113  1.00  0.00     0.031 C 
ATOM     68  C   UNL A   1      49.519  33.571  29.832  1.00  0.00     0.029 A 
ATOM     69  C   UNL A   1      50.229  32.408  29.581  1.00  0.00     0.049 A 
ATOM     70  H   UNL A   1      49.534  30.561  28.839  1.00  0.00     0.167 HD
ATOM     71  C   UNL A   1      52.263  31.001  29.446  1.00  0.00     0.074 A 
ATOM     72  C   UNL A   1      53.692  30.799  29.555  1.00  0.00     0.031 C 
ATOM     73  C   UNL A   1      51.638  32.167  29.745  1.00  0.00     0.034 A 
BRANCH  60  74
ATOM     74  C   UNL A   1      45.559  32.110  28.668  1.00  0.00     0.023 A 
ATOM     75  C   UNL A   1      44.709  31.999  29.786  1.00  0.00     0.012 A 
ATOM     76  C   UNL A   1      45.211  32.979  27.616  1.00  0.00     0.148 A 
ATOM     77  C   UNL A   1      43.520  32.724  29.848  1.00  0.00     0.002 A 
ATOM     78  C   UNL A   1      44.049  33.734  27.705  1.00  0.00     0.091 A 
ATOM     79  F   UNL A   1      46.024  33.051  26.552  1.00  0.00    -0.205 F 
ATOM     80  C   UNL A   1      43.198  33.601  28.815  1.00  0.00     0.022 A 
BRANCH  78  81
ATOM     81  S   UNL A   1      43.582  34.949  26.468  1.00  0.00     0.127 S 
ATOM     82  O   UNL A   1      43.385  34.107  25.288  1.00  0.00    -0.237 OA
ATOM     83  O   UNL A   1      42.352  35.502  27.035  1.00  0.00    -0.237 OA
ATOM     84  O   UNL A   1      44.693  35.886  26.380  1.00  0.00    -0.744 OA
ENDBRANCH  78  81
ENDBRANCH  60  74
BRANCH  61  85
ATOM     85  C   UNL A   1      54.024  26.784  28.317  1.00  0.00     0.023 A 
ATOM     86  C   UNL A   1      54.575  26.206  29.477  1.00  0.00     0.012 A 
ATOM     87  C   UNL A   1      54.724  26.675  27.100  1.00  0.00     0.148 A 
ATOM     88  C   UNL A   1      55.825  25.584  29.439  1.00  0.00     0.002 A 
ATOM     89  C   UNL A   1      55.937  25.999  27.056  1.00  0.00     0.091 A 
ATOM     90  F   UNL A   1      54.195  27.246  26.009  1.00  0.00    -0.205 F 
ATOM     91  C   UNL A   1      56.502  25.474  28.228  1.00  0.00     0.022 A 
BRANCH  89  92
ATOM     92  S   UNL A   1      56.813  25.696  25.517  1.00  0.00     0.127 S 
ATOM     93  O   UNL A   1      57.506  26.964  25.313  1.00  0.00    -0.237 OA
ATOM     94  O   UNL A   1      57.675  24.570  25.879  1.00  0.00    -0.237 OA
ATOM     95  O   UNL A   1      55.783  25.369  24.539  1.00  0.00    -0.744 OA
ENDBRANCH  89  92
ENDBRANCH  61  85
BRANCH  73  96
ATOM     96  C   UNL A   1      52.475  33.297  30.288  1.00  0.00     0.023 A 
ATOM     97  C   UNL A   1      53.024  34.259  29.417  1.00  0.00     0.012 A 
ATOM     98  C   UNL A   1      52.654  33.442  31.679  1.00  0.00     0.148 A 
ATOM     99  C   UNL A   1      53.770  35.325  29.918  1.00  0.00     0.002 A 
ATOM    100  C   UNL A   1      53.350  34.537  32.175  1.00  0.00     0.091 A 
ATOM    101  F   UNL A   1      52.134  32.510  32.491  1.00  0.00    -0.205 F 
ATOM    102  C   UNL A   1      53.923  35.470  31.295  1.00  0.00     0.022 A 
BRANCH 100 103
ATOM    103  S   UNL A   1      53.511  34.864  33.933  1.00  0.00     0.127 S 
ATOM    104  O   UNL A   1      53.500  36.327  33.965  1.00  0.00    -0.237 OA
ATOM    105  O   UNL A   1      52.307  34.235  34.475  1.00  0.00    -0.237 OA
ATOM    106  O   UNL A   1      54.761  34.242  34.347  1.00  0.00    -0.744 OA
ENDBRANCH 100 103
ENDBRANCH  73  96
ENDBRANCH  47  48
ENDBRANCH  40  42
ENDBRANCH  39  40
ENDBRANCH  38  39
ENDBRANCH  37  38
ENDBRANCH  36  37
ENDBRANCH  35  36
ENDBRANCH  34  35
ENDBRANCH  33  34
ENDBRANCH   1  33
TORSDOF 30
ENDMDL
MODEL 3
REMARK VINA RESULT:      -6.6      4.044      6.517
REMARK SMILES CC(C)(C)OC(=O)N1CCC[C@H]1C(=O)N[C@@H](Cc1ccccc1)C(=O)OCCOCCOCCOCCOC(=O)c1ccc(-c2c3nc(c(-c4cccc(S(=O)(=O)[O-])c4F)c4ccc([nH]4)c(-c4cccc(S(=O)(=O)[O-])c4F)c4nc(c(-c5cccc(S(=O)(=O)[O-])c5F)c5ccc2[nH]5)C=C4)C=C3)cc1
REMARK SMILES IDX 31 1 30 2 29 3 28 4 27 5 26 6 24 7 25 8 16 9 15 10 13 11
REMARK SMILES IDX 14 12 12 14 8 15 9 16 10 17 11 18 6 19 7 20 5 21 2 22 1 23
REMARK SMILES IDX 3 24 4 25 17 26 18 27 19 28 23 29 20 30 22 31 21 32 32 33
REMARK SMILES IDX 33 34 34 35 35 36 36 37 37 38 38 39 39 40 40 41 41 42 42 43
REMARK SMILES IDX 103 44 43 45 102 46 44 47 45 48 46 49 96 50 47 51 101 52
REMARK SMILES IDX 95 53 97 54 48 55 100 56 94 57 93 58 49 60 81 61 61 62 80 63
REMARK SMILES IDX 62 64 65 65 79 66 98 67 63 68 64 69 78 71 99 72 66 73 50 74
REMARK SMILES IDX 51 75 59 76 52 77 54 78 60 79 53 80 55 81 56 82 57 83 58 84
REMARK SMILES IDX 82 85 83 86 91 87 84 88 86 89 92 90 85 91 87 92 88 93 89 94
REMARK SMILES IDX 90 95 67 96 68 97 76 98 69 99 71 100 77 101 70 102 72 103
REMARK SMILES IDX 73 104 74 105 75 106
REMARK H PARENT 15 13 97 59 65 70
REMARK Flexibility Score: inf
ROOT
ATOM      1  C   UNL A   1      40.269  26.505  29.117  1.00  0.00     0.188 C 
ENDROOT
BRANCH   1   2
ATOM      2  C   UNL A   1      39.969  27.974  28.817  1.00  0.00     0.188 C 
BRANCH   2   3
ATOM      3  O   UNL A   1      38.669  28.330  28.368  1.00  0.00    -0.376 OA
BRANCH   3   4
ATOM      4  C   UNL A   1      38.434  29.631  27.849  1.00  0.00     0.202 C 
BRANCH   4   5
ATOM      5  C   UNL A   1      37.024  30.228  27.658  1.00  0.00     0.261 C 
BRANCH   5   6
ATOM      6  O   UNL A   1      36.580  31.205  28.616  1.00  0.00    -0.462 OA
BRANCH   6   7
ATOM      7  C   UNL A   1      35.806  32.231  28.175  1.00  0.00     0.329 C 
ATOM      8  O   UNL A   1      36.242  33.199  27.558  1.00  0.00    -0.250 OA
BRANCH   7   9
ATOM      9  C   UNL A   1      34.350  32.154  28.717  1.00  0.00     0.196 C 
BRANCH   9  10
ATOM     10  N   UNL A   1      33.891  33.201  29.656  1.00  0.00    -0.341 N 
ATOM     11  C   UNL A   1      34.330  33.641  30.871  1.00  0.00     0.243 C 
ATOM     12  O   UNL A   1      33.746  34.633  31.328  1.00  0.00    -0.273 OA
ATOM     13  H   UNL A   1      33.096  33.686  29.334  1.00  0.00     0.164 HD
BRANCH  11  14
ATOM     14  C   UNL A   1      35.534  33.014  31.637  1.00  0.00     0.178 C 
ATOM     15  N   UNL A   1      36.725  33.884  31.702  1.00  0.00    -0.296 N 
ATOM     16  C   UNL A   1      36.873  34.481  33.014  1.00  0.00     0.124 C 
ATOM     17  C   UNL A   1      36.348  33.385  33.924  1.00  0.00     0.024 C 
ATOM     18  C   UNL A   1      35.175  32.804  33.133  1.00  0.00     0.037 C 
BRANCH  15  19
ATOM     19  C   UNL A   1      37.727  33.775  30.761  1.00  0.00     0.410 C 
ATOM     20  O   UNL A   1      37.940  34.674  29.968  1.00  0.00    -0.224 OA
BRANCH  19  21
ATOM     21  O   UNL A   1      38.427  32.608  30.818  1.00  0.00    -0.444 OA
BRANCH  21  22
ATOM     22  C   UNL A   1      39.709  32.479  31.525  1.00  0.00     0.106 C 
ATOM     23  C   UNL A   1      40.412  33.835  31.404  1.00  0.00     0.056 C 
ATOM     24  C   UNL A   1      40.564  31.439  30.792  1.00  0.00     0.056 C 
ATOM     25  C   UNL A   1      39.648  32.091  33.009  1.00  0.00     0.056 C 
ENDBRANCH  21  22
ENDBRANCH  19  21
ENDBRANCH  15  19
ENDBRANCH  11  14
ENDBRANCH   9  10
BRANCH   9  26
ATOM     26  C   UNL A   1      33.434  32.105  27.475  1.00  0.00     0.072 C 
BRANCH  26  27
ATOM     27  C   UNL A   1      33.018  30.711  27.050  1.00  0.00    -0.045 A 
ATOM     28  C   UNL A   1      33.663  29.582  27.572  1.00  0.00     0.004 A 
ATOM     29  C   UNL A   1      31.946  30.527  26.162  1.00  0.00     0.004 A 
ATOM     30  C   UNL A   1      33.238  28.299  27.218  1.00  0.00     0.000 A 
ATOM     31  C   UNL A   1      31.520  29.243  25.815  1.00  0.00     0.000 A 
ATOM     32  C   UNL A   1      32.168  28.130  26.342  1.00  0.00     0.000 A 
ENDBRANCH  26  27
ENDBRANCH   9  26
ENDBRANCH   7   9
ENDBRANCH   6   7
ENDBRANCH   5   6
ENDBRANCH   4   5
ENDBRANCH   3   4
ENDBRANCH   2   3
ENDBRANCH   1   2
BRANCH   1  33
ATOM     33  O   UNL A   1      40.498  25.735  27.960  1.00  0.00    -0.377 OA
BRANCH  33  34
ATOM     34  C   UNL A   1      41.551  24.794  28.058  1.00  0.00     0.188 C 
BRANCH  34  35
ATOM     35  C   UNL A   1      42.584  24.726  26.909  1.00  0.00     0.188 C 
BRANCH  35  36
ATOM     36  O   UNL A   1      42.235  23.866  25.829  1.00  0.00    -0.376 OA
BRANCH  36  37
ATOM     37  C   UNL A   1      42.278  22.458  25.991  1.00  0.00     0.202 C 
BRANCH  37  38
ATOM     38  C   UNL A   1      43.556  21.698  25.599  1.00  0.00     0.261 C 
BRANCH  38  39
ATOM     39  O   UNL A   1      44.560  22.443  24.902  1.00  0.00    -0.460 OA
BRANCH  39  40
ATOM     40  C   UNL A   1      45.853  22.226  25.230  1.00  0.00     0.338 C 
ATOM     41  O   UNL A   1      46.572  21.336  24.818  1.00  0.00    -0.246 OA
BRANCH  40  42
ATOM     42  C   UNL A   1      46.310  23.404  26.004  1.00  0.00     0.060 A 
ATOM     43  C   UNL A   1      47.057  24.394  25.348  1.00  0.00     0.016 A 
ATOM     44  C   UNL A   1      45.952  23.562  27.344  1.00  0.00     0.016 A 
ATOM     45  C   UNL A   1      47.473  25.530  26.040  1.00  0.00     0.010 A 
ATOM     46  C   UNL A   1      46.401  24.681  28.047  1.00  0.00     0.010 A 
ATOM     47  C   UNL A   1      47.194  25.651  27.407  1.00  0.00    -0.014 A 
BRANCH  47  48
ATOM     48  C   UNL A   1      47.934  26.649  28.211  1.00  0.00     0.031 A 
ATOM     49  C   UNL A   1      47.327  28.020  28.349  1.00  0.00     0.074 A 
ATOM     50  C   UNL A   1      49.097  26.352  28.819  1.00  0.00     0.049 A 
ATOM     51  N   UNL A   1      47.800  29.081  28.948  1.00  0.00    -0.248 NA
ATOM     52  C   UNL A   1      46.006  28.220  27.727  1.00  0.00     0.031 C 
ATOM     53  C   UNL A   1      49.765  25.053  28.784  1.00  0.00     0.029 A 
ATOM     54  N   UNL A   1      49.934  27.143  29.566  1.00  0.00    -0.354 N 
ATOM     55  C   UNL A   1      46.850  30.076  28.753  1.00  0.00     0.074 A 
ATOM     56  C   UNL A   1      45.780  29.501  27.970  1.00  0.00     0.031 C 
ATOM     57  C   UNL A   1      50.929  25.145  29.454  1.00  0.00     0.029 A 
ATOM     58  C   UNL A   1      51.100  26.515  29.934  1.00  0.00     0.049 A 
ATOM     59  H   UNL A   1      49.719  28.071  29.816  1.00  0.00     0.167 HD
ATOM     60  C   UNL A   1      46.858  31.353  29.200  1.00  0.00     0.034 A 
ATOM     61  C   UNL A   1      52.191  27.006  30.557  1.00  0.00     0.034 A 
ATOM     62  C   UNL A   1      47.920  31.920  29.984  1.00  0.00     0.049 A 
ATOM     63  C   UNL A   1      52.200  28.453  30.988  1.00  0.00     0.074 A 
ATOM     64  C   UNL A   1      48.016  33.199  30.499  1.00  0.00     0.029 A 
ATOM     65  N   UNL A   1      49.072  31.248  30.355  1.00  0.00    -0.354 N 
ATOM     66  N   UNL A   1      51.258  29.358  30.876  1.00  0.00    -0.248 NA
ATOM     67  C   UNL A   1      53.415  28.939  31.662  1.00  0.00     0.031 C 
ATOM     68  C   UNL A   1      49.246  33.312  31.155  1.00  0.00     0.029 A 
ATOM     69  C   UNL A   1      49.891  32.088  31.088  1.00  0.00     0.049 A 
ATOM     70  H   UNL A   1      49.278  30.312  30.132  1.00  0.00     0.167 HD
ATOM     71  C   UNL A   1      51.745  30.499  31.506  1.00  0.00     0.074 A 
ATOM     72  C   UNL A   1      53.059  30.166  32.015  1.00  0.00     0.031 C 
ATOM     73  C   UNL A   1      51.166  31.719  31.643  1.00  0.00     0.034 A 
BRANCH  60  74
ATOM     74  C   UNL A   1      45.675  32.221  28.868  1.00  0.00     0.023 A 
ATOM     75  C   UNL A   1      44.617  32.344  29.791  1.00  0.00     0.012 A 
ATOM     76  C   UNL A   1      45.643  32.969  27.675  1.00  0.00     0.148 A 
ATOM     77  C   UNL A   1      43.535  33.181  29.523  1.00  0.00     0.002 A 
ATOM     78  C   UNL A   1      44.586  33.837  27.436  1.00  0.00     0.091 A 
ATOM     79  F   UNL A   1      46.649  32.819  26.802  1.00  0.00    -0.205 F 
ATOM     80  C   UNL A   1      43.526  33.936  28.354  1.00  0.00     0.022 A 
BRANCH  78  81
ATOM     81  S   UNL A   1      44.517  34.912  26.000  1.00  0.00     0.127 S 
ATOM     82  O   UNL A   1      44.972  34.015  24.938  1.00  0.00    -0.237 OA
ATOM     83  O   UNL A   1      43.096  35.252  25.943  1.00  0.00    -0.237 OA
ATOM     84  O   UNL A   1      45.404  36.029  26.287  1.00  0.00    -0.744 OA
ENDBRANCH  78  81
ENDBRANCH  60  74
BRANCH  61  85
ATOM     85  C   UNL A   1      53.375  26.137  30.823  1.00  0.00     0.023 A 
ATOM     86  C   UNL A   1      54.482  26.177  29.952  1.00  0.00     0.012 A 
ATOM     87  C   UNL A   1      53.391  25.240  31.909  1.00  0.00     0.148 A 
ATOM     88  C   UNL A   1      55.555  25.302  30.124  1.00  0.00     0.002 A 
ATOM     89  C   UNL A   1      54.492  24.416  32.111  1.00  0.00     0.091 A 
ATOM     90  F   UNL A   1      52.323  25.201  32.718  1.00  0.00    -0.205 F 
ATOM     91  C   UNL A   1      55.564  24.427  31.206  1.00  0.00     0.022 A 
BRANCH  89  92
ATOM     92  S   UNL A   1      54.645  23.354  33.552  1.00  0.00     0.127 S 
ATOM     93  O   UNL A   1      53.851  22.196  33.155  1.00  0.00    -0.237 OA
ATOM     94  O   UNL A   1      56.090  23.125  33.604  1.00  0.00    -0.237 OA
ATOM     95  O   UNL A   1      54.124  24.132  34.668  1.00  0.00    -0.744 OA
ENDBRANCH  89  92
ENDBRANCH  61  85
BRANCH  73  96
ATOM     96  C   UNL A   1      51.909  32.767  32.431  1.00  0.00     0.023 A 
ATOM     97  C   UNL A   1      51.778  32.830  33.833  1.00  0.00     0.012 A 
ATOM     98  C   UNL A   1      52.799  33.646  31.780  1.00  0.00     0.148 A 
ATOM     99  C   UNL A   1      52.490  33.776  34.569  1.00  0.00     0.002 A 
ATOM    100  C   UNL A   1      53.547  34.547  32.525  1.00  0.00     0.091 A 
ATOM    101  F   UNL A   1      52.901  33.578  30.444  1.00  0.00    -0.205 F 
ATOM    102  C   UNL A   1      53.382  34.626  33.918  1.00  0.00     0.022 A 
BRANCH 100 103
ATOM    103  S   UNL A   1      54.794  35.608  31.788  1.00  0.00     0.127 S 
ATOM    104  O   UNL A   1      53.983  36.463  30.922  1.00  0.00    -0.237 OA
ATOM    105  O   UNL A   1      55.354  36.284  32.959  1.00  0.00    -0.237 OA
ATOM    106  O   UNL A   1      55.722  34.723  31.097  1.00  0.00    -0.744 OA
ENDBRANCH 100 103
ENDBRANCH  73  96
ENDBRANCH  47  48
ENDBRANCH  40  42
ENDBRANCH  39  40
ENDBRANCH  38  39
ENDBRANCH  37  38
ENDBRANCH  36  37
ENDBRANCH  35  36
ENDBRANCH  34  35
ENDBRANCH  33  34
ENDBRANCH   1  33
TORSDOF 30
ENDMDL
