MODEL 1
REMARK VINA RESULT:      -8.2      0.000      0.000
REMARK SMILES CC(C)(C)OC(=O)NC[C@H]1CC[C@@H](C(=O)OCCOCCOCCOCCOC(=O)c2ccc(-c3c4nc(c(-c5cccc(S(=O)(=O)[O-])c5F)c5ccc([nH]5)c(-c5cccc(S(=O)(=O)[O-])c5F)c5nc(c(-c6cccc(S(=O)(=O)[O-])c6F)c6ccc3[nH]6)C=C5)C=C4)cc2)CC1
REMARK SMILES IDX 21 1 20 2 19 3 18 4 17 5 16 6 14 7 15 8 13 9 10 10 11 11
REMARK SMILES IDX 95 12 12 13 94 14 9 15 8 16 6 17 7 18 5 20 2 21 1 22 3 23
REMARK SMILES IDX 4 24 22 25 23 26 24 27 25 28 26 29 27 30 28 31 29 32 30 33
REMARK SMILES IDX 31 34 32 35 93 36 33 37 92 38 34 39 35 40 36 41 86 42 37 43
REMARK SMILES IDX 91 44 85 45 87 46 38 47 90 48 84 49 83 50 39 52 71 53 51 54
REMARK SMILES IDX 70 55 52 56 55 57 69 58 88 59 53 60 54 61 68 63 89 64 56 65
REMARK SMILES IDX 40 66 41 67 49 68 42 69 44 70 50 71 43 72 45 73 46 74 47 75
REMARK SMILES IDX 48 76 72 77 73 78 81 79 74 80 76 81 82 82 75 83 77 84 78 85
REMARK SMILES IDX 79 86 80 87 57 88 58 89 66 90 59 91 61 92 67 93 60 94 62 95
REMARK SMILES IDX 63 96 64 97 65 98
REMARK H PARENT 8 19 87 51 55 62
REMARK Flexibility Score: inf
ROOT
ATOM      1  C   UNL A   1      41.102  20.859  26.897  1.00  0.00     0.188 C 
ENDROOT
BRANCH   1   2
ATOM      2  C   UNL A   1      40.096  21.875  26.335  1.00  0.00     0.188 C 
BRANCH   2   3
ATOM      3  O   UNL A   1      39.559  22.915  27.140  1.00  0.00    -0.376 OA
BRANCH   3   4
ATOM      4  C   UNL A   1      38.628  23.841  26.602  1.00  0.00     0.202 C 
BRANCH   4   5
ATOM      5  C   UNL A   1      37.769  23.493  25.374  1.00  0.00     0.261 C 
BRANCH   5   6
ATOM      6  O   UNL A   1      36.337  23.548  25.521  1.00  0.00    -0.463 OA
BRANCH   6   7
ATOM      7  C   UNL A   1      35.620  22.677  24.777  1.00  0.00     0.309 C 
ATOM      8  O   UNL A   1      35.471  22.774  23.562  1.00  0.00    -0.252 OA
BRANCH   7   9
ATOM      9  C   UNL A   1      34.901  21.590  25.580  1.00  0.00     0.099 C 
ATOM     10  C   UNL A   1      32.024  22.176  26.172  1.00  0.00     0.008 C 
ATOM     11  C   UNL A   1      32.526  21.899  24.745  1.00  0.00     0.006 C 
ATOM     12  C   UNL A   1      33.149  22.763  27.040  1.00  0.00     0.006 C 
ATOM     13  C   UNL A   1      33.775  21.018  24.720  1.00  0.00     0.015 C 
ATOM     14  C   UNL A   1      34.370  21.850  26.994  1.00  0.00     0.015 C 
BRANCH  10  15
ATOM     15  C   UNL A   1      30.777  23.066  26.113  1.00  0.00     0.123 C 
BRANCH  15  16
ATOM     16  N   UNL A   1      30.951  24.300  26.849  1.00  0.00    -0.321 N 
ATOM     17  C   UNL A   1      31.128  25.521  26.265  1.00  0.00     0.407 C 
ATOM     18  O   UNL A   1      31.324  26.531  26.916  1.00  0.00    -0.225 OA
ATOM     19  H   UNL A   1      30.943  24.256  27.833  1.00  0.00     0.167 HD
BRANCH  17  20
ATOM     20  O   UNL A   1      31.078  25.409  24.925  1.00  0.00    -0.444 OA
BRANCH  20  21
ATOM     21  C   UNL A   1      32.154  25.807  24.064  1.00  0.00     0.106 C 
ATOM     22  C   UNL A   1      31.788  27.262  23.723  1.00  0.00     0.056 C 
ATOM     23  C   UNL A   1      32.151  24.985  22.786  1.00  0.00     0.056 C 
ATOM     24  C   UNL A   1      33.496  25.720  24.793  1.00  0.00     0.056 C 
ENDBRANCH  20  21
ENDBRANCH  17  20
ENDBRANCH  15  16
ENDBRANCH  10  15
ENDBRANCH   7   9
ENDBRANCH   6   7
ENDBRANCH   5   6
ENDBRANCH   4   5
ENDBRANCH   3   4
ENDBRANCH   2   3
ENDBRANCH   1   2
BRANCH   1  25
ATOM     25  O   UNL A   1      41.950  20.251  25.948  1.00  0.00    -0.377 OA
BRANCH  25  26
ATOM     26  C   UNL A   1      42.254  18.880  26.159  1.00  0.00     0.188 C 
BRANCH  26  27
ATOM     27  C   UNL A   1      43.737  18.493  26.035  1.00  0.00     0.188 C 
BRANCH  27  28
ATOM     28  O   UNL A   1      44.182  18.383  24.688  1.00  0.00    -0.376 OA
BRANCH  28  29
ATOM     29  C   UNL A   1      44.988  19.428  24.158  1.00  0.00     0.202 C 
BRANCH  29  30
ATOM     30  C   UNL A   1      45.682  20.384  25.146  1.00  0.00     0.261 C 
BRANCH  30  31
ATOM     31  O   UNL A   1      44.883  21.449  25.696  1.00  0.00    -0.460 OA
BRANCH  31  32
ATOM     32  C   UNL A   1      44.601  22.520  24.925  1.00  0.00     0.338 C 
ATOM     33  O   UNL A   1      44.003  22.521  23.864  1.00  0.00    -0.246 OA
BRANCH  32  34
ATOM     34  C   UNL A   1      44.961  23.743  25.680  1.00  0.00     0.060 A 
ATOM     35  C   UNL A   1      45.505  23.616  26.966  1.00  0.00     0.016 A 
ATOM     36  C   UNL A   1      44.741  25.006  25.135  1.00  0.00     0.016 A 
ATOM     37  C   UNL A   1      45.798  24.753  27.731  1.00  0.00     0.010 A 
ATOM     38  C   UNL A   1      45.026  26.140  25.905  1.00  0.00     0.010 A 
ATOM     39  C   UNL A   1      45.531  26.028  27.223  1.00  0.00    -0.014 A 
BRANCH  39  40
ATOM     40  C   UNL A   1      45.634  27.254  28.067  1.00  0.00     0.031 A 
ATOM     41  C   UNL A   1      44.383  27.742  28.737  1.00  0.00     0.074 A 
ATOM     42  C   UNL A   1      46.770  27.965  28.222  1.00  0.00     0.049 A 
ATOM     43  N   UNL A   1      44.196  28.825  29.441  1.00  0.00    -0.248 NA
ATOM     44  C   UNL A   1      43.193  26.880  28.621  1.00  0.00     0.031 C 
ATOM     45  C   UNL A   1      48.087  27.569  27.743  1.00  0.00     0.029 A 
ATOM     46  N   UNL A   1      46.990  29.213  28.761  1.00  0.00    -0.354 N 
ATOM     47  C   UNL A   1      42.881  28.763  29.871  1.00  0.00     0.074 A 
ATOM     48  C   UNL A   1      42.288  27.587  29.275  1.00  0.00     0.031 C 
ATOM     49  C   UNL A   1      48.935  28.609  27.847  1.00  0.00     0.029 A 
ATOM     50  C   UNL A   1      48.231  29.731  28.451  1.00  0.00     0.049 A 
ATOM     51  H   UNL A   1      46.327  29.689  29.313  1.00  0.00     0.167 HD
ATOM     52  C   UNL A   1      42.241  29.576  30.741  1.00  0.00     0.034 A 
ATOM     53  C   UNL A   1      48.736  30.972  28.620  1.00  0.00     0.034 A 
ATOM     54  C   UNL A   1      42.827  30.748  31.322  1.00  0.00     0.049 A 
ATOM     55  C   UNL A   1      47.953  31.952  29.450  1.00  0.00     0.074 A 
ATOM     56  C   UNL A   1      42.282  31.610  32.255  1.00  0.00     0.029 A 
ATOM     57  N   UNL A   1      44.080  31.244  31.000  1.00  0.00    -0.354 N 
ATOM     58  N   UNL A   1      46.763  31.808  29.981  1.00  0.00    -0.248 NA
ATOM     59  C   UNL A   1      48.619  33.215  29.802  1.00  0.00     0.031 C 
ATOM     60  C   UNL A   1      43.186  32.657  32.458  1.00  0.00     0.029 A 
ATOM     61  C   UNL A   1      44.316  32.419  31.692  1.00  0.00     0.049 A 
ATOM     62  H   UNL A   1      44.710  30.824  30.371  1.00  0.00     0.167 HD
ATOM     63  C   UNL A   1      46.573  32.916  30.796  1.00  0.00     0.074 A 
ATOM     64  C   UNL A   1      47.763  33.734  30.672  1.00  0.00     0.031 C 
ATOM     65  C   UNL A   1      45.518  33.210  31.594  1.00  0.00     0.034 A 
BRANCH  52  66
ATOM     66  C   UNL A   1      40.841  29.183  31.118  1.00  0.00     0.023 A 
ATOM     67  C   UNL A   1      40.632  28.272  32.176  1.00  0.00     0.012 A 
ATOM     68  C   UNL A   1      39.738  29.694  30.414  1.00  0.00     0.148 A 
ATOM     69  C   UNL A   1      39.347  27.832  32.490  1.00  0.00     0.002 A 
ATOM     70  C   UNL A   1      38.457  29.290  30.766  1.00  0.00     0.091 A 
ATOM     71  F   UNL A   1      39.962  30.537  29.397  1.00  0.00    -0.205 F 
ATOM     72  C   UNL A   1      38.260  28.347  31.790  1.00  0.00     0.022 A 
BRANCH  70  73
ATOM     73  S   UNL A   1      36.988  29.946  29.974  1.00  0.00     0.127 S 
ATOM     74  O   UNL A   1      36.933  29.151  28.748  1.00  0.00    -0.237 OA
ATOM     75  O   UNL A   1      35.948  29.629  30.953  1.00  0.00    -0.237 OA
ATOM     76  O   UNL A   1      37.233  31.368  29.783  1.00  0.00    -0.744 OA
ENDBRANCH  70  73
ENDBRANCH  52  66
BRANCH  53  77
ATOM     77  C   UNL A   1      50.078  31.342  28.075  1.00  0.00     0.023 A 
ATOM     78  C   UNL A   1      51.243  30.994  28.785  1.00  0.00     0.012 A 
ATOM     79  C   UNL A   1      50.200  32.071  26.874  1.00  0.00     0.148 A 
ATOM     80  C   UNL A   1      52.502  31.394  28.328  1.00  0.00     0.002 A 
ATOM     81  C   UNL A   1      51.460  32.429  26.402  1.00  0.00     0.091 A 
ATOM     82  F   UNL A   1      49.079  32.421  26.230  1.00  0.00    -0.205 F 
ATOM     83  C   UNL A   1      52.611  32.104  27.136  1.00  0.00     0.022 A 
BRANCH  81  84
ATOM     84  S   UNL A   1      51.720  33.275  24.836  1.00  0.00     0.127 S 
ATOM     85  O   UNL A   1      51.719  32.163  23.889  1.00  0.00    -0.237 OA
ATOM     86  O   UNL A   1      50.543  34.143  24.768  1.00  0.00    -0.237 OA
ATOM     87  O   UNL A   1      52.985  33.982  24.973  1.00  0.00    -0.744 OA
ENDBRANCH  81  84
ENDBRANCH  53  77
BRANCH  65  88
ATOM     88  C   UNL A   1      45.613  34.439  32.458  1.00  0.00     0.023 A 
ATOM     89  C   UNL A   1      46.133  34.353  33.764  1.00  0.00     0.012 A 
ATOM     90  C   UNL A   1      45.257  35.699  31.935  1.00  0.00     0.148 A 
ATOM     91  C   UNL A   1      46.268  35.499  34.547  1.00  0.00     0.002 A 
ATOM     92  C   UNL A   1      45.450  36.842  32.700  1.00  0.00     0.091 A 
ATOM     93  F   UNL A   1      44.744  35.755  30.698  1.00  0.00    -0.205 F 
ATOM     94  C   UNL A   1      45.940  36.743  34.012  1.00  0.00     0.022 A 
BRANCH  92  95
ATOM     95  S   UNL A   1      45.159  38.492  32.054  1.00  0.00     0.127 S 
ATOM     96  O   UNL A   1      45.304  39.312  33.256  1.00  0.00    -0.237 OA
ATOM     97  O   UNL A   1      46.244  38.637  31.083  1.00  0.00    -0.237 OA
ATOM     98  O   UNL A   1      43.824  38.470  31.473  1.00  0.00    -0.744 OA
ENDBRANCH  92  95
ENDBRANCH  65  88
ENDBRANCH  39  40
ENDBRANCH  32  34
ENDBRANCH  31  32
ENDBRANCH  30  31
ENDBRANCH  29  30
ENDBRANCH  28  29
ENDBRANCH  27  28
ENDBRANCH  26  27
ENDBRANCH  25  26
ENDBRANCH   1  25
TORSDOF 27
ENDMDL
MODEL 2
REMARK VINA RESULT:      -7.9      4.252     10.493
REMARK SMILES CC(C)(C)OC(=O)NC[C@H]1CC[C@@H](C(=O)OCCOCCOCCOCCOC(=O)c2ccc(-c3c4nc(c(-c5cccc(S(=O)(=O)[O-])c5F)c5ccc([nH]5)c(-c5cccc(S(=O)(=O)[O-])c5F)c5nc(c(-c6cccc(S(=O)(=O)[O-])c6F)c6ccc3[nH]6)C=C5)C=C4)cc2)CC1
REMARK SMILES IDX 21 1 20 2 19 3 18 4 17 5 16 6 14 7 15 8 13 9 10 10 11 11
REMARK SMILES IDX 95 12 12 13 94 14 9 15 8 16 6 17 7 18 5 20 2 21 1 22 3 23
REMARK SMILES IDX 4 24 22 25 23 26 24 27 25 28 26 29 27 30 28 31 29 32 30 33
REMARK SMILES IDX 31 34 32 35 93 36 33 37 92 38 34 39 35 40 36 41 86 42 37 43
REMARK SMILES IDX 91 44 85 45 87 46 38 47 90 48 84 49 83 50 39 52 71 53 51 54
REMARK SMILES IDX 70 55 52 56 55 57 69 58 88 59 53 60 54 61 68 63 89 64 56 65
REMARK SMILES IDX 40 66 41 67 49 68 42 69 44 70 50 71 43 72 45 73 46 74 47 75
REMARK SMILES IDX 48 76 72 77 73 78 81 79 74 80 76 81 82 82 75 83 77 84 78 85
REMARK SMILES IDX 79 86 80 87 57 88 58 89 66 90 59 91 61 92 67 93 60 94 62 95
REMARK SMILES IDX 63 96 64 97 65 98
REMARK H PARENT 8 19 87 51 55 62
REMARK Flexibility Score: inf
ROOT
ATOM      1  C   UNL A   1      35.932  30.486  29.422  1.00  0.00     0.188 C 
ENDROOT
BRANCH   1   2
ATOM      2  C   UNL A   1      36.510  30.738  28.021  1.00  0.00     0.188 C 
BRANCH   2   3
ATOM      3  O   UNL A   1      37.628  30.010  27.535  1.00  0.00    -0.376 OA
BRANCH   3   4
ATOM      4  C   UNL A   1      38.185  28.946  28.292  1.00  0.00     0.202 C 
BRANCH   4   5
ATOM      5  C   UNL A   1      39.694  28.879  28.589  1.00  0.00     0.261 C 
BRANCH   5   6
ATOM      6  O   UNL A   1      40.312  27.578  28.623  1.00  0.00    -0.463 OA
BRANCH   6   7
ATOM      7  C   UNL A   1      41.634  27.545  28.898  1.00  0.00     0.309 C 
ATOM      8  O   UNL A   1      42.178  28.259  29.736  1.00  0.00    -0.252 OA
BRANCH   7   9
ATOM      9  C   UNL A   1      42.450  26.608  28.004  1.00  0.00     0.099 C 
ATOM     10  C   UNL A   1      40.960  24.198  27.036  1.00  0.00     0.008 C 
ATOM     11  C   UNL A   1      40.607  25.620  26.570  1.00  0.00     0.006 C 
ATOM     12  C   UNL A   1      41.602  24.226  28.432  1.00  0.00     0.006 C 
ATOM     13  C   UNL A   1      41.803  26.571  26.621  1.00  0.00     0.015 C 
ATOM     14  C   UNL A   1      42.793  25.179  28.436  1.00  0.00     0.015 C 
BRANCH  10  15
ATOM     15  C   UNL A   1      39.713  23.309  26.959  1.00  0.00     0.123 C 
BRANCH  15  16
ATOM     16  N   UNL A   1      38.509  24.078  26.728  1.00  0.00    -0.321 N 
ATOM     17  C   UNL A   1      37.361  23.561  26.200  1.00  0.00     0.407 C 
ATOM     18  O   UNL A   1      36.383  24.250  25.971  1.00  0.00    -0.225 OA
ATOM     19  H   UNL A   1      38.518  25.033  26.967  1.00  0.00     0.167 HD
BRANCH  17  20
ATOM     20  O   UNL A   1      37.505  22.245  25.966  1.00  0.00    -0.444 OA
BRANCH  20  21
ATOM     21  C   UNL A   1      36.777  21.545  24.948  1.00  0.00     0.106 C 
ATOM     22  C   UNL A   1      37.614  20.268  24.758  1.00  0.00     0.056 C 
ATOM     23  C   UNL A   1      36.778  22.333  23.648  1.00  0.00     0.056 C 
ATOM     24  C   UNL A   1      35.357  21.222  25.417  1.00  0.00     0.056 C 
ENDBRANCH  20  21
ENDBRANCH  17  20
ENDBRANCH  15  16
ENDBRANCH  10  15
ENDBRANCH   7   9
ENDBRANCH   6   7
ENDBRANCH   5   6
ENDBRANCH   4   5
ENDBRANCH   3   4
ENDBRANCH   2   3
ENDBRANCH   1   2
BRANCH   1  25
ATOM     25  O   UNL A   1      36.256  31.450  30.399  1.00  0.00    -0.377 OA
BRANCH  25  26
ATOM     26  C   UNL A   1      37.449  32.189  30.186  1.00  0.00     0.188 C 
BRANCH  26  27
ATOM     27  C   UNL A   1      37.824  33.195  31.287  1.00  0.00     0.188 C 
BRANCH  27  28
ATOM     28  O   UNL A   1      36.880  34.249  31.434  1.00  0.00    -0.376 OA
BRANCH  28  29
ATOM     29  C   UNL A   1      36.043  34.249  32.584  1.00  0.00     0.202 C 
BRANCH  29  30
ATOM     30  C   UNL A   1      36.710  34.163  33.969  1.00  0.00     0.261 C 
BRANCH  30  31
ATOM     31  O   UNL A   1      36.608  32.906  34.667  1.00  0.00    -0.460 OA
BRANCH  31  32
ATOM     32  C   UNL A   1      37.526  32.606  35.609  1.00  0.00     0.338 C 
ATOM     33  O   UNL A   1      37.368  32.626  36.817  1.00  0.00    -0.246 OA
BRANCH  32  34
ATOM     34  C   UNL A   1      38.717  32.042  34.934  1.00  0.00     0.060 A 
ATOM     35  C   UNL A   1      39.976  32.607  35.187  1.00  0.00     0.016 A 
ATOM     36  C   UNL A   1      38.594  30.983  34.040  1.00  0.00     0.016 A 
ATOM     37  C   UNL A   1      41.115  32.139  34.517  1.00  0.00     0.010 A 
ATOM     38  C   UNL A   1      39.731  30.523  33.365  1.00  0.00     0.010 A 
ATOM     39  C   UNL A   1      41.000  31.113  33.574  1.00  0.00    -0.014 A 
BRANCH  39  40
ATOM     40  C   UNL A   1      42.138  30.720  32.692  1.00  0.00     0.031 A 
ATOM     41  C   UNL A   1      42.428  31.588  31.504  1.00  0.00     0.074 A 
ATOM     42  C   UNL A   1      42.882  29.610  32.879  1.00  0.00     0.049 A 
ATOM     43  N   UNL A   1      43.297  31.409  30.546  1.00  0.00    -0.248 NA
ATOM     44  C   UNL A   1      41.656  32.839  31.397  1.00  0.00     0.031 C 
ATOM     45  C   UNL A   1      42.812  28.729  34.036  1.00  0.00     0.029 A 
ATOM     46  N   UNL A   1      43.796  28.984  32.059  1.00  0.00    -0.354 N 
ATOM     47  C   UNL A   1      43.194  32.531  29.740  1.00  0.00     0.074 A 
ATOM     48  C   UNL A   1      42.118  33.341  30.265  1.00  0.00     0.031 C 
ATOM     49  C   UNL A   1      43.503  27.601  33.788  1.00  0.00     0.029 A 
ATOM     50  C   UNL A   1      44.109  27.703  32.467  1.00  0.00     0.049 A 
ATOM     51  H   UNL A   1      44.187  29.409  31.261  1.00  0.00     0.167 HD
ATOM     52  C   UNL A   1      43.972  32.890  28.695  1.00  0.00     0.034 A 
ATOM     53  C   UNL A   1      44.793  26.721  31.843  1.00  0.00     0.034 A 
ATOM     54  C   UNL A   1      45.032  32.080  28.169  1.00  0.00     0.049 A 
ATOM     55  C   UNL A   1      45.533  27.062  30.578  1.00  0.00     0.074 A 
ATOM     56  C   UNL A   1      45.914  32.376  27.147  1.00  0.00     0.029 A 
ATOM     57  N   UNL A   1      45.333  30.798  28.602  1.00  0.00    -0.354 N 
ATOM     58  N   UNL A   1      45.540  28.193  29.914  1.00  0.00    -0.248 NA
ATOM     59  C   UNL A   1      46.442  26.041  30.038  1.00  0.00     0.031 C 
ATOM     60  C   UNL A   1      46.715  31.251  26.927  1.00  0.00     0.029 A 
ATOM     61  C   UNL A   1      46.368  30.275  27.847  1.00  0.00     0.049 A 
ATOM     62  H   UNL A   1      44.877  30.329  29.337  1.00  0.00     0.167 HD
ATOM     63  C   UNL A   1      46.514  28.051  28.934  1.00  0.00     0.074 A 
ATOM     64  C   UNL A   1      47.060  26.717  29.078  1.00  0.00     0.031 C 
ATOM     65  C   UNL A   1      46.932  28.959  28.019  1.00  0.00     0.034 A 
BRANCH  52  66
ATOM     66  C   UNL A   1      43.699  34.236  28.088  1.00  0.00     0.023 A 
ATOM     67  C   UNL A   1      43.002  34.323  26.863  1.00  0.00     0.012 A 
ATOM     68  C   UNL A   1      44.151  35.411  28.713  1.00  0.00     0.148 A 
ATOM     69  C   UNL A   1      42.809  35.555  26.242  1.00  0.00     0.002 A 
ATOM     70  C   UNL A   1      43.910  36.640  28.114  1.00  0.00     0.091 A 
ATOM     71  F   UNL A   1      44.833  35.302  29.861  1.00  0.00    -0.205 F 
ATOM     72  C   UNL A   1      43.256  36.713  26.871  1.00  0.00     0.022 A 
BRANCH  70  73
ATOM     73  S   UNL A   1      44.383  38.192  28.876  1.00  0.00     0.127 S 
ATOM     74  O   UNL A   1      43.689  38.114  30.160  1.00  0.00    -0.237 OA
ATOM     75  O   UNL A   1      45.838  38.058  28.960  1.00  0.00    -0.237 OA
ATOM     76  O   UNL A   1      43.919  39.240  27.979  1.00  0.00    -0.744 OA
ENDBRANCH  70  73
ENDBRANCH  52  66
BRANCH  53  77
ATOM     77  C   UNL A   1      44.891  25.351  32.432  1.00  0.00     0.023 A 
ATOM     78  C   UNL A   1      43.951  24.366  32.075  1.00  0.00     0.012 A 
ATOM     79  C   UNL A   1      45.891  25.033  33.375  1.00  0.00     0.148 A 
ATOM     80  C   UNL A   1      43.983  23.101  32.669  1.00  0.00     0.002 A 
ATOM     81  C   UNL A   1      45.944  23.758  33.930  1.00  0.00     0.091 A 
ATOM     82  F   UNL A   1      46.756  25.993  33.726  1.00  0.00    -0.205 F 
ATOM     83  C   UNL A   1      44.980  22.796  33.590  1.00  0.00     0.022 A 
BRANCH  81  84
ATOM     84  S   UNL A   1      47.235  23.232  35.066  1.00  0.00     0.127 S 
ATOM     85  O   UNL A   1      48.425  23.836  34.470  1.00  0.00    -0.237 OA
ATOM     86  O   UNL A   1      46.797  23.847  36.320  1.00  0.00    -0.237 OA
ATOM     87  O   UNL A   1      47.200  21.778  35.061  1.00  0.00    -0.744 OA
ENDBRANCH  81  84
ENDBRANCH  53  77
BRANCH  65  88
ATOM     88  C   UNL A   1      48.086  28.578  27.130  1.00  0.00     0.023 A 
ATOM     89  C   UNL A   1      49.403  28.580  27.630  1.00  0.00     0.012 A 
ATOM     90  C   UNL A   1      47.846  28.136  25.812  1.00  0.00     0.148 A 
ATOM     91  C   UNL A   1      50.466  28.180  26.821  1.00  0.00     0.002 A 
ATOM     92  C   UNL A   1      48.903  27.683  25.034  1.00  0.00     0.091 A 
ATOM     93  F   UNL A   1      46.588  28.162  25.349  1.00  0.00    -0.205 F 
ATOM     94  C   UNL A   1      50.215  27.719  25.530  1.00  0.00     0.022 A 
BRANCH  92  95
ATOM     95  S   UNL A   1      48.661  26.970  23.403  1.00  0.00     0.127 S 
ATOM     96  O   UNL A   1      50.031  26.908  22.899  1.00  0.00    -0.237 OA
ATOM     97  O   UNL A   1      48.068  25.670  23.722  1.00  0.00    -0.237 OA
ATOM     98  O   UNL A   1      47.775  27.881  22.690  1.00  0.00    -0.744 OA
ENDBRANCH  92  95
ENDBRANCH  65  88
ENDBRANCH  39  40
ENDBRANCH  32  34
ENDBRANCH  31  32
ENDBRANCH  30  31
ENDBRANCH  29  30
ENDBRANCH  28  29
ENDBRANCH  27  28
ENDBRANCH  26  27
ENDBRANCH  25  26
ENDBRANCH   1  25
TORSDOF 27
ENDMDL
MODEL 3
REMARK VINA RESULT:      -7.9      6.005      8.693
REMARK SMILES CC(C)(C)OC(=O)NC[C@H]1CC[C@@H](C(=O)OCCOCCOCCOCCOC(=O)c2ccc(-c3c4nc(c(-c5cccc(S(=O)(=O)[O-])c5F)c5ccc([nH]5)c(-c5cccc(S(=O)(=O)[O-])c5F)c5nc(c(-c6cccc(S(=O)(=O)[O-])c6F)c6ccc3[nH]6)C=C5)C=C4)cc2)CC1
REMARK SMILES IDX 21 1 20 2 19 3 18 4 17 5 16 6 14 7 15 8 13 9 10 10 11 11
REMARK SMILES IDX 95 12 12 13 94 14 9 15 8 16 6 17 7 18 5 20 2 21 1 22 3 23
REMARK SMILES IDX 4 24 22 25 23 26 24 27 25 28 26 29 27 30 28 31 29 32 30 33
REMARK SMILES IDX 31 34 32 35 93 36 33 37 92 38 34 39 35 40 36 41 86 42 37 43
REMARK SMILES IDX 91 44 85 45 87 46 38 47 90 48 84 49 83 50 39 52 71 53 51 54
REMARK SMILES IDX 70 55 52 56 55 57 69 58 88 59 53 60 54 61 68 63 89 64 56 65
REMARK SMILES IDX 40 66 41 67 49 68 42 69 44 70 50 71 43 72 45 73 46 74 47 75
REMARK SMILES IDX 48 76 72 77 73 78 81 79 74 80 76 81 82 82 75 83 77 84 78 85
REMARK SMILES IDX 79 86 80 87 57 88 58 89 66 90 59 91 61 92 67 93 60 94 62 95
REMARK SMILES IDX 63 96 64 97 65 98
REMARK H PARENT 8 19 87 51 55 62
REMARK Flexibility Score: inf
ROOT
ATOM      1  C   UNL A   1      41.800  20.827  27.452  1.00  0.00     0.188 C 
ENDROOT
BRANCH   1   2
ATOM      2  C   UNL A   1      40.811  20.160  26.485  1.00  0.00     0.188 C 
BRANCH   2   3
ATOM      3  O   UNL A   1      39.535  20.726  26.218  1.00  0.00    -0.376 OA
BRANCH   3   4
ATOM      4  C   UNL A   1      39.351  22.133  26.222  1.00  0.00     0.202 C 
BRANCH   4   5
ATOM      5  C   UNL A   1      38.062  22.775  25.679  1.00  0.00     0.261 C 
BRANCH   5   6
ATOM      6  O   UNL A   1      37.201  21.959  24.863  1.00  0.00    -0.463 OA
BRANCH   6   7
ATOM      7  C   UNL A   1      36.370  22.612  24.021  1.00  0.00     0.309 C 
ATOM      8  O   UNL A   1      36.737  23.171  22.991  1.00  0.00    -0.252 OA
BRANCH   7   9
ATOM      9  C   UNL A   1      34.918  22.703  24.497  1.00  0.00     0.099 C 
ATOM     10  C   UNL A   1      33.550  25.285  23.840  1.00  0.00     0.008 C 
ATOM     11  C   UNL A   1      33.961  24.277  22.754  1.00  0.00     0.006 C 
ATOM     12  C   UNL A   1      34.463  25.161  25.071  1.00  0.00     0.006 C 
ATOM     13  C   UNL A   1      34.014  22.840  23.273  1.00  0.00     0.015 C 
ATOM     14  C   UNL A   1      34.480  23.717  25.560  1.00  0.00     0.015 C 
BRANCH  10  15
ATOM     15  C   UNL A   1      33.524  26.698  23.244  1.00  0.00     0.123 C 
BRANCH  15  16
ATOM     16  N   UNL A   1      32.192  27.263  23.237  1.00  0.00    -0.321 N 
ATOM     17  C   UNL A   1      31.754  28.199  24.128  1.00  0.00     0.407 C 
ATOM     18  O   UNL A   1      30.609  28.615  24.125  1.00  0.00    -0.225 OA
ATOM     19  H   UNL A   1      31.562  26.951  22.547  1.00  0.00     0.167 HD
BRANCH  17  20
ATOM     20  O   UNL A   1      32.743  28.538  24.974  1.00  0.00    -0.444 OA
BRANCH  20  21
ATOM     21  C   UNL A   1      32.604  28.494  26.401  1.00  0.00     0.106 C 
ATOM     22  C   UNL A   1      34.065  28.391  26.875  1.00  0.00     0.056 C 
ATOM     23  C   UNL A   1      31.857  27.242  26.830  1.00  0.00     0.056 C 
ATOM     24  C   UNL A   1      31.932  29.765  26.924  1.00  0.00     0.056 C 
ENDBRANCH  20  21
ENDBRANCH  17  20
ENDBRANCH  15  16
ENDBRANCH  10  15
ENDBRANCH   7   9
ENDBRANCH   6   7
ENDBRANCH   5   6
ENDBRANCH   4   5
ENDBRANCH   3   4
ENDBRANCH   2   3
ENDBRANCH   1   2
BRANCH   1  25
ATOM     25  O   UNL A   1      42.942  21.404  26.856  1.00  0.00    -0.377 OA
BRANCH  25  26
ATOM     26  C   UNL A   1      43.415  20.786  25.669  1.00  0.00     0.188 C 
BRANCH  26  27
ATOM     27  C   UNL A   1      44.356  21.634  24.798  1.00  0.00     0.188 C 
BRANCH  27  28
ATOM     28  O   UNL A   1      43.705  22.729  24.164  1.00  0.00    -0.376 OA
BRANCH  28  29
ATOM     29  C   UNL A   1      43.901  24.031  24.701  1.00  0.00     0.202 C 
BRANCH  29  30
ATOM     30  C   UNL A   1      42.947  24.512  25.812  1.00  0.00     0.261 C 
BRANCH  30  31
ATOM     31  O   UNL A   1      42.004  25.543  25.462  1.00  0.00    -0.460 OA
BRANCH  31  32
ATOM     32  C   UNL A   1      42.292  26.825  25.772  1.00  0.00     0.338 C 
ATOM     33  O   UNL A   1      42.069  27.810  25.092  1.00  0.00    -0.246 OA
BRANCH  32  34
ATOM     34  C   UNL A   1      42.747  26.870  27.181  1.00  0.00     0.060 A 
ATOM     35  C   UNL A   1      41.805  26.724  28.209  1.00  0.00     0.016 A 
ATOM     36  C   UNL A   1      44.089  27.080  27.488  1.00  0.00     0.016 A 
ATOM     37  C   UNL A   1      42.193  26.825  29.551  1.00  0.00     0.010 A 
ATOM     38  C   UNL A   1      44.473  27.190  28.830  1.00  0.00     0.010 A 
ATOM     39  C   UNL A   1      43.526  27.092  29.877  1.00  0.00    -0.014 A 
BRANCH  39  40
ATOM     40  C   UNL A   1      43.951  27.408  31.272  1.00  0.00     0.031 A 
ATOM     41  C   UNL A   1      44.452  26.276  32.119  1.00  0.00     0.074 A 
ATOM     42  C   UNL A   1      43.866  28.638  31.820  1.00  0.00     0.049 A 
ATOM     43  N   UNL A   1      44.790  26.279  33.380  1.00  0.00    -0.248 NA
ATOM     44  C   UNL A   1      44.621  24.975  31.449  1.00  0.00     0.031 C 
ATOM     45  C   UNL A   1      43.517  29.859  31.109  1.00  0.00     0.029 A 
ATOM     46  N   UNL A   1      43.992  29.057  33.127  1.00  0.00    -0.354 N 
ATOM     47  C   UNL A   1      45.234  24.994  33.646  1.00  0.00     0.074 A 
ATOM     48  C   UNL A   1      45.036  24.213  32.446  1.00  0.00     0.031 C 
ATOM     49  C   UNL A   1      43.287  30.847  31.993  1.00  0.00     0.029 A 
ATOM     50  C   UNL A   1      43.523  30.338  33.337  1.00  0.00     0.049 A 
ATOM     51  H   UNL A   1      44.379  28.498  33.840  1.00  0.00     0.167 HD
ATOM     52  C   UNL A   1      45.818  24.521  34.769  1.00  0.00     0.034 A 
ATOM     53  C   UNL A   1      43.297  31.018  34.482  1.00  0.00     0.034 A 
ATOM     54  C   UNL A   1      46.004  25.295  35.963  1.00  0.00     0.049 A 
ATOM     55  C   UNL A   1      43.794  30.424  35.771  1.00  0.00     0.074 A 
ATOM     56  C   UNL A   1      46.632  24.926  37.137  1.00  0.00     0.029 A 
ATOM     57  N   UNL A   1      45.530  26.584  36.147  1.00  0.00    -0.354 N 
ATOM     58  N   UNL A   1      44.356  29.257  35.973  1.00  0.00    -0.248 NA
ATOM     59  C   UNL A   1      43.731  31.275  36.969  1.00  0.00     0.031 C 
ATOM     60  C   UNL A   1      46.493  25.975  38.051  1.00  0.00     0.029 A 
ATOM     61  C   UNL A   1      45.825  27.017  37.428  1.00  0.00     0.049 A 
ATOM     62  H   UNL A   1      45.054  27.113  35.468  1.00  0.00     0.167 HD
ATOM     63  C   UNL A   1      44.792  29.267  37.291  1.00  0.00     0.074 A 
ATOM     64  C   UNL A   1      44.409  30.549  37.847  1.00  0.00     0.031 C 
ATOM     65  C   UNL A   1      45.473  28.308  37.965  1.00  0.00     0.034 A 
BRANCH  52  66
ATOM     66  C   UNL A   1      46.315  23.105  34.721  1.00  0.00     0.023 A 
ATOM     67  C   UNL A   1      45.394  22.038  34.803  1.00  0.00     0.012 A 
ATOM     68  C   UNL A   1      47.689  22.829  34.620  1.00  0.00     0.148 A 
ATOM     69  C   UNL A   1      45.839  20.718  34.841  1.00  0.00     0.002 A 
ATOM     70  C   UNL A   1      48.122  21.510  34.608  1.00  0.00     0.091 A 
ATOM     71  F   UNL A   1      48.546  23.858  34.570  1.00  0.00    -0.205 F 
ATOM     72  C   UNL A   1      47.202  20.455  34.736  1.00  0.00     0.022 A 
BRANCH  70  73
ATOM     73  S   UNL A   1      49.847  21.064  34.406  1.00  0.00     0.127 S 
ATOM     74  O   UNL A   1      49.765  19.607  34.312  1.00  0.00    -0.237 OA
ATOM     75  O   UNL A   1      50.190  21.737  33.154  1.00  0.00    -0.237 OA
ATOM     76  O   UNL A   1      50.536  21.574  35.582  1.00  0.00    -0.744 OA
ENDBRANCH  70  73
ENDBRANCH  52  66
BRANCH  53  77
ATOM     77  C   UNL A   1      42.649  32.364  34.467  1.00  0.00     0.023 A 
ATOM     78  C   UNL A   1      43.440  33.521  34.330  1.00  0.00     0.012 A 
ATOM     79  C   UNL A   1      41.254  32.503  34.627  1.00  0.00     0.148 A 
ATOM     80  C   UNL A   1      42.860  34.792  34.386  1.00  0.00     0.002 A 
ATOM     81  C   UNL A   1      40.678  33.771  34.638  1.00  0.00     0.091 A 
ATOM     82  F   UNL A   1      40.523  31.393  34.788  1.00  0.00    -0.205 F 
ATOM     83  C   UNL A   1      41.482  34.916  34.533  1.00  0.00     0.022 A 
BRANCH  81  84
ATOM     84  S   UNL A   1      38.903  34.043  34.742  1.00  0.00     0.127 S 
ATOM     85  O   UNL A   1      38.823  35.502  34.763  1.00  0.00    -0.237 OA
ATOM     86  O   UNL A   1      38.433  33.419  33.504  1.00  0.00    -0.237 OA
ATOM     87  O   UNL A   1      38.470  33.373  35.959  1.00  0.00    -0.744 OA
ENDBRANCH  81  84
ENDBRANCH  53  77
BRANCH  65  88
ATOM     88  C   UNL A   1      45.917  28.620  39.370  1.00  0.00     0.023 A 
ATOM     89  C   UNL A   1      45.181  28.143  40.472  1.00  0.00     0.012 A 
ATOM     90  C   UNL A   1      47.117  29.325  39.590  1.00  0.00     0.148 A 
ATOM     91  C   UNL A   1      45.619  28.390  41.773  1.00  0.00     0.002 A 
ATOM     92  C   UNL A   1      47.577  29.515  40.887  1.00  0.00     0.091 A 
ATOM     93  F   UNL A   1      47.791  29.789  38.528  1.00  0.00    -0.205 F 
ATOM     94  C   UNL A   1      46.821  29.063  41.980  1.00  0.00     0.022 A 
BRANCH  92  95
ATOM     95  S   UNL A   1      49.166  30.273  41.244  1.00  0.00     0.127 S 
ATOM     96  O   UNL A   1      48.958  30.774  42.601  1.00  0.00    -0.237 OA
ATOM     97  O   UNL A   1      50.077  29.132  41.148  1.00  0.00    -0.237 OA
ATOM     98  O   UNL A   1      49.364  31.296  40.227  1.00  0.00    -0.744 OA
ENDBRANCH  92  95
ENDBRANCH  65  88
ENDBRANCH  39  40
ENDBRANCH  32  34
ENDBRANCH  31  32
ENDBRANCH  30  31
ENDBRANCH  29  30
ENDBRANCH  28  29
ENDBRANCH  27  28
ENDBRANCH  26  27
ENDBRANCH  25  26
ENDBRANCH   1  25
TORSDOF 27
ENDMDL
