MODEL 1
REMARK VINA RESULT:     -10.0      0.000      0.000
REMARK SMILES COc1ccc(C(C)(C)C)cc1CC(=O)OCCOCCOCCOCCOC(=O)c1ccc(-c2c3nc(c(-c4cccc(S(=O)(=O)[O-])c4F)c4ccc([nH]4)c(-c4cccc(S(=O)(=O)[O-])c4F)c4nc(c(-c5cccc(S(=O)(=O)[O-])c5F)c5ccc2[nH]5)C=C4)C=C3)cc1
REMARK SMILES IDX 23 1 22 2 21 3 20 4 19 5 18 6 17 7 16 8 14 9 15 10 13 11
REMARK SMILES IDX 12 12 3 13 4 14 5 15 11 16 6 17 2 18 1 19 7 20 8 21 9 22
REMARK SMILES IDX 10 23 24 24 25 25 26 26 27 27 28 28 29 29 30 30 31 31 32 32
REMARK SMILES IDX 93 33 33 34 92 35 34 36 35 37 36 38 86 39 37 40 91 41 85 42
REMARK SMILES IDX 87 43 38 44 90 45 84 46 83 47 39 49 71 50 51 51 70 52 52 53
REMARK SMILES IDX 55 54 69 55 88 56 53 57 54 58 68 60 89 61 56 62 40 63 41 64
REMARK SMILES IDX 49 65 42 66 44 67 50 68 43 69 45 70 46 71 47 72 48 73 72 74
REMARK SMILES IDX 73 75 81 76 74 77 76 78 82 79 75 80 77 81 78 82 79 83 80 84
REMARK SMILES IDX 57 85 58 86 66 87 59 88 61 89 67 90 60 91 62 92 63 93 64 94
REMARK SMILES IDX 65 95
REMARK H PARENT 87 48 55 59
REMARK Flexibility Score: inf
ROOT
ATOM      1  C   UNL A   1      38.941  21.124  25.506  1.00  0.00     0.188 C 
ENDROOT
BRANCH   1   2
ATOM      2  O   UNL A   1      37.959  21.886  26.181  1.00  0.00    -0.377 OA
BRANCH   2   3
ATOM      3  C   UNL A   1      37.740  23.174  25.631  1.00  0.00     0.188 C 
BRANCH   3   4
ATOM      4  C   UNL A   1      36.272  23.472  25.242  1.00  0.00     0.188 C 
BRANCH   4   5
ATOM      5  O   UNL A   1      35.776  23.288  23.916  1.00  0.00    -0.376 OA
BRANCH   5   6
ATOM      6  C   UNL A   1      34.495  22.708  23.724  1.00  0.00     0.202 C 
BRANCH   6   7
ATOM      7  C   UNL A   1      33.378  23.636  23.212  1.00  0.00     0.261 C 
BRANCH   7   8
ATOM      8  O   UNL A   1      33.740  24.411  22.050  1.00  0.00    -0.463 OA
BRANCH   8   9
ATOM      9  C   UNL A   1      32.836  25.296  21.578  1.00  0.00     0.310 C 
ATOM     10  O   UNL A   1      32.912  25.835  20.475  1.00  0.00    -0.252 OA
BRANCH   9  11
ATOM     11  C   UNL A   1      31.594  25.465  22.440  1.00  0.00     0.162 C 
BRANCH  11  12
ATOM     12  C   UNL A   1      31.330  26.744  23.216  1.00  0.00     0.005 A 
ATOM     13  C   UNL A   1      31.899  27.017  24.463  1.00  0.00     0.122 A 
ATOM     14  C   UNL A   1      31.613  28.219  25.117  1.00  0.00     0.047 A 
ATOM     15  C   UNL A   1      30.745  29.160  24.553  1.00  0.00     0.008 A 
ATOM     16  C   UNL A   1      30.467  27.727  22.652  1.00  0.00     0.012 A 
ATOM     17  C   UNL A   1      30.109  28.916  23.328  1.00  0.00    -0.042 A 
BRANCH  13  18
ATOM     18  O   UNL A   1      32.641  26.126  25.183  1.00  0.00    -0.496 OA
ATOM     19  C   UNL A   1      31.924  25.412  26.181  1.00  0.00     0.278 C 
ENDBRANCH  13  18
BRANCH  17  20
ATOM     20  C   UNL A   1      29.008  29.878  22.830  1.00  0.00    -0.013 C 
ATOM     21  C   UNL A   1      27.627  29.177  22.905  1.00  0.00     0.016 C 
ATOM     22  C   UNL A   1      28.946  31.144  23.708  1.00  0.00     0.016 C 
ATOM     23  C   UNL A   1      29.209  30.342  21.369  1.00  0.00     0.016 C 
ENDBRANCH  17  20
ENDBRANCH  11  12
ENDBRANCH   9  11
ENDBRANCH   8   9
ENDBRANCH   7   8
ENDBRANCH   6   7
ENDBRANCH   5   6
ENDBRANCH   4   5
ENDBRANCH   3   4
ENDBRANCH   2   3
ENDBRANCH   1   2
BRANCH   1  24
ATOM     24  C   UNL A   1      40.003  20.555  26.457  1.00  0.00     0.188 C 
BRANCH  24  25
ATOM     25  O   UNL A   1      40.939  19.737  25.764  1.00  0.00    -0.376 OA
BRANCH  25  26
ATOM     26  C   UNL A   1      42.310  19.826  26.099  1.00  0.00     0.202 C 
BRANCH  26  27
ATOM     27  C   UNL A   1      43.124  21.025  25.590  1.00  0.00     0.261 C 
BRANCH  27  28
ATOM     28  O   UNL A   1      42.421  22.253  25.381  1.00  0.00    -0.460 OA
BRANCH  28  29
ATOM     29  C   UNL A   1      43.156  23.353  25.115  1.00  0.00     0.338 C 
ATOM     30  O   UNL A   1      43.767  23.585  24.087  1.00  0.00    -0.246 OA
BRANCH  29  31
ATOM     31  C   UNL A   1      42.889  24.337  26.192  1.00  0.00     0.060 A 
ATOM     32  C   UNL A   1      42.202  23.896  27.330  1.00  0.00     0.016 A 
ATOM     33  C   UNL A   1      43.369  25.649  26.122  1.00  0.00     0.016 A 
ATOM     34  C   UNL A   1      41.990  24.764  28.401  1.00  0.00     0.010 A 
ATOM     35  C   UNL A   1      43.122  26.529  27.180  1.00  0.00     0.010 A 
ATOM     36  C   UNL A   1      42.415  26.095  28.315  1.00  0.00    -0.014 A 
BRANCH  36  37
ATOM     37  C   UNL A   1      41.950  27.067  29.331  1.00  0.00     0.031 A 
ATOM     38  C   UNL A   1      42.727  27.181  30.611  1.00  0.00     0.074 A 
ATOM     39  C   UNL A   1      40.871  27.840  29.118  1.00  0.00     0.049 A 
ATOM     40  N   UNL A   1      42.507  27.937  31.652  1.00  0.00    -0.248 NA
ATOM     41  C   UNL A   1      43.918  26.322  30.727  1.00  0.00     0.031 C 
ATOM     42  C   UNL A   1      40.048  27.827  27.911  1.00  0.00     0.029 A 
ATOM     43  N   UNL A   1      40.267  28.766  29.932  1.00  0.00    -0.354 N 
ATOM     44  C   UNL A   1      43.515  27.633  32.558  1.00  0.00     0.074 A 
ATOM     45  C   UNL A   1      44.341  26.613  31.948  1.00  0.00     0.031 C 
ATOM     46  C   UNL A   1      39.016  28.671  28.081  1.00  0.00     0.029 A 
ATOM     47  C   UNL A   1      39.093  29.263  29.418  1.00  0.00     0.049 A 
ATOM     48  H   UNL A   1      40.639  29.048  30.799  1.00  0.00     0.167 HD
ATOM     49  C   UNL A   1      43.742  28.160  33.783  1.00  0.00     0.034 A 
ATOM     50  C   UNL A   1      38.168  30.067  29.978  1.00  0.00     0.034 A 
ATOM     51  C   UNL A   1      42.908  29.163  34.388  1.00  0.00     0.049 A 
ATOM     52  C   UNL A   1      38.402  30.600  31.369  1.00  0.00     0.074 A 
ATOM     53  C   UNL A   1      43.068  29.794  35.608  1.00  0.00     0.029 A 
ATOM     54  N   UNL A   1      41.738  29.658  33.831  1.00  0.00    -0.354 N 
ATOM     55  N   UNL A   1      39.425  30.402  32.167  1.00  0.00    -0.248 NA
ATOM     56  C   UNL A   1      37.370  31.484  31.928  1.00  0.00     0.031 C 
ATOM     57  C   UNL A   1      41.970  30.638  35.808  1.00  0.00     0.029 A 
ATOM     58  C   UNL A   1      41.146  30.562  34.696  1.00  0.00     0.049 A 
ATOM     59  H   UNL A   1      41.380  29.402  32.950  1.00  0.00     0.167 HD
ATOM     60  C   UNL A   1      39.168  31.145  33.313  1.00  0.00     0.074 A 
ATOM     61  C   UNL A   1      37.906  31.823  33.094  1.00  0.00     0.031 C 
ATOM     62  C   UNL A   1      39.900  31.247  34.452  1.00  0.00     0.034 A 
BRANCH  49  63
ATOM     63  C   UNL A   1      44.940  27.653  34.541  1.00  0.00     0.023 A 
ATOM     64  C   UNL A   1      46.203  28.247  34.339  1.00  0.00     0.012 A 
ATOM     65  C   UNL A   1      44.817  26.589  35.455  1.00  0.00     0.148 A 
ATOM     66  C   UNL A   1      47.332  27.761  34.998  1.00  0.00     0.002 A 
ATOM     67  C   UNL A   1      45.938  26.141  36.144  1.00  0.00     0.091 A 
ATOM     68  F   UNL A   1      43.614  26.017  35.615  1.00  0.00    -0.205 F 
ATOM     69  C   UNL A   1      47.197  26.714  35.906  1.00  0.00     0.022 A 
BRANCH  67  70
ATOM     70  S   UNL A   1      45.854  24.847  37.388  1.00  0.00     0.127 S 
ATOM     71  O   UNL A   1      46.005  23.643  36.571  1.00  0.00    -0.237 OA
ATOM     72  O   UNL A   1      47.009  25.159  38.232  1.00  0.00    -0.237 OA
ATOM     73  O   UNL A   1      44.564  25.003  38.042  1.00  0.00    -0.744 OA
ENDBRANCH  67  70
ENDBRANCH  49  63
BRANCH  50  74
ATOM     74  C   UNL A   1      36.930  30.403  29.220  1.00  0.00     0.023 A 
ATOM     75  C   UNL A   1      36.071  29.378  28.782  1.00  0.00     0.012 A 
ATOM     76  C   UNL A   1      36.580  31.746  28.972  1.00  0.00     0.148 A 
ATOM     77  C   UNL A   1      34.893  29.683  28.098  1.00  0.00     0.002 A 
ATOM     78  C   UNL A   1      35.380  32.045  28.339  1.00  0.00     0.091 A 
ATOM     79  F   UNL A   1      37.423  32.705  29.380  1.00  0.00    -0.205 F 
ATOM     80  C   UNL A   1      34.541  31.015  27.889  1.00  0.00     0.022 A 
BRANCH  78  81
ATOM     81  S   UNL A   1      34.788  33.728  28.135  1.00  0.00     0.127 S 
ATOM     82  O   UNL A   1      33.383  33.512  27.796  1.00  0.00    -0.237 OA
ATOM     83  O   UNL A   1      35.019  34.289  29.466  1.00  0.00    -0.237 OA
ATOM     84  O   UNL A   1      35.605  34.312  27.081  1.00  0.00    -0.744 OA
ENDBRANCH  78  81
ENDBRANCH  50  74
BRANCH  62  85
ATOM     85  C   UNL A   1      39.363  32.123  35.555  1.00  0.00     0.023 A 
ATOM     86  C   UNL A   1      39.480  33.522  35.454  1.00  0.00     0.012 A 
ATOM     87  C   UNL A   1      38.663  31.564  36.644  1.00  0.00     0.148 A 
ATOM     88  C   UNL A   1      38.933  34.353  36.433  1.00  0.00     0.002 A 
ATOM     89  C   UNL A   1      38.078  32.399  37.589  1.00  0.00     0.091 A 
ATOM     90  F   UNL A   1      38.573  30.229  36.727  1.00  0.00    -0.205 F 
ATOM     91  C   UNL A   1      38.222  33.792  37.492  1.00  0.00     0.022 A 
BRANCH  89  92
ATOM     92  S   UNL A   1      37.063  31.778  38.936  1.00  0.00     0.127 S 
ATOM     93  O   UNL A   1      35.899  32.661  38.863  1.00  0.00    -0.237 OA
ATOM     94  O   UNL A   1      36.811  30.398  38.520  1.00  0.00    -0.237 OA
ATOM     95  O   UNL A   1      37.867  31.912  40.143  1.00  0.00    -0.744 OA
ENDBRANCH  89  92
ENDBRANCH  62  85
ENDBRANCH  36  37
ENDBRANCH  29  31
ENDBRANCH  28  29
ENDBRANCH  27  28
ENDBRANCH  26  27
ENDBRANCH  25  26
ENDBRANCH  24  25
ENDBRANCH   1  24
TORSDOF 26
ENDMDL
MODEL 2
REMARK VINA RESULT:      -9.0      3.925      4.383
REMARK SMILES COc1ccc(C(C)(C)C)cc1CC(=O)OCCOCCOCCOCCOC(=O)c1ccc(-c2c3nc(c(-c4cccc(S(=O)(=O)[O-])c4F)c4ccc([nH]4)c(-c4cccc(S(=O)(=O)[O-])c4F)c4nc(c(-c5cccc(S(=O)(=O)[O-])c5F)c5ccc2[nH]5)C=C4)C=C3)cc1
REMARK SMILES IDX 23 1 22 2 21 3 20 4 19 5 18 6 17 7 16 8 14 9 15 10 13 11
REMARK SMILES IDX 12 12 3 13 4 14 5 15 11 16 6 17 2 18 1 19 7 20 8 21 9 22
REMARK SMILES IDX 10 23 24 24 25 25 26 26 27 27 28 28 29 29 30 30 31 31 32 32
REMARK SMILES IDX 93 33 33 34 92 35 34 36 35 37 36 38 86 39 37 40 91 41 85 42
REMARK SMILES IDX 87 43 38 44 90 45 84 46 83 47 39 49 71 50 51 51 70 52 52 53
REMARK SMILES IDX 55 54 69 55 88 56 53 57 54 58 68 60 89 61 56 62 40 63 41 64
REMARK SMILES IDX 49 65 42 66 44 67 50 68 43 69 45 70 46 71 47 72 48 73 72 74
REMARK SMILES IDX 73 75 81 76 74 77 76 78 82 79 75 80 77 81 78 82 79 83 80 84
REMARK SMILES IDX 57 85 58 86 66 87 59 88 61 89 67 90 60 91 62 92 63 93 64 94
REMARK SMILES IDX 65 95
REMARK H PARENT 87 48 55 59
REMARK Flexibility Score: inf
ROOT
ATOM      1  C   UNL A   1      38.904  21.085  25.411  1.00  0.00     0.188 C 
ENDROOT
BRANCH   1   2
ATOM      2  O   UNL A   1      37.877  21.802  26.069  1.00  0.00    -0.377 OA
BRANCH   2   3
ATOM      3  C   UNL A   1      37.734  23.144  25.639  1.00  0.00     0.188 C 
BRANCH   3   4
ATOM      4  C   UNL A   1      36.290  23.555  25.262  1.00  0.00     0.188 C 
BRANCH   4   5
ATOM      5  O   UNL A   1      35.781  23.440  23.932  1.00  0.00    -0.376 OA
BRANCH   5   6
ATOM      6  C   UNL A   1      34.449  22.993  23.731  1.00  0.00     0.202 C 
BRANCH   6   7
ATOM      7  C   UNL A   1      33.415  24.051  23.304  1.00  0.00     0.261 C 
BRANCH   7   8
ATOM      8  O   UNL A   1      33.840  24.882  22.204  1.00  0.00    -0.463 OA
BRANCH   8   9
ATOM      9  C   UNL A   1      32.922  25.697  21.640  1.00  0.00     0.310 C 
ATOM     10  O   UNL A   1      33.019  26.162  20.505  1.00  0.00    -0.252 OA
BRANCH   9  11
ATOM     11  C   UNL A   1      31.644  25.877  22.445  1.00  0.00     0.162 C 
BRANCH  11  12
ATOM     12  C   UNL A   1      31.279  27.210  23.073  1.00  0.00     0.005 A 
ATOM     13  C   UNL A   1      32.002  27.791  24.120  1.00  0.00     0.122 A 
ATOM     14  C   UNL A   1      31.607  29.025  24.645  1.00  0.00     0.047 A 
ATOM     15  C   UNL A   1      30.480  29.693  24.155  1.00  0.00     0.008 A 
ATOM     16  C   UNL A   1      30.148  27.921  22.575  1.00  0.00     0.012 A 
ATOM     17  C   UNL A   1      29.691  29.134  23.140  1.00  0.00    -0.042 A 
BRANCH  13  18
ATOM     18  O   UNL A   1      33.025  27.178  24.782  1.00  0.00    -0.496 OA
ATOM     19  C   UNL A   1      34.045  28.047  25.255  1.00  0.00     0.278 C 
ENDBRANCH  13  18
BRANCH  17  20
ATOM     20  C   UNL A   1      28.349  29.796  22.759  1.00  0.00    -0.013 C 
ATOM     21  C   UNL A   1      27.181  28.821  23.062  1.00  0.00     0.016 C 
ATOM     22  C   UNL A   1      28.118  31.081  23.578  1.00  0.00     0.016 C 
ATOM     23  C   UNL A   1      28.251  30.179  21.265  1.00  0.00     0.016 C 
ENDBRANCH  17  20
ENDBRANCH  11  12
ENDBRANCH   9  11
ENDBRANCH   8   9
ENDBRANCH   7   8
ENDBRANCH   6   7
ENDBRANCH   5   6
ENDBRANCH   4   5
ENDBRANCH   3   4
ENDBRANCH   2   3
ENDBRANCH   1   2
BRANCH   1  24
ATOM     24  C   UNL A   1      39.919  20.477  26.388  1.00  0.00     0.188 C 
BRANCH  24  25
ATOM     25  O   UNL A   1      40.868  19.659  25.712  1.00  0.00    -0.376 OA
BRANCH  25  26
ATOM     26  C   UNL A   1      42.187  19.577  26.216  1.00  0.00     0.202 C 
BRANCH  26  27
ATOM     27  C   UNL A   1      43.204  20.657  25.817  1.00  0.00     0.261 C 
BRANCH  27  28
ATOM     28  O   UNL A   1      42.797  22.022  25.950  1.00  0.00    -0.460 OA
BRANCH  28  29
ATOM     29  C   UNL A   1      43.308  22.912  25.074  1.00  0.00     0.338 C 
ATOM     30  O   UNL A   1      43.455  22.747  23.876  1.00  0.00    -0.246 OA
BRANCH  29  31
ATOM     31  C   UNL A   1      43.429  24.210  25.779  1.00  0.00     0.060 A 
ATOM     32  C   UNL A   1      43.550  24.192  27.175  1.00  0.00     0.016 A 
ATOM     33  C   UNL A   1      43.500  25.421  25.082  1.00  0.00     0.016 A 
ATOM     34  C   UNL A   1      43.740  25.381  27.877  1.00  0.00     0.010 A 
ATOM     35  C   UNL A   1      43.651  26.616  25.791  1.00  0.00     0.010 A 
ATOM     36  C   UNL A   1      43.752  26.602  27.193  1.00  0.00    -0.014 A 
BRANCH  36  37
ATOM     37  C   UNL A   1      43.681  27.864  27.965  1.00  0.00     0.031 A 
ATOM     38  C   UNL A   1      44.968  28.500  28.404  1.00  0.00     0.074 A 
ATOM     39  C   UNL A   1      42.502  28.438  28.263  1.00  0.00     0.049 A 
ATOM     40  N   UNL A   1      45.163  29.585  29.104  1.00  0.00    -0.248 NA
ATOM     41  C   UNL A   1      46.205  27.816  27.990  1.00  0.00     0.031 C 
ATOM     42  C   UNL A   1      41.190  27.919  27.880  1.00  0.00     0.029 A 
ATOM     43  N   UNL A   1      42.222  29.571  28.985  1.00  0.00    -0.354 N 
ATOM     44  C   UNL A   1      46.541  29.705  29.235  1.00  0.00     0.074 A 
ATOM     45  C   UNL A   1      47.133  28.575  28.553  1.00  0.00     0.031 C 
ATOM     46  C   UNL A   1      40.241  28.708  28.411  1.00  0.00     0.029 A 
ATOM     47  C   UNL A   1      40.878  29.770  29.192  1.00  0.00     0.049 A 
ATOM     48  H   UNL A   1      42.916  30.183  29.320  1.00  0.00     0.167 HD
ATOM     49  C   UNL A   1      47.251  30.673  29.858  1.00  0.00     0.034 A 
ATOM     50  C   UNL A   1      40.239  30.677  29.957  1.00  0.00     0.034 A 
ATOM     51  C   UNL A   1      46.655  31.786  30.546  1.00  0.00     0.049 A 
ATOM     52  C   UNL A   1      41.046  31.714  30.696  1.00  0.00     0.074 A 
ATOM     53  C   UNL A   1      47.281  32.844  31.179  1.00  0.00     0.029 A 
ATOM     54  N   UNL A   1      45.290  31.966  30.720  1.00  0.00    -0.354 N 
ATOM     55  N   UNL A   1      42.346  31.891  30.711  1.00  0.00    -0.248 NA
ATOM     56  C   UNL A   1      40.300  32.689  31.505  1.00  0.00     0.031 C 
ATOM     57  C   UNL A   1      46.296  33.640  31.773  1.00  0.00     0.029 A 
ATOM     58  C   UNL A   1      45.054  33.100  31.478  1.00  0.00     0.049 A 
ATOM     59  H   UNL A   1      44.592  31.374  30.359  1.00  0.00     0.167 HD
ATOM     60  C   UNL A   1      42.574  33.003  31.515  1.00  0.00     0.074 A 
ATOM     61  C   UNL A   1      41.274  33.476  31.945  1.00  0.00     0.031 C 
ATOM     62  C   UNL A   1      43.751  33.572  31.878  1.00  0.00     0.034 A 
BRANCH  49  63
ATOM     63  C   UNL A   1      48.753  30.560  29.819  1.00  0.00     0.023 A 
ATOM     64  C   UNL A   1      49.477  31.172  28.776  1.00  0.00     0.012 A 
ATOM     65  C   UNL A   1      49.448  29.849  30.816  1.00  0.00     0.148 A 
ATOM     66  C   UNL A   1      50.863  31.039  28.698  1.00  0.00     0.002 A 
ATOM     67  C   UNL A   1      50.834  29.761  30.759  1.00  0.00     0.091 A 
ATOM     68  F   UNL A   1      48.742  29.251  31.787  1.00  0.00    -0.205 F 
ATOM     69  C   UNL A   1      51.541  30.341  29.694  1.00  0.00     0.022 A 
BRANCH  67  70
ATOM     70  S   UNL A   1      51.804  28.947  32.033  1.00  0.00     0.127 S 
ATOM     71  O   UNL A   1      51.389  27.554  31.873  1.00  0.00    -0.237 OA
ATOM     72  O   UNL A   1      53.174  29.228  31.601  1.00  0.00    -0.237 OA
ATOM     73  O   UNL A   1      51.423  29.575  33.289  1.00  0.00    -0.744 OA
ENDBRANCH  67  70
ENDBRANCH  49  63
BRANCH  50  74
ATOM     74  C   UNL A   1      38.754  30.630  30.068  1.00  0.00     0.023 A 
ATOM     75  C   UNL A   1      38.134  29.618  30.824  1.00  0.00     0.012 A 
ATOM     76  C   UNL A   1      37.956  31.618  29.456  1.00  0.00     0.148 A 
ATOM     77  C   UNL A   1      36.744  29.584  30.959  1.00  0.00     0.002 A 
ATOM     78  C   UNL A   1      36.579  31.609  29.639  1.00  0.00     0.091 A 
ATOM     79  F   UNL A   1      38.566  32.560  28.723  1.00  0.00    -0.205 F 
ATOM     80  C   UNL A   1      35.969  30.585  30.380  1.00  0.00     0.022 A 
BRANCH  78  81
ATOM     81  S   UNL A   1      35.514  32.922  29.033  1.00  0.00     0.127 S 
ATOM     82  O   UNL A   1      36.062  34.092  29.716  1.00  0.00    -0.237 OA
ATOM     83  O   UNL A   1      35.770  32.874  27.594  1.00  0.00    -0.237 OA
ATOM     84  O   UNL A   1      34.161  32.548  29.421  1.00  0.00    -0.744 OA
ENDBRANCH  78  81
ENDBRANCH  50  74
BRANCH  62  85
ATOM     85  C   UNL A   1      43.698  34.773  32.787  1.00  0.00     0.023 A 
ATOM     86  C   UNL A   1      43.675  36.068  32.232  1.00  0.00     0.012 A 
ATOM     87  C   UNL A   1      43.578  34.619  34.183  1.00  0.00     0.148 A 
ATOM     88  C   UNL A   1      43.562  37.191  33.052  1.00  0.00     0.002 A 
ATOM     89  C   UNL A   1      43.415  35.739  34.990  1.00  0.00     0.091 A 
ATOM     90  F   UNL A   1      43.613  33.379  34.693  1.00  0.00    -0.205 F 
ATOM     91  C   UNL A   1      43.419  37.025  34.428  1.00  0.00     0.022 A 
BRANCH  89  92
ATOM     92  S   UNL A   1      43.129  35.625  36.760  1.00  0.00     0.127 S 
ATOM     93  O   UNL A   1      43.091  37.035  37.146  1.00  0.00    -0.237 OA
ATOM     94  O   UNL A   1      41.838  34.939  36.820  1.00  0.00    -0.237 OA
ATOM     95  O   UNL A   1      44.247  34.865  37.303  1.00  0.00    -0.744 OA
ENDBRANCH  89  92
ENDBRANCH  62  85
ENDBRANCH  36  37
ENDBRANCH  29  31
ENDBRANCH  28  29
ENDBRANCH  27  28
ENDBRANCH  26  27
ENDBRANCH  25  26
ENDBRANCH  24  25
ENDBRANCH   1  24
TORSDOF 26
ENDMDL
MODEL 3
REMARK VINA RESULT:      -8.9      5.204      6.256
REMARK SMILES COc1ccc(C(C)(C)C)cc1CC(=O)OCCOCCOCCOCCOC(=O)c1ccc(-c2c3nc(c(-c4cccc(S(=O)(=O)[O-])c4F)c4ccc([nH]4)c(-c4cccc(S(=O)(=O)[O-])c4F)c4nc(c(-c5cccc(S(=O)(=O)[O-])c5F)c5ccc2[nH]5)C=C4)C=C3)cc1
REMARK SMILES IDX 23 1 22 2 21 3 20 4 19 5 18 6 17 7 16 8 14 9 15 10 13 11
REMARK SMILES IDX 12 12 3 13 4 14 5 15 11 16 6 17 2 18 1 19 7 20 8 21 9 22
REMARK SMILES IDX 10 23 24 24 25 25 26 26 27 27 28 28 29 29 30 30 31 31 32 32
REMARK SMILES IDX 93 33 33 34 92 35 34 36 35 37 36 38 86 39 37 40 91 41 85 42
REMARK SMILES IDX 87 43 38 44 90 45 84 46 83 47 39 49 71 50 51 51 70 52 52 53
REMARK SMILES IDX 55 54 69 55 88 56 53 57 54 58 68 60 89 61 56 62 40 63 41 64
REMARK SMILES IDX 49 65 42 66 44 67 50 68 43 69 45 70 46 71 47 72 48 73 72 74
REMARK SMILES IDX 73 75 81 76 74 77 76 78 82 79 75 80 77 81 78 82 79 83 80 84
REMARK SMILES IDX 57 85 58 86 66 87 59 88 61 89 67 90 60 91 62 92 63 93 64 94
REMARK SMILES IDX 65 95
REMARK H PARENT 87 48 55 59
REMARK Flexibility Score: inf
ROOT
ATOM      1  C   UNL A   1      37.471  22.179  25.110  1.00  0.00     0.188 C 
ENDROOT
BRANCH   1   2
ATOM      2  O   UNL A   1      36.271  22.614  25.719  1.00  0.00    -0.377 OA
BRANCH   2   3
ATOM      3  C   UNL A   1      35.842  23.901  25.309  1.00  0.00     0.188 C 
BRANCH   3   4
ATOM      4  C   UNL A   1      34.472  24.341  25.881  1.00  0.00     0.188 C 
BRANCH   4   5
ATOM      5  O   UNL A   1      33.486  25.003  25.088  1.00  0.00    -0.376 OA
BRANCH   5   6
ATOM      6  C   UNL A   1      32.113  24.705  25.292  1.00  0.00     0.202 C 
BRANCH   6   7
ATOM      7  C   UNL A   1      31.403  25.440  26.445  1.00  0.00     0.261 C 
BRANCH   7   8
ATOM      8  O   UNL A   1      30.901  26.745  26.093  1.00  0.00    -0.463 OA
BRANCH   8   9
ATOM      9  C   UNL A   1      31.371  27.807  26.783  1.00  0.00     0.310 C 
ATOM     10  O   UNL A   1      31.556  27.810  27.999  1.00  0.00    -0.252 OA
BRANCH   9  11
ATOM     11  C   UNL A   1      31.832  28.976  25.926  1.00  0.00     0.162 C 
BRANCH  11  12
ATOM     12  C   UNL A   1      31.273  29.212  24.534  1.00  0.00     0.005 A 
ATOM     13  C   UNL A   1      31.753  28.562  23.392  1.00  0.00     0.122 A 
ATOM     14  C   UNL A   1      31.185  28.828  22.143  1.00  0.00     0.047 A 
ATOM     15  C   UNL A   1      30.147  29.755  22.003  1.00  0.00     0.008 A 
ATOM     16  C   UNL A   1      30.200  30.135  24.368  1.00  0.00     0.012 A 
ATOM     17  C   UNL A   1      29.660  30.470  23.106  1.00  0.00    -0.042 A 
BRANCH  13  18
ATOM     18  O   UNL A   1      32.850  27.752  23.372  1.00  0.00    -0.496 OA
ATOM     19  C   UNL A   1      33.189  27.227  22.095  1.00  0.00     0.278 C 
ENDBRANCH  13  18
BRANCH  17  20
ATOM     20  C   UNL A   1      28.658  31.625  22.889  1.00  0.00    -0.013 C 
ATOM     21  C   UNL A   1      27.346  31.331  23.663  1.00  0.00     0.016 C 
ATOM     22  C   UNL A   1      29.230  32.956  23.416  1.00  0.00     0.016 C 
ATOM     23  C   UNL A   1      28.277  31.842  21.407  1.00  0.00     0.016 C 
ENDBRANCH  17  20
ENDBRANCH  11  12
ENDBRANCH   9  11
ENDBRANCH   8   9
ENDBRANCH   7   8
ENDBRANCH   6   7
ENDBRANCH   5   6
ENDBRANCH   4   5
ENDBRANCH   3   4
ENDBRANCH   2   3
ENDBRANCH   1   2
BRANCH   1  24
ATOM     24  C   UNL A   1      38.664  22.198  26.075  1.00  0.00     0.188 C 
BRANCH  24  25
ATOM     25  O   UNL A   1      39.551  21.112  25.830  1.00  0.00    -0.376 OA
BRANCH  25  26
ATOM     26  C   UNL A   1      40.670  20.935  26.676  1.00  0.00     0.202 C 
BRANCH  26  27
ATOM     27  C   UNL A   1      41.976  21.676  26.348  1.00  0.00     0.261 C 
BRANCH  27  28
ATOM     28  O   UNL A   1      41.863  22.938  25.685  1.00  0.00    -0.460 OA
BRANCH  28  29
ATOM     29  C   UNL A   1      42.997  23.496  25.212  1.00  0.00     0.338 C 
ATOM     30  O   UNL A   1      43.669  23.092  24.279  1.00  0.00    -0.246 OA
BRANCH  29  31
ATOM     31  C   UNL A   1      43.147  24.820  25.863  1.00  0.00     0.060 A 
ATOM     32  C   UNL A   1      43.334  24.853  27.251  1.00  0.00     0.016 A 
ATOM     33  C   UNL A   1      43.180  26.004  25.119  1.00  0.00     0.016 A 
ATOM     34  C   UNL A   1      43.553  26.067  27.900  1.00  0.00     0.010 A 
ATOM     35  C   UNL A   1      43.360  27.225  25.776  1.00  0.00     0.010 A 
ATOM     36  C   UNL A   1      43.528  27.262  27.172  1.00  0.00    -0.014 A 
BRANCH  36  37
ATOM     37  C   UNL A   1      43.489  28.551  27.901  1.00  0.00     0.031 A 
ATOM     38  C   UNL A   1      44.787  29.264  28.150  1.00  0.00     0.074 A 
ATOM     39  C   UNL A   1      42.329  29.082  28.323  1.00  0.00     0.049 A 
ATOM     40  N   UNL A   1      45.012  30.385  28.780  1.00  0.00    -0.248 NA
ATOM     41  C   UNL A   1      45.996  28.620  27.609  1.00  0.00     0.031 C 
ATOM     42  C   UNL A   1      41.008  28.488  28.128  1.00  0.00     0.029 A 
ATOM     43  N   UNL A   1      42.084  30.231  29.032  1.00  0.00    -0.354 N 
ATOM     44  C   UNL A   1      46.388  30.574  28.732  1.00  0.00     0.074 A 
ATOM     45  C   UNL A   1      46.947  29.444  28.023  1.00  0.00     0.031 C 
ATOM     46  C   UNL A   1      40.093  29.255  28.745  1.00  0.00     0.029 A 
ATOM     47  C   UNL A   1      40.767  30.377  29.400  1.00  0.00     0.049 A 
ATOM     48  H   UNL A   1      42.782  30.888  29.255  1.00  0.00     0.167 HD
ATOM     49  C   UNL A   1      47.119  31.599  29.225  1.00  0.00     0.034 A 
ATOM     50  C   UNL A   1      40.183  31.286  30.206  1.00  0.00     0.034 A 
ATOM     51  C   UNL A   1      46.557  32.711  29.942  1.00  0.00     0.049 A 
ATOM     52  C   UNL A   1      41.021  32.389  30.800  1.00  0.00     0.074 A 
ATOM     53  C   UNL A   1      47.203  33.823  30.452  1.00  0.00     0.029 A 
ATOM     54  N   UNL A   1      45.217  32.836  30.280  1.00  0.00    -0.354 N 
ATOM     55  N   UNL A   1      42.303  32.626  30.644  1.00  0.00    -0.248 NA
ATOM     56  C   UNL A   1      40.333  33.362  31.660  1.00  0.00     0.031 C 
ATOM     57  C   UNL A   1      46.260  34.597  31.136  1.00  0.00     0.029 A 
ATOM     58  C   UNL A   1      45.020  33.989  31.019  1.00  0.00     0.049 A 
ATOM     59  H   UNL A   1      44.511  32.197  30.031  1.00  0.00     0.167 HD
ATOM     60  C   UNL A   1      42.572  33.780  31.371  1.00  0.00     0.074 A 
ATOM     61  C   UNL A   1      41.313  34.211  31.944  1.00  0.00     0.031 C 
ATOM     62  C   UNL A   1      43.755  34.417  31.563  1.00  0.00     0.034 A 
BRANCH  49  63
ATOM     63  C   UNL A   1      48.609  31.552  29.002  1.00  0.00     0.023 A 
ATOM     64  C   UNL A   1      49.436  30.870  29.918  1.00  0.00     0.012 A 
ATOM     65  C   UNL A   1      49.189  32.182  27.885  1.00  0.00     0.148 A 
ATOM     66  C   UNL A   1      50.821  30.855  29.752  1.00  0.00     0.002 A 
ATOM     67  C   UNL A   1      50.566  32.122  27.699  1.00  0.00     0.091 A 
ATOM     68  F   UNL A   1      48.392  32.849  27.038  1.00  0.00    -0.205 F 
ATOM     69  C   UNL A   1      51.384  31.474  28.639  1.00  0.00     0.022 A 
BRANCH  67  70
ATOM     70  S   UNL A   1      51.379  32.825  26.260  1.00  0.00     0.127 S 
ATOM     71  O   UNL A   1      52.279  31.740  25.871  1.00  0.00    -0.237 OA
ATOM     72  O   UNL A   1      50.254  33.039  25.348  1.00  0.00    -0.237 OA
ATOM     73  O   UNL A   1      52.027  34.044  26.721  1.00  0.00    -0.744 OA
ENDBRANCH  67  70
ENDBRANCH  49  63
BRANCH  50  74
ATOM     74  C   UNL A   1      38.727  31.175  30.504  1.00  0.00     0.023 A 
ATOM     75  C   UNL A   1      38.286  30.396  31.590  1.00  0.00     0.012 A 
ATOM     76  C   UNL A   1      37.780  31.881  29.735  1.00  0.00     0.148 A 
ATOM     77  C   UNL A   1      36.926  30.311  31.896  1.00  0.00     0.002 A 
ATOM     78  C   UNL A   1      36.435  31.836  30.078  1.00  0.00     0.091 A 
ATOM     79  F   UNL A   1      38.221  32.600  28.693  1.00  0.00    -0.205 F 
ATOM     80  C   UNL A   1      36.003  31.041  31.150  1.00  0.00     0.022 A 
BRANCH  78  81
ATOM     81  S   UNL A   1      35.192  32.836  29.252  1.00  0.00     0.127 S 
ATOM     82  O   UNL A   1      35.095  32.179  27.951  1.00  0.00    -0.237 OA
ATOM     83  O   UNL A   1      34.032  32.650  30.123  1.00  0.00    -0.237 OA
ATOM     84  O   UNL A   1      35.722  34.192  29.231  1.00  0.00    -0.744 OA
ENDBRANCH  78  81
ENDBRANCH  50  74
BRANCH  62  85
ATOM     85  C   UNL A   1      43.754  35.653  32.427  1.00  0.00     0.023 A 
ATOM     86  C   UNL A   1      43.787  35.524  33.829  1.00  0.00     0.012 A 
ATOM     87  C   UNL A   1      43.814  36.938  31.849  1.00  0.00     0.148 A 
ATOM     88  C   UNL A   1      43.851  36.654  34.645  1.00  0.00     0.002 A 
ATOM     89  C   UNL A   1      43.928  38.056  32.667  1.00  0.00     0.091 A 
ATOM     90  F   UNL A   1      43.770  37.039  30.513  1.00  0.00    -0.205 F 
ATOM     91  C   UNL A   1      43.935  37.917  34.064  1.00  0.00     0.022 A 
BRANCH  89  92
ATOM     92  S   UNL A   1      44.136  39.717  32.013  1.00  0.00     0.127 S 
ATOM     93  O   UNL A   1      44.189  40.514  33.238  1.00  0.00    -0.237 OA
ATOM     94  O   UNL A   1      45.409  39.609  31.299  1.00  0.00    -0.237 OA
ATOM     95  O   UNL A   1      42.981  39.965  31.162  1.00  0.00    -0.744 OA
ENDBRANCH  89  92
ENDBRANCH  62  85
ENDBRANCH  36  37
ENDBRANCH  29  31
ENDBRANCH  28  29
ENDBRANCH  27  28
ENDBRANCH  26  27
ENDBRANCH  25  26
ENDBRANCH  24  25
ENDBRANCH   1  24
TORSDOF 26
ENDMDL
