MODEL 1
REMARK VINA RESULT:      -9.6      0.000      0.000
REMARK SMILES O=C(OCCOCCOCCOCCOC(=O)[C@H]1CCCN(c2cc(-c3ccccn3)nc(-c3ccccc3F)n2)C1)c1ccc(-c2c3nc(c(-c4cccc(S(=O)(=O)[O-])c4F)c4ccc([nH]4)c(-c4cccc(S(=O)(=O)[O-])c4F)c4nc(c(-c5cccc(S(=O)(=O)[O-])c5F)c5ccc2[nH]5)C=C4)C=C3)cc1
REMARK SMILES IDX 8 1 7 2 6 3 5 4 4 5 3 6 2 7 1 8 43 9 44 10 105 11 45 12
REMARK SMILES IDX 104 13 46 14 47 15 48 16 98 17 49 18 103 19 97 20 99 21
REMARK SMILES IDX 50 22 102 23 96 24 95 25 51 27 83 28 63 29 82 30 64 31 67 32
REMARK SMILES IDX 81 33 100 34 65 35 66 36 80 38 101 39 68 40 52 41 53 42
REMARK SMILES IDX 61 43 54 44 56 45 62 46 55 47 57 48 58 49 59 50 60 51 84 52
REMARK SMILES IDX 85 53 93 54 86 55 88 56 94 57 87 58 89 59 90 60 91 61 92 62
REMARK SMILES IDX 69 63 70 64 78 65 71 66 73 67 79 68 72 69 74 70 75 71 76 72
REMARK SMILES IDX 77 73 9 74 10 75 11 76 12 77 13 78 14 79 15 80 16 81 17 82
REMARK SMILES IDX 18 83 19 84 42 85 20 86 22 87 21 88 23 89 24 90 41 91 25 92
REMARK SMILES IDX 33 93 32 94 26 95 27 96 31 97 28 98 30 99 29 100 34 101
REMARK SMILES IDX 35 102 39 103 36 104 38 105 40 106 37 107
REMARK H PARENT 99 26 67 37
REMARK Flexibility Score: inf
ROOT
ATOM      1  C   UNL A   1      33.881  29.173  26.618  1.00  0.00     0.188 C 
ENDROOT
BRANCH   1   2
ATOM      2  C   UNL A   1      34.212  30.470  27.369  1.00  0.00     0.188 C 
BRANCH   2   3
ATOM      3  O   UNL A   1      35.235  30.326  28.360  1.00  0.00    -0.376 OA
BRANCH   3   4
ATOM      4  C   UNL A   1      35.519  31.431  29.226  1.00  0.00     0.202 C 
BRANCH   4   5
ATOM      5  C   UNL A   1      35.939  31.128  30.664  1.00  0.00     0.261 C 
BRANCH   5   6
ATOM      6  O   UNL A   1      37.243  30.560  30.829  1.00  0.00    -0.460 OA
BRANCH   6   7
ATOM      7  C   UNL A   1      38.400  31.121  31.249  1.00  0.00     0.338 C 
ATOM      8  O   UNL A   1      38.455  32.350  31.280  1.00  0.00    -0.246 OA
BRANCH   7   9
ATOM      9  C   UNL A   1      39.638  30.360  31.605  1.00  0.00     0.060 A 
ATOM     10  C   UNL A   1      40.873  30.923  31.918  1.00  0.00     0.016 A 
ATOM     11  C   UNL A   1      39.520  28.965  31.709  1.00  0.00     0.016 A 
ATOM     12  C   UNL A   1      41.939  30.181  32.375  1.00  0.00     0.010 A 
ATOM     13  C   UNL A   1      40.615  28.183  32.078  1.00  0.00     0.010 A 
ATOM     14  C   UNL A   1      41.826  28.805  32.396  1.00  0.00    -0.014 A 
BRANCH  14  15
ATOM     15  C   UNL A   1      43.088  28.072  32.434  1.00  0.00     0.031 A 
ATOM     16  C   UNL A   1      43.589  27.699  33.791  1.00  0.00     0.074 A 
ATOM     17  C   UNL A   1      43.637  27.618  31.297  1.00  0.00     0.049 A 
ATOM     18  N   UNL A   1      44.747  27.223  34.138  1.00  0.00    -0.248 NA
ATOM     19  C   UNL A   1      42.648  27.873  34.919  1.00  0.00     0.031 C 
ATOM     20  C   UNL A   1      43.055  27.755  29.959  1.00  0.00     0.029 A 
ATOM     21  N   UNL A   1      44.807  26.949  31.090  1.00  0.00    -0.354 N 
ATOM     22  C   UNL A   1      44.702  27.120  35.521  1.00  0.00     0.074 A 
ATOM     23  C   UNL A   1      43.391  27.527  35.957  1.00  0.00     0.031 C 
ATOM     24  C   UNL A   1      43.901  27.225  29.060  1.00  0.00     0.029 A 
ATOM     25  C   UNL A   1      45.106  26.796  29.758  1.00  0.00     0.049 A 
ATOM     26  H   UNL A   1      45.377  26.610  31.818  1.00  0.00     0.167 HD
ATOM     27  C   UNL A   1      45.701  26.738  36.340  1.00  0.00     0.034 A 
ATOM     28  C   UNL A   1      46.269  26.425  29.192  1.00  0.00     0.034 A 
ATOM     29  C   UNL A   1      46.981  26.339  35.835  1.00  0.00     0.049 A 
ATOM     30  C   UNL A   1      47.406  26.109  30.131  1.00  0.00     0.074 A 
ATOM     31  C   UNL A   1      48.123  26.009  36.533  1.00  0.00     0.029 A 
ATOM     32  N   UNL A   1      47.275  26.217  34.482  1.00  0.00    -0.354 N 
ATOM     33  N   UNL A   1      47.409  26.082  31.445  1.00  0.00    -0.248 NA
ATOM     34  C   UNL A   1      48.694  25.771  29.518  1.00  0.00     0.031 C 
ATOM     35  C   UNL A   1      49.119  25.711  35.597  1.00  0.00     0.029 A 
ATOM     36  C   UNL A   1      48.581  25.813  34.319  1.00  0.00     0.049 A 
ATOM     37  H   UNL A   1      46.643  26.394  33.749  1.00  0.00     0.167 HD
ATOM     38  C   UNL A   1      48.687  25.696  31.819  1.00  0.00     0.074 A 
ATOM     39  C   UNL A   1      49.421  25.470  30.586  1.00  0.00     0.031 C 
ATOM     40  C   UNL A   1      49.229  25.559  33.056  1.00  0.00     0.034 A 
BRANCH  27  41
ATOM     41  C   UNL A   1      45.464  26.796  37.820  1.00  0.00     0.023 A 
ATOM     42  C   UNL A   1      45.139  25.627  38.535  1.00  0.00     0.012 A 
ATOM     43  C   UNL A   1      45.600  28.016  38.509  1.00  0.00     0.148 A 
ATOM     44  C   UNL A   1      44.947  25.675  39.917  1.00  0.00     0.002 A 
ATOM     45  C   UNL A   1      45.454  28.048  39.888  1.00  0.00     0.091 A 
ATOM     46  F   UNL A   1      45.869  29.121  37.798  1.00  0.00    -0.205 F 
ATOM     47  C   UNL A   1      45.119  26.881  40.594  1.00  0.00     0.022 A 
BRANCH  45  48
ATOM     48  S   UNL A   1      45.718  29.533  40.861  1.00  0.00     0.127 S 
ATOM     49  O   UNL A   1      44.693  30.427  40.328  1.00  0.00    -0.237 OA
ATOM     50  O   UNL A   1      45.470  29.054  42.217  1.00  0.00    -0.237 OA
ATOM     51  O   UNL A   1      47.092  29.952  40.594  1.00  0.00    -0.744 OA
ENDBRANCH  45  48
ENDBRANCH  27  41
BRANCH  28  52
ATOM     52  C   UNL A   1      46.427  26.383  27.710  1.00  0.00     0.023 A 
ATOM     53  C   UNL A   1      46.807  27.549  27.021  1.00  0.00     0.012 A 
ATOM     54  C   UNL A   1      46.204  25.200  26.974  1.00  0.00     0.148 A 
ATOM     55  C   UNL A   1      46.922  27.551  25.629  1.00  0.00     0.002 A 
ATOM     56  C   UNL A   1      46.379  25.192  25.595  1.00  0.00     0.091 A 
ATOM     57  F   UNL A   1      45.823  24.097  27.637  1.00  0.00    -0.205 F 
ATOM     58  C   UNL A   1      46.718  26.373  24.917  1.00  0.00     0.022 A 
BRANCH  56  59
ATOM     59  S   UNL A   1      46.259  23.693  24.612  1.00  0.00     0.127 S 
ATOM     60  O   UNL A   1      44.910  23.799  24.065  1.00  0.00    -0.237 OA
ATOM     61  O   UNL A   1      47.336  23.879  23.639  1.00  0.00    -0.237 OA
ATOM     62  O   UNL A   1      46.480  22.594  25.545  1.00  0.00    -0.744 OA
ENDBRANCH  56  59
ENDBRANCH  28  52
BRANCH  40  63
ATOM     63  C   UNL A   1      50.656  25.101  33.124  1.00  0.00     0.023 A 
ATOM     64  C   UNL A   1      51.687  26.044  33.294  1.00  0.00     0.012 A 
ATOM     65  C   UNL A   1      50.956  23.726  33.117  1.00  0.00     0.148 A 
ATOM     66  C   UNL A   1      53.008  25.623  33.418  1.00  0.00     0.002 A 
ATOM     67  C   UNL A   1      52.265  23.313  33.307  1.00  0.00     0.091 A 
ATOM     68  F   UNL A   1      49.955  22.851  32.937  1.00  0.00    -0.205 F 
ATOM     69  C   UNL A   1      53.295  24.259  33.441  1.00  0.00     0.022 A 
BRANCH  67  70
ATOM     70  S   UNL A   1      52.700  21.581  33.482  1.00  0.00     0.127 S 
ATOM     71  O   UNL A   1      52.356  21.054  32.163  1.00  0.00    -0.237 OA
ATOM     72  O   UNL A   1      54.135  21.649  33.758  1.00  0.00    -0.237 OA
ATOM     73  O   UNL A   1      51.896  21.076  34.588  1.00  0.00    -0.744 OA
ENDBRANCH  67  70
ENDBRANCH  40  63
ENDBRANCH  14  15
ENDBRANCH   7   9
ENDBRANCH   6   7
ENDBRANCH   5   6
ENDBRANCH   4   5
ENDBRANCH   3   4
ENDBRANCH   2   3
ENDBRANCH   1   2
BRANCH   1  74
ATOM     74  O   UNL A   1      33.646  29.252  25.220  1.00  0.00    -0.377 OA
BRANCH  74  75
ATOM     75  C   UNL A   1      32.470  28.616  24.778  1.00  0.00     0.188 C 
BRANCH  75  76
ATOM     76  C   UNL A   1      32.222  28.479  23.253  1.00  0.00     0.188 C 
BRANCH  76  77
ATOM     77  O   UNL A   1      31.736  27.243  22.789  1.00  0.00    -0.376 OA
BRANCH  77  78
ATOM     78  C   UNL A   1      32.581  26.412  22.007  1.00  0.00     0.202 C 
BRANCH  78  79
ATOM     79  C   UNL A   1      32.972  24.954  22.371  1.00  0.00     0.261 C 
BRANCH  79  80
ATOM     80  O   UNL A   1      33.780  24.723  23.551  1.00  0.00    -0.463 OA
BRANCH  80  81
ATOM     81  C   UNL A   1      33.224  24.036  24.579  1.00  0.00     0.310 C 
ATOM     82  O   UNL A   1      32.057  24.176  24.929  1.00  0.00    -0.252 OA
BRANCH  81  83
ATOM     83  C   UNL A   1      34.194  23.060  25.287  1.00  0.00     0.118 C 
ATOM     84  C   UNL A   1      34.089  21.712  24.564  1.00  0.00     0.019 C 
ATOM     85  C   UNL A   1      35.657  23.512  25.321  1.00  0.00     0.133 C 
ATOM     86  C   UNL A   1      35.136  20.713  25.042  1.00  0.00     0.022 C 
ATOM     87  N   UNL A   1      36.665  22.481  25.628  1.00  0.00    -0.356 N 
ATOM     88  C   UNL A   1      36.553  21.251  24.866  1.00  0.00     0.118 C 
BRANCH  87  89
ATOM     89  C   UNL A   1      37.890  22.950  26.096  1.00  0.00     0.133 A 
ATOM     90  C   UNL A   1      38.151  24.275  26.412  1.00  0.00     0.077 A 
ATOM     91  N   UNL A   1      38.876  22.047  26.187  1.00  0.00    -0.211 NA
ATOM     92  C   UNL A   1      39.447  24.618  26.792  1.00  0.00     0.095 A 
ATOM     93  C   UNL A   1      40.108  22.451  26.552  1.00  0.00     0.165 A 
ATOM     94  N   UNL A   1      40.436  23.706  26.871  1.00  0.00    -0.226 NA
BRANCH  92  95
ATOM     95  C   UNL A   1      39.853  26.006  27.085  1.00  0.00     0.089 A 
ATOM     96  C   UNL A   1      40.832  26.671  26.346  1.00  0.00     0.030 A 
ATOM     97  N   UNL A   1      39.175  26.624  28.090  1.00  0.00    -0.255 NA
ATOM     98  C   UNL A   1      41.112  28.008  26.635  1.00  0.00     0.004 A 
ATOM     99  C   UNL A   1      39.453  27.925  28.333  1.00  0.00     0.112 A 
ATOM    100  C   UNL A   1      40.406  28.652  27.643  1.00  0.00     0.020 A 
ENDBRANCH  92  95
BRANCH  93 101
ATOM    101  C   UNL A   1      41.173  21.454  26.447  1.00  0.00     0.055 A 
ATOM    102  C   UNL A   1      41.036  20.207  27.093  1.00  0.00     0.015 A 
ATOM    103  C   UNL A   1      42.353  21.685  25.734  1.00  0.00     0.134 A 
ATOM    104  C   UNL A   1      42.043  19.241  27.035  1.00  0.00     0.001 A 
ATOM    105  C   UNL A   1      43.369  20.727  25.679  1.00  0.00     0.040 A 
ATOM    106  F   UNL A   1      42.561  22.854  25.109  1.00  0.00    -0.206 F 
ATOM    107  C   UNL A   1      43.215  19.505  26.332  1.00  0.00     0.003 A 
ENDBRANCH  93 101
ENDBRANCH  87  89
ENDBRANCH  81  83
ENDBRANCH  80  81
ENDBRANCH  79  80
ENDBRANCH  78  79
ENDBRANCH  77  78
ENDBRANCH  76  77
ENDBRANCH  75  76
ENDBRANCH  74  75
ENDBRANCH   1  74
TORSDOF 26
ENDMDL
MODEL 2
REMARK VINA RESULT:      -9.1      3.979      7.065
REMARK SMILES O=C(OCCOCCOCCOCCOC(=O)[C@H]1CCCN(c2cc(-c3ccccn3)nc(-c3ccccc3F)n2)C1)c1ccc(-c2c3nc(c(-c4cccc(S(=O)(=O)[O-])c4F)c4ccc([nH]4)c(-c4cccc(S(=O)(=O)[O-])c4F)c4nc(c(-c5cccc(S(=O)(=O)[O-])c5F)c5ccc2[nH]5)C=C4)C=C3)cc1
REMARK SMILES IDX 8 1 7 2 6 3 5 4 4 5 3 6 2 7 1 8 43 9 44 10 105 11 45 12
REMARK SMILES IDX 104 13 46 14 47 15 48 16 98 17 49 18 103 19 97 20 99 21
REMARK SMILES IDX 50 22 102 23 96 24 95 25 51 27 83 28 63 29 82 30 64 31 67 32
REMARK SMILES IDX 81 33 100 34 65 35 66 36 80 38 101 39 68 40 52 41 53 42
REMARK SMILES IDX 61 43 54 44 56 45 62 46 55 47 57 48 58 49 59 50 60 51 84 52
REMARK SMILES IDX 85 53 93 54 86 55 88 56 94 57 87 58 89 59 90 60 91 61 92 62
REMARK SMILES IDX 69 63 70 64 78 65 71 66 73 67 79 68 72 69 74 70 75 71 76 72
REMARK SMILES IDX 77 73 9 74 10 75 11 76 12 77 13 78 14 79 15 80 16 81 17 82
REMARK SMILES IDX 18 83 19 84 42 85 20 86 22 87 21 88 23 89 24 90 41 91 25 92
REMARK SMILES IDX 33 93 32 94 26 95 27 96 31 97 28 98 30 99 29 100 34 101
REMARK SMILES IDX 35 102 39 103 36 104 38 105 40 106 37 107
REMARK H PARENT 99 26 67 37
REMARK Flexibility Score: inf
ROOT
ATOM      1  C   UNL A   1      33.944  29.906  27.111  1.00  0.00     0.188 C 
ENDROOT
BRANCH   1   2
ATOM      2  C   UNL A   1      33.850  31.336  27.659  1.00  0.00     0.188 C 
BRANCH   2   3
ATOM      3  O   UNL A   1      34.663  31.573  28.813  1.00  0.00    -0.376 OA
BRANCH   3   4
ATOM      4  C   UNL A   1      34.908  32.924  29.221  1.00  0.00     0.202 C 
BRANCH   4   5
ATOM      5  C   UNL A   1      34.759  33.266  30.703  1.00  0.00     0.261 C 
BRANCH   5   6
ATOM      6  O   UNL A   1      35.396  32.369  31.620  1.00  0.00    -0.460 OA
BRANCH   6   7
ATOM      7  C   UNL A   1      36.465  32.552  32.430  1.00  0.00     0.338 C 
ATOM      8  O   UNL A   1      36.361  33.394  33.323  1.00  0.00    -0.246 OA
BRANCH   7   9
ATOM      9  C   UNL A   1      37.783  31.863  32.272  1.00  0.00     0.060 A 
ATOM     10  C   UNL A   1      38.914  32.090  33.053  1.00  0.00     0.016 A 
ATOM     11  C   UNL A   1      37.858  30.846  31.307  1.00  0.00     0.016 A 
ATOM     12  C   UNL A   1      40.056  31.327  32.955  1.00  0.00     0.010 A 
ATOM     13  C   UNL A   1      39.038  30.123  31.125  1.00  0.00     0.010 A 
ATOM     14  C   UNL A   1      40.136  30.384  31.949  1.00  0.00    -0.014 A 
BRANCH  14  15
ATOM     15  C   UNL A   1      41.486  29.950  31.602  1.00  0.00     0.031 A 
ATOM     16  C   UNL A   1      42.221  30.812  30.627  1.00  0.00     0.074 A 
ATOM     17  C   UNL A   1      42.065  28.944  32.275  1.00  0.00     0.049 A 
ATOM     18  N   UNL A   1      43.336  30.580  30.003  1.00  0.00    -0.248 NA
ATOM     19  C   UNL A   1      41.623  32.130  30.321  1.00  0.00     0.031 C 
ATOM     20  C   UNL A   1      41.468  28.224  33.402  1.00  0.00     0.029 A 
ATOM     21  N   UNL A   1      43.284  28.357  32.105  1.00  0.00    -0.354 N 
ATOM     22  C   UNL A   1      43.529  31.677  29.175  1.00  0.00     0.074 A 
ATOM     23  C   UNL A   1      42.452  32.606  29.407  1.00  0.00     0.031 C 
ATOM     24  C   UNL A   1      42.311  27.254  33.794  1.00  0.00     0.029 A 
ATOM     25  C   UNL A   1      43.454  27.242  32.890  1.00  0.00     0.049 A 
ATOM     26  H   UNL A   1      43.971  28.697  31.487  1.00  0.00     0.167 HD
ATOM     27  C   UNL A   1      44.520  31.857  28.281  1.00  0.00     0.034 A 
ATOM     28  C   UNL A   1      44.398  26.288  32.807  1.00  0.00     0.034 A 
ATOM     29  C   UNL A   1      45.565  30.892  28.107  1.00  0.00     0.049 A 
ATOM     30  C   UNL A   1      45.434  26.457  31.724  1.00  0.00     0.074 A 
ATOM     31  C   UNL A   1      46.590  30.881  27.186  1.00  0.00     0.029 A 
ATOM     32  N   UNL A   1      45.704  29.754  28.892  1.00  0.00    -0.354 N 
ATOM     33  N   UNL A   1      45.588  27.449  30.876  1.00  0.00    -0.248 NA
ATOM     34  C   UNL A   1      46.425  25.386  31.585  1.00  0.00     0.031 C 
ATOM     35  C   UNL A   1      47.338  29.719  27.401  1.00  0.00     0.029 A 
ATOM     36  C   UNL A   1      46.803  29.031  28.483  1.00  0.00     0.049 A 
ATOM     37  H   UNL A   1      45.106  29.501  29.632  1.00  0.00     0.167 HD
ATOM     38  C   UNL A   1      46.710  27.139  30.121  1.00  0.00     0.074 A 
ATOM     39  C   UNL A   1      47.211  25.878  30.638  1.00  0.00     0.031 C 
ATOM     40  C   UNL A   1      47.272  27.806  29.081  1.00  0.00     0.034 A 
BRANCH  27  41
ATOM     41  C   UNL A   1      44.478  33.080  27.414  1.00  0.00     0.023 A 
ATOM     42  C   UNL A   1      43.926  33.017  26.119  1.00  0.00     0.012 A 
ATOM     43  C   UNL A   1      44.960  34.309  27.904  1.00  0.00     0.148 A 
ATOM     44  C   UNL A   1      43.860  34.162  25.323  1.00  0.00     0.002 A 
ATOM     45  C   UNL A   1      44.849  35.452  27.125  1.00  0.00     0.091 A 
ATOM     46  F   UNL A   1      45.518  34.333  29.123  1.00  0.00    -0.205 F 
ATOM     47  C   UNL A   1      44.307  35.380  25.831  1.00  0.00     0.022 A 
BRANCH  45  48
ATOM     48  S   UNL A   1      45.332  37.079  27.709  1.00  0.00     0.127 S 
ATOM     49  O   UNL A   1      46.728  36.861  28.084  1.00  0.00    -0.237 OA
ATOM     50  O   UNL A   1      45.138  37.898  26.518  1.00  0.00    -0.237 OA
ATOM     51  O   UNL A   1      44.443  37.388  28.827  1.00  0.00    -0.744 OA
ENDBRANCH  45  48
ENDBRANCH  27  41
BRANCH  28  52
ATOM     52  C   UNL A   1      44.379  25.103  33.711  1.00  0.00     0.023 A 
ATOM     53  C   UNL A   1      43.851  23.885  33.245  1.00  0.00     0.012 A 
ATOM     54  C   UNL A   1      44.878  25.168  35.029  1.00  0.00     0.148 A 
ATOM     55  C   UNL A   1      43.782  22.770  34.083  1.00  0.00     0.002 A 
ATOM     56  C   UNL A   1      44.862  24.038  35.839  1.00  0.00     0.091 A 
ATOM     57  F   UNL A   1      45.362  26.339  35.472  1.00  0.00    -0.205 F 
ATOM     58  C   UNL A   1      44.295  22.842  35.375  1.00  0.00     0.022 A 
BRANCH  56  59
ATOM     59  S   UNL A   1      45.613  24.006  37.471  1.00  0.00     0.127 S 
ATOM     60  O   UNL A   1      45.658  22.575  37.753  1.00  0.00    -0.237 OA
ATOM     61  O   UNL A   1      46.915  24.626  37.219  1.00  0.00    -0.237 OA
ATOM     62  O   UNL A   1      44.732  24.793  38.324  1.00  0.00    -0.744 OA
ENDBRANCH  56  59
ENDBRANCH  28  52
BRANCH  40  63
ATOM     63  C   UNL A   1      48.510  27.207  28.481  1.00  0.00     0.023 A 
ATOM     64  C   UNL A   1      48.403  26.340  27.377  1.00  0.00     0.012 A 
ATOM     65  C   UNL A   1      49.778  27.587  28.956  1.00  0.00     0.148 A 
ATOM     66  C   UNL A   1      49.549  25.828  26.777  1.00  0.00     0.002 A 
ATOM     67  C   UNL A   1      50.914  27.125  28.312  1.00  0.00     0.091 A 
ATOM     68  F   UNL A   1      49.847  28.401  30.020  1.00  0.00    -0.205 F 
ATOM     69  C   UNL A   1      50.803  26.231  27.233  1.00  0.00     0.022 A 
BRANCH  67  70
ATOM     70  S   UNL A   1      52.556  27.698  28.750  1.00  0.00     0.127 S 
ATOM     71  O   UNL A   1      52.648  27.293  30.151  1.00  0.00    -0.237 OA
ATOM     72  O   UNL A   1      53.405  26.935  27.835  1.00  0.00    -0.237 OA
ATOM     73  O   UNL A   1      52.555  29.136  28.513  1.00  0.00    -0.744 OA
ENDBRANCH  67  70
ENDBRANCH  40  63
ENDBRANCH  14  15
ENDBRANCH   7   9
ENDBRANCH   6   7
ENDBRANCH   5   6
ENDBRANCH   4   5
ENDBRANCH   3   4
ENDBRANCH   2   3
ENDBRANCH   1   2
BRANCH   1  74
ATOM     74  O   UNL A   1      33.297  29.618  25.881  1.00  0.00    -0.377 OA
BRANCH  74  75
ATOM     75  C   UNL A   1      32.037  29.000  26.001  1.00  0.00     0.188 C 
BRANCH  75  76
ATOM     76  C   UNL A   1      31.965  27.546  26.533  1.00  0.00     0.188 C 
BRANCH  76  77
ATOM     77  O   UNL A   1      31.283  26.604  25.742  1.00  0.00    -0.376 OA
BRANCH  77  78
ATOM     78  C   UNL A   1      30.950  25.339  26.295  1.00  0.00     0.202 C 
BRANCH  78  79
ATOM     79  C   UNL A   1      31.756  24.033  26.067  1.00  0.00     0.261 C 
BRANCH  79  80
ATOM     80  O   UNL A   1      32.631  23.944  24.916  1.00  0.00    -0.463 OA
BRANCH  80  81
ATOM     81  C   UNL A   1      33.929  24.301  25.074  1.00  0.00     0.310 C 
ATOM     82  O   UNL A   1      34.352  25.427  24.832  1.00  0.00    -0.252 OA
BRANCH  81  83
ATOM     83  C   UNL A   1      34.844  23.158  25.577  1.00  0.00     0.118 C 
ATOM     84  C   UNL A   1      34.627  21.961  24.644  1.00  0.00     0.019 C 
ATOM     85  C   UNL A   1      36.336  23.500  25.635  1.00  0.00     0.133 C 
ATOM     86  C   UNL A   1      35.611  20.828  24.913  1.00  0.00     0.022 C 
ATOM     87  N   UNL A   1      37.275  22.368  25.732  1.00  0.00    -0.356 N 
ATOM     88  C   UNL A   1      37.058  21.293  24.781  1.00  0.00     0.118 C 
BRANCH  87  89
ATOM     89  C   UNL A   1      38.540  22.670  26.228  1.00  0.00     0.133 A 
ATOM     90  C   UNL A   1      38.896  23.897  26.767  1.00  0.00     0.077 A 
ATOM     91  N   UNL A   1      39.467  21.707  26.116  1.00  0.00    -0.211 NA
ATOM     92  C   UNL A   1      40.222  24.086  27.152  1.00  0.00     0.095 A 
ATOM     93  C   UNL A   1      40.732  21.964  26.501  1.00  0.00     0.165 A 
ATOM     94  N   UNL A   1      41.151  23.118  27.028  1.00  0.00    -0.226 NA
BRANCH  92  95
ATOM     95  C   UNL A   1      40.726  25.371  27.675  1.00  0.00     0.089 A 
ATOM     96  C   UNL A   1      40.056  26.577  27.468  1.00  0.00     0.030 A 
ATOM     97  N   UNL A   1      41.863  25.304  28.421  1.00  0.00    -0.255 NA
ATOM     98  C   UNL A   1      40.555  27.743  28.054  1.00  0.00     0.004 A 
ATOM     99  C   UNL A   1      42.310  26.446  28.993  1.00  0.00     0.112 A 
ATOM    100  C   UNL A   1      41.700  27.677  28.837  1.00  0.00     0.020 A 
ENDBRANCH  92  95
BRANCH  93 101
ATOM    101  C   UNL A   1      41.726  20.941  26.176  1.00  0.00     0.055 A 
ATOM    102  C   UNL A   1      41.430  19.579  26.393  1.00  0.00     0.015 A 
ATOM    103  C   UNL A   1      42.988  21.253  25.664  1.00  0.00     0.134 A 
ATOM    104  C   UNL A   1      42.364  18.577  26.119  1.00  0.00     0.001 A 
ATOM    105  C   UNL A   1      43.931  20.257  25.394  1.00  0.00     0.040 A 
ATOM    106  F   UNL A   1      43.347  22.528  25.448  1.00  0.00    -0.206 F 
ATOM    107  C   UNL A   1      43.619  18.918  25.625  1.00  0.00     0.003 A 
ENDBRANCH  93 101
ENDBRANCH  87  89
ENDBRANCH  81  83
ENDBRANCH  80  81
ENDBRANCH  79  80
ENDBRANCH  78  79
ENDBRANCH  77  78
ENDBRANCH  76  77
ENDBRANCH  75  76
ENDBRANCH  74  75
ENDBRANCH   1  74
TORSDOF 26
ENDMDL
MODEL 3
REMARK VINA RESULT:      -8.9      3.901      7.296
REMARK SMILES O=C(OCCOCCOCCOCCOC(=O)[C@H]1CCCN(c2cc(-c3ccccn3)nc(-c3ccccc3F)n2)C1)c1ccc(-c2c3nc(c(-c4cccc(S(=O)(=O)[O-])c4F)c4ccc([nH]4)c(-c4cccc(S(=O)(=O)[O-])c4F)c4nc(c(-c5cccc(S(=O)(=O)[O-])c5F)c5ccc2[nH]5)C=C4)C=C3)cc1
REMARK SMILES IDX 8 1 7 2 6 3 5 4 4 5 3 6 2 7 1 8 43 9 44 10 105 11 45 12
REMARK SMILES IDX 104 13 46 14 47 15 48 16 98 17 49 18 103 19 97 20 99 21
REMARK SMILES IDX 50 22 102 23 96 24 95 25 51 27 83 28 63 29 82 30 64 31 67 32
REMARK SMILES IDX 81 33 100 34 65 35 66 36 80 38 101 39 68 40 52 41 53 42
REMARK SMILES IDX 61 43 54 44 56 45 62 46 55 47 57 48 58 49 59 50 60 51 84 52
REMARK SMILES IDX 85 53 93 54 86 55 88 56 94 57 87 58 89 59 90 60 91 61 92 62
REMARK SMILES IDX 69 63 70 64 78 65 71 66 73 67 79 68 72 69 74 70 75 71 76 72
REMARK SMILES IDX 77 73 9 74 10 75 11 76 12 77 13 78 14 79 15 80 16 81 17 82
REMARK SMILES IDX 18 83 19 84 42 85 20 86 22 87 21 88 23 89 24 90 41 91 25 92
REMARK SMILES IDX 33 93 32 94 26 95 27 96 31 97 28 98 30 99 29 100 34 101
REMARK SMILES IDX 35 102 39 103 36 104 38 105 40 106 37 107
REMARK H PARENT 99 26 67 37
REMARK Flexibility Score: inf
ROOT
ATOM      1  C   UNL A   1      34.031  30.135  27.223  1.00  0.00     0.188 C 
ENDROOT
BRANCH   1   2
ATOM      2  C   UNL A   1      33.823  31.482  27.926  1.00  0.00     0.188 C 
BRANCH   2   3
ATOM      3  O   UNL A   1      34.571  31.631  29.137  1.00  0.00    -0.376 OA
BRANCH   3   4
ATOM      4  C   UNL A   1      34.661  32.927  29.741  1.00  0.00     0.202 C 
BRANCH   4   5
ATOM      5  C   UNL A   1      34.544  33.021  31.261  1.00  0.00     0.261 C 
BRANCH   5   6
ATOM      6  O   UNL A   1      35.369  32.122  32.010  1.00  0.00    -0.460 OA
BRANCH   6   7
ATOM      7  C   UNL A   1      36.416  32.365  32.832  1.00  0.00     0.338 C 
ATOM      8  O   UNL A   1      36.259  33.211  33.713  1.00  0.00    -0.246 OA
BRANCH   7   9
ATOM      9  C   UNL A   1      37.768  31.739  32.702  1.00  0.00     0.060 A 
ATOM     10  C   UNL A   1      38.771  31.770  33.668  1.00  0.00     0.016 A 
ATOM     11  C   UNL A   1      38.014  30.992  31.539  1.00  0.00     0.016 A 
ATOM     12  C   UNL A   1      39.944  31.057  33.551  1.00  0.00     0.010 A 
ATOM     13  C   UNL A   1      39.233  30.339  31.358  1.00  0.00     0.010 A 
ATOM     14  C   UNL A   1      40.197  30.391  32.369  1.00  0.00    -0.014 A 
BRANCH  14  15
ATOM     15  C   UNL A   1      41.598  30.060  32.123  1.00  0.00     0.031 A 
ATOM     16  C   UNL A   1      42.375  31.052  31.322  1.00  0.00     0.074 A 
ATOM     17  C   UNL A   1      42.163  29.016  32.748  1.00  0.00     0.049 A 
ATOM     18  N   UNL A   1      43.559  30.940  30.798  1.00  0.00    -0.248 NA
ATOM     19  C   UNL A   1      41.737  32.366  31.088  1.00  0.00     0.031 C 
ATOM     20  C   UNL A   1      41.499  28.154  33.729  1.00  0.00     0.029 A 
ATOM     21  N   UNL A   1      43.424  28.508  32.650  1.00  0.00    -0.354 N 
ATOM     22  C   UNL A   1      43.769  32.126  30.109  1.00  0.00     0.074 A 
ATOM     23  C   UNL A   1      42.624  32.974  30.319  1.00  0.00     0.031 C 
ATOM     24  C   UNL A   1      42.352  27.188  34.108  1.00  0.00     0.029 A 
ATOM     25  C   UNL A   1      43.578  27.325  33.332  1.00  0.00     0.049 A 
ATOM     26  H   UNL A   1      44.149  28.942  32.143  1.00  0.00     0.167 HD
ATOM     27  C   UNL A   1      44.833  32.445  29.346  1.00  0.00     0.034 A 
ATOM     28  C   UNL A   1      44.579  26.430  33.253  1.00  0.00     0.034 A 
ATOM     29  C   UNL A   1      45.943  31.553  29.187  1.00  0.00     0.049 A 
ATOM     30  C   UNL A   1      45.706  26.759  32.307  1.00  0.00     0.074 A 
ATOM     31  C   UNL A   1      47.054  31.687  28.382  1.00  0.00     0.029 A 
ATOM     32  N   UNL A   1      46.069  30.346  29.864  1.00  0.00    -0.354 N 
ATOM     33  N   UNL A   1      45.887  27.842  31.583  1.00  0.00    -0.248 NA
ATOM     34  C   UNL A   1      46.765  25.756  32.166  1.00  0.00     0.031 C 
ATOM     35  C   UNL A   1      47.842  30.545  28.556  1.00  0.00     0.029 A 
ATOM     36  C   UNL A   1      47.242  29.722  29.502  1.00  0.00     0.049 A 
ATOM     37  H   UNL A   1      45.415  29.989  30.507  1.00  0.00     0.167 HD
ATOM     38  C   UNL A   1      47.094  27.665  30.923  1.00  0.00     0.074 A 
ATOM     39  C   UNL A   1      47.612  26.381  31.360  1.00  0.00     0.031 C 
ATOM     40  C   UNL A   1      47.717  28.464  30.020  1.00  0.00     0.034 A 
BRANCH  27  41
ATOM     41  C   UNL A   1      44.808  33.749  28.606  1.00  0.00     0.023 A 
ATOM     42  C   UNL A   1      44.145  33.854  27.368  1.00  0.00     0.012 A 
ATOM     43  C   UNL A   1      45.419  34.889  29.165  1.00  0.00     0.148 A 
ATOM     44  C   UNL A   1      44.097  35.075  26.694  1.00  0.00     0.002 A 
ATOM     45  C   UNL A   1      45.326  36.109  28.512  1.00  0.00     0.091 A 
ATOM     46  F   UNL A   1      46.078  34.753  30.325  1.00  0.00    -0.205 F 
ATOM     47  C   UNL A   1      44.674  36.204  27.272  1.00  0.00     0.022 A 
BRANCH  45  48
ATOM     48  S   UNL A   1      45.976  37.634  29.201  1.00  0.00     0.127 S 
ATOM     49  O   UNL A   1      45.792  37.418  30.634  1.00  0.00    -0.237 OA
ATOM     50  O   UNL A   1      47.364  37.603  28.748  1.00  0.00    -0.237 OA
ATOM     51  O   UNL A   1      45.164  38.710  28.638  1.00  0.00    -0.744 OA
ENDBRANCH  45  48
ENDBRANCH  27  41
BRANCH  28  52
ATOM     52  C   UNL A   1      44.538  25.156  34.027  1.00  0.00     0.023 A 
ATOM     53  C   UNL A   1      43.976  24.007  33.440  1.00  0.00     0.012 A 
ATOM     54  C   UNL A   1      45.048  25.069  35.339  1.00  0.00     0.148 A 
ATOM     55  C   UNL A   1      43.886  22.811  34.155  1.00  0.00     0.002 A 
ATOM     56  C   UNL A   1      45.010  23.860  36.025  1.00  0.00     0.091 A 
ATOM     57  F   UNL A   1      45.564  26.174  35.898  1.00  0.00    -0.205 F 
ATOM     58  C   UNL A   1      44.410  22.734  35.442  1.00  0.00     0.022 A 
BRANCH  56  59
ATOM     59  S   UNL A   1      45.773  23.637  37.636  1.00  0.00     0.127 S 
ATOM     60  O   UNL A   1      45.739  22.186  37.786  1.00  0.00    -0.237 OA
ATOM     61  O   UNL A   1      47.105  24.205  37.424  1.00  0.00    -0.237 OA
ATOM     62  O   UNL A   1      44.945  24.390  38.570  1.00  0.00    -0.744 OA
ENDBRANCH  56  59
ENDBRANCH  28  52
BRANCH  40  63
ATOM     63  C   UNL A   1      49.041  27.989  29.495  1.00  0.00     0.023 A 
ATOM     64  C   UNL A   1      50.226  28.332  30.173  1.00  0.00     0.012 A 
ATOM     65  C   UNL A   1      49.090  27.122  28.388  1.00  0.00     0.148 A 
ATOM     66  C   UNL A   1      51.452  27.846  29.728  1.00  0.00     0.002 A 
ATOM     67  C   UNL A   1      50.306  26.591  27.992  1.00  0.00     0.091 A 
ATOM     68  F   UNL A   1      47.946  26.827  27.753  1.00  0.00    -0.205 F 
ATOM     69  C   UNL A   1      51.491  26.964  28.650  1.00  0.00     0.022 A 
BRANCH  67  70
ATOM     70  S   UNL A   1      50.428  25.349  26.703  1.00  0.00     0.127 S 
ATOM     71  O   UNL A   1      51.832  24.957  26.799  1.00  0.00    -0.237 OA
ATOM     72  O   UNL A   1      49.476  24.336  27.159  1.00  0.00    -0.237 OA
ATOM     73  O   UNL A   1      50.047  26.019  25.465  1.00  0.00    -0.744 OA
ENDBRANCH  67  70
ENDBRANCH  40  63
ENDBRANCH  14  15
ENDBRANCH   7   9
ENDBRANCH   6   7
ENDBRANCH   5   6
ENDBRANCH   4   5
ENDBRANCH   3   4
ENDBRANCH   2   3
ENDBRANCH   1   2
BRANCH   1  74
ATOM     74  O   UNL A   1      33.413  29.937  25.960  1.00  0.00    -0.377 OA
BRANCH  74  75
ATOM     75  C   UNL A   1      32.112  29.403  26.011  1.00  0.00     0.188 C 
BRANCH  75  76
ATOM     76  C   UNL A   1      31.902  28.004  26.646  1.00  0.00     0.188 C 
BRANCH  76  77
ATOM     77  O   UNL A   1      31.131  27.077  25.920  1.00  0.00    -0.376 OA
BRANCH  77  78
ATOM     78  C   UNL A   1      30.806  25.827  26.509  1.00  0.00     0.202 C 
BRANCH  78  79
ATOM     79  C   UNL A   1      31.571  24.501  26.253  1.00  0.00     0.261 C 
BRANCH  79  80
ATOM     80  O   UNL A   1      32.504  24.436  25.147  1.00  0.00    -0.463 OA
BRANCH  80  81
ATOM     81  C   UNL A   1      33.805  24.727  25.394  1.00  0.00     0.310 C 
ATOM     82  O   UNL A   1      34.285  25.845  25.245  1.00  0.00    -0.252 OA
BRANCH  81  83
ATOM     83  C   UNL A   1      34.645  23.517  25.873  1.00  0.00     0.118 C 
ATOM     84  C   UNL A   1      34.145  22.288  25.106  1.00  0.00     0.019 C 
ATOM     85  C   UNL A   1      36.157  23.663  25.682  1.00  0.00     0.133 C 
ATOM     86  C   UNL A   1      35.017  21.060  25.344  1.00  0.00     0.022 C 
ATOM     87  N   UNL A   1      36.959  22.428  25.756  1.00  0.00    -0.356 N 
ATOM     88  C   UNL A   1      36.471  21.317  24.958  1.00  0.00     0.118 C 
BRANCH  87  89
ATOM     89  C   UNL A   1      38.313  22.599  26.032  1.00  0.00     0.133 A 
ATOM     90  C   UNL A   1      39.285  21.634  25.810  1.00  0.00     0.077 A 
ATOM     91  N   UNL A   1      38.661  23.763  26.597  1.00  0.00    -0.211 NA
ATOM     92  C   UNL A   1      40.590  21.911  26.209  1.00  0.00     0.095 A 
ATOM     93  C   UNL A   1      39.942  23.959  26.966  1.00  0.00     0.165 A 
ATOM     94  N   UNL A   1      40.931  23.080  26.786  1.00  0.00    -0.226 NA
BRANCH  92  95
ATOM     95  C   UNL A   1      41.689  20.934  26.082  1.00  0.00     0.089 A 
ATOM     96  C   UNL A   1      41.537  19.589  26.424  1.00  0.00     0.030 A 
ATOM     97  N   UNL A   1      42.851  21.411  25.560  1.00  0.00    -0.255 NA
ATOM     98  C   UNL A   1      42.598  18.708  26.209  1.00  0.00     0.004 A 
ATOM     99  C   UNL A   1      43.855  20.529  25.344  1.00  0.00     0.112 A 
ATOM    100  C   UNL A   1      43.779  19.183  25.653  1.00  0.00     0.020 A 
ENDBRANCH  92  95
BRANCH  93 101
ATOM    101  C   UNL A   1      40.212  25.167  27.744  1.00  0.00     0.055 A 
ATOM    102  C   UNL A   1      39.315  26.255  27.689  1.00  0.00     0.015 A 
ATOM    103  C   UNL A   1      41.347  25.308  28.548  1.00  0.00     0.134 A 
ATOM    104  C   UNL A   1      39.554  27.435  28.399  1.00  0.00     0.001 A 
ATOM    105  C   UNL A   1      41.598  26.488  29.254  1.00  0.00     0.040 A 
ATOM    106  F   UNL A   1      42.253  24.323  28.635  1.00  0.00    -0.206 F 
ATOM    107  C   UNL A   1      40.702  27.553  29.178  1.00  0.00     0.003 A 
ENDBRANCH  93 101
ENDBRANCH  87  89
ENDBRANCH  81  83
ENDBRANCH  80  81
ENDBRANCH  79  80
ENDBRANCH  78  79
ENDBRANCH  77  78
ENDBRANCH  76  77
ENDBRANCH  75  76
ENDBRANCH  74  75
ENDBRANCH   1  74
TORSDOF 26
ENDMDL
