MODEL 1
REMARK VINA RESULT:     -10.4      0.000      0.000
REMARK SMILES CCC(CC)(NC(=O)c1cc(C)ccc1OC)C(=O)OCCOCCOCCOCCOC(=O)c1ccc(-c2c3nc(c(-c4cccc(S(=O)(=O)[O-])c4F)c4ccc([nH]4)c(-c4cccc(S(=O)(=O)[O-])c4F)c4nc(c(-c5cccc(S(=O)(=O)[O-])c5F)c5ccc2[nH]5)C=C4)C=C3)cc1
REMARK SMILES IDX 26 1 25 2 24 3 23 4 22 5 21 6 20 7 18 8 19 9 3 10 2 11 1 12
REMARK SMILES IDX 4 13 5 14 6 15 7 16 8 18 9 19 10 20 15 21 11 22 14 23 12 24
REMARK SMILES IDX 13 25 16 26 17 27 27 28 28 29 29 30 30 31 31 32 32 33 33 34
REMARK SMILES IDX 34 35 35 36 36 37 97 38 37 39 96 40 38 41 39 42 40 43 90 44
REMARK SMILES IDX 41 45 95 46 89 47 91 48 42 49 94 50 88 51 87 52 43 54 75 55
REMARK SMILES IDX 55 56 74 57 56 58 59 59 73 60 92 61 57 62 58 63 72 65 93 66
REMARK SMILES IDX 60 67 44 68 45 69 53 70 46 71 48 72 54 73 47 74 49 75 50 76
REMARK SMILES IDX 51 77 52 78 76 79 77 80 85 81 78 82 80 83 86 84 79 85 81 86
REMARK SMILES IDX 82 87 83 88 84 89 61 90 62 91 70 92 63 93 65 94 71 95 64 96
REMARK SMILES IDX 66 97 67 98 68 99 69 100
REMARK H PARENT 6 17 91 53 59 64
REMARK Flexibility Score: inf
ROOT
ATOM      1  O   UNL A   1      45.433  43.470  29.477  1.00  0.00    -0.377 OA
ENDROOT
BRANCH   1   2
ATOM      2  C   UNL A   1      45.640  44.001  28.203  1.00  0.00     0.188 C 
BRANCH   2   3
ATOM      3  C   UNL A   1      45.174  43.176  27.021  1.00  0.00     0.188 C 
BRANCH   3   4
ATOM      4  O   UNL A   1      45.828  42.070  26.433  1.00  0.00    -0.376 OA
BRANCH   4   5
ATOM      5  C   UNL A   1      45.775  42.018  24.999  1.00  0.00     0.202 C 
BRANCH   5   6
ATOM      6  C   UNL A   1      44.560  42.359  24.164  1.00  0.00     0.261 C 
BRANCH   6   7
ATOM      7  O   UNL A   1      44.891  42.102  22.822  1.00  0.00    -0.461 OA
BRANCH   7   8
ATOM      8  C   UNL A   1      44.460  43.160  22.176  1.00  0.00     0.331 C 
ATOM      9  O   UNL A   1      43.606  43.888  22.672  1.00  0.00    -0.249 OA
BRANCH   8  10
ATOM     10  C   UNL A   1      45.245  43.435  20.893  1.00  0.00     0.137 C 
BRANCH  10  11
ATOM     11  C   UNL A   1      46.245  42.123  21.124  1.00  0.00     0.037 C 
ATOM     12  C   UNL A   1      47.803  42.431  21.408  1.00  0.00     0.007 C 
ENDBRANCH  10  11
BRANCH  10  13
ATOM     13  C   UNL A   1      46.097  44.712  21.229  1.00  0.00     0.037 C 
ATOM     14  C   UNL A   1      45.856  45.387  22.570  1.00  0.00     0.007 C 
ENDBRANCH  10  13
BRANCH  10  15
ATOM     15  N   UNL A   1      44.429  43.369  19.290  1.00  0.00    -0.336 N 
ATOM     16  C   UNL A   1      43.914  43.986  17.871  1.00  0.00     0.255 C 
ATOM     17  H   UNL A   1      44.120  42.435  19.244  1.00  0.00     0.165 HD
ATOM     18  O   UNL A   1      43.626  43.074  17.073  1.00  0.00    -0.269 OA
BRANCH  16  19
ATOM     19  C   UNL A   1      43.854  45.599  17.135  1.00  0.00     0.082 A 
ATOM     20  C   UNL A   1      44.886  47.023  17.174  1.00  0.00     0.021 A 
ATOM     21  C   UNL A   1      42.477  46.037  16.756  1.00  0.00     0.131 A 
ATOM     22  C   UNL A   1      44.395  48.965  16.824  1.00  0.00    -0.050 A 
ATOM     23  C   UNL A   1      41.766  47.752  16.243  1.00  0.00     0.047 A 
ATOM     24  C   UNL A   1      45.134  50.372  16.769  1.00  0.00     0.044 C 
ATOM     25  C   UNL A   1      42.701  49.272  16.320  1.00  0.00     0.007 A 
BRANCH  21  26
ATOM     26  O   UNL A   1      41.948  45.195  18.112  1.00  0.00    -0.496 OA
ATOM     27  C   UNL A   1      40.585  44.609  18.219  1.00  0.00     0.278 C 
ENDBRANCH  21  26
ENDBRANCH  16  19
ENDBRANCH  10  15
ENDBRANCH   8  10
ENDBRANCH   7   8
ENDBRANCH   6   7
ENDBRANCH   5   6
ENDBRANCH   4   5
ENDBRANCH   3   4
ENDBRANCH   2   3
ENDBRANCH   1   2
BRANCH   1  28
ATOM     28  C   UNL A   1      44.364  42.567  29.547  1.00  0.00     0.188 C 
BRANCH  28  29
ATOM     29  C   UNL A   1      43.471  42.318  30.835  1.00  0.00     0.188 C 
BRANCH  29  30
ATOM     30  O   UNL A   1      44.121  41.848  31.983  1.00  0.00    -0.376 OA
BRANCH  30  31
ATOM     31  C   UNL A   1      45.192  41.036  31.572  1.00  0.00     0.202 C 
BRANCH  31  32
ATOM     32  C   UNL A   1      46.027  40.285  32.696  1.00  0.00     0.261 C 
BRANCH  32  33
ATOM     33  O   UNL A   1      45.637  38.827  33.321  1.00  0.00    -0.460 OA
BRANCH  33  34
ATOM     34  C   UNL A   1      45.595  37.574  33.968  1.00  0.00     0.338 C 
ATOM     35  O   UNL A   1      46.724  37.144  34.194  1.00  0.00    -0.246 OA
BRANCH  34  36
ATOM     36  C   UNL A   1      44.321  36.634  34.455  1.00  0.00     0.060 A 
ATOM     37  C   UNL A   1      44.274  35.396  35.091  1.00  0.00     0.016 A 
ATOM     38  C   UNL A   1      43.015  36.967  34.479  1.00  0.00     0.016 A 
ATOM     39  C   UNL A   1      43.205  34.365  34.775  1.00  0.00     0.010 A 
ATOM     40  C   UNL A   1      42.027  36.018  34.047  1.00  0.00     0.010 A 
ATOM     41  C   UNL A   1      42.207  34.637  33.826  1.00  0.00    -0.014 A 
BRANCH  41  42
ATOM     42  C   UNL A   1      41.029  33.596  33.068  1.00  0.00     0.031 A 
ATOM     43  C   UNL A   1      41.537  33.554  31.649  1.00  0.00     0.074 A 
ATOM     44  C   UNL A   1      39.967  32.668  33.592  1.00  0.00     0.049 A 
ATOM     45  N   UNL A   1      41.053  32.811  30.740  1.00  0.00    -0.248 NA
ATOM     46  C   UNL A   1      42.853  34.049  31.202  1.00  0.00     0.031 C 
ATOM     47  C   UNL A   1      38.892  31.476  33.588  1.00  0.00     0.029 A 
ATOM     48  N   UNL A   1      39.591  32.631  34.866  1.00  0.00    -0.354 N 
ATOM     49  C   UNL A   1      42.142  32.174  30.160  1.00  0.00     0.074 A 
ATOM     50  C   UNL A   1      43.234  33.084  30.356  1.00  0.00     0.031 C 
ATOM     51  C   UNL A   1      37.886  31.490  34.555  1.00  0.00     0.029 A 
ATOM     52  C   UNL A   1      38.306  32.536  35.430  1.00  0.00     0.049 A 
ATOM     53  H   UNL A   1      40.327  32.678  35.517  1.00  0.00     0.167 HD
ATOM     54  C   UNL A   1      41.986  30.864  29.799  1.00  0.00     0.034 A 
ATOM     55  C   UNL A   1      37.829  33.584  36.204  1.00  0.00     0.034 A 
ATOM     56  C   UNL A   1      40.620  30.388  30.267  1.00  0.00     0.049 A 
ATOM     57  C   UNL A   1      37.118  33.976  34.543  1.00  0.00     0.074 A 
ATOM     58  C   UNL A   1      40.133  29.335  31.018  1.00  0.00     0.029 A 
ATOM     59  N   UNL A   1      39.516  31.278  30.180  1.00  0.00    -0.354 N 
ATOM     60  N   UNL A   1      37.736  33.868  33.321  1.00  0.00    -0.248 NA
ATOM     61  C   UNL A   1      35.671  33.684  34.261  1.00  0.00     0.031 C 
ATOM     62  C   UNL A   1      38.797  29.693  31.444  1.00  0.00     0.029 A 
ATOM     63  C   UNL A   1      38.541  31.070  31.159  1.00  0.00     0.049 A 
ATOM     64  H   UNL A   1      39.445  31.977  29.492  1.00  0.00     0.167 HD
ATOM     65  C   UNL A   1      36.991  33.057  32.361  1.00  0.00     0.074 A 
ATOM     66  C   UNL A   1      35.650  33.157  33.006  1.00  0.00     0.031 C 
ATOM     67  C   UNL A   1      37.332  32.053  31.340  1.00  0.00     0.034 A 
BRANCH  54  68
ATOM     68  C   UNL A   1      43.072  29.931  29.202  1.00  0.00     0.023 A 
ATOM     69  C   UNL A   1      43.994  29.387  30.128  1.00  0.00     0.012 A 
ATOM     70  C   UNL A   1      43.216  29.440  27.867  1.00  0.00     0.148 A 
ATOM     71  C   UNL A   1      44.950  28.415  29.799  1.00  0.00     0.002 A 
ATOM     72  C   UNL A   1      44.168  28.447  27.537  1.00  0.00     0.091 A 
ATOM     73  F   UNL A   1      42.421  29.894  26.895  1.00  0.00    -0.205 F 
ATOM     74  C   UNL A   1      45.025  27.931  28.509  1.00  0.00     0.022 A 
BRANCH  72  75
ATOM     75  S   UNL A   1      44.357  27.701  25.895  1.00  0.00     0.127 S 
ATOM     76  O   UNL A   1      45.425  28.510  25.302  1.00  0.00    -0.237 OA
ATOM     77  O   UNL A   1      44.757  26.332  26.220  1.00  0.00    -0.237 OA
ATOM     78  O   UNL A   1      43.066  27.832  25.233  1.00  0.00    -0.744 OA
ENDBRANCH  72  75
ENDBRANCH  54  68
BRANCH  55  79
ATOM     79  C   UNL A   1      39.115  34.368  37.452  1.00  0.00     0.023 A 
ATOM     80  C   UNL A   1      40.094  35.799  36.868  1.00  0.00     0.012 A 
ATOM     81  C   UNL A   1      39.882  33.581  39.175  1.00  0.00     0.148 A 
ATOM     82  C   UNL A   1      41.574  36.285  37.819  1.00  0.00     0.002 A 
ATOM     83  C   UNL A   1      41.413  33.979  39.918  1.00  0.00     0.091 A 
ATOM     84  F   UNL A   1      39.375  32.634  39.954  1.00  0.00    -0.205 F 
ATOM     85  C   UNL A   1      42.196  35.374  39.262  1.00  0.00     0.022 A 
BRANCH  83  86
ATOM     86  S   UNL A   1      42.490  32.129  39.875  1.00  0.00     0.127 S 
ATOM     87  O   UNL A   1      41.937  31.315  40.950  1.00  0.00    -0.237 OA
ATOM     88  O   UNL A   1      42.217  31.578  38.559  1.00  0.00    -0.237 OA
ATOM     89  O   UNL A   1      43.889  32.489  40.104  1.00  0.00    -0.744 OA
ENDBRANCH  83  86
ENDBRANCH  55  79
BRANCH  67  90
ATOM     90  C   UNL A   1      36.469  31.930  30.080  1.00  0.00     0.023 A 
ATOM     91  C   UNL A   1      36.125  30.670  29.602  1.00  0.00     0.012 A 
ATOM     92  C   UNL A   1      35.760  33.051  29.520  1.00  0.00     0.148 A 
ATOM     93  C   UNL A   1      35.193  30.523  28.583  1.00  0.00     0.002 A 
ATOM     94  C   UNL A   1      34.691  32.872  28.672  1.00  0.00     0.091 A 
ATOM     95  F   UNL A   1      36.113  34.320  29.760  1.00  0.00    -0.205 F 
ATOM     96  C   UNL A   1      34.447  31.612  28.149  1.00  0.00     0.022 A 
BRANCH  94  97
ATOM     97  S   UNL A   1      33.494  34.180  28.365  1.00  0.00     0.127 S 
ATOM     98  O   UNL A   1      33.134  34.573  29.726  1.00  0.00    -0.237 OA
ATOM     99  O   UNL A   1      34.306  35.157  27.637  1.00  0.00    -0.237 OA
ATOM    100  O   UNL A   1      32.425  33.585  27.574  1.00  0.00    -0.744 OA
ENDBRANCH  94  97
ENDBRANCH  67  90
ENDBRANCH  41  42
ENDBRANCH  34  36
ENDBRANCH  33  34
ENDBRANCH  32  33
ENDBRANCH  31  32
ENDBRANCH  30  31
ENDBRANCH  29  30
ENDBRANCH  28  29
ENDBRANCH   1  28
TORSDOF 28
ENDMDL
MODEL 2
REMARK VINA RESULT:      -9.1      9.369     15.141
REMARK SMILES CCC(CC)(NC(=O)c1cc(C)ccc1OC)C(=O)OCCOCCOCCOCCOC(=O)c1ccc(-c2c3nc(c(-c4cccc(S(=O)(=O)[O-])c4F)c4ccc([nH]4)c(-c4cccc(S(=O)(=O)[O-])c4F)c4nc(c(-c5cccc(S(=O)(=O)[O-])c5F)c5ccc2[nH]5)C=C4)C=C3)cc1
REMARK SMILES IDX 26 1 25 2 24 3 23 4 22 5 21 6 20 7 18 8 19 9 3 10 2 11 1 12
REMARK SMILES IDX 4 13 5 14 6 15 7 16 8 18 9 19 10 20 15 21 11 22 14 23 12 24
REMARK SMILES IDX 13 25 16 26 17 27 27 28 28 29 29 30 30 31 31 32 32 33 33 34
REMARK SMILES IDX 34 35 35 36 36 37 97 38 37 39 96 40 38 41 39 42 40 43 90 44
REMARK SMILES IDX 41 45 95 46 89 47 91 48 42 49 94 50 88 51 87 52 43 54 75 55
REMARK SMILES IDX 55 56 74 57 56 58 59 59 73 60 92 61 57 62 58 63 72 65 93 66
REMARK SMILES IDX 60 67 44 68 45 69 53 70 46 71 48 72 54 73 47 74 49 75 50 76
REMARK SMILES IDX 51 77 52 78 76 79 77 80 85 81 78 82 80 83 86 84 79 85 81 86
REMARK SMILES IDX 82 87 83 88 84 89 61 90 62 91 70 92 63 93 65 94 71 95 64 96
REMARK SMILES IDX 66 97 67 98 68 99 69 100
REMARK H PARENT 6 17 91 53 59 64
REMARK Flexibility Score: inf
ROOT
ATOM      1  O   UNL A   1      33.628  26.694  26.089  1.00  0.00    -0.377 OA
ENDROOT
BRANCH   1   2
ATOM      2  C   UNL A   1      32.575  25.987  25.506  1.00  0.00     0.188 C 
BRANCH   2   3
ATOM      3  C   UNL A   1      32.785  24.509  25.254  1.00  0.00     0.188 C 
BRANCH   3   4
ATOM      4  O   UNL A   1      32.420  23.431  26.092  1.00  0.00    -0.376 OA
BRANCH   4   5
ATOM      5  C   UNL A   1      33.328  22.319  26.094  1.00  0.00     0.202 C 
BRANCH   5   6
ATOM      6  C   UNL A   1      34.476  22.141  27.064  1.00  0.00     0.261 C 
BRANCH   6   7
ATOM      7  O   UNL A   1      35.630  21.883  26.302  1.00  0.00    -0.461 OA
BRANCH   7   8
ATOM      8  C   UNL A   1      36.254  23.036  26.261  1.00  0.00     0.331 C 
ATOM      9  O   UNL A   1      35.754  24.033  26.772  1.00  0.00    -0.249 OA
BRANCH   8  10
ATOM     10  C   UNL A   1      37.668  22.928  25.688  1.00  0.00     0.137 C 
BRANCH  10  11
ATOM     11  C   UNL A   1      38.057  24.486  26.132  1.00  0.00     0.037 C 
ATOM     12  C   UNL A   1      39.601  24.780  26.494  1.00  0.00     0.007 C 
ENDBRANCH  10  11
BRANCH  10  13
ATOM     13  C   UNL A   1      37.455  22.946  24.131  1.00  0.00     0.037 C 
ATOM     14  C   UNL A   1      36.031  22.819  23.613  1.00  0.00     0.007 C 
ENDBRANCH  10  13
BRANCH  10  15
ATOM     15  N   UNL A   1      38.838  21.738  26.361  1.00  0.00    -0.336 N 
ATOM     16  C   UNL A   1      40.315  21.081  26.574  1.00  0.00     0.255 C 
ATOM     17  H   UNL A   1      38.263  21.157  26.911  1.00  0.00     0.165 HD
ATOM     18  O   UNL A   1      40.324  20.328  27.566  1.00  0.00    -0.269 OA
BRANCH  16  19
ATOM     19  C   UNL A   1      41.927  21.326  25.873  1.00  0.00     0.082 A 
ATOM     20  C   UNL A   1      43.253  20.270  25.405  1.00  0.00     0.021 A 
ATOM     21  C   UNL A   1      42.486  22.691  26.110  1.00  0.00     0.131 A 
ATOM     22  C   UNL A   1      45.231  20.707  25.225  1.00  0.00    -0.050 A 
ATOM     23  C   UNL A   1      44.256  23.414  25.888  1.00  0.00     0.047 A 
ATOM     24  C   UNL A   1      46.567  19.955  24.801  1.00  0.00     0.044 C 
ATOM     25  C   UNL A   1      45.687  22.421  25.492  1.00  0.00     0.007 A 
BRANCH  21  26
ATOM     26  O   UNL A   1      41.695  22.643  27.594  1.00  0.00    -0.496 OA
ATOM     27  C   UNL A   1      42.181  23.378  28.793  1.00  0.00     0.278 C 
ENDBRANCH  21  26
ENDBRANCH  16  19
ENDBRANCH  10  15
ENDBRANCH   8  10
ENDBRANCH   7   8
ENDBRANCH   6   7
ENDBRANCH   5   6
ENDBRANCH   4   5
ENDBRANCH   3   4
ENDBRANCH   2   3
ENDBRANCH   1   2
BRANCH   1  28
ATOM     28  C   UNL A   1      33.821  27.970  25.546  1.00  0.00     0.188 C 
BRANCH  28  29
ATOM     29  C   UNL A   1      33.701  29.329  26.358  1.00  0.00     0.188 C 
BRANCH  29  30
ATOM     30  O   UNL A   1      34.754  29.653  27.222  1.00  0.00    -0.376 OA
BRANCH  30  31
ATOM     31  C   UNL A   1      34.461  30.893  27.815  1.00  0.00     0.202 C 
BRANCH  31  32
ATOM     32  C   UNL A   1      35.681  31.796  28.285  1.00  0.00     0.261 C 
BRANCH  32  33
ATOM     33  O   UNL A   1      36.294  31.808  29.799  1.00  0.00    -0.460 OA
BRANCH  33  34
ATOM     34  C   UNL A   1      36.676  32.096  31.126  1.00  0.00     0.338 C 
ATOM     35  O   UNL A   1      35.712  32.424  31.813  1.00  0.00    -0.246 OA
BRANCH  34  36
ATOM     36  C   UNL A   1      38.154  32.055  31.875  1.00  0.00     0.060 A 
ATOM     37  C   UNL A   1      39.381  32.616  31.531  1.00  0.00     0.016 A 
ATOM     38  C   UNL A   1      38.440  31.585  33.105  1.00  0.00     0.016 A 
ATOM     39  C   UNL A   1      40.697  31.910  31.804  1.00  0.00     0.010 A 
ATOM     40  C   UNL A   1      39.626  30.803  33.313  1.00  0.00     0.010 A 
ATOM     41  C   UNL A   1      40.719  30.655  32.434  1.00  0.00    -0.014 A 
BRANCH  41  42
ATOM     42  C   UNL A   1      42.009  29.498  32.644  1.00  0.00     0.031 A 
ATOM     43  C   UNL A   1      41.600  28.416  31.678  1.00  0.00     0.074 A 
ATOM     44  C   UNL A   1      43.364  29.556  33.293  1.00  0.00     0.049 A 
ATOM     45  N   UNL A   1      42.312  27.402  31.399  1.00  0.00    -0.248 NA
ATOM     46  C   UNL A   1      40.541  28.542  30.658  1.00  0.00     0.031 C 
ATOM     47  C   UNL A   1      44.874  29.131  33.638  1.00  0.00     0.029 A 
ATOM     48  N   UNL A   1      43.766  30.562  34.063  1.00  0.00    -0.354 N 
ATOM     49  C   UNL A   1      42.338  27.334  30.013  1.00  0.00     0.074 A 
ATOM     50  C   UNL A   1      41.107  27.946  29.602  1.00  0.00     0.031 C 
ATOM     51  C   UNL A   1      45.437  29.598  34.827  1.00  0.00     0.029 A 
ATOM     52  C   UNL A   1      44.474  30.548  35.278  1.00  0.00     0.049 A 
ATOM     53  H   UNL A   1      43.531  31.458  33.731  1.00  0.00     0.167 HD
ATOM     54  C   UNL A   1      43.516  26.965  29.423  1.00  0.00     0.034 A 
ATOM     55  C   UNL A   1      43.860  31.038  36.423  1.00  0.00     0.034 A 
ATOM     56  C   UNL A   1      44.582  26.837  30.499  1.00  0.00     0.049 A 
ATOM     57  C   UNL A   1      43.523  29.225  36.549  1.00  0.00     0.074 A 
ATOM     58  C   UNL A   1      45.852  27.341  30.711  1.00  0.00     0.029 A 
ATOM     59  N   UNL A   1      44.223  26.287  31.759  1.00  0.00    -0.354 N 
ATOM     60  N   UNL A   1      43.161  28.368  35.538  1.00  0.00    -0.248 NA
ATOM     61  C   UNL A   1      44.332  28.378  37.490  1.00  0.00     0.031 C 
ATOM     62  C   UNL A   1      46.151  27.172  32.117  1.00  0.00     0.029 A 
ATOM     63  C   UNL A   1      44.975  26.782  32.828  1.00  0.00     0.049 A 
ATOM     64  H   UNL A   1      43.511  25.618  31.868  1.00  0.00     0.167 HD
ATOM     65  C   UNL A   1      44.032  27.201  35.423  1.00  0.00     0.074 A 
ATOM     66  C   UNL A   1      44.602  27.235  36.801  1.00  0.00     0.031 C 
ATOM     67  C   UNL A   1      44.621  26.430  34.316  1.00  0.00     0.034 A 
BRANCH  54  68
ATOM     68  C   UNL A   1      43.806  26.886  27.901  1.00  0.00     0.023 A 
ATOM     69  C   UNL A   1      42.675  26.953  27.053  1.00  0.00     0.012 A 
ATOM     70  C   UNL A   1      45.060  26.872  27.214  1.00  0.00     0.148 A 
ATOM     71  C   UNL A   1      42.750  27.042  25.656  1.00  0.00     0.002 A 
ATOM     72  C   UNL A   1      45.138  26.979  25.806  1.00  0.00     0.091 A 
ATOM     73  F   UNL A   1      46.202  26.786  27.901  1.00  0.00    -0.205 F 
ATOM     74  C   UNL A   1      43.981  27.074  25.032  1.00  0.00     0.022 A 
BRANCH  72  75
ATOM     75  S   UNL A   1      46.683  27.063  24.859  1.00  0.00     0.127 S 
ATOM     76  O   UNL A   1      46.412  28.146  23.910  1.00  0.00    -0.237 OA
ATOM     77  O   UNL A   1      47.661  27.405  25.891  1.00  0.00    -0.237 OA
ATOM     78  O   UNL A   1      46.859  25.754  24.244  1.00  0.00    -0.744 OA
ENDBRANCH  72  75
ENDBRANCH  54  68
BRANCH  55  79
ATOM     79  C   UNL A   1      42.839  32.690  36.195  1.00  0.00     0.023 A 
ATOM     80  C   UNL A   1      41.092  32.538  35.675  1.00  0.00     0.012 A 
ATOM     81  C   UNL A   1      43.517  34.609  36.009  1.00  0.00     0.148 A 
ATOM     82  C   UNL A   1      40.238  34.025  35.047  1.00  0.00     0.002 A 
ATOM     83  C   UNL A   1      42.701  35.937  35.218  1.00  0.00     0.091 A 
ATOM     84  F   UNL A   1      44.674  35.124  36.406  1.00  0.00    -0.205 F 
ATOM     85  C   UNL A   1      41.047  35.634  34.815  1.00  0.00     0.022 A 
BRANCH  83  86
ATOM     86  S   UNL A   1      44.027  36.465  33.622  1.00  0.00     0.127 S 
ATOM     87  O   UNL A   1      43.295  37.406  32.783  1.00  0.00    -0.237 OA
ATOM     88  O   UNL A   1      45.168  37.075  34.283  1.00  0.00    -0.237 OA
ATOM     89  O   UNL A   1      44.324  35.209  32.932  1.00  0.00    -0.744 OA
ENDBRANCH  83  86
ENDBRANCH  55  79
BRANCH  67  90
ATOM     90  C   UNL A   1      44.874  24.929  34.489  1.00  0.00     0.023 A 
ATOM     91  C   UNL A   1      44.000  24.012  33.912  1.00  0.00     0.012 A 
ATOM     92  C   UNL A   1      46.124  24.411  34.980  1.00  0.00     0.148 A 
ATOM     93  C   UNL A   1      44.303  22.657  33.885  1.00  0.00     0.002 A 
ATOM     94  C   UNL A   1      46.499  23.107  34.751  1.00  0.00     0.091 A 
ATOM     95  F   UNL A   1      46.972  25.146  35.709  1.00  0.00    -0.205 F 
ATOM     96  C   UNL A   1      45.563  22.210  34.262  1.00  0.00     0.022 A 
BRANCH  94  97
ATOM     97  S   UNL A   1      48.212  22.574  34.892  1.00  0.00     0.127 S 
ATOM     98  O   UNL A   1      48.157  21.245  34.285  1.00  0.00    -0.237 OA
ATOM     99  O   UNL A   1      48.903  23.587  34.092  1.00  0.00    -0.237 OA
ATOM    100  O   UNL A   1      48.541  22.608  36.311  1.00  0.00    -0.744 OA
ENDBRANCH  94  97
ENDBRANCH  67  90
ENDBRANCH  41  42
ENDBRANCH  34  36
ENDBRANCH  33  34
ENDBRANCH  32  33
ENDBRANCH  31  32
ENDBRANCH  30  31
ENDBRANCH  29  30
ENDBRANCH  28  29
ENDBRANCH   1  28
TORSDOF 28
ENDMDL
MODEL 3
REMARK VINA RESULT:      -9.0      8.967     14.704
REMARK SMILES CCC(CC)(NC(=O)c1cc(C)ccc1OC)C(=O)OCCOCCOCCOCCOC(=O)c1ccc(-c2c3nc(c(-c4cccc(S(=O)(=O)[O-])c4F)c4ccc([nH]4)c(-c4cccc(S(=O)(=O)[O-])c4F)c4nc(c(-c5cccc(S(=O)(=O)[O-])c5F)c5ccc2[nH]5)C=C4)C=C3)cc1
REMARK SMILES IDX 26 1 25 2 24 3 23 4 22 5 21 6 20 7 18 8 19 9 3 10 2 11 1 12
REMARK SMILES IDX 4 13 5 14 6 15 7 16 8 18 9 19 10 20 15 21 11 22 14 23 12 24
REMARK SMILES IDX 13 25 16 26 17 27 27 28 28 29 29 30 30 31 31 32 32 33 33 34
REMARK SMILES IDX 34 35 35 36 36 37 97 38 37 39 96 40 38 41 39 42 40 43 90 44
REMARK SMILES IDX 41 45 95 46 89 47 91 48 42 49 94 50 88 51 87 52 43 54 75 55
REMARK SMILES IDX 55 56 74 57 56 58 59 59 73 60 92 61 57 62 58 63 72 65 93 66
REMARK SMILES IDX 60 67 44 68 45 69 53 70 46 71 48 72 54 73 47 74 49 75 50 76
REMARK SMILES IDX 51 77 52 78 76 79 77 80 85 81 78 82 80 83 86 84 79 85 81 86
REMARK SMILES IDX 82 87 83 88 84 89 61 90 62 91 70 92 63 93 65 94 71 95 64 96
REMARK SMILES IDX 66 97 67 98 68 99 69 100
REMARK H PARENT 6 17 91 53 59 64
REMARK Flexibility Score: inf
ROOT
ATOM      1  O   UNL A   1      46.934  25.251  33.085  1.00  0.00    -0.377 OA
ENDROOT
BRANCH   1   2
ATOM      2  C   UNL A   1      45.759  25.175  32.335  1.00  0.00     0.188 C 
BRANCH   2   3
ATOM      3  C   UNL A   1      44.536  25.879  32.885  1.00  0.00     0.188 C 
BRANCH   3   4
ATOM      4  O   UNL A   1      44.424  27.233  33.272  1.00  0.00    -0.376 OA
BRANCH   4   5
ATOM      5  C   UNL A   1      43.954  27.452  34.611  1.00  0.00     0.202 C 
BRANCH   5   6
ATOM      6  C   UNL A   1      43.100  26.482  35.398  1.00  0.00     0.261 C 
BRANCH   6   7
ATOM      7  O   UNL A   1      43.968  25.706  36.186  1.00  0.00    -0.461 OA
BRANCH   7   8
ATOM      8  C   UNL A   1      43.757  26.127  37.410  1.00  0.00     0.331 C 
ATOM      9  O   UNL A   1      42.691  26.657  37.712  1.00  0.00    -0.249 OA
BRANCH   8  10
ATOM     10  C   UNL A   1      44.873  25.730  38.378  1.00  0.00     0.137 C 
BRANCH  10  11
ATOM     11  C   UNL A   1      44.334  26.775  39.559  1.00  0.00     0.037 C 
ATOM     12  C   UNL A   1      44.466  26.282  41.089  1.00  0.00     0.007 C 
ENDBRANCH  10  11
BRANCH  10  13
ATOM     13  C   UNL A   1      46.165  26.379  37.763  1.00  0.00     0.037 C 
ATOM     14  C   UNL A   1      47.477  26.176  38.505  1.00  0.00     0.007 C 
ENDBRANCH  10  13
BRANCH  10  15
ATOM     15  N   UNL A   1      44.991  24.044  38.994  1.00  0.00    -0.336 N 
ATOM     16  C   UNL A   1      45.662  22.562  39.116  1.00  0.00     0.255 C 
ATOM     17  H   UNL A   1      44.213  23.978  39.595  1.00  0.00     0.165 HD
ATOM     18  O   UNL A   1      45.232  21.966  40.121  1.00  0.00    -0.269 OA
BRANCH  16  19
ATOM     19  C   UNL A   1      46.974  21.691  38.299  1.00  0.00     0.082 A 
ATOM     20  C   UNL A   1      48.729  21.789  38.313  1.00  0.00     0.021 A 
ATOM     21  C   UNL A   1      46.558  21.039  37.021  1.00  0.00     0.131 A 
ATOM     22  C   UNL A   1      50.054  21.192  36.890  1.00  0.00    -0.050 A 
ATOM     23  C   UNL A   1      47.575  20.263  35.581  1.00  0.00     0.047 A 
ATOM     24  C   UNL A   1      51.631  21.148  36.697  1.00  0.00     0.044 C 
ATOM     25  C   UNL A   1      49.354  20.372  35.456  1.00  0.00     0.007 A 
BRANCH  21  26
ATOM     26  O   UNL A   1      45.524  22.348  36.810  1.00  0.00    -0.496 OA
ATOM     27  C   UNL A   1      44.685  22.528  35.594  1.00  0.00     0.278 C 
ENDBRANCH  21  26
ENDBRANCH  16  19
ENDBRANCH  10  15
ENDBRANCH   8  10
ENDBRANCH   7   8
ENDBRANCH   6   7
ENDBRANCH   5   6
ENDBRANCH   4   5
ENDBRANCH   3   4
ENDBRANCH   2   3
ENDBRANCH   1   2
BRANCH   1  28
ATOM     28  C   UNL A   1      47.560  26.502  33.030  1.00  0.00     0.188 C 
BRANCH  28  29
ATOM     29  C   UNL A   1      48.400  27.042  31.796  1.00  0.00     0.188 C 
BRANCH  29  30
ATOM     30  O   UNL A   1      47.819  28.051  31.019  1.00  0.00    -0.376 OA
BRANCH  30  31
ATOM     31  C   UNL A   1      48.832  28.634  30.239  1.00  0.00     0.202 C 
BRANCH  31  32
ATOM     32  C   UNL A   1      49.471  29.996  30.752  1.00  0.00     0.261 C 
BRANCH  32  33
ATOM     33  O   UNL A   1      48.622  31.355  31.068  1.00  0.00    -0.460 OA
BRANCH  33  34
ATOM     34  C   UNL A   1      47.706  32.334  31.507  1.00  0.00     0.338 C 
ATOM     35  O   UNL A   1      48.158  33.468  31.372  1.00  0.00    -0.246 OA
BRANCH  34  36
ATOM     36  C   UNL A   1      46.180  32.203  32.141  1.00  0.00     0.060 A 
ATOM     37  C   UNL A   1      45.627  31.295  33.039  1.00  0.00     0.016 A 
ATOM     38  C   UNL A   1      45.166  33.084  32.034  1.00  0.00     0.016 A 
ATOM     39  C   UNL A   1      44.191  30.814  32.922  1.00  0.00     0.010 A 
ATOM     40  C   UNL A   1      43.833  32.612  31.788  1.00  0.00     0.010 A 
ATOM     41  C   UNL A   1      43.360  31.288  31.894  1.00  0.00    -0.014 A 
BRANCH  41  42
ATOM     42  C   UNL A   1      41.794  30.749  31.344  1.00  0.00     0.031 A 
ATOM     43  C   UNL A   1      42.017  30.654  29.855  1.00  0.00     0.074 A 
ATOM     44  C   UNL A   1      40.585  30.181  32.035  1.00  0.00     0.049 A 
ATOM     45  N   UNL A   1      41.170  30.181  29.037  1.00  0.00    -0.248 NA
ATOM     46  C   UNL A   1      43.330  30.725  29.187  1.00  0.00     0.031 C 
ATOM     47  C   UNL A   1      39.188  29.408  32.205  1.00  0.00     0.029 A 
ATOM     48  N   UNL A   1      40.434  30.170  33.355  1.00  0.00    -0.354 N 
ATOM     49  C   UNL A   1      41.871  29.271  28.257  1.00  0.00     0.074 A 
ATOM     50  C   UNL A   1      43.221  29.757  28.269  1.00  0.00     0.031 C 
ATOM     51  C   UNL A   1      38.419  29.675  33.339  1.00  0.00     0.029 A 
ATOM     52  C   UNL A   1      39.303  30.456  34.141  1.00  0.00     0.049 A 
ATOM     53  H   UNL A   1      41.240  29.924  33.863  1.00  0.00     0.167 HD
ATOM     54  C   UNL A   1      41.229  28.115  27.908  1.00  0.00     0.034 A 
ATOM     55  C   UNL A   1      39.338  31.539  35.007  1.00  0.00     0.034 A 
ATOM     56  C   UNL A   1      39.880  28.076  28.607  1.00  0.00     0.049 A 
ATOM     57  C   UNL A   1      38.536  32.268  33.510  1.00  0.00     0.074 A 
ATOM     58  C   UNL A   1      39.200  27.184  29.415  1.00  0.00     0.029 A 
ATOM     59  N   UNL A   1      39.139  29.281  28.737  1.00  0.00    -0.354 N 
ATOM     60  N   UNL A   1      38.872  32.059  32.194  1.00  0.00    -0.248 NA
ATOM     61  C   UNL A   1      37.049  32.487  33.490  1.00  0.00     0.031 C 
ATOM     62  C   UNL A   1      38.150  27.924  30.082  1.00  0.00     0.029 A 
ATOM     63  C   UNL A   1      38.326  29.327  29.873  1.00  0.00     0.049 A 
ATOM     64  H   UNL A   1      39.193  30.016  28.086  1.00  0.00     0.167 HD
ATOM     65  C   UNL A   1      37.751  31.612  31.371  1.00  0.00     0.074 A 
ATOM     66  C   UNL A   1      36.646  32.094  32.249  1.00  0.00     0.031 C 
ATOM     67  C   UNL A   1      37.563  30.634  30.287  1.00  0.00     0.034 A 
BRANCH  54  68
ATOM     68  C   UNL A   1      41.826  26.928  27.108  1.00  0.00     0.023 A 
ATOM     69  C   UNL A   1      42.262  27.225  25.794  1.00  0.00     0.012 A 
ATOM     70  C   UNL A   1      42.112  25.594  27.537  1.00  0.00     0.148 A 
ATOM     71  C   UNL A   1      42.955  26.322  24.977  1.00  0.00     0.002 A 
ATOM     72  C   UNL A   1      42.828  24.687  26.721  1.00  0.00     0.091 A 
ATOM     73  F   UNL A   1      41.731  25.181  28.748  1.00  0.00    -0.205 F 
ATOM     74  C   UNL A   1      43.256  25.059  25.446  1.00  0.00     0.022 A 
BRANCH  72  75
ATOM     75  S   UNL A   1      43.315  23.012  27.218  1.00  0.00     0.127 S 
ATOM     76  O   UNL A   1      42.203  22.602  28.079  1.00  0.00    -0.237 OA
ATOM     77  O   UNL A   1      43.366  22.309  25.936  1.00  0.00    -0.237 OA
ATOM     78  O   UNL A   1      44.592  23.143  27.907  1.00  0.00    -0.744 OA
ENDBRANCH  72  75
ENDBRANCH  54  68
BRANCH  55  79
ATOM     79  C   UNL A   1      40.999  31.763  36.015  1.00  0.00     0.023 A 
ATOM     80  C   UNL A   1      42.180  30.366  36.017  1.00  0.00     0.012 A 
ATOM     81  C   UNL A   1      41.459  33.141  37.452  1.00  0.00     0.148 A 
ATOM     82  C   UNL A   1      43.517  30.359  37.261  1.00  0.00     0.002 A 
ATOM     83  C   UNL A   1      42.636  32.969  38.732  1.00  0.00     0.091 A 
ATOM     84  F   UNL A   1      40.916  34.334  37.664  1.00  0.00    -0.205 F 
ATOM     85  C   UNL A   1      43.691  31.608  38.567  1.00  0.00     0.022 A 
BRANCH  83  86
ATOM     86  S   UNL A   1      41.464  33.100  40.518  1.00  0.00     0.127 S 
ATOM     87  O   UNL A   1      41.118  34.508  40.671  1.00  0.00    -0.237 OA
ATOM     88  O   UNL A   1      40.304  32.266  40.255  1.00  0.00    -0.237 OA
ATOM     89  O   UNL A   1      42.332  32.613  41.590  1.00  0.00    -0.744 OA
ENDBRANCH  83  86
ENDBRANCH  55  79
BRANCH  67  90
ATOM     90  C   UNL A   1      36.513  30.896  29.203  1.00  0.00     0.023 A 
ATOM     91  C   UNL A   1      35.854  29.824  28.609  1.00  0.00     0.012 A 
ATOM     92  C   UNL A   1      35.969  32.206  28.959  1.00  0.00     0.148 A 
ATOM     93  C   UNL A   1      34.768  30.032  27.768  1.00  0.00     0.002 A 
ATOM     94  C   UNL A   1      34.771  32.374  28.303  1.00  0.00     0.091 A 
ATOM     95  F   UNL A   1      36.602  33.329  29.320  1.00  0.00    -0.205 F 
ATOM     96  C   UNL A   1      34.201  31.294  27.648  1.00  0.00     0.022 A 
BRANCH  94  97
ATOM     97  S   UNL A   1      33.830  33.904  28.423  1.00  0.00     0.127 S 
ATOM     98  O   UNL A   1      32.602  33.549  27.714  1.00  0.00    -0.237 OA
ATOM     99  O   UNL A   1      33.684  34.047  29.873  1.00  0.00    -0.237 OA
ATOM    100  O   UNL A   1      34.643  34.940  27.800  1.00  0.00    -0.744 OA
ENDBRANCH  94  97
ENDBRANCH  67  90
ENDBRANCH  41  42
ENDBRANCH  34  36
ENDBRANCH  33  34
ENDBRANCH  32  33
ENDBRANCH  31  32
ENDBRANCH  30  31
ENDBRANCH  29  30
ENDBRANCH  28  29
ENDBRANCH   1  28
TORSDOF 28
ENDMDL
