MODEL 1
REMARK VINA RESULT:      -8.3      0.000      0.000
REMARK SMILES C[C@@H](CCCO)Nc1ccc(C(=O)OCCOCCOCCOCCOC(=O)c2ccc(-c3c4nc(c(-c5cccc(S(=O)(=O)[O-])c5F)c5ccc([nH]5)c(-c5cccc(S(=O)(=O)[O-])c5F)c5nc(c(-c6cccc(S(=O)(=O)[O-])c6F)c6ccc3[nH]6)C=C5)C=C4)cc2)o1
REMARK SMILES IDX 18 1 17 2 16 3 15 4 14 5 12 6 13 7 11 8 8 9 9 10 92 11 10 12
REMARK SMILES IDX 7 13 2 15 1 16 3 17 4 18 5 19 6 20 19 22 20 23 21 24 22 25
REMARK SMILES IDX 23 26 24 27 25 28 26 29 27 30 28 31 29 32 30 33 91 34 31 35
REMARK SMILES IDX 90 36 32 37 33 38 34 39 84 40 35 41 89 42 83 43 85 44 36 45
REMARK SMILES IDX 88 46 82 47 81 48 37 50 69 51 49 52 68 53 50 54 53 55 67 56
REMARK SMILES IDX 86 57 51 58 52 59 66 61 87 62 54 63 38 64 39 65 47 66 40 67
REMARK SMILES IDX 42 68 48 69 41 70 43 71 44 72 45 73 46 74 70 75 71 76 79 77
REMARK SMILES IDX 72 78 74 79 80 80 73 81 75 82 76 83 77 84 78 85 55 86 56 87
REMARK SMILES IDX 64 88 57 89 59 90 65 91 58 92 60 93 61 94 62 95 63 96
REMARK H PARENT 7 14 6 21 85 49 53 60
REMARK Flexibility Score: inf
ROOT
ATOM      1  C   UNL A   1      33.203  25.906  25.637  1.00  0.00     0.188 C 
ENDROOT
BRANCH   1   2
ATOM      2  O   UNL A   1      32.859  24.778  26.440  1.00  0.00    -0.376 OA
BRANCH   2   3
ATOM      3  C   UNL A   1      31.543  24.254  26.476  1.00  0.00     0.202 C 
BRANCH   3   4
ATOM      4  C   UNL A   1      31.314  22.788  26.078  1.00  0.00     0.261 C 
BRANCH   4   5
ATOM      5  O   UNL A   1      32.379  21.893  26.406  1.00  0.00    -0.457 OA
BRANCH   5   6
ATOM      6  C   UNL A   1      32.854  21.146  25.373  1.00  0.00     0.374 C 
ATOM      7  O   UNL A   1      32.372  20.084  24.990  1.00  0.00    -0.242 OA
BRANCH   6   8
ATOM      8  C   UNL A   1      33.934  21.853  24.732  1.00  0.00     0.214 A 
ATOM      9  C   UNL A   1      36.012  22.550  24.598  1.00  0.00     0.194 A 
ATOM     10  C   UNL A   1      35.405  22.953  23.433  1.00  0.00     0.070 A 
ATOM     11  O   UNL A   1      35.137  21.884  25.383  1.00  0.00    -0.434 OA
ATOM     12  C   UNL A   1      34.070  22.477  23.502  1.00  0.00     0.060 A 
BRANCH   9  13
ATOM     13  N   UNL A   1      37.242  22.690  25.121  1.00  0.00    -0.354 N 
ATOM     14  H   UNL A   1      37.680  23.572  25.139  1.00  0.00     0.163 HD
BRANCH  13  15
ATOM     15  C   UNL A   1      37.921  21.517  25.663  1.00  0.00     0.079 C 
ATOM     16  C   UNL A   1      37.587  20.308  24.786  1.00  0.00     0.031 C 
BRANCH  15  17
ATOM     17  C   UNL A   1      39.428  21.758  25.815  1.00  0.00     0.027 C 
BRANCH  17  18
ATOM     18  C   UNL A   1      39.919  22.355  27.140  1.00  0.00     0.030 C 
BRANCH  18  19
ATOM     19  C   UNL A   1      39.756  23.861  27.294  1.00  0.00     0.156 C 
BRANCH  19  20
ATOM     20  O   UNL A   1      39.266  24.450  26.101  1.00  0.00    -0.396 OA
ATOM     21  H   UNL A   1      39.200  23.771  25.410  1.00  0.00     0.210 HD
ENDBRANCH  19  20
ENDBRANCH  18  19
ENDBRANCH  17  18
ENDBRANCH  15  17
ENDBRANCH  13  15
ENDBRANCH   9  13
ENDBRANCH   6   8
ENDBRANCH   5   6
ENDBRANCH   4   5
ENDBRANCH   3   4
ENDBRANCH   2   3
ENDBRANCH   1   2
BRANCH   1  22
ATOM     22  C   UNL A   1      32.779  26.070  24.163  1.00  0.00     0.188 C 
BRANCH  22  23
ATOM     23  O   UNL A   1      31.446  26.507  23.971  1.00  0.00    -0.377 OA
BRANCH  23  24
ATOM     24  C   UNL A   1      31.057  27.631  24.752  1.00  0.00     0.188 C 
BRANCH  24  25
ATOM     25  C   UNL A   1      31.114  28.978  24.016  1.00  0.00     0.188 C 
BRANCH  25  26
ATOM     26  O   UNL A   1      31.568  30.040  24.859  1.00  0.00    -0.376 OA
BRANCH  26  27
ATOM     27  C   UNL A   1      31.412  29.821  26.261  1.00  0.00     0.202 C 
BRANCH  27  28
ATOM     28  C   UNL A   1      32.740  29.766  27.031  1.00  0.00     0.261 C 
BRANCH  28  29
ATOM     29  O   UNL A   1      33.714  30.740  26.621  1.00  0.00    -0.460 OA
BRANCH  29  30
ATOM     30  C   UNL A   1      34.152  31.603  27.563  1.00  0.00     0.338 C 
ATOM     31  O   UNL A   1      33.537  32.540  28.039  1.00  0.00    -0.246 OA
BRANCH  30  32
ATOM     32  C   UNL A   1      35.450  31.116  28.073  1.00  0.00     0.060 A 
ATOM     33  C   UNL A   1      35.548  29.776  28.464  1.00  0.00     0.016 A 
ATOM     34  C   UNL A   1      36.547  31.974  28.190  1.00  0.00     0.016 A 
ATOM     35  C   UNL A   1      36.731  29.303  29.031  1.00  0.00     0.010 A 
ATOM     36  C   UNL A   1      37.728  31.502  28.768  1.00  0.00     0.010 A 
ATOM     37  C   UNL A   1      37.809  30.177  29.228  1.00  0.00    -0.014 A 
BRANCH  37  38
ATOM     38  C   UNL A   1      38.943  29.758  30.086  1.00  0.00     0.031 A 
ATOM     39  C   UNL A   1      39.075  30.380  31.451  1.00  0.00     0.074 A 
ATOM     40  C   UNL A   1      39.838  28.849  29.665  1.00  0.00     0.049 A 
ATOM     41  N   UNL A   1      39.957  30.144  32.386  1.00  0.00    -0.248 NA
ATOM     42  C   UNL A   1      38.078  31.404  31.807  1.00  0.00     0.031 C 
ATOM     43  C   UNL A   1      39.829  28.193  28.359  1.00  0.00     0.029 A 
ATOM     44  N   UNL A   1      40.944  28.336  30.295  1.00  0.00    -0.354 N 
ATOM     45  C   UNL A   1      39.631  30.995  33.435  1.00  0.00     0.074 A 
ATOM     46  C   UNL A   1      38.484  31.769  33.015  1.00  0.00     0.031 C 
ATOM     47  C   UNL A   1      40.897  27.379  28.275  1.00  0.00     0.029 A 
ATOM     48  C   UNL A   1      41.663  27.460  29.518  1.00  0.00     0.049 A 
ATOM     49  H   UNL A   1      41.199  28.573  31.216  1.00  0.00     0.167 HD
ATOM     50  C   UNL A   1      40.214  31.105  34.651  1.00  0.00     0.034 A 
ATOM     51  C   UNL A   1      42.810  26.801  29.784  1.00  0.00     0.034 A 
ATOM     52  C   UNL A   1      41.348  30.331  35.075  1.00  0.00     0.049 A 
ATOM     53  C   UNL A   1      43.448  26.949  31.142  1.00  0.00     0.074 A 
ATOM     54  C   UNL A   1      41.990  30.343  36.299  1.00  0.00     0.029 A 
ATOM     55  N   UNL A   1      42.016  29.411  34.281  1.00  0.00    -0.354 N 
ATOM     56  N   UNL A   1      43.039  27.645  32.176  1.00  0.00    -0.248 NA
ATOM     57  C   UNL A   1      44.684  26.188  31.383  1.00  0.00     0.031 C 
ATOM     58  C   UNL A   1      43.055  29.437  36.242  1.00  0.00     0.029 A 
ATOM     59  C   UNL A   1      43.066  28.852  34.986  1.00  0.00     0.049 A 
ATOM     60  H   UNL A   1      41.777  29.189  33.352  1.00  0.00     0.167 HD
ATOM     61  C   UNL A   1      43.943  27.375  33.199  1.00  0.00     0.074 A 
ATOM     62  C   UNL A   1      44.910  26.438  32.667  1.00  0.00     0.031 C 
ATOM     63  C   UNL A   1      43.981  27.872  34.461  1.00  0.00     0.034 A 
BRANCH  50  64
ATOM     64  C   UNL A   1      39.599  32.068  35.628  1.00  0.00     0.023 A 
ATOM     65  C   UNL A   1      38.582  31.613  36.492  1.00  0.00     0.012 A 
ATOM     66  C   UNL A   1      40.043  33.401  35.720  1.00  0.00     0.148 A 
ATOM     67  C   UNL A   1      37.999  32.477  37.418  1.00  0.00     0.002 A 
ATOM     68  C   UNL A   1      39.481  34.246  36.669  1.00  0.00     0.091 A 
ATOM     69  F   UNL A   1      40.988  33.821  34.867  1.00  0.00    -0.205 F 
ATOM     70  C   UNL A   1      38.455  33.790  37.512  1.00  0.00     0.022 A 
BRANCH  68  71
ATOM     71  S   UNL A   1      40.045  35.935  36.908  1.00  0.00     0.127 S 
ATOM     72  O   UNL A   1      39.718  36.540  35.619  1.00  0.00    -0.237 OA
ATOM     73  O   UNL A   1      39.211  36.387  38.023  1.00  0.00    -0.237 OA
ATOM     74  O   UNL A   1      41.465  35.840  37.217  1.00  0.00    -0.744 OA
ENDBRANCH  68  71
ENDBRANCH  50  64
BRANCH  51  75
ATOM     75  C   UNL A   1      43.396  25.885  28.765  1.00  0.00     0.023 A 
ATOM     76  C   UNL A   1      43.011  24.529  28.751  1.00  0.00     0.012 A 
ATOM     77  C   UNL A   1      44.321  26.344  27.809  1.00  0.00     0.148 A 
ATOM     78  C   UNL A   1      43.558  23.644  27.823  1.00  0.00     0.002 A 
ATOM     79  C   UNL A   1      44.825  25.467  26.855  1.00  0.00     0.091 A 
ATOM     80  F   UNL A   1      44.694  27.631  27.851  1.00  0.00    -0.205 F 
ATOM     81  C   UNL A   1      44.457  24.113  26.869  1.00  0.00     0.022 A 
BRANCH  79  82
ATOM     82  S   UNL A   1      45.891  26.016  25.517  1.00  0.00     0.127 S 
ATOM     83  O   UNL A   1      45.146  27.155  24.988  1.00  0.00    -0.237 OA
ATOM     84  O   UNL A   1      47.123  26.361  26.228  1.00  0.00    -0.237 OA
ATOM     85  O   UNL A   1      46.019  24.869  24.627  1.00  0.00    -0.744 OA
ENDBRANCH  79  82
ENDBRANCH  51  75
BRANCH  63  86
ATOM     86  C   UNL A   1      45.081  27.392  35.370  1.00  0.00     0.023 A 
ATOM     87  C   UNL A   1      44.879  26.246  36.164  1.00  0.00     0.012 A 
ATOM     88  C   UNL A   1      46.340  28.025  35.379  1.00  0.00     0.148 A 
ATOM     89  C   UNL A   1      45.902  25.755  36.975  1.00  0.00     0.002 A 
ATOM     90  C   UNL A   1      47.369  27.505  36.156  1.00  0.00     0.091 A 
ATOM     91  F   UNL A   1      46.509  29.127  34.633  1.00  0.00    -0.205 F 
ATOM     92  C   UNL A   1      47.149  26.375  36.962  1.00  0.00     0.022 A 
BRANCH  90  93
ATOM     93  S   UNL A   1      49.028  28.193  36.119  1.00  0.00     0.127 S 
ATOM     94  O   UNL A   1      49.676  27.471  37.212  1.00  0.00    -0.237 OA
ATOM     95  O   UNL A   1      49.496  27.823  34.782  1.00  0.00    -0.237 OA
ATOM     96  O   UNL A   1      48.862  29.627  36.318  1.00  0.00    -0.744 OA
ENDBRANCH  90  93
ENDBRANCH  63  86
ENDBRANCH  37  38
ENDBRANCH  30  32
ENDBRANCH  29  30
ENDBRANCH  28  29
ENDBRANCH  27  28
ENDBRANCH  26  27
ENDBRANCH  25  26
ENDBRANCH  24  25
ENDBRANCH  23  24
ENDBRANCH  22  23
ENDBRANCH   1  22
TORSDOF 29
ENDMDL
MODEL 2
REMARK VINA RESULT:      -7.2      4.950      9.668
REMARK SMILES C[C@@H](CCCO)Nc1ccc(C(=O)OCCOCCOCCOCCOC(=O)c2ccc(-c3c4nc(c(-c5cccc(S(=O)(=O)[O-])c5F)c5ccc([nH]5)c(-c5cccc(S(=O)(=O)[O-])c5F)c5nc(c(-c6cccc(S(=O)(=O)[O-])c6F)c6ccc3[nH]6)C=C5)C=C4)cc2)o1
REMARK SMILES IDX 18 1 17 2 16 3 15 4 14 5 12 6 13 7 11 8 8 9 9 10 92 11 10 12
REMARK SMILES IDX 7 13 2 15 1 16 3 17 4 18 5 19 6 20 19 22 20 23 21 24 22 25
REMARK SMILES IDX 23 26 24 27 25 28 26 29 27 30 28 31 29 32 30 33 91 34 31 35
REMARK SMILES IDX 90 36 32 37 33 38 34 39 84 40 35 41 89 42 83 43 85 44 36 45
REMARK SMILES IDX 88 46 82 47 81 48 37 50 69 51 49 52 68 53 50 54 53 55 67 56
REMARK SMILES IDX 86 57 51 58 52 59 66 61 87 62 54 63 38 64 39 65 47 66 40 67
REMARK SMILES IDX 42 68 48 69 41 70 43 71 44 72 45 73 46 74 70 75 71 76 79 77
REMARK SMILES IDX 72 78 74 79 80 80 73 81 75 82 76 83 77 84 78 85 55 86 56 87
REMARK SMILES IDX 64 88 57 89 59 90 65 91 58 92 60 93 61 94 62 95 63 96
REMARK H PARENT 7 14 6 21 85 49 53 60
REMARK Flexibility Score: inf
ROOT
ATOM      1  C   UNL A   1      33.166  33.443  28.088  1.00  0.00     0.188 C 
ENDROOT
BRANCH   1   2
ATOM      2  O   UNL A   1      33.385  32.112  27.626  1.00  0.00    -0.376 OA
BRANCH   2   3
ATOM      3  C   UNL A   1      32.448  31.438  26.802  1.00  0.00     0.202 C 
BRANCH   3   4
ATOM      4  C   UNL A   1      32.077  29.984  27.131  1.00  0.00     0.261 C 
BRANCH   4   5
ATOM      5  O   UNL A   1      32.445  29.022  26.141  1.00  0.00    -0.457 OA
BRANCH   5   6
ATOM      6  C   UNL A   1      33.508  28.233  26.459  1.00  0.00     0.374 C 
ATOM      7  O   UNL A   1      34.552  28.629  26.967  1.00  0.00    -0.242 OA
BRANCH   6   8
ATOM      8  C   UNL A   1      33.168  26.854  26.213  1.00  0.00     0.214 A 
ATOM      9  C   UNL A   1      33.663  24.776  25.707  1.00  0.00     0.194 A 
ATOM     10  C   UNL A   1      32.320  24.782  25.992  1.00  0.00     0.070 A 
ATOM     11  O   UNL A   1      34.184  26.015  25.842  1.00  0.00    -0.434 OA
ATOM     12  C   UNL A   1      32.003  26.118  26.350  1.00  0.00     0.060 A 
BRANCH   9  13
ATOM     13  N   UNL A   1      34.542  23.838  25.312  1.00  0.00    -0.354 N 
ATOM     14  H   UNL A   1      35.265  24.064  24.682  1.00  0.00     0.163 HD
BRANCH  13  15
ATOM     15  C   UNL A   1      34.412  22.480  25.831  1.00  0.00     0.079 C 
ATOM     16  C   UNL A   1      33.776  22.543  27.221  1.00  0.00     0.031 C 
BRANCH  15  17
ATOM     17  C   UNL A   1      33.646  21.576  24.855  1.00  0.00     0.027 C 
BRANCH  17  18
ATOM     18  C   UNL A   1      32.761  20.476  25.456  1.00  0.00     0.030 C 
BRANCH  18  19
ATOM     19  C   UNL A   1      33.227  19.044  25.225  1.00  0.00     0.156 C 
BRANCH  19  20
ATOM     20  O   UNL A   1      34.569  19.009  24.768  1.00  0.00    -0.396 OA
ATOM     21  H   UNL A   1      34.594  19.225  23.822  1.00  0.00     0.210 HD
ENDBRANCH  19  20
ENDBRANCH  18  19
ENDBRANCH  17  18
ENDBRANCH  15  17
ENDBRANCH  13  15
ENDBRANCH   9  13
ENDBRANCH   6   8
ENDBRANCH   5   6
ENDBRANCH   4   5
ENDBRANCH   3   4
ENDBRANCH   2   3
ENDBRANCH   1   2
BRANCH   1  22
ATOM     22  C   UNL A   1      34.303  34.436  28.411  1.00  0.00     0.188 C 
BRANCH  22  23
ATOM     23  O   UNL A   1      33.925  35.530  29.227  1.00  0.00    -0.377 OA
BRANCH  23  24
ATOM     24  C   UNL A   1      33.156  35.194  30.375  1.00  0.00     0.188 C 
BRANCH  24  25
ATOM     25  C   UNL A   1      32.847  36.372  31.311  1.00  0.00     0.188 C 
BRANCH  25  26
ATOM     26  O   UNL A   1      33.467  36.227  32.592  1.00  0.00    -0.376 OA
BRANCH  26  27
ATOM     27  C   UNL A   1      34.777  35.660  32.579  1.00  0.00     0.202 C 
BRANCH  27  28
ATOM     28  C   UNL A   1      35.189  35.024  33.915  1.00  0.00     0.261 C 
BRANCH  28  29
ATOM     29  O   UNL A   1      34.817  33.644  34.064  1.00  0.00    -0.460 OA
BRANCH  29  30
ATOM     30  C   UNL A   1      34.751  32.902  32.938  1.00  0.00     0.338 C 
ATOM     31  O   UNL A   1      33.746  32.597  32.320  1.00  0.00    -0.246 OA
BRANCH  30  32
ATOM     32  C   UNL A   1      36.126  32.665  32.455  1.00  0.00     0.060 A 
ATOM     33  C   UNL A   1      37.045  32.077  33.331  1.00  0.00     0.016 A 
ATOM     34  C   UNL A   1      36.514  33.043  31.166  1.00  0.00     0.016 A 
ATOM     35  C   UNL A   1      38.374  31.918  32.940  1.00  0.00     0.010 A 
ATOM     36  C   UNL A   1      37.848  32.893  30.779  1.00  0.00     0.010 A 
ATOM     37  C   UNL A   1      38.790  32.369  31.680  1.00  0.00    -0.014 A 
BRANCH  37  38
ATOM     38  C   UNL A   1      40.238  32.470  31.380  1.00  0.00     0.031 A 
ATOM     39  C   UNL A   1      40.839  31.488  30.411  1.00  0.00     0.074 A 
ATOM     40  C   UNL A   1      41.005  33.412  31.956  1.00  0.00     0.049 A 
ATOM     41  N   UNL A   1      42.066  31.407  29.969  1.00  0.00    -0.248 NA
ATOM     42  C   UNL A   1      39.934  30.460  29.868  1.00  0.00     0.031 C 
ATOM     43  C   UNL A   1      40.545  34.404  32.925  1.00  0.00     0.029 A 
ATOM     44  N   UNL A   1      42.346  33.669  31.818  1.00  0.00    -0.354 N 
ATOM     45  C   UNL A   1      42.085  30.317  29.106  1.00  0.00     0.074 A 
ATOM     46  C   UNL A   1      40.753  29.753  29.104  1.00  0.00     0.031 C 
ATOM     47  C   UNL A   1      41.594  35.151  33.314  1.00  0.00     0.029 A 
ATOM     48  C   UNL A   1      42.797  34.686  32.625  1.00  0.00     0.049 A 
ATOM     49  H   UNL A   1      42.930  33.172  31.201  1.00  0.00     0.167 HD
ATOM     50  C   UNL A   1      43.109  29.842  28.361  1.00  0.00     0.034 A 
ATOM     51  C   UNL A   1      44.041  35.182  32.785  1.00  0.00     0.034 A 
ATOM     52  C   UNL A   1      44.432  30.406  28.355  1.00  0.00     0.049 A 
ATOM     53  C   UNL A   1      45.169  34.629  31.951  1.00  0.00     0.074 A 
ATOM     54  C   UNL A   1      45.529  30.019  27.608  1.00  0.00     0.029 A 
ATOM     55  N   UNL A   1      44.837  31.472  29.142  1.00  0.00    -0.354 N 
ATOM     56  N   UNL A   1      45.136  33.696  31.030  1.00  0.00    -0.248 NA
ATOM     57  C   UNL A   1      46.499  35.224  32.152  1.00  0.00     0.031 C 
ATOM     58  C   UNL A   1      46.603  30.847  27.952  1.00  0.00     0.029 A 
ATOM     59  C   UNL A   1      46.170  31.755  28.903  1.00  0.00     0.049 A 
ATOM     60  H   UNL A   1      44.262  31.956  29.777  1.00  0.00     0.167 HD
ATOM     61  C   UNL A   1      46.426  33.621  30.515  1.00  0.00     0.074 A 
ATOM     62  C   UNL A   1      47.213  34.616  31.214  1.00  0.00     0.031 C 
ATOM     63  C   UNL A   1      46.922  32.793  29.561  1.00  0.00     0.034 A 
BRANCH  50  64
ATOM     64  C   UNL A   1      42.822  28.680  27.451  1.00  0.00     0.023 A 
ATOM     65  C   UNL A   1      42.376  28.931  26.138  1.00  0.00     0.012 A 
ATOM     66  C   UNL A   1      43.024  27.353  27.874  1.00  0.00     0.148 A 
ATOM     67  C   UNL A   1      42.111  27.877  25.265  1.00  0.00     0.002 A 
ATOM     68  C   UNL A   1      42.791  26.309  26.986  1.00  0.00     0.091 A 
ATOM     69  F   UNL A   1      43.418  27.136  29.136  1.00  0.00    -0.205 F 
ATOM     70  C   UNL A   1      42.328  26.568  25.686  1.00  0.00     0.022 A 
BRANCH  68  71
ATOM     71  S   UNL A   1      43.102  24.592  27.417  1.00  0.00     0.127 S 
ATOM     72  O   UNL A   1      42.286  24.439  28.620  1.00  0.00    -0.237 OA
ATOM     73  O   UNL A   1      42.595  23.880  26.242  1.00  0.00    -0.237 OA
ATOM     74  O   UNL A   1      44.540  24.485  27.613  1.00  0.00    -0.744 OA
ENDBRANCH  68  71
ENDBRANCH  50  64
BRANCH  51  75
ATOM     75  C   UNL A   1      44.277  36.312  33.727  1.00  0.00     0.023 A 
ATOM     76  C   UNL A   1      44.789  36.045  35.012  1.00  0.00     0.012 A 
ATOM     77  C   UNL A   1      44.010  37.645  33.359  1.00  0.00     0.148 A 
ATOM     78  C   UNL A   1      45.001  37.080  35.923  1.00  0.00     0.002 A 
ATOM     79  C   UNL A   1      44.271  38.676  34.254  1.00  0.00     0.091 A 
ATOM     80  F   UNL A   1      43.503  37.879  32.141  1.00  0.00    -0.205 F 
ATOM     81  C   UNL A   1      44.752  38.396  35.542  1.00  0.00     0.022 A 
BRANCH  79  82
ATOM     82  S   UNL A   1      44.095  40.405  33.800  1.00  0.00     0.127 S 
ATOM     83  O   UNL A   1      44.519  41.082  35.022  1.00  0.00    -0.237 OA
ATOM     84  O   UNL A   1      45.024  40.524  32.675  1.00  0.00    -0.237 OA
ATOM     85  O   UNL A   1      42.694  40.570  33.434  1.00  0.00    -0.744 OA
ENDBRANCH  79  82
ENDBRANCH  51  75
BRANCH  63  86
ATOM     86  C   UNL A   1      48.373  32.941  29.189  1.00  0.00     0.023 A 
ATOM     87  C   UNL A   1      49.350  32.204  29.888  1.00  0.00     0.012 A 
ATOM     88  C   UNL A   1      48.762  33.745  28.099  1.00  0.00     0.148 A 
ATOM     89  C   UNL A   1      50.694  32.288  29.528  1.00  0.00     0.002 A 
ATOM     90  C   UNL A   1      50.098  33.789  27.718  1.00  0.00     0.091 A 
ATOM     91  F   UNL A   1      47.823  34.455  27.459  1.00  0.00    -0.205 F 
ATOM     92  C   UNL A   1      51.067  33.069  28.436  1.00  0.00     0.022 A 
BRANCH  90  93
ATOM     93  S   UNL A   1      50.641  34.698  26.267  1.00  0.00     0.127 S 
ATOM     94  O   UNL A   1      52.041  34.291  26.164  1.00  0.00    -0.237 OA
ATOM     95  O   UNL A   1      49.773  34.166  25.214  1.00  0.00    -0.237 OA
ATOM     96  O   UNL A   1      50.412  36.103  26.576  1.00  0.00    -0.744 OA
ENDBRANCH  90  93
ENDBRANCH  63  86
ENDBRANCH  37  38
ENDBRANCH  30  32
ENDBRANCH  29  30
ENDBRANCH  28  29
ENDBRANCH  27  28
ENDBRANCH  26  27
ENDBRANCH  25  26
ENDBRANCH  24  25
ENDBRANCH  23  24
ENDBRANCH  22  23
ENDBRANCH   1  22
TORSDOF 29
ENDMDL
MODEL 3
REMARK VINA RESULT:      -7.2      3.994      8.904
REMARK SMILES C[C@@H](CCCO)Nc1ccc(C(=O)OCCOCCOCCOCCOC(=O)c2ccc(-c3c4nc(c(-c5cccc(S(=O)(=O)[O-])c5F)c5ccc([nH]5)c(-c5cccc(S(=O)(=O)[O-])c5F)c5nc(c(-c6cccc(S(=O)(=O)[O-])c6F)c6ccc3[nH]6)C=C5)C=C4)cc2)o1
REMARK SMILES IDX 18 1 17 2 16 3 15 4 14 5 12 6 13 7 11 8 8 9 9 10 92 11 10 12
REMARK SMILES IDX 7 13 2 15 1 16 3 17 4 18 5 19 6 20 19 22 20 23 21 24 22 25
REMARK SMILES IDX 23 26 24 27 25 28 26 29 27 30 28 31 29 32 30 33 91 34 31 35
REMARK SMILES IDX 90 36 32 37 33 38 34 39 84 40 35 41 89 42 83 43 85 44 36 45
REMARK SMILES IDX 88 46 82 47 81 48 37 50 69 51 49 52 68 53 50 54 53 55 67 56
REMARK SMILES IDX 86 57 51 58 52 59 66 61 87 62 54 63 38 64 39 65 47 66 40 67
REMARK SMILES IDX 42 68 48 69 41 70 43 71 44 72 45 73 46 74 70 75 71 76 79 77
REMARK SMILES IDX 72 78 74 79 80 80 73 81 75 82 76 83 77 84 78 85 55 86 56 87
REMARK SMILES IDX 64 88 57 89 59 90 65 91 58 92 60 93 61 94 62 95 63 96
REMARK H PARENT 7 14 6 21 85 49 53 60
REMARK Flexibility Score: inf
ROOT
ATOM      1  C   UNL A   1      39.506  22.540  26.787  1.00  0.00     0.188 C 
ENDROOT
BRANCH   1   2
ATOM      2  O   UNL A   1      38.293  22.792  26.081  1.00  0.00    -0.376 OA
BRANCH   2   3
ATOM      3  C   UNL A   1      37.812  21.917  25.075  1.00  0.00     0.202 C 
BRANCH   3   4
ATOM      4  C   UNL A   1      36.462  21.213  25.282  1.00  0.00     0.261 C 
BRANCH   4   5
ATOM      5  O   UNL A   1      35.395  21.685  24.455  1.00  0.00    -0.457 OA
BRANCH   5   6
ATOM      6  C   UNL A   1      34.638  22.681  24.990  1.00  0.00     0.374 C 
ATOM      7  O   UNL A   1      34.600  22.976  26.180  1.00  0.00    -0.242 OA
BRANCH   6   8
ATOM      8  C   UNL A   1      33.985  23.405  23.928  1.00  0.00     0.214 A 
ATOM      9  C   UNL A   1      32.899  25.132  23.114  1.00  0.00     0.194 A 
ATOM     10  C   UNL A   1      33.137  24.301  22.046  1.00  0.00     0.070 A 
ATOM     11  O   UNL A   1      33.410  24.605  24.249  1.00  0.00    -0.434 OA
ATOM     12  C   UNL A   1      33.866  23.199  22.563  1.00  0.00     0.060 A 
BRANCH   9  13
ATOM     13  N   UNL A   1      32.269  26.308  23.276  1.00  0.00    -0.354 N 
ATOM     14  H   UNL A   1      32.770  27.109  23.554  1.00  0.00     0.163 HD
BRANCH  13  15
ATOM     15  C   UNL A   1      30.832  26.382  23.032  1.00  0.00     0.079 C 
ATOM     16  C   UNL A   1      30.095  25.876  24.274  1.00  0.00     0.031 C 
BRANCH  15  17
ATOM     17  C   UNL A   1      30.405  27.794  22.608  1.00  0.00     0.027 C 
BRANCH  17  18
ATOM     18  C   UNL A   1      30.122  28.811  23.720  1.00  0.00     0.030 C 
BRANCH  18  19
ATOM     19  C   UNL A   1      31.336  29.310  24.493  1.00  0.00     0.156 C 
BRANCH  19  20
ATOM     20  O   UNL A   1      31.415  28.703  25.772  1.00  0.00    -0.396 OA
ATOM     21  H   UNL A   1      32.252  28.218  25.848  1.00  0.00     0.210 HD
ENDBRANCH  19  20
ENDBRANCH  18  19
ENDBRANCH  17  18
ENDBRANCH  15  17
ENDBRANCH  13  15
ENDBRANCH   9  13
ENDBRANCH   6   8
ENDBRANCH   5   6
ENDBRANCH   4   5
ENDBRANCH   3   4
ENDBRANCH   2   3
ENDBRANCH   1   2
BRANCH   1  22
ATOM     22  C   UNL A   1      40.819  22.101  26.107  1.00  0.00     0.188 C 
BRANCH  22  23
ATOM     23  O   UNL A   1      41.105  20.718  26.200  1.00  0.00    -0.377 OA
BRANCH  23  24
ATOM     24  C   UNL A   1      42.456  20.357  25.938  1.00  0.00     0.188 C 
BRANCH  24  25
ATOM     25  C   UNL A   1      43.441  21.534  25.897  1.00  0.00     0.188 C 
BRANCH  25  26
ATOM     26  O   UNL A   1      43.809  21.891  24.562  1.00  0.00    -0.376 OA
BRANCH  26  27
ATOM     27  C   UNL A   1      45.212  21.950  24.307  1.00  0.00     0.202 C 
BRANCH  27  28
ATOM     28  C   UNL A   1      45.943  23.036  25.110  1.00  0.00     0.261 C 
BRANCH  28  29
ATOM     29  O   UNL A   1      45.365  24.349  25.010  1.00  0.00    -0.460 OA
BRANCH  29  30
ATOM     30  C   UNL A   1      46.220  25.394  24.993  1.00  0.00     0.338 C 
ATOM     31  O   UNL A   1      47.170  25.550  24.247  1.00  0.00    -0.246 OA
BRANCH  30  32
ATOM     32  C   UNL A   1      45.708  26.429  25.914  1.00  0.00     0.060 A 
ATOM     33  C   UNL A   1      46.625  27.114  26.718  1.00  0.00     0.016 A 
ATOM     34  C   UNL A   1      44.339  26.702  26.003  1.00  0.00     0.016 A 
ATOM     35  C   UNL A   1      46.169  28.035  27.661  1.00  0.00     0.010 A 
ATOM     36  C   UNL A   1      43.884  27.618  26.955  1.00  0.00     0.010 A 
ATOM     37  C   UNL A   1      44.794  28.255  27.815  1.00  0.00    -0.014 A 
BRANCH  37  38
ATOM     38  C   UNL A   1      44.299  29.000  28.997  1.00  0.00     0.031 A 
ATOM     39  C   UNL A   1      44.083  30.484  28.869  1.00  0.00     0.074 A 
ATOM     40  C   UNL A   1      44.049  28.375  30.160  1.00  0.00     0.049 A 
ATOM     41  N   UNL A   1      43.624  31.332  29.751  1.00  0.00    -0.248 NA
ATOM     42  C   UNL A   1      44.432  31.091  27.573  1.00  0.00     0.031 C 
ATOM     43  C   UNL A   1      44.239  26.948  30.414  1.00  0.00     0.029 A 
ATOM     44  N   UNL A   1      43.597  28.874  31.356  1.00  0.00    -0.354 N 
ATOM     45  C   UNL A   1      43.638  32.573  29.124  1.00  0.00     0.074 A 
ATOM     46  C   UNL A   1      44.172  32.371  27.795  1.00  0.00     0.031 C 
ATOM     47  C   UNL A   1      43.927  26.690  31.696  1.00  0.00     0.029 A 
ATOM     48  C   UNL A   1      43.520  27.932  32.353  1.00  0.00     0.049 A 
ATOM     49  H   UNL A   1      43.351  29.819  31.487  1.00  0.00     0.167 HD
ATOM     50  C   UNL A   1      43.219  33.768  29.598  1.00  0.00     0.034 A 
ATOM     51  C   UNL A   1      43.161  28.062  33.646  1.00  0.00     0.034 A 
ATOM     52  C   UNL A   1      42.680  33.969  30.915  1.00  0.00     0.049 A 
ATOM     53  C   UNL A   1      42.709  29.407  34.155  1.00  0.00     0.074 A 
ATOM     54  C   UNL A   1      42.194  35.135  31.478  1.00  0.00     0.029 A 
ATOM     55  N   UNL A   1      42.564  32.980  31.879  1.00  0.00    -0.354 N 
ATOM     56  N   UNL A   1      42.587  30.539  33.504  1.00  0.00    -0.248 NA
ATOM     57  C   UNL A   1      42.307  29.484  35.568  1.00  0.00     0.031 C 
ATOM     58  C   UNL A   1      41.793  34.852  32.788  1.00  0.00     0.029 A 
ATOM     59  C   UNL A   1      42.019  33.508  33.035  1.00  0.00     0.049 A 
ATOM     60  H   UNL A   1      42.830  32.039  31.758  1.00  0.00     0.167 HD
ATOM     61  C   UNL A   1      42.058  31.449  34.414  1.00  0.00     0.074 A 
ATOM     62  C   UNL A   1      41.866  30.732  35.658  1.00  0.00     0.031 C 
ATOM     63  C   UNL A   1      41.773  32.764  34.244  1.00  0.00     0.034 A 
BRANCH  50  64
ATOM     64  C   UNL A   1      43.284  34.944  28.663  1.00  0.00     0.023 A 
ATOM     65  C   UNL A   1      42.105  35.380  28.026  1.00  0.00     0.012 A 
ATOM     66  C   UNL A   1      44.489  35.637  28.442  1.00  0.00     0.148 A 
ATOM     67  C   UNL A   1      42.128  36.474  27.162  1.00  0.00     0.002 A 
ATOM     68  C   UNL A   1      44.497  36.749  27.608  1.00  0.00     0.091 A 
ATOM     69  F   UNL A   1      45.605  35.187  29.034  1.00  0.00    -0.205 F 
ATOM     70  C   UNL A   1      43.321  37.163  26.961  1.00  0.00     0.022 A 
BRANCH  68  71
ATOM     71  S   UNL A   1      45.971  37.738  27.336  1.00  0.00     0.127 S 
ATOM     72  O   UNL A   1      46.497  37.863  28.694  1.00  0.00    -0.237 OA
ATOM     73  O   UNL A   1      46.763  36.880  26.453  1.00  0.00    -0.237 OA
ATOM     74  O   UNL A   1      45.513  38.976  26.721  1.00  0.00    -0.744 OA
ENDBRANCH  68  71
ENDBRANCH  50  64
BRANCH  51  75
ATOM     75  C   UNL A   1      43.148  26.869  34.539  1.00  0.00     0.023 A 
ATOM     76  C   UNL A   1      41.936  26.186  34.763  1.00  0.00     0.012 A 
ATOM     77  C   UNL A   1      44.323  26.402  35.159  1.00  0.00     0.148 A 
ATOM     78  C   UNL A   1      41.889  25.079  35.610  1.00  0.00     0.002 A 
ATOM     79  C   UNL A   1      44.278  25.268  35.963  1.00  0.00     0.091 A 
ATOM     80  F   UNL A   1      45.462  27.077  34.954  1.00  0.00    -0.205 F 
ATOM     81  C   UNL A   1      43.060  24.613  36.201  1.00  0.00     0.022 A 
BRANCH  79  82
ATOM     82  S   UNL A   1      45.760  24.531  36.663  1.00  0.00     0.127 S 
ATOM     83  O   UNL A   1      46.579  24.316  35.473  1.00  0.00    -0.237 OA
ATOM     84  O   UNL A   1      46.236  25.588  37.556  1.00  0.00    -0.237 OA
ATOM     85  O   UNL A   1      45.307  23.329  37.351  1.00  0.00    -0.744 OA
ENDBRANCH  79  82
ENDBRANCH  51  75
BRANCH  63  86
ATOM     86  C   UNL A   1      41.194  33.513  35.414  1.00  0.00     0.023 A 
ATOM     87  C   UNL A   1      39.798  33.533  35.606  1.00  0.00     0.012 A 
ATOM     88  C   UNL A   1      42.031  34.128  36.367  1.00  0.00     0.148 A 
ATOM     89  C   UNL A   1      39.244  34.178  36.711  1.00  0.00     0.002 A 
ATOM     90  C   UNL A   1      41.474  34.731  37.488  1.00  0.00     0.091 A 
ATOM     91  F   UNL A   1      43.356  34.118  36.158  1.00  0.00    -0.205 F 
ATOM     92  C   UNL A   1      40.080  34.765  37.658  1.00  0.00     0.022 A 
BRANCH  90  93
ATOM     93  S   UNL A   1      42.490  35.425  38.797  1.00  0.00     0.127 S 
ATOM     94  O   UNL A   1      41.502  36.153  39.590  1.00  0.00    -0.237 OA
ATOM     95  O   UNL A   1      43.034  34.230  39.446  1.00  0.00    -0.237 OA
ATOM     96  O   UNL A   1      43.489  36.246  38.123  1.00  0.00    -0.744 OA
ENDBRANCH  90  93
ENDBRANCH  63  86
ENDBRANCH  37  38
ENDBRANCH  30  32
ENDBRANCH  29  30
ENDBRANCH  28  29
ENDBRANCH  27  28
ENDBRANCH  26  27
ENDBRANCH  25  26
ENDBRANCH  24  25
ENDBRANCH  23  24
ENDBRANCH  22  23
ENDBRANCH   1  22
TORSDOF 29
ENDMDL
