MODEL 1
REMARK VINA RESULT:      -9.5      0.000      0.000
REMARK SMILES Cc1ccc(-c2cc(OCC(=O)OCCOCCOCCOCCOC(=O)c3ccc(-c4c5nc(c(-c6cccc(S(=O)(=O)[O-])c6F)c6ccc([nH]6)c(-c6cccc(S(=O)(=O)[O-])c6F)c6nc(c(-c7cccc(S(=O)(=O)[O-])c7F)c7ccc4[nH]7)C=C6)C=C5)cc3)nc(NCc3ccc4c(c3)OCO4)n2)cc1
REMARK SMILES IDX 18 1 17 2 16 3 15 4 14 5 13 6 11 7 12 8 10 9 9 10 8 11 6 12
REMARK SMILES IDX 7 13 104 14 92 15 91 16 5 17 1 18 2 19 3 20 106 21 4 22
REMARK SMILES IDX 105 23 93 24 94 26 95 27 96 28 100 29 97 30 99 31 98 32
REMARK SMILES IDX 101 33 103 34 102 35 19 36 20 37 21 38 22 39 23 40 24 41
REMARK SMILES IDX 25 42 26 43 27 44 28 45 29 46 90 47 30 48 89 49 31 50 32 51
REMARK SMILES IDX 33 52 83 53 34 54 88 55 82 56 84 57 35 58 87 59 81 60 80 61
REMARK SMILES IDX 36 63 68 64 48 65 67 66 49 67 52 68 66 69 85 70 50 71 51 72
REMARK SMILES IDX 65 74 86 75 53 76 37 77 38 78 46 79 39 80 41 81 47 82 40 83
REMARK SMILES IDX 42 84 43 85 44 86 45 87 69 88 70 89 78 90 71 91 73 92 79 93
REMARK SMILES IDX 72 94 74 95 75 96 76 97 77 98 54 99 55 100 63 101 56 102
REMARK SMILES IDX 58 103 64 104 57 105 59 106 60 107 61 108 62 109
REMARK H PARENT 93 25 84 62 52 73
REMARK Flexibility Score: inf
ROOT
ATOM      1  C   UNL A   1      36.025  23.639  24.232  1.00  0.00     0.188 C 
ENDROOT
BRANCH   1   2
ATOM      2  C   UNL A   1      34.922  23.697  23.189  1.00  0.00     0.188 C 
BRANCH   2   3
ATOM      3  O   UNL A   1      34.547  25.009  22.791  1.00  0.00    -0.376 OA
BRANCH   3   4
ATOM      4  C   UNL A   1      33.171  25.310  22.644  1.00  0.00     0.202 C 
BRANCH   4   5
ATOM      5  C   UNL A   1      32.751  25.971  21.326  1.00  0.00     0.261 C 
BRANCH   5   6
ATOM      6  O   UNL A   1      31.403  26.465  21.328  1.00  0.00    -0.461 OA
BRANCH   6   7
ATOM      7  C   UNL A   1      31.141  27.471  22.201  1.00  0.00     0.344 C 
ATOM      8  O   UNL A   1      31.928  28.349  22.526  1.00  0.00    -0.248 OA
BRANCH   7   9
ATOM      9  C   UNL A   1      29.721  27.321  22.780  1.00  0.00     0.353 C 
BRANCH   9  10
ATOM     10  O   UNL A   1      29.238  26.473  23.802  1.00  0.00    -0.466 OA
BRANCH  10  11
ATOM     11  C   UNL A   1      30.062  25.772  24.628  1.00  0.00     0.219 A 
ATOM     12  C   UNL A   1      31.336  23.963  25.384  1.00  0.00     0.080 A 
ATOM     13  C   UNL A   1      30.429  24.465  24.464  1.00  0.00     0.097 A 
ATOM     14  N   UNL A   1      31.760  24.680  26.450  1.00  0.00    -0.213 NA
ATOM     15  C   UNL A   1      31.399  25.965  26.494  1.00  0.00     0.226 A 
ATOM     16  N   UNL A   1      30.532  26.527  25.637  1.00  0.00    -0.177 NA
BRANCH  12  17
ATOM     17  C   UNL A   1      32.075  22.715  25.108  1.00  0.00     0.000 A 
ATOM     18  C   UNL A   1      33.986  18.825  24.798  1.00  0.00     0.044 C 
ATOM     19  C   UNL A   1      33.355  20.183  24.869  1.00  0.00    -0.051 A 
ATOM     20  C   UNL A   1      32.570  20.699  23.827  1.00  0.00     0.004 A 
ATOM     21  C   UNL A   1      33.563  20.969  25.994  1.00  0.00     0.004 A 
ATOM     22  C   UNL A   1      31.921  21.945  23.952  1.00  0.00     0.010 A 
ATOM     23  C   UNL A   1      32.941  22.211  26.092  1.00  0.00     0.010 A 
ENDBRANCH  12  17
BRANCH  15  24
ATOM     24  N   UNL A   1      31.966  26.841  27.378  1.00  0.00    -0.350 N 
ATOM     25  H   UNL A   1      32.686  26.502  27.958  1.00  0.00     0.164 HD
BRANCH  24  26
ATOM     26  C   UNL A   1      31.587  28.221  27.526  1.00  0.00     0.152 C 
BRANCH  26  27
ATOM     27  C   UNL A   1      32.785  29.123  27.299  1.00  0.00    -0.025 A 
ATOM     28  C   UNL A   1      34.083  28.563  27.225  1.00  0.00     0.009 A 
ATOM     29  C   UNL A   1      32.629  30.520  27.285  1.00  0.00     0.056 A 
ATOM     30  C   UNL A   1      35.218  29.374  27.320  1.00  0.00     0.051 A 
ATOM     31  C   UNL A   1      33.754  31.279  27.462  1.00  0.00     0.166 A 
ATOM     32  C   UNL A   1      35.011  30.721  27.516  1.00  0.00     0.165 A 
ATOM     33  O   UNL A   1      33.765  32.608  27.763  1.00  0.00    -0.454 OA
ATOM     34  O   UNL A   1      35.950  31.637  27.887  1.00  0.00    -0.454 OA
ATOM     35  C   UNL A   1      35.071  32.682  28.362  1.00  0.00     0.468 C 
ENDBRANCH  26  27
ENDBRANCH  24  26
ENDBRANCH  15  24
ENDBRANCH  10  11
ENDBRANCH   9  10
ENDBRANCH   7   9
ENDBRANCH   6   7
ENDBRANCH   5   6
ENDBRANCH   4   5
ENDBRANCH   3   4
ENDBRANCH   2   3
ENDBRANCH   1   2
BRANCH   1  36
ATOM     36  O   UNL A   1      36.425  22.292  24.474  1.00  0.00    -0.377 OA
BRANCH  36  37
ATOM     37  C   UNL A   1      37.172  22.226  25.682  1.00  0.00     0.188 C 
BRANCH  37  38
ATOM     38  C   UNL A   1      38.501  21.501  25.513  1.00  0.00     0.188 C 
BRANCH  38  39
ATOM     39  O   UNL A   1      39.516  21.650  26.489  1.00  0.00    -0.376 OA
BRANCH  39  40
ATOM     40  C   UNL A   1      40.822  21.201  26.178  1.00  0.00     0.202 C 
BRANCH  40  41
ATOM     41  C   UNL A   1      41.895  22.222  25.764  1.00  0.00     0.261 C 
BRANCH  41  42
ATOM     42  O   UNL A   1      43.165  21.986  26.391  1.00  0.00    -0.460 OA
BRANCH  42  43
ATOM     43  C   UNL A   1      43.914  23.128  26.538  1.00  0.00     0.338 C 
ATOM     44  O   UNL A   1      44.238  23.849  25.632  1.00  0.00    -0.246 OA
BRANCH  43  45
ATOM     45  C   UNL A   1      44.387  23.216  27.963  1.00  0.00     0.060 A 
ATOM     46  C   UNL A   1      43.613  22.642  28.968  1.00  0.00     0.016 A 
ATOM     47  C   UNL A   1      45.427  24.063  28.326  1.00  0.00     0.016 A 
ATOM     48  C   UNL A   1      43.694  23.123  30.289  1.00  0.00     0.010 A 
ATOM     49  C   UNL A   1      45.459  24.593  29.620  1.00  0.00     0.010 A 
ATOM     50  C   UNL A   1      44.528  24.198  30.599  1.00  0.00    -0.014 A 
BRANCH  50  51
ATOM     51  C   UNL A   1      44.333  25.070  31.792  1.00  0.00     0.031 A 
ATOM     52  C   UNL A   1      43.800  26.480  31.689  1.00  0.00     0.074 A 
ATOM     53  C   UNL A   1      44.336  24.513  33.040  1.00  0.00     0.049 A 
ATOM     54  N   UNL A   1      43.685  27.276  32.709  1.00  0.00    -0.248 NA
ATOM     55  C   UNL A   1      43.367  27.138  30.457  1.00  0.00     0.031 C 
ATOM     56  C   UNL A   1      43.620  25.061  34.192  1.00  0.00     0.029 A 
ATOM     57  N   UNL A   1      44.900  23.345  33.577  1.00  0.00    -0.354 N 
ATOM     58  C   UNL A   1      42.854  28.317  32.368  1.00  0.00     0.074 A 
ATOM     59  C   UNL A   1      42.816  28.269  30.926  1.00  0.00     0.031 C 
ATOM     60  C   UNL A   1      43.742  24.278  35.257  1.00  0.00     0.029 A 
ATOM     61  C   UNL A   1      44.822  23.383  34.981  1.00  0.00     0.049 A 
ATOM     62  H   UNL A   1      45.292  22.612  33.050  1.00  0.00     0.167 HD
ATOM     63  C   UNL A   1      42.203  29.028  33.339  1.00  0.00     0.034 A 
ATOM     64  C   UNL A   1      45.827  23.224  35.883  1.00  0.00     0.034 A 
ATOM     65  C   UNL A   1      42.644  28.703  34.722  1.00  0.00     0.049 A 
ATOM     66  C   UNL A   1      46.165  24.532  36.592  1.00  0.00     0.074 A 
ATOM     67  C   UNL A   1      42.017  28.507  35.943  1.00  0.00     0.029 A 
ATOM     68  N   UNL A   1      44.002  28.510  34.985  1.00  0.00    -0.354 N 
ATOM     69  N   UNL A   1      45.350  25.554  36.710  1.00  0.00    -0.248 NA
ATOM     70  C   UNL A   1      47.478  24.834  37.154  1.00  0.00     0.031 C 
ATOM     71  C   UNL A   1      42.991  28.066  36.893  1.00  0.00     0.029 A 
ATOM     72  C   UNL A   1      44.234  28.089  36.284  1.00  0.00     0.049 A 
ATOM     73  H   UNL A   1      44.714  28.656  34.322  1.00  0.00     0.167 HD
ATOM     74  C   UNL A   1      46.070  26.681  37.015  1.00  0.00     0.074 A 
ATOM     75  C   UNL A   1      47.348  26.141  37.450  1.00  0.00     0.031 C 
ATOM     76  C   UNL A   1      45.613  27.954  36.759  1.00  0.00     0.034 A 
BRANCH  63  77
ATOM     77  C   UNL A   1      41.061  30.017  33.067  1.00  0.00     0.023 A 
ATOM     78  C   UNL A   1      41.238  31.361  33.473  1.00  0.00     0.012 A 
ATOM     79  C   UNL A   1      39.798  29.711  32.496  1.00  0.00     0.148 A 
ATOM     80  C   UNL A   1      40.238  32.334  33.329  1.00  0.00     0.002 A 
ATOM     81  C   UNL A   1      38.842  30.708  32.253  1.00  0.00     0.091 A 
ATOM     82  F   UNL A   1      39.464  28.436  32.268  1.00  0.00    -0.205 F 
ATOM     83  C   UNL A   1      39.049  32.017  32.693  1.00  0.00     0.022 A 
BRANCH  81  84
ATOM     84  S   UNL A   1      37.332  30.401  31.313  1.00  0.00     0.127 S 
ATOM     85  O   UNL A   1      36.690  31.714  31.319  1.00  0.00    -0.237 OA
ATOM     86  O   UNL A   1      37.854  29.985  30.010  1.00  0.00    -0.237 OA
ATOM     87  O   UNL A   1      36.617  29.355  32.035  1.00  0.00    -0.744 OA
ENDBRANCH  81  84
ENDBRANCH  63  77
BRANCH  64  88
ATOM     88  C   UNL A   1      46.623  21.996  35.664  1.00  0.00     0.023 A 
ATOM     89  C   UNL A   1      47.656  22.132  34.703  1.00  0.00     0.012 A 
ATOM     90  C   UNL A   1      46.775  21.070  36.703  1.00  0.00     0.148 A 
ATOM     91  C   UNL A   1      48.878  21.479  34.865  1.00  0.00     0.002 A 
ATOM     92  C   UNL A   1      48.025  20.491  36.904  1.00  0.00     0.091 A 
ATOM     93  F   UNL A   1      45.777  20.950  37.589  1.00  0.00    -0.205 F 
ATOM     94  C   UNL A   1      49.077  20.698  35.995  1.00  0.00     0.022 A 
BRANCH  92  95
ATOM     95  S   UNL A   1      48.495  19.803  38.494  1.00  0.00     0.127 S 
ATOM     96  O   UNL A   1      47.498  18.755  38.686  1.00  0.00    -0.237 OA
ATOM     97  O   UNL A   1      49.847  19.334  38.195  1.00  0.00    -0.237 OA
ATOM     98  O   UNL A   1      48.433  20.917  39.428  1.00  0.00    -0.744 OA
ENDBRANCH  92  95
ENDBRANCH  64  88
BRANCH  76  99
ATOM     99  C   UNL A   1      46.450  29.234  36.835  1.00  0.00     0.023 A 
ATOM    100  C   UNL A   1      47.412  29.573  35.866  1.00  0.00     0.012 A 
ATOM    101  C   UNL A   1      46.180  30.228  37.820  1.00  0.00     0.148 A 
ATOM    102  C   UNL A   1      48.110  30.789  35.897  1.00  0.00     0.002 A 
ATOM    103  C   UNL A   1      46.792  31.479  37.779  1.00  0.00     0.091 A 
ATOM    104  F   UNL A   1      45.338  29.962  38.830  1.00  0.00    -0.205 F 
ATOM    105  C   UNL A   1      47.782  31.754  36.837  1.00  0.00     0.022 A 
BRANCH 103 106
ATOM    106  S   UNL A   1      46.218  32.826  38.828  1.00  0.00     0.127 S 
ATOM    107  O   UNL A   1      46.812  33.993  38.179  1.00  0.00    -0.237 OA
ATOM    108  O   UNL A   1      44.762  32.732  38.696  1.00  0.00    -0.237 OA
ATOM    109  O   UNL A   1      46.716  32.501  40.158  1.00  0.00    -0.744 OA
ENDBRANCH 103 106
ENDBRANCH  76  99
ENDBRANCH  50  51
ENDBRANCH  43  45
ENDBRANCH  42  43
ENDBRANCH  41  42
ENDBRANCH  40  41
ENDBRANCH  39  40
ENDBRANCH  38  39
ENDBRANCH  37  38
ENDBRANCH  36  37
ENDBRANCH   1  36
TORSDOF 29
ENDMDL
MODEL 2
REMARK VINA RESULT:      -9.4      5.072      6.404
REMARK SMILES Cc1ccc(-c2cc(OCC(=O)OCCOCCOCCOCCOC(=O)c3ccc(-c4c5nc(c(-c6cccc(S(=O)(=O)[O-])c6F)c6ccc([nH]6)c(-c6cccc(S(=O)(=O)[O-])c6F)c6nc(c(-c7cccc(S(=O)(=O)[O-])c7F)c7ccc4[nH]7)C=C6)C=C5)cc3)nc(NCc3ccc4c(c3)OCO4)n2)cc1
REMARK SMILES IDX 18 1 17 2 16 3 15 4 14 5 13 6 11 7 12 8 10 9 9 10 8 11 6 12
REMARK SMILES IDX 7 13 104 14 92 15 91 16 5 17 1 18 2 19 3 20 106 21 4 22
REMARK SMILES IDX 105 23 93 24 94 26 95 27 96 28 100 29 97 30 99 31 98 32
REMARK SMILES IDX 101 33 103 34 102 35 19 36 20 37 21 38 22 39 23 40 24 41
REMARK SMILES IDX 25 42 26 43 27 44 28 45 29 46 90 47 30 48 89 49 31 50 32 51
REMARK SMILES IDX 33 52 83 53 34 54 88 55 82 56 84 57 35 58 87 59 81 60 80 61
REMARK SMILES IDX 36 63 68 64 48 65 67 66 49 67 52 68 66 69 85 70 50 71 51 72
REMARK SMILES IDX 65 74 86 75 53 76 37 77 38 78 46 79 39 80 41 81 47 82 40 83
REMARK SMILES IDX 42 84 43 85 44 86 45 87 69 88 70 89 78 90 71 91 73 92 79 93
REMARK SMILES IDX 72 94 74 95 75 96 76 97 77 98 54 99 55 100 63 101 56 102
REMARK SMILES IDX 58 103 64 104 57 105 59 106 60 107 61 108 62 109
REMARK H PARENT 93 25 84 62 52 73
REMARK Flexibility Score: inf
ROOT
ATOM      1  C   UNL A   1      34.497  22.354  27.120  1.00  0.00     0.188 C 
ENDROOT
BRANCH   1   2
ATOM      2  C   UNL A   1      33.927  23.419  26.199  1.00  0.00     0.188 C 
BRANCH   2   3
ATOM      3  O   UNL A   1      32.738  24.040  26.669  1.00  0.00    -0.376 OA
BRANCH   3   4
ATOM      4  C   UNL A   1      31.734  23.233  27.258  1.00  0.00     0.202 C 
BRANCH   4   5
ATOM      5  C   UNL A   1      30.348  23.277  26.604  1.00  0.00     0.261 C 
BRANCH   5   6
ATOM      6  O   UNL A   1      29.525  24.362  27.058  1.00  0.00    -0.461 OA
BRANCH   6   7
ATOM      7  C   UNL A   1      29.812  25.582  26.536  1.00  0.00     0.344 C 
ATOM      8  O   UNL A   1      30.633  26.368  26.986  1.00  0.00    -0.248 OA
BRANCH   7   9
ATOM      9  C   UNL A   1      28.911  25.870  25.319  1.00  0.00     0.353 C 
BRANCH   9  10
ATOM     10  O   UNL A   1      29.138  25.639  23.943  1.00  0.00    -0.466 OA
BRANCH  10  11
ATOM     11  C   UNL A   1      30.277  25.063  23.472  1.00  0.00     0.219 A 
ATOM     12  C   UNL A   1      31.812  23.357  23.027  1.00  0.00     0.080 A 
ATOM     13  C   UNL A   1      30.642  23.758  23.652  1.00  0.00     0.097 A 
ATOM     14  N   UNL A   1      32.613  24.221  22.362  1.00  0.00    -0.213 NA
ATOM     15  C   UNL A   1      32.145  25.460  22.184  1.00  0.00     0.226 A 
ATOM     16  N   UNL A   1      31.019  25.921  22.750  1.00  0.00    -0.177 NA
BRANCH  12  17
ATOM     17  C   UNL A   1      32.112  21.923  22.840  1.00  0.00     0.000 A 
ATOM     18  C   UNL A   1      32.598  17.606  22.743  1.00  0.00     0.044 C 
ATOM     19  C   UNL A   1      32.467  19.099  22.746  1.00  0.00    -0.051 A 
ATOM     20  C   UNL A   1      32.077  19.819  21.607  1.00  0.00     0.004 A 
ATOM     21  C   UNL A   1      32.757  19.803  23.908  1.00  0.00     0.004 A 
ATOM     22  C   UNL A   1      31.883  21.215  21.658  1.00  0.00     0.010 A 
ATOM     23  C   UNL A   1      32.591  21.185  23.935  1.00  0.00     0.010 A 
ENDBRANCH  12  17
BRANCH  15  24
ATOM     24  N   UNL A   1      32.745  26.338  21.324  1.00  0.00    -0.350 N 
ATOM     25  H   UNL A   1      32.349  26.441  20.428  1.00  0.00     0.164 HD
BRANCH  24  26
ATOM     26  C   UNL A   1      33.913  27.121  21.629  1.00  0.00     0.152 C 
BRANCH  26  27
ATOM     27  C   UNL A   1      33.855  27.616  23.061  1.00  0.00    -0.025 A 
ATOM     28  C   UNL A   1      34.182  26.737  24.122  1.00  0.00     0.009 A 
ATOM     29  C   UNL A   1      33.363  28.900  23.348  1.00  0.00     0.056 A 
ATOM     30  C   UNL A   1      33.853  27.059  25.443  1.00  0.00     0.051 A 
ATOM     31  C   UNL A   1      32.976  29.151  24.637  1.00  0.00     0.166 A 
ATOM     32  C   UNL A   1      33.180  28.242  25.650  1.00  0.00     0.165 A 
ATOM     33  O   UNL A   1      32.221  30.212  25.039  1.00  0.00    -0.454 OA
ATOM     34  O   UNL A   1      32.548  28.621  26.797  1.00  0.00    -0.454 OA
ATOM     35  C   UNL A   1      31.693  29.652  26.254  1.00  0.00     0.468 C 
ENDBRANCH  26  27
ENDBRANCH  24  26
ENDBRANCH  15  24
ENDBRANCH  10  11
ENDBRANCH   9  10
ENDBRANCH   7   9
ENDBRANCH   6   7
ENDBRANCH   5   6
ENDBRANCH   4   5
ENDBRANCH   3   4
ENDBRANCH   2   3
ENDBRANCH   1   2
BRANCH   1  36
ATOM     36  O   UNL A   1      35.322  21.445  26.396  1.00  0.00    -0.377 OA
BRANCH  36  37
ATOM     37  C   UNL A   1      35.803  22.075  25.215  1.00  0.00     0.188 C 
BRANCH  37  38
ATOM     38  C   UNL A   1      37.324  22.075  25.128  1.00  0.00     0.188 C 
BRANCH  38  39
ATOM     39  O   UNL A   1      38.066  23.118  25.734  1.00  0.00    -0.376 OA
BRANCH  39  40
ATOM     40  C   UNL A   1      39.102  22.773  26.634  1.00  0.00     0.202 C 
BRANCH  40  41
ATOM     41  C   UNL A   1      39.866  21.453  26.439  1.00  0.00     0.261 C 
BRANCH  41  42
ATOM     42  O   UNL A   1      41.026  21.596  25.604  1.00  0.00    -0.460 OA
BRANCH  42  43
ATOM     43  C   UNL A   1      42.136  20.966  26.111  1.00  0.00     0.338 C 
ATOM     44  O   UNL A   1      42.343  19.784  26.032  1.00  0.00    -0.246 OA
BRANCH  43  45
ATOM     45  C   UNL A   1      42.934  21.960  26.908  1.00  0.00     0.060 A 
ATOM     46  C   UNL A   1      42.634  22.146  28.255  1.00  0.00     0.016 A 
ATOM     47  C   UNL A   1      43.779  22.871  26.284  1.00  0.00     0.016 A 
ATOM     48  C   UNL A   1      42.939  23.364  28.890  1.00  0.00     0.010 A 
ATOM     49  C   UNL A   1      44.020  24.109  26.890  1.00  0.00     0.010 A 
ATOM     50  C   UNL A   1      43.520  24.410  28.171  1.00  0.00    -0.014 A 
BRANCH  50  51
ATOM     51  C   UNL A   1      43.434  25.838  28.586  1.00  0.00     0.031 A 
ATOM     52  C   UNL A   1      42.166  26.649  28.452  1.00  0.00     0.074 A 
ATOM     53  C   UNL A   1      44.408  26.366  29.387  1.00  0.00     0.049 A 
ATOM     54  N   UNL A   1      42.091  27.911  28.748  1.00  0.00    -0.248 NA
ATOM     55  C   UNL A   1      40.882  26.145  27.965  1.00  0.00     0.031 C 
ATOM     56  C   UNL A   1      44.203  27.477  30.316  1.00  0.00     0.029 A 
ATOM     57  N   UNL A   1      45.753  26.038  29.618  1.00  0.00    -0.354 N 
ATOM     58  C   UNL A   1      40.766  28.260  28.870  1.00  0.00     0.074 A 
ATOM     59  C   UNL A   1      40.064  27.178  28.222  1.00  0.00     0.031 C 
ATOM     60  C   UNL A   1      45.302  27.734  31.015  1.00  0.00     0.029 A 
ATOM     61  C   UNL A   1      46.375  27.070  30.344  1.00  0.00     0.049 A 
ATOM     62  H   UNL A   1      46.194  25.211  29.316  1.00  0.00     0.167 HD
ATOM     63  C   UNL A   1      40.406  29.360  29.600  1.00  0.00     0.034 A 
ATOM     64  C   UNL A   1      47.513  27.747  30.034  1.00  0.00     0.034 A 
ATOM     65  C   UNL A   1      41.555  30.199  30.033  1.00  0.00     0.049 A 
ATOM     66  C   UNL A   1      47.223  29.190  29.633  1.00  0.00     0.074 A 
ATOM     67  C   UNL A   1      41.914  30.869  31.193  1.00  0.00     0.029 A 
ATOM     68  N   UNL A   1      42.607  30.436  29.146  1.00  0.00    -0.354 N 
ATOM     69  N   UNL A   1      46.145  29.861  29.971  1.00  0.00    -0.248 NA
ATOM     70  C   UNL A   1      48.078  29.973  28.748  1.00  0.00     0.031 C 
ATOM     71  C   UNL A   1      43.238  31.386  31.034  1.00  0.00     0.029 A 
ATOM     72  C   UNL A   1      43.654  31.123  29.740  1.00  0.00     0.049 A 
ATOM     73  H   UNL A   1      42.606  30.148  28.205  1.00  0.00     0.167 HD
ATOM     74  C   UNL A   1      45.997  30.939  29.136  1.00  0.00     0.074 A 
ATOM     75  C   UNL A   1      47.310  31.056  28.522  1.00  0.00     0.031 C 
ATOM     76  C   UNL A   1      44.787  31.556  28.917  1.00  0.00     0.034 A 
BRANCH  63  77
ATOM     77  C   UNL A   1      38.966  29.682  30.022  1.00  0.00     0.023 A 
ATOM     78  C   UNL A   1      38.531  29.231  31.291  1.00  0.00     0.012 A 
ATOM     79  C   UNL A   1      37.986  30.345  29.239  1.00  0.00     0.148 A 
ATOM     80  C   UNL A   1      37.220  29.417  31.753  1.00  0.00     0.002 A 
ATOM     81  C   UNL A   1      36.708  30.626  29.745  1.00  0.00     0.091 A 
ATOM     82  F   UNL A   1      38.240  30.627  27.957  1.00  0.00    -0.205 F 
ATOM     83  C   UNL A   1      36.313  30.140  30.994  1.00  0.00     0.022 A 
BRANCH  81  84
ATOM     84  S   UNL A   1      35.524  31.673  28.875  1.00  0.00     0.127 S 
ATOM     85  O   UNL A   1      34.812  30.709  28.039  1.00  0.00    -0.237 OA
ATOM     86  O   UNL A   1      34.730  32.229  29.973  1.00  0.00    -0.237 OA
ATOM     87  O   UNL A   1      36.318  32.659  28.151  1.00  0.00    -0.744 OA
ENDBRANCH  81  84
ENDBRANCH  63  77
BRANCH  64  88
ATOM     88  C   UNL A   1      48.660  26.862  29.738  1.00  0.00     0.023 A 
ATOM     89  C   UNL A   1      48.832  26.568  28.361  1.00  0.00     0.012 A 
ATOM     90  C   UNL A   1      49.779  26.865  30.581  1.00  0.00     0.148 A 
ATOM     91  C   UNL A   1      50.107  26.441  27.809  1.00  0.00     0.002 A 
ATOM     92  C   UNL A   1      51.047  26.824  30.006  1.00  0.00     0.091 A 
ATOM     93  F   UNL A   1      49.585  27.130  31.879  1.00  0.00    -0.205 F 
ATOM     94  C   UNL A   1      51.214  26.619  28.626  1.00  0.00     0.022 A 
BRANCH  92  95
ATOM     95  S   UNL A   1      52.493  27.420  30.886  1.00  0.00     0.127 S 
ATOM     96  O   UNL A   1      53.550  27.257  29.894  1.00  0.00    -0.237 OA
ATOM     97  O   UNL A   1      52.094  28.800  31.154  1.00  0.00    -0.237 OA
ATOM     98  O   UNL A   1      52.597  26.578  32.069  1.00  0.00    -0.744 OA
ENDBRANCH  92  95
ENDBRANCH  64  88
BRANCH  76  99
ATOM     99  C   UNL A   1      44.496  32.587  27.822  1.00  0.00     0.023 A 
ATOM    100  C   UNL A   1      44.289  32.232  26.477  1.00  0.00     0.012 A 
ATOM    101  C   UNL A   1      44.265  33.955  28.149  1.00  0.00     0.148 A 
ATOM    102  C   UNL A   1      43.937  33.173  25.500  1.00  0.00     0.002 A 
ATOM    103  C   UNL A   1      43.802  34.862  27.198  1.00  0.00     0.091 A 
ATOM    104  F   UNL A   1      44.514  34.401  29.389  1.00  0.00    -0.205 F 
ATOM    105  C   UNL A   1      43.668  34.483  25.863  1.00  0.00     0.022 A 
BRANCH 103 106
ATOM    106  S   UNL A   1      43.216  36.495  27.682  1.00  0.00     0.127 S 
ATOM    107  O   UNL A   1      42.557  36.957  26.463  1.00  0.00    -0.237 OA
ATOM    108  O   UNL A   1      42.306  36.189  28.788  1.00  0.00    -0.237 OA
ATOM    109  O   UNL A   1      44.416  37.218  28.083  1.00  0.00    -0.744 OA
ENDBRANCH 103 106
ENDBRANCH  76  99
ENDBRANCH  50  51
ENDBRANCH  43  45
ENDBRANCH  42  43
ENDBRANCH  41  42
ENDBRANCH  40  41
ENDBRANCH  39  40
ENDBRANCH  38  39
ENDBRANCH  37  38
ENDBRANCH  36  37
ENDBRANCH   1  36
TORSDOF 29
ENDMDL
MODEL 3
REMARK VINA RESULT:      -9.4      4.196      7.633
REMARK SMILES Cc1ccc(-c2cc(OCC(=O)OCCOCCOCCOCCOC(=O)c3ccc(-c4c5nc(c(-c6cccc(S(=O)(=O)[O-])c6F)c6ccc([nH]6)c(-c6cccc(S(=O)(=O)[O-])c6F)c6nc(c(-c7cccc(S(=O)(=O)[O-])c7F)c7ccc4[nH]7)C=C6)C=C5)cc3)nc(NCc3ccc4c(c3)OCO4)n2)cc1
REMARK SMILES IDX 18 1 17 2 16 3 15 4 14 5 13 6 11 7 12 8 10 9 9 10 8 11 6 12
REMARK SMILES IDX 7 13 104 14 92 15 91 16 5 17 1 18 2 19 3 20 106 21 4 22
REMARK SMILES IDX 105 23 93 24 94 26 95 27 96 28 100 29 97 30 99 31 98 32
REMARK SMILES IDX 101 33 103 34 102 35 19 36 20 37 21 38 22 39 23 40 24 41
REMARK SMILES IDX 25 42 26 43 27 44 28 45 29 46 90 47 30 48 89 49 31 50 32 51
REMARK SMILES IDX 33 52 83 53 34 54 88 55 82 56 84 57 35 58 87 59 81 60 80 61
REMARK SMILES IDX 36 63 68 64 48 65 67 66 49 67 52 68 66 69 85 70 50 71 51 72
REMARK SMILES IDX 65 74 86 75 53 76 37 77 38 78 46 79 39 80 41 81 47 82 40 83
REMARK SMILES IDX 42 84 43 85 44 86 45 87 69 88 70 89 78 90 71 91 73 92 79 93
REMARK SMILES IDX 72 94 74 95 75 96 76 97 77 98 54 99 55 100 63 101 56 102
REMARK SMILES IDX 58 103 64 104 57 105 59 106 60 107 61 108 62 109
REMARK H PARENT 93 25 84 62 52 73
REMARK Flexibility Score: inf
ROOT
ATOM      1  C   UNL A   1      35.920  23.706  23.925  1.00  0.00     0.188 C 
ENDROOT
BRANCH   1   2
ATOM      2  C   UNL A   1      34.713  23.781  23.005  1.00  0.00     0.188 C 
BRANCH   2   3
ATOM      3  O   UNL A   1      34.108  25.064  22.918  1.00  0.00    -0.376 OA
BRANCH   3   4
ATOM      4  C   UNL A   1      32.944  25.217  22.126  1.00  0.00     0.202 C 
BRANCH   4   5
ATOM      5  C   UNL A   1      32.414  26.645  21.956  1.00  0.00     0.261 C 
BRANCH   5   6
ATOM      6  O   UNL A   1      30.983  26.729  21.874  1.00  0.00    -0.461 OA
BRANCH   6   7
ATOM      7  C   UNL A   1      30.425  27.856  22.384  1.00  0.00     0.344 C 
ATOM      8  O   UNL A   1      30.768  28.999  22.116  1.00  0.00    -0.248 OA
BRANCH   7   9
ATOM      9  C   UNL A   1      29.326  27.496  23.402  1.00  0.00     0.353 C 
BRANCH   9  10
ATOM     10  O   UNL A   1      29.280  26.464  24.366  1.00  0.00    -0.466 OA
BRANCH  10  11
ATOM     11  C   UNL A   1      30.399  25.914  24.910  1.00  0.00     0.219 A 
ATOM     12  C   UNL A   1      31.867  24.226  25.589  1.00  0.00     0.080 A 
ATOM     13  C   UNL A   1      30.628  24.576  25.078  1.00  0.00     0.097 A 
ATOM     14  N   UNL A   1      32.768  25.146  26.003  1.00  0.00    -0.213 NA
ATOM     15  C   UNL A   1      32.485  26.425  25.743  1.00  0.00     0.226 A 
ATOM     16  N   UNL A   1      31.312  26.844  25.243  1.00  0.00    -0.177 NA
BRANCH  12  17
ATOM     17  C   UNL A   1      32.365  22.840  25.473  1.00  0.00     0.000 A 
ATOM     18  C   UNL A   1      34.073  18.941  24.604  1.00  0.00     0.044 C 
ATOM     19  C   UNL A   1      33.460  20.266  24.941  1.00  0.00    -0.051 A 
ATOM     20  C   UNL A   1      33.765  20.953  26.126  1.00  0.00     0.004 A 
ATOM     21  C   UNL A   1      32.546  20.833  24.063  1.00  0.00     0.004 A 
ATOM     22  C   UNL A   1      33.237  22.236  26.381  1.00  0.00     0.010 A 
ATOM     23  C   UNL A   1      32.008  22.087  24.343  1.00  0.00     0.010 A 
ENDBRANCH  12  17
BRANCH  15  24
ATOM     24  N   UNL A   1      33.422  27.412  25.886  1.00  0.00    -0.350 N 
ATOM     25  H   UNL A   1      34.341  27.140  26.110  1.00  0.00     0.164 HD
BRANCH  24  26
ATOM     26  C   UNL A   1      33.164  28.820  25.735  1.00  0.00     0.152 C 
BRANCH  26  27
ATOM     27  C   UNL A   1      33.826  29.600  26.854  1.00  0.00    -0.025 A 
ATOM     28  C   UNL A   1      33.428  30.933  27.112  1.00  0.00     0.009 A 
ATOM     29  C   UNL A   1      34.914  29.050  27.554  1.00  0.00     0.056 A 
ATOM     30  C   UNL A   1      34.210  31.769  27.916  1.00  0.00     0.051 A 
ATOM     31  C   UNL A   1      35.703  29.914  28.265  1.00  0.00     0.166 A 
ATOM     32  C   UNL A   1      35.381  31.244  28.413  1.00  0.00     0.165 A 
ATOM     33  O   UNL A   1      36.940  29.623  28.758  1.00  0.00    -0.454 OA
ATOM     34  O   UNL A   1      36.399  31.943  28.991  1.00  0.00    -0.454 OA
ATOM     35  C   UNL A   1      37.453  30.963  28.855  1.00  0.00     0.468 C 
ENDBRANCH  26  27
ENDBRANCH  24  26
ENDBRANCH  15  24
ENDBRANCH  10  11
ENDBRANCH   9  10
ENDBRANCH   7   9
ENDBRANCH   6   7
ENDBRANCH   5   6
ENDBRANCH   4   5
ENDBRANCH   3   4
ENDBRANCH   2   3
ENDBRANCH   1   2
BRANCH   1  36
ATOM     36  O   UNL A   1      36.401  22.368  24.022  1.00  0.00    -0.377 OA
BRANCH  36  37
ATOM     37  C   UNL A   1      37.072  22.192  25.264  1.00  0.00     0.188 C 
BRANCH  37  38
ATOM     38  C   UNL A   1      38.168  21.136  25.196  1.00  0.00     0.188 C 
BRANCH  38  39
ATOM     39  O   UNL A   1      38.916  20.819  26.356  1.00  0.00    -0.376 OA
BRANCH  39  40
ATOM     40  C   UNL A   1      40.255  20.389  26.198  1.00  0.00     0.202 C 
BRANCH  40  41
ATOM     41  C   UNL A   1      41.369  21.433  26.013  1.00  0.00     0.261 C 
BRANCH  41  42
ATOM     42  O   UNL A   1      41.799  22.020  27.251  1.00  0.00    -0.460 OA
BRANCH  42  43
ATOM     43  C   UNL A   1      41.280  23.274  27.462  1.00  0.00     0.338 C 
ATOM     44  O   UNL A   1      40.372  23.748  26.834  1.00  0.00    -0.246 OA
BRANCH  43  45
ATOM     45  C   UNL A   1      42.137  23.987  28.471  1.00  0.00     0.060 A 
ATOM     46  C   UNL A   1      42.451  25.328  28.264  1.00  0.00     0.016 A 
ATOM     47  C   UNL A   1      42.826  23.288  29.455  1.00  0.00     0.016 A 
ATOM     48  C   UNL A   1      43.616  25.881  28.828  1.00  0.00     0.010 A 
ATOM     49  C   UNL A   1      44.022  23.811  29.958  1.00  0.00     0.010 A 
ATOM     50  C   UNL A   1      44.485  25.084  29.576  1.00  0.00    -0.014 A 
BRANCH  50  51
ATOM     51  C   UNL A   1      45.922  25.415  29.790  1.00  0.00     0.031 A 
ATOM     52  C   UNL A   1      46.990  25.098  28.769  1.00  0.00     0.074 A 
ATOM     53  C   UNL A   1      46.271  26.293  30.778  1.00  0.00     0.049 A 
ATOM     54  N   UNL A   1      48.254  25.319  28.966  1.00  0.00    -0.248 NA
ATOM     55  C   UNL A   1      46.759  24.495  27.457  1.00  0.00     0.031 C 
ATOM     56  C   UNL A   1      47.466  27.136  30.751  1.00  0.00     0.029 A 
ATOM     57  N   UNL A   1      45.661  26.691  31.978  1.00  0.00    -0.354 N 
ATOM     58  C   UNL A   1      48.906  25.273  27.756  1.00  0.00     0.074 A 
ATOM     59  C   UNL A   1      47.969  24.606  26.885  1.00  0.00     0.031 C 
ATOM     60  C   UNL A   1      47.516  27.941  31.806  1.00  0.00     0.029 A 
ATOM     61  C   UNL A   1      46.574  27.430  32.752  1.00  0.00     0.049 A 
ATOM     62  H   UNL A   1      44.734  26.483  32.238  1.00  0.00     0.167 HD
ATOM     63  C   UNL A   1      50.111  25.902  27.596  1.00  0.00     0.034 A 
ATOM     64  C   UNL A   1      46.947  27.216  34.042  1.00  0.00     0.034 A 
ATOM     65  C   UNL A   1      50.694  26.419  28.863  1.00  0.00     0.049 A 
ATOM     66  C   UNL A   1      48.384  26.713  34.142  1.00  0.00     0.074 A 
ATOM     67  C   UNL A   1      51.349  27.577  29.254  1.00  0.00     0.029 A 
ATOM     68  N   UNL A   1      50.616  25.646  30.023  1.00  0.00    -0.354 N 
ATOM     69  N   UNL A   1      49.307  26.893  33.226  1.00  0.00    -0.248 NA
ATOM     70  C   UNL A   1      48.880  25.892  35.241  1.00  0.00     0.031 C 
ATOM     71  C   UNL A   1      51.535  27.543  30.672  1.00  0.00     0.029 A 
ATOM     72  C   UNL A   1      51.087  26.319  31.139  1.00  0.00     0.049 A 
ATOM     73  H   UNL A   1      50.266  24.726  30.046  1.00  0.00     0.167 HD
ATOM     74  C   UNL A   1      50.325  25.994  33.420  1.00  0.00     0.074 A 
ATOM     75  C   UNL A   1      50.090  25.526  34.777  1.00  0.00     0.031 C 
ATOM     76  C   UNL A   1      51.184  25.608  32.417  1.00  0.00     0.034 A 
BRANCH  63  77
ATOM     77  C   UNL A   1      50.787  26.142  26.239  1.00  0.00     0.023 A 
ATOM     78  C   UNL A   1      52.124  25.709  26.080  1.00  0.00     0.012 A 
ATOM     79  C   UNL A   1      50.225  26.818  25.125  1.00  0.00     0.148 A 
ATOM     80  C   UNL A   1      52.858  25.931  24.905  1.00  0.00     0.002 A 
ATOM     81  C   UNL A   1      50.922  26.942  23.914  1.00  0.00     0.091 A 
ATOM     82  F   UNL A   1      49.046  27.438  25.250  1.00  0.00    -0.205 F 
ATOM     83  C   UNL A   1      52.250  26.522  23.809  1.00  0.00     0.022 A 
BRANCH  81  84
ATOM     84  S   UNL A   1      50.154  27.576  22.408  1.00  0.00     0.127 S 
ATOM     85  O   UNL A   1      50.481  28.999  22.468  1.00  0.00    -0.237 OA
ATOM     86  O   UNL A   1      50.858  26.834  21.361  1.00  0.00    -0.237 OA
ATOM     87  O   UNL A   1      48.735  27.258  22.519  1.00  0.00    -0.744 OA
ENDBRANCH  81  84
ENDBRANCH  63  77
BRANCH  64  88
ATOM     88  C   UNL A   1      45.802  27.097  34.971  1.00  0.00     0.023 A 
ATOM     89  C   UNL A   1      45.495  25.766  35.352  1.00  0.00     0.012 A 
ATOM     90  C   UNL A   1      45.507  28.145  35.852  1.00  0.00     0.148 A 
ATOM     91  C   UNL A   1      45.054  25.473  36.643  1.00  0.00     0.002 A 
ATOM     92  C   UNL A   1      45.151  27.835  37.162  1.00  0.00     0.091 A 
ATOM     93  F   UNL A   1      45.793  29.393  35.461  1.00  0.00    -0.205 F 
ATOM     94  C   UNL A   1      44.931  26.505  37.561  1.00  0.00     0.022 A 
BRANCH  92  95
ATOM     95  S   UNL A   1      45.345  29.025  38.492  1.00  0.00     0.127 S 
ATOM     96  O   UNL A   1      44.314  30.009  38.182  1.00  0.00    -0.237 OA
ATOM     97  O   UNL A   1      45.074  28.178  39.652  1.00  0.00    -0.237 OA
ATOM     98  O   UNL A   1      46.720  29.493  38.391  1.00  0.00    -0.744 OA
ENDBRANCH  92  95
ENDBRANCH  64  88
BRANCH  76  99
ATOM     99  C   UNL A   1      52.170  24.438  32.487  1.00  0.00     0.023 A 
ATOM    100  C   UNL A   1      53.564  24.611  32.417  1.00  0.00     0.012 A 
ATOM    101  C   UNL A   1      51.719  23.119  32.785  1.00  0.00     0.148 A 
ATOM    102  C   UNL A   1      54.460  23.544  32.571  1.00  0.00     0.002 A 
ATOM    103  C   UNL A   1      52.616  22.086  33.051  1.00  0.00     0.091 A 
ATOM    104  F   UNL A   1      50.407  22.842  32.791  1.00  0.00    -0.205 F 
ATOM    105  C   UNL A   1      53.989  22.286  32.913  1.00  0.00     0.022 A 
BRANCH 103 106
ATOM    106  S   UNL A   1      52.049  20.517  33.729  1.00  0.00     0.127 S 
ATOM    107  O   UNL A   1      53.168  19.630  33.424  1.00  0.00    -0.237 OA
ATOM    108  O   UNL A   1      51.887  20.828  35.152  1.00  0.00    -0.237 OA
ATOM    109  O   UNL A   1      50.797  20.243  33.036  1.00  0.00    -0.744 OA
ENDBRANCH 103 106
ENDBRANCH  76  99
ENDBRANCH  50  51
ENDBRANCH  43  45
ENDBRANCH  42  43
ENDBRANCH  41  42
ENDBRANCH  40  41
ENDBRANCH  39  40
ENDBRANCH  38  39
ENDBRANCH  37  38
ENDBRANCH  36  37
ENDBRANCH   1  36
TORSDOF 29
ENDMDL
