MODEL 1
REMARK VINA RESULT:      -9.6      0.000      0.000
REMARK SMILES Cc1c(CC(=O)N[C@H](CO)C(=O)OCCOCCOCCOCCOC(=O)c2ccc(-c3c4nc(c(-c5cccc(S(=O)(=O)[O-])c5F)c5ccc([nH]5)c(-c5cccc(S(=O)(=O)[O-])c5F)c5nc(c(-c6cccc(S(=O)(=O)[O-])c6F)c6ccc3[nH]6)C=C5)C=C4)cc2)cc(-c2ccc(S(C)(=O)=O)cc2)n1-c1ccc(F)cc1
REMARK SMILES IDX 18 1 17 2 16 3 15 4 14 5 13 6 11 7 12 8 8 9 7 10 5 11 6 12
REMARK SMILES IDX 4 14 3 15 1 16 2 17 103 18 91 19 92 20 104 21 105 22 110 23
REMARK SMILES IDX 106 24 109 25 107 26 108 27 93 28 94 29 102 30 95 31 101 32
REMARK SMILES IDX 96 33 97 34 98 35 99 36 100 37 9 38 10 39 19 41 20 42 21 43
REMARK SMILES IDX 22 44 23 45 24 46 25 47 26 48 27 49 28 50 29 51 90 52 30 53
REMARK SMILES IDX 89 54 31 55 32 56 33 57 83 58 34 59 88 60 82 61 84 62 35 63
REMARK SMILES IDX 87 64 81 65 80 66 36 68 68 69 48 70 67 71 49 72 52 73 66 74
REMARK SMILES IDX 85 75 50 76 51 77 65 79 86 80 53 81 37 82 38 83 46 84 39 85
REMARK SMILES IDX 41 86 47 87 40 88 42 89 43 90 44 91 45 92 69 93 70 94 78 95
REMARK SMILES IDX 71 96 73 97 79 98 72 99 74 100 75 101 76 102 77 103 54 104
REMARK SMILES IDX 55 105 63 106 56 107 58 108 64 109 57 110 59 111 60 112
REMARK SMILES IDX 61 113 62 114
REMARK H PARENT 7 13 10 40 84 67 52 78
REMARK Flexibility Score: inf
ROOT
ATOM      1  C   UNL A   1      33.905  28.609  26.801  1.00  0.00     0.188 C 
ENDROOT
BRANCH   1   2
ATOM      2  C   UNL A   1      32.424  28.835  26.516  1.00  0.00     0.188 C 
BRANCH   2   3
ATOM      3  O   UNL A   1      31.888  28.092  25.429  1.00  0.00    -0.376 OA
BRANCH   3   4
ATOM      4  C   UNL A   1      31.370  28.807  24.317  1.00  0.00     0.202 C 
BRANCH   4   5
ATOM      5  C   UNL A   1      32.184  28.602  23.075  1.00  0.00     0.261 C 
BRANCH   5   6
ATOM      6  O   UNL A   1      33.319  27.779  23.266  1.00  0.00    -0.462 OA
BRANCH   6   7
ATOM      7  C   UNL A   1      33.202  26.535  22.718  1.00  0.00     0.331 C 
ATOM      8  O   UNL A   1      34.112  25.764  22.437  1.00  0.00    -0.250 OA
BRANCH   7   9
ATOM      9  C   UNL A   1      31.813  26.369  22.170  1.00  0.00     0.218 C 
BRANCH   9  10
ATOM     10  N   UNL A   1      31.146  25.377  23.047  1.00  0.00    -0.341 N 
ATOM     11  C   UNL A   1      31.371  24.050  23.313  1.00  0.00     0.225 C 
ATOM     12  O   UNL A   1      30.637  23.569  24.189  1.00  0.00    -0.275 OA
ATOM     13  H   UNL A   1      30.380  25.749  23.543  1.00  0.00     0.164 HD
BRANCH  11  14
ATOM     14  C   UNL A   1      32.447  23.167  22.641  1.00  0.00     0.137 C 
BRANCH  14  15
ATOM     15  C   UNL A   1      33.197  22.139  23.507  1.00  0.00    -0.017 A 
ATOM     16  C   UNL A   1      31.613  20.095  23.519  1.00  0.00     0.065 C 
ATOM     17  C   UNL A   1      32.885  20.817  23.830  1.00  0.00     0.024 A 
ATOM     18  N   UNL A   1      34.011  20.200  24.424  1.00  0.00    -0.314 N 
ATOM     19  C   UNL A   1      34.482  22.365  24.104  1.00  0.00     0.033 A 
ATOM     20  C   UNL A   1      35.030  21.169  24.577  1.00  0.00     0.053 A 
BRANCH  18  21
ATOM     21  C   UNL A   1      34.168  18.788  24.655  1.00  0.00     0.046 A 
ATOM     22  C   UNL A   1      34.617  17.946  23.626  1.00  0.00     0.029 A 
ATOM     23  C   UNL A   1      33.677  18.217  25.844  1.00  0.00     0.029 A 
ATOM     24  C   UNL A   1      34.492  16.557  23.753  1.00  0.00     0.041 A 
ATOM     25  C   UNL A   1      33.545  16.830  25.960  1.00  0.00     0.041 A 
ATOM     26  C   UNL A   1      33.938  16.015  24.907  1.00  0.00     0.123 A 
ATOM     27  F   UNL A   1      33.756  14.691  24.994  1.00  0.00    -0.207 F 
ENDBRANCH  18  21
BRANCH  20  28
ATOM     28  C   UNL A   1      36.497  20.947  24.869  1.00  0.00    -0.001 A 
ATOM     29  C   UNL A   1      37.348  21.963  25.353  1.00  0.00     0.011 A 
ATOM     30  C   UNL A   1      37.046  19.654  24.842  1.00  0.00     0.011 A 
ATOM     31  C   UNL A   1      38.658  21.724  25.803  1.00  0.00     0.021 A 
ATOM     32  C   UNL A   1      38.356  19.393  25.298  1.00  0.00     0.021 A 
ATOM     33  C   UNL A   1      39.153  20.430  25.793  1.00  0.00     0.067 A 
BRANCH  33  34
ATOM     34  S   UNL A   1      40.769  20.053  26.436  1.00  0.00     0.175 S 
ATOM     35  C   UNL A   1      41.866  21.337  25.893  1.00  0.00     0.163 C 
ATOM     36  O   UNL A   1      40.674  20.131  27.884  1.00  0.00    -0.224 OA
ATOM     37  O   UNL A   1      41.201  18.832  25.786  1.00  0.00    -0.224 OA
ENDBRANCH  33  34
ENDBRANCH  20  28
ENDBRANCH  14  15
ENDBRANCH  11  14
ENDBRANCH   9  10
BRANCH   9  38
ATOM     38  C   UNL A   1      31.963  25.918  20.695  1.00  0.00     0.193 C 
BRANCH  38  39
ATOM     39  O   UNL A   1      33.194  26.369  20.131  1.00  0.00    -0.394 OA
ATOM     40  H   UNL A   1      33.921  25.817  20.457  1.00  0.00     0.210 HD
ENDBRANCH  38  39
ENDBRANCH   9  38
ENDBRANCH   7   9
ENDBRANCH   6   7
ENDBRANCH   5   6
ENDBRANCH   4   5
ENDBRANCH   3   4
ENDBRANCH   2   3
ENDBRANCH   1   2
BRANCH   1  41
ATOM     41  O   UNL A   1      34.773  29.745  26.841  1.00  0.00    -0.377 OA
BRANCH  41  42
ATOM     42  C   UNL A   1      34.851  30.517  28.035  1.00  0.00     0.188 C 
BRANCH  42  43
ATOM     43  C   UNL A   1      34.152  31.867  27.993  1.00  0.00     0.188 C 
BRANCH  43  44
ATOM     44  O   UNL A   1      34.982  32.939  27.605  1.00  0.00    -0.376 OA
BRANCH  44  45
ATOM     45  C   UNL A   1      34.973  34.122  28.407  1.00  0.00     0.202 C 
BRANCH  45  46
ATOM     46  C   UNL A   1      34.057  34.341  29.649  1.00  0.00     0.261 C 
BRANCH  46  47
ATOM     47  O   UNL A   1      33.902  35.635  30.320  1.00  0.00    -0.460 OA
BRANCH  47  48
ATOM     48  C   UNL A   1      33.700  35.591  31.681  1.00  0.00     0.338 C 
ATOM     49  O   UNL A   1      32.785  36.191  32.234  1.00  0.00    -0.246 OA
BRANCH  48  50
ATOM     50  C   UNL A   1      34.680  34.726  32.479  1.00  0.00     0.060 A 
ATOM     51  C   UNL A   1      34.662  34.755  33.874  1.00  0.00     0.016 A 
ATOM     52  C   UNL A   1      35.817  34.120  31.908  1.00  0.00     0.016 A 
ATOM     53  C   UNL A   1      35.717  34.164  34.652  1.00  0.00     0.010 A 
ATOM     54  C   UNL A   1      36.912  33.567  32.701  1.00  0.00     0.010 A 
ATOM     55  C   UNL A   1      36.906  33.567  34.108  1.00  0.00    -0.014 A 
BRANCH  55  56
ATOM     56  C   UNL A   1      38.192  33.507  35.050  1.00  0.00     0.031 A 
ATOM     57  C   UNL A   1      39.335  33.773  34.121  1.00  0.00     0.074 A 
ATOM     58  C   UNL A   1      38.549  33.227  36.370  1.00  0.00     0.049 A 
ATOM     59  N   UNL A   1      39.477  33.131  32.992  1.00  0.00    -0.248 NA
ATOM     60  C   UNL A   1      40.170  34.974  34.230  1.00  0.00     0.031 C 
ATOM     61  C   UNL A   1      37.662  32.798  37.463  1.00  0.00     0.029 A 
ATOM     62  N   UNL A   1      39.798  33.263  37.073  1.00  0.00    -0.354 N 
ATOM     63  C   UNL A   1      40.672  33.559  32.485  1.00  0.00     0.074 A 
ATOM     64  C   UNL A   1      40.873  34.860  33.100  1.00  0.00     0.031 C 
ATOM     65  C   UNL A   1      38.320  32.742  38.659  1.00  0.00     0.029 A 
ATOM     66  C   UNL A   1      39.736  33.067  38.501  1.00  0.00     0.049 A 
ATOM     67  H   UNL A   1      40.653  33.415  36.608  1.00  0.00     0.167 HD
ATOM     68  C   UNL A   1      41.608  32.599  32.225  1.00  0.00     0.034 A 
ATOM     69  C   UNL A   1      40.721  33.082  39.485  1.00  0.00     0.034 A 
ATOM     70  C   UNL A   1      42.754  32.681  33.086  1.00  0.00     0.049 A 
ATOM     71  C   UNL A   1      42.010  32.863  38.808  1.00  0.00     0.074 A 
ATOM     72  C   UNL A   1      43.548  33.723  33.526  1.00  0.00     0.029 A 
ATOM     73  N   UNL A   1      42.935  31.642  33.974  1.00  0.00    -0.354 N 
ATOM     74  N   UNL A   1      42.406  31.674  38.465  1.00  0.00    -0.248 NA
ATOM     75  C   UNL A   1      42.988  33.926  38.608  1.00  0.00     0.031 C 
ATOM     76  C   UNL A   1      43.806  33.448  34.889  1.00  0.00     0.029 A 
ATOM     77  C   UNL A   1      43.436  32.139  35.163  1.00  0.00     0.049 A 
ATOM     78  H   UNL A   1      42.738  30.695  33.789  1.00  0.00     0.167 HD
ATOM     79  C   UNL A   1      43.386  31.929  37.552  1.00  0.00     0.074 A 
ATOM     80  C   UNL A   1      43.883  33.249  37.885  1.00  0.00     0.031 C 
ATOM     81  C   UNL A   1      43.279  31.324  36.345  1.00  0.00     0.034 A 
BRANCH  68  82
ATOM     82  C   UNL A   1      41.082  31.324  31.621  1.00  0.00     0.023 A 
ATOM     83  C   UNL A   1      41.304  31.115  30.250  1.00  0.00     0.012 A 
ATOM     84  C   UNL A   1      40.247  30.422  32.324  1.00  0.00     0.148 A 
ATOM     85  C   UNL A   1      40.663  30.070  29.579  1.00  0.00     0.002 A 
ATOM     86  C   UNL A   1      39.529  29.455  31.632  1.00  0.00     0.091 A 
ATOM     87  F   UNL A   1      40.169  30.523  33.661  1.00  0.00    -0.205 F 
ATOM     88  C   UNL A   1      39.748  29.266  30.261  1.00  0.00     0.022 A 
BRANCH  86  89
ATOM     89  S   UNL A   1      38.150  28.566  32.380  1.00  0.00     0.127 S 
ATOM     90  O   UNL A   1      37.982  29.270  33.655  1.00  0.00    -0.237 OA
ATOM     91  O   UNL A   1      37.070  28.787  31.425  1.00  0.00    -0.237 OA
ATOM     92  O   UNL A   1      38.586  27.183  32.533  1.00  0.00    -0.744 OA
ENDBRANCH  86  89
ENDBRANCH  68  82
BRANCH  69  93
ATOM     93  C   UNL A   1      40.958  33.051  41.023  1.00  0.00     0.023 A 
ATOM     94  C   UNL A   1      41.744  34.108  41.607  1.00  0.00     0.012 A 
ATOM     95  C   UNL A   1      40.175  32.323  41.942  1.00  0.00     0.148 A 
ATOM     96  C   UNL A   1      41.673  34.493  42.957  1.00  0.00     0.002 A 
ATOM     97  C   UNL A   1      40.131  32.694  43.312  1.00  0.00     0.091 A 
ATOM     98  F   UNL A   1      39.398  31.338  41.472  1.00  0.00    -0.205 F 
ATOM     99  C   UNL A   1      40.852  33.791  43.811  1.00  0.00     0.022 A 
BRANCH  97 100
ATOM    100  S   UNL A   1      39.091  31.865  44.536  1.00  0.00     0.127 S 
ATOM    101  O   UNL A   1      39.810  32.111  45.788  1.00  0.00    -0.237 OA
ATOM    102  O   UNL A   1      37.834  32.600  44.410  1.00  0.00    -0.237 OA
ATOM    103  O   UNL A   1      39.056  30.469  44.126  1.00  0.00    -0.744 OA
ENDBRANCH  97 100
ENDBRANCH  69  93
BRANCH  81 104
ATOM    104  C   UNL A   1      42.751  29.900  36.325  1.00  0.00     0.023 A 
ATOM    105  C   UNL A   1      41.422  29.533  36.007  1.00  0.00     0.012 A 
ATOM    106  C   UNL A   1      43.645  28.872  36.665  1.00  0.00     0.148 A 
ATOM    107  C   UNL A   1      40.993  28.204  36.078  1.00  0.00     0.002 A 
ATOM    108  C   UNL A   1      43.230  27.543  36.684  1.00  0.00     0.091 A 
ATOM    109  F   UNL A   1      44.901  29.213  36.988  1.00  0.00    -0.205 F 
ATOM    110  C   UNL A   1      41.901  27.203  36.403  1.00  0.00     0.022 A 
BRANCH 108 111
ATOM    111  S   UNL A   1      44.400  26.235  37.053  1.00  0.00     0.127 S 
ATOM    112  O   UNL A   1      45.359  26.371  35.958  1.00  0.00    -0.237 OA
ATOM    113  O   UNL A   1      44.921  26.607  38.366  1.00  0.00    -0.237 OA
ATOM    114  O   UNL A   1      43.612  25.007  37.047  1.00  0.00    -0.744 OA
ENDBRANCH 108 111
ENDBRANCH  81 104
ENDBRANCH  55  56
ENDBRANCH  48  50
ENDBRANCH  47  48
ENDBRANCH  46  47
ENDBRANCH  45  46
ENDBRANCH  44  45
ENDBRANCH  43  44
ENDBRANCH  42  43
ENDBRANCH  41  42
ENDBRANCH   1  41
TORSDOF 31
ENDMDL
MODEL 2
REMARK VINA RESULT:      -8.2      6.983     11.344
REMARK SMILES Cc1c(CC(=O)N[C@H](CO)C(=O)OCCOCCOCCOCCOC(=O)c2ccc(-c3c4nc(c(-c5cccc(S(=O)(=O)[O-])c5F)c5ccc([nH]5)c(-c5cccc(S(=O)(=O)[O-])c5F)c5nc(c(-c6cccc(S(=O)(=O)[O-])c6F)c6ccc3[nH]6)C=C5)C=C4)cc2)cc(-c2ccc(S(C)(=O)=O)cc2)n1-c1ccc(F)cc1
REMARK SMILES IDX 18 1 17 2 16 3 15 4 14 5 13 6 11 7 12 8 8 9 7 10 5 11 6 12
REMARK SMILES IDX 4 14 3 15 1 16 2 17 103 18 91 19 92 20 104 21 105 22 110 23
REMARK SMILES IDX 106 24 109 25 107 26 108 27 93 28 94 29 102 30 95 31 101 32
REMARK SMILES IDX 96 33 97 34 98 35 99 36 100 37 9 38 10 39 19 41 20 42 21 43
REMARK SMILES IDX 22 44 23 45 24 46 25 47 26 48 27 49 28 50 29 51 90 52 30 53
REMARK SMILES IDX 89 54 31 55 32 56 33 57 83 58 34 59 88 60 82 61 84 62 35 63
REMARK SMILES IDX 87 64 81 65 80 66 36 68 68 69 48 70 67 71 49 72 52 73 66 74
REMARK SMILES IDX 85 75 50 76 51 77 65 79 86 80 53 81 37 82 38 83 46 84 39 85
REMARK SMILES IDX 41 86 47 87 40 88 42 89 43 90 44 91 45 92 69 93 70 94 78 95
REMARK SMILES IDX 71 96 73 97 79 98 72 99 74 100 75 101 76 102 77 103 54 104
REMARK SMILES IDX 55 105 63 106 56 107 58 108 64 109 57 110 59 111 60 112
REMARK SMILES IDX 61 113 62 114
REMARK H PARENT 7 13 10 40 84 67 52 78
REMARK Flexibility Score: inf
ROOT
ATOM      1  C   UNL A   1      38.364  28.738  27.958  1.00  0.00     0.188 C 
ENDROOT
BRANCH   1   2
ATOM      2  C   UNL A   1      39.811  28.400  28.300  1.00  0.00     0.188 C 
BRANCH   2   3
ATOM      3  O   UNL A   1      40.572  27.825  27.245  1.00  0.00    -0.376 OA
BRANCH   3   4
ATOM      4  C   UNL A   1      41.291  28.695  26.384  1.00  0.00     0.202 C 
BRANCH   4   5
ATOM      5  C   UNL A   1      42.100  27.953  25.364  1.00  0.00     0.261 C 
BRANCH   5   6
ATOM      6  O   UNL A   1      43.497  28.023  25.582  1.00  0.00    -0.462 OA
BRANCH   6   7
ATOM      7  C   UNL A   1      43.999  26.986  26.313  1.00  0.00     0.331 C 
ATOM      8  O   UNL A   1      43.715  26.692  27.467  1.00  0.00    -0.250 OA
BRANCH   7   9
ATOM      9  C   UNL A   1      45.224  26.450  25.627  1.00  0.00     0.218 C 
BRANCH   9  10
ATOM     10  N   UNL A   1      45.611  27.474  24.627  1.00  0.00    -0.341 N 
ATOM     11  C   UNL A   1      46.806  27.828  24.054  1.00  0.00     0.225 C 
ATOM     12  O   UNL A   1      46.717  28.698  23.176  1.00  0.00    -0.275 OA
ATOM     13  H   UNL A   1      44.851  28.012  24.307  1.00  0.00     0.164 HD
BRANCH  11  14
ATOM     14  C   UNL A   1      48.186  27.223  24.402  1.00  0.00     0.137 C 
BRANCH  14  15
ATOM     15  C   UNL A   1      48.745  27.440  25.820  1.00  0.00    -0.017 A 
ATOM     16  C   UNL A   1      50.577  25.626  26.026  1.00  0.00     0.065 C 
ATOM     17  C   UNL A   1      49.797  26.815  26.491  1.00  0.00     0.024 A 
ATOM     18  N   UNL A   1      50.103  27.542  27.665  1.00  0.00    -0.314 N 
ATOM     19  C   UNL A   1      48.289  28.456  26.724  1.00  0.00     0.033 A 
ATOM     20  C   UNL A   1      49.168  28.594  27.803  1.00  0.00     0.053 A 
BRANCH  18  21
ATOM     21  C   UNL A   1      51.280  27.367  28.476  1.00  0.00     0.046 A 
ATOM     22  C   UNL A   1      51.230  26.582  29.638  1.00  0.00     0.029 A 
ATOM     23  C   UNL A   1      52.424  28.147  28.222  1.00  0.00     0.029 A 
ATOM     24  C   UNL A   1      52.272  26.647  30.571  1.00  0.00     0.041 A 
ATOM     25  C   UNL A   1      53.455  28.216  29.164  1.00  0.00     0.041 A 
ATOM     26  C   UNL A   1      53.361  27.479  30.336  1.00  0.00     0.123 A 
ATOM     27  F   UNL A   1      54.320  27.592  31.265  1.00  0.00    -0.207 F 
ENDBRANCH  18  21
BRANCH  20  28
ATOM     28  C   UNL A   1      49.249  29.808  28.701  1.00  0.00    -0.001 A 
ATOM     29  C   UNL A   1      48.581  31.019  28.421  1.00  0.00     0.011 A 
ATOM     30  C   UNL A   1      49.858  29.725  29.964  1.00  0.00     0.011 A 
ATOM     31  C   UNL A   1      48.497  32.083  29.335  1.00  0.00     0.021 A 
ATOM     32  C   UNL A   1      49.777  30.781  30.898  1.00  0.00     0.021 A 
ATOM     33  C   UNL A   1      49.081  31.952  30.585  1.00  0.00     0.067 A 
BRANCH  33  34
ATOM     34  S   UNL A   1      48.929  33.228  31.815  1.00  0.00     0.175 S 
ATOM     35  C   UNL A   1      47.629  34.316  31.290  1.00  0.00     0.163 C 
ATOM     36  O   UNL A   1      48.497  32.580  33.042  1.00  0.00    -0.224 OA
ATOM     37  O   UNL A   1      50.158  33.995  31.774  1.00  0.00    -0.224 OA
ENDBRANCH  33  34
ENDBRANCH  20  28
ENDBRANCH  14  15
ENDBRANCH  11  14
ENDBRANCH   9  10
BRANCH   9  38
ATOM     38  C   UNL A   1      44.833  25.079  25.018  1.00  0.00     0.193 C 
BRANCH  38  39
ATOM     39  O   UNL A   1      45.362  23.996  25.782  1.00  0.00    -0.394 OA
ATOM     40  H   UNL A   1      45.604  24.312  26.666  1.00  0.00     0.210 HD
ENDBRANCH  38  39
ENDBRANCH   9  38
ENDBRANCH   7   9
ENDBRANCH   6   7
ENDBRANCH   5   6
ENDBRANCH   4   5
ENDBRANCH   3   4
ENDBRANCH   2   3
ENDBRANCH   1   2
BRANCH   1  41
ATOM     41  O   UNL A   1      38.014  30.110  27.751  1.00  0.00    -0.377 OA
BRANCH  41  42
ATOM     42  C   UNL A   1      37.263  30.792  28.750  1.00  0.00     0.188 C 
BRANCH  42  43
ATOM     43  C   UNL A   1      38.068  31.684  29.682  1.00  0.00     0.188 C 
BRANCH  43  44
ATOM     44  O   UNL A   1      37.390  32.847  30.103  1.00  0.00    -0.376 OA
BRANCH  44  45
ATOM     45  C   UNL A   1      36.061  32.707  30.608  1.00  0.00     0.202 C 
BRANCH  45  46
ATOM     46  C   UNL A   1      35.679  31.886  31.876  1.00  0.00     0.261 C 
BRANCH  46  47
ATOM     47  O   UNL A   1      36.015  32.305  33.240  1.00  0.00    -0.460 OA
BRANCH  47  48
ATOM     48  C   UNL A   1      37.339  32.599  33.475  1.00  0.00     0.338 C 
ATOM     49  O   UNL A   1      37.809  33.719  33.302  1.00  0.00    -0.246 OA
BRANCH  48  50
ATOM     50  C   UNL A   1      38.204  31.445  33.990  1.00  0.00     0.060 A 
ATOM     51  C   UNL A   1      38.515  31.356  35.347  1.00  0.00     0.016 A 
ATOM     52  C   UNL A   1      38.974  30.621  33.145  1.00  0.00     0.016 A 
ATOM     53  C   UNL A   1      39.520  30.449  35.831  1.00  0.00     0.010 A 
ATOM     54  C   UNL A   1      40.031  29.739  33.635  1.00  0.00     0.010 A 
ATOM     55  C   UNL A   1      40.347  29.617  34.999  1.00  0.00    -0.014 A 
BRANCH  55  56
ATOM     56  C   UNL A   1      41.748  29.148  35.599  1.00  0.00     0.031 A 
ATOM     57  C   UNL A   1      42.564  30.402  35.639  1.00  0.00     0.074 A 
ATOM     58  C   UNL A   1      42.417  27.989  35.996  1.00  0.00     0.049 A 
ATOM     59  N   UNL A   1      42.669  31.196  34.607  1.00  0.00    -0.248 NA
ATOM     60  C   UNL A   1      43.014  31.003  36.899  1.00  0.00     0.031 C 
ATOM     61  C   UNL A   1      41.922  26.605  35.931  1.00  0.00     0.029 A 
ATOM     62  N   UNL A   1      43.712  27.755  36.568  1.00  0.00    -0.354 N 
ATOM     63  C   UNL A   1      43.566  32.157  34.985  1.00  0.00     0.074 A 
ATOM     64  C   UNL A   1      43.490  32.162  36.435  1.00  0.00     0.031 C 
ATOM     65  C   UNL A   1      42.783  25.728  36.528  1.00  0.00     0.029 A 
ATOM     66  C   UNL A   1      43.984  26.409  37.009  1.00  0.00     0.049 A 
ATOM     67  H   UNL A   1      44.378  28.474  36.657  1.00  0.00     0.167 HD
ATOM     68  C   UNL A   1      44.675  32.304  34.201  1.00  0.00     0.034 A 
ATOM     69  C   UNL A   1      45.090  25.842  37.636  1.00  0.00     0.034 A 
ATOM     70  C   UNL A   1      45.889  31.918  34.864  1.00  0.00     0.049 A 
ATOM     71  C   UNL A   1      46.232  26.737  37.387  1.00  0.00     0.074 A 
ATOM     72  C   UNL A   1      46.411  32.156  36.120  1.00  0.00     0.029 A 
ATOM     73  N   UNL A   1      46.533  30.802  34.371  1.00  0.00    -0.354 N 
ATOM     74  N   UNL A   1      46.887  26.711  36.265  1.00  0.00    -0.248 NA
ATOM     75  C   UNL A   1      46.798  27.601  38.417  1.00  0.00     0.031 C 
ATOM     76  C   UNL A   1      46.993  30.932  36.523  1.00  0.00     0.029 A 
ATOM     77  C   UNL A   1      47.083  30.092  35.422  1.00  0.00     0.049 A 
ATOM     78  H   UNL A   1      46.591  30.552  33.420  1.00  0.00     0.167 HD
ATOM     79  C   UNL A   1      47.555  27.900  36.273  1.00  0.00     0.074 A 
ATOM     80  C   UNL A   1      47.697  28.248  37.672  1.00  0.00     0.031 C 
ATOM     81  C   UNL A   1      47.402  28.701  35.193  1.00  0.00     0.034 A 
BRANCH  68  82
ATOM     82  C   UNL A   1      44.441  32.202  32.717  1.00  0.00     0.023 A 
ATOM     83  C   UNL A   1      45.166  31.228  32.010  1.00  0.00     0.012 A 
ATOM     84  C   UNL A   1      43.661  33.134  31.991  1.00  0.00     0.148 A 
ATOM     85  C   UNL A   1      45.165  31.219  30.613  1.00  0.00     0.002 A 
ATOM     86  C   UNL A   1      43.751  33.189  30.606  1.00  0.00     0.091 A 
ATOM     87  F   UNL A   1      42.841  33.955  32.667  1.00  0.00    -0.205 F 
ATOM     88  C   UNL A   1      44.490  32.221  29.913  1.00  0.00     0.022 A 
BRANCH  86  89
ATOM     89  S   UNL A   1      43.134  34.593  29.659  1.00  0.00     0.127 S 
ATOM     90  O   UNL A   1      43.893  35.710  30.231  1.00  0.00    -0.237 OA
ATOM     91  O   UNL A   1      43.510  34.250  28.293  1.00  0.00    -0.237 OA
ATOM     92  O   UNL A   1      41.701  34.669  29.921  1.00  0.00    -0.744 OA
ENDBRANCH  86  89
ENDBRANCH  68  82
BRANCH  69  93
ATOM     93  C   UNL A   1      45.616  24.549  38.326  1.00  0.00     0.023 A 
ATOM     94  C   UNL A   1      45.313  24.356  39.721  1.00  0.00     0.012 A 
ATOM     95  C   UNL A   1      46.019  23.382  37.644  1.00  0.00     0.148 A 
ATOM     96  C   UNL A   1      45.292  23.105  40.361  1.00  0.00     0.002 A 
ATOM     97  C   UNL A   1      46.028  22.124  38.302  1.00  0.00     0.091 A 
ATOM     98  F   UNL A   1      46.296  23.475  36.337  1.00  0.00    -0.205 F 
ATOM     99  C   UNL A   1      45.638  21.982  39.644  1.00  0.00     0.022 A 
BRANCH  97 100
ATOM    100  S   UNL A   1      46.452  20.572  37.480  1.00  0.00     0.127 S 
ATOM    101  O   UNL A   1      46.036  19.565  38.459  1.00  0.00    -0.237 OA
ATOM    102  O   UNL A   1      45.617  20.628  36.282  1.00  0.00    -0.237 OA
ATOM    103  O   UNL A   1      47.889  20.636  37.258  1.00  0.00    -0.744 OA
ENDBRANCH  97 100
ENDBRANCH  69  93
BRANCH  81 104
ATOM    104  C   UNL A   1      47.321  28.030  33.833  1.00  0.00     0.023 A 
ATOM    105  C   UNL A   1      48.436  27.669  33.041  1.00  0.00     0.012 A 
ATOM    106  C   UNL A   1      46.044  27.765  33.314  1.00  0.00     0.148 A 
ATOM    107  C   UNL A   1      48.281  27.116  31.765  1.00  0.00     0.002 A 
ATOM    108  C   UNL A   1      45.890  27.167  32.067  1.00  0.00     0.091 A 
ATOM    109  F   UNL A   1      44.981  28.124  34.050  1.00  0.00    -0.205 F 
ATOM    110  C   UNL A   1      47.005  26.851  31.282  1.00  0.00     0.022 A 
BRANCH 108 111
ATOM    111  S   UNL A   1      44.253  26.772  31.448  1.00  0.00     0.127 S 
ATOM    112  O   UNL A   1      44.540  25.692  30.505  1.00  0.00    -0.237 OA
ATOM    113  O   UNL A   1      43.529  26.356  32.647  1.00  0.00    -0.237 OA
ATOM    114  O   UNL A   1      43.763  28.011  30.852  1.00  0.00    -0.744 OA
ENDBRANCH 108 111
ENDBRANCH  81 104
ENDBRANCH  55  56
ENDBRANCH  48  50
ENDBRANCH  47  48
ENDBRANCH  46  47
ENDBRANCH  45  46
ENDBRANCH  44  45
ENDBRANCH  43  44
ENDBRANCH  42  43
ENDBRANCH  41  42
ENDBRANCH   1  41
TORSDOF 31
ENDMDL
MODEL 3
REMARK VINA RESULT:      -8.2      7.638     13.963
REMARK SMILES Cc1c(CC(=O)N[C@H](CO)C(=O)OCCOCCOCCOCCOC(=O)c2ccc(-c3c4nc(c(-c5cccc(S(=O)(=O)[O-])c5F)c5ccc([nH]5)c(-c5cccc(S(=O)(=O)[O-])c5F)c5nc(c(-c6cccc(S(=O)(=O)[O-])c6F)c6ccc3[nH]6)C=C5)C=C4)cc2)cc(-c2ccc(S(C)(=O)=O)cc2)n1-c1ccc(F)cc1
REMARK SMILES IDX 18 1 17 2 16 3 15 4 14 5 13 6 11 7 12 8 8 9 7 10 5 11 6 12
REMARK SMILES IDX 4 14 3 15 1 16 2 17 103 18 91 19 92 20 104 21 105 22 110 23
REMARK SMILES IDX 106 24 109 25 107 26 108 27 93 28 94 29 102 30 95 31 101 32
REMARK SMILES IDX 96 33 97 34 98 35 99 36 100 37 9 38 10 39 19 41 20 42 21 43
REMARK SMILES IDX 22 44 23 45 24 46 25 47 26 48 27 49 28 50 29 51 90 52 30 53
REMARK SMILES IDX 89 54 31 55 32 56 33 57 83 58 34 59 88 60 82 61 84 62 35 63
REMARK SMILES IDX 87 64 81 65 80 66 36 68 68 69 48 70 67 71 49 72 52 73 66 74
REMARK SMILES IDX 85 75 50 76 51 77 65 79 86 80 53 81 37 82 38 83 46 84 39 85
REMARK SMILES IDX 41 86 47 87 40 88 42 89 43 90 44 91 45 92 69 93 70 94 78 95
REMARK SMILES IDX 71 96 73 97 79 98 72 99 74 100 75 101 76 102 77 103 54 104
REMARK SMILES IDX 55 105 63 106 56 107 58 108 64 109 57 110 59 111 60 112
REMARK SMILES IDX 61 113 62 114
REMARK H PARENT 7 13 10 40 84 67 52 78
REMARK Flexibility Score: inf
ROOT
ATOM      1  C   UNL A   1      45.915  36.521  39.244  1.00  0.00     0.188 C 
ENDROOT
BRANCH   1   2
ATOM      2  C   UNL A   1      46.315  35.971  37.879  1.00  0.00     0.188 C 
BRANCH   2   3
ATOM      3  O   UNL A   1      46.612  34.581  37.839  1.00  0.00    -0.376 OA
BRANCH   3   4
ATOM      4  C   UNL A   1      45.693  33.681  38.440  1.00  0.00     0.202 C 
BRANCH   4   5
ATOM      5  C   UNL A   1      46.376  32.529  39.113  1.00  0.00     0.261 C 
BRANCH   5   6
ATOM      6  O   UNL A   1      46.209  31.294  38.441  1.00  0.00    -0.462 OA
BRANCH   6   7
ATOM      7  C   UNL A   1      45.941  30.243  39.268  1.00  0.00     0.331 C 
ATOM      8  O   UNL A   1      45.615  30.297  40.447  1.00  0.00    -0.250 OA
BRANCH   7   9
ATOM      9  C   UNL A   1      46.444  28.978  38.633  1.00  0.00     0.218 C 
BRANCH   9  10
ATOM     10  N   UNL A   1      47.197  28.262  39.691  1.00  0.00    -0.341 N 
ATOM     11  C   UNL A   1      46.968  27.107  40.395  1.00  0.00     0.225 C 
ATOM     12  O   UNL A   1      47.888  26.778  41.156  1.00  0.00    -0.275 OA
ATOM     13  H   UNL A   1      48.038  28.709  39.940  1.00  0.00     0.164 HD
BRANCH  11  14
ATOM     14  C   UNL A   1      45.705  26.222  40.285  1.00  0.00     0.137 C 
BRANCH  14  15
ATOM     15  C   UNL A   1      45.570  25.285  39.071  1.00  0.00    -0.017 A 
ATOM     16  C   UNL A   1      43.494  26.205  37.833  1.00  0.00     0.065 C 
ATOM     17  C   UNL A   1      44.681  25.309  37.995  1.00  0.00     0.024 A 
ATOM     18  N   UNL A   1      45.124  24.408  36.999  1.00  0.00    -0.314 N 
ATOM     19  C   UNL A   1      46.459  24.197  38.784  1.00  0.00     0.033 A 
ATOM     20  C   UNL A   1      46.262  23.721  37.484  1.00  0.00     0.053 A 
BRANCH  18  21
ATOM     21  C   UNL A   1      44.628  24.340  35.649  1.00  0.00     0.046 A 
ATOM     22  C   UNL A   1      43.771  23.300  35.260  1.00  0.00     0.029 A 
ATOM     23  C   UNL A   1      45.162  25.195  34.666  1.00  0.00     0.029 A 
ATOM     24  C   UNL A   1      43.526  23.066  33.901  1.00  0.00     0.041 A 
ATOM     25  C   UNL A   1      44.922  24.949  33.311  1.00  0.00     0.041 A 
ATOM     26  C   UNL A   1      44.121  23.878  32.941  1.00  0.00     0.123 A 
ATOM     27  F   UNL A   1      43.940  23.606  31.642  1.00  0.00    -0.207 F 
ENDBRANCH  18  21
BRANCH  20  28
ATOM     28  C   UNL A   1      47.264  22.900  36.703  1.00  0.00    -0.001 A 
ATOM     29  C   UNL A   1      47.088  21.527  36.429  1.00  0.00     0.011 A 
ATOM     30  C   UNL A   1      48.344  23.518  36.052  1.00  0.00     0.011 A 
ATOM     31  C   UNL A   1      47.912  20.803  35.552  1.00  0.00     0.021 A 
ATOM     32  C   UNL A   1      49.178  22.809  35.161  1.00  0.00     0.021 A 
ATOM     33  C   UNL A   1      48.948  21.454  34.901  1.00  0.00     0.067 A 
BRANCH  33  34
ATOM     34  S   UNL A   1      49.967  20.612  33.710  1.00  0.00     0.175 S 
ATOM     35  C   UNL A   1      51.101  19.590  34.614  1.00  0.00     0.163 C 
ATOM     36  O   UNL A   1      49.089  19.738  32.949  1.00  0.00    -0.224 OA
ATOM     37  O   UNL A   1      50.758  21.629  33.046  1.00  0.00    -0.224 OA
ENDBRANCH  33  34
ENDBRANCH  20  28
ENDBRANCH  14  15
ENDBRANCH  11  14
ENDBRANCH   9  10
BRANCH   9  38
ATOM     38  C   UNL A   1      47.303  29.399  37.413  1.00  0.00     0.193 C 
BRANCH  38  39
ATOM     39  O   UNL A   1      48.309  28.430  37.120  1.00  0.00    -0.394 OA
ATOM     40  H   UNL A   1      48.964  28.417  37.834  1.00  0.00     0.210 HD
ENDBRANCH  38  39
ENDBRANCH   9  38
ENDBRANCH   7   9
ENDBRANCH   6   7
ENDBRANCH   5   6
ENDBRANCH   4   5
ENDBRANCH   3   4
ENDBRANCH   2   3
ENDBRANCH   1   2
BRANCH   1  41
ATOM     41  O   UNL A   1      44.851  37.474  39.311  1.00  0.00    -0.377 OA
BRANCH  41  42
ATOM     42  C   UNL A   1      44.638  38.353  38.212  1.00  0.00     0.188 C 
BRANCH  42  43
ATOM     43  C   UNL A   1      45.289  39.722  38.329  1.00  0.00     0.188 C 
BRANCH  43  44
ATOM     44  O   UNL A   1      46.125  40.064  37.246  1.00  0.00    -0.376 OA
BRANCH  44  45
ATOM     45  C   UNL A   1      45.648  41.027  36.305  1.00  0.00     0.202 C 
BRANCH  45  46
ATOM     46  C   UNL A   1      44.505  40.767  35.277  1.00  0.00     0.261 C 
BRANCH  46  47
ATOM     47  O   UNL A   1      44.031  39.428  34.918  1.00  0.00    -0.460 OA
BRANCH  47  48
ATOM     48  C   UNL A   1      43.580  39.270  33.628  1.00  0.00     0.338 C 
ATOM     49  O   UNL A   1      42.959  40.144  33.031  1.00  0.00    -0.246 OA
BRANCH  48  50
ATOM     50  C   UNL A   1      43.915  37.935  32.957  1.00  0.00     0.060 A 
ATOM     51  C   UNL A   1      43.674  37.757  31.594  1.00  0.00     0.016 A 
ATOM     52  C   UNL A   1      44.170  36.751  33.678  1.00  0.00     0.016 A 
ATOM     53  C   UNL A   1      43.732  36.457  30.982  1.00  0.00     0.010 A 
ATOM     54  C   UNL A   1      44.176  35.426  33.063  1.00  0.00     0.010 A 
ATOM     55  C   UNL A   1      43.958  35.225  31.688  1.00  0.00    -0.014 A 
BRANCH  55  56
ATOM     56  C   UNL A   1      43.419  33.885  31.011  1.00  0.00     0.031 A 
ATOM     57  C   UNL A   1      41.933  33.971  31.169  1.00  0.00     0.074 A 
ATOM     58  C   UNL A   1      43.888  32.709  30.425  1.00  0.00     0.049 A 
ATOM     59  N   UNL A   1      41.371  34.247  32.316  1.00  0.00    -0.248 NA
ATOM     60  C   UNL A   1      41.028  34.091  30.021  1.00  0.00     0.031 C 
ATOM     61  C   UNL A   1      45.289  32.287  30.268  1.00  0.00     0.029 A 
ATOM     62  N   UNL A   1      43.231  31.590  29.814  1.00  0.00    -0.354 N 
ATOM     63  C   UNL A   1      40.027  34.129  32.094  1.00  0.00     0.074 A 
ATOM     64  C   UNL A   1      39.884  34.342  30.664  1.00  0.00     0.031 C 
ATOM     65  C   UNL A   1      45.396  31.142  29.530  1.00  0.00     0.029 A 
ATOM     66  C   UNL A   1      44.080  30.626  29.158  1.00  0.00     0.049 A 
ATOM     67  H   UNL A   1      42.252  31.486  29.838  1.00  0.00     0.167 HD
ATOM     68  C   UNL A   1      39.349  33.244  32.883  1.00  0.00     0.034 A 
ATOM     69  C   UNL A   1      43.791  29.469  28.440  1.00  0.00     0.034 A 
ATOM     70  C   UNL A   1      38.848  32.111  32.158  1.00  0.00     0.049 A 
ATOM     71  C   UNL A   1      42.432  29.052  28.823  1.00  0.00     0.074 A 
ATOM     72  C   UNL A   1      38.189  31.960  30.954  1.00  0.00     0.029 A 
ATOM     73  N   UNL A   1      39.411  30.888  32.458  1.00  0.00    -0.354 N 
ATOM     74  N   UNL A   1      42.205  28.397  29.921  1.00  0.00    -0.248 NA
ATOM     75  C   UNL A   1      41.280  29.211  27.943  1.00  0.00     0.031 C 
ATOM     76  C   UNL A   1      38.762  30.815  30.353  1.00  0.00     0.029 A 
ATOM     77  C   UNL A   1      39.513  30.137  31.302  1.00  0.00     0.049 A 
ATOM     78  H   UNL A   1      39.696  30.597  33.355  1.00  0.00     0.167 HD
ATOM     79  C   UNL A   1      40.863  28.558  30.102  1.00  0.00     0.074 A 
ATOM     80  C   UNL A   1      40.325  28.792  28.777  1.00  0.00     0.031 C 
ATOM     81  C   UNL A   1      40.456  29.042  31.300  1.00  0.00     0.034 A 
BRANCH  68  82
ATOM     82  C   UNL A   1      39.757  33.220  34.332  1.00  0.00     0.023 A 
ATOM     83  C   UNL A   1      41.001  32.649  34.648  1.00  0.00     0.012 A 
ATOM     84  C   UNL A   1      38.888  33.591  35.387  1.00  0.00     0.148 A 
ATOM     85  C   UNL A   1      41.349  32.396  35.977  1.00  0.00     0.002 A 
ATOM     86  C   UNL A   1      39.191  33.238  36.696  1.00  0.00     0.091 A 
ATOM     87  F   UNL A   1      37.777  34.286  35.094  1.00  0.00    -0.205 F 
ATOM     88  C   UNL A   1      40.429  32.654  36.996  1.00  0.00     0.022 A 
BRANCH  86  89
ATOM     89  S   UNL A   1      37.962  33.293  38.013  1.00  0.00     0.127 S 
ATOM     90  O   UNL A   1      38.213  34.605  38.617  1.00  0.00    -0.237 OA
ATOM     91  O   UNL A   1      36.703  33.200  37.282  1.00  0.00    -0.237 OA
ATOM     92  O   UNL A   1      38.261  32.177  38.903  1.00  0.00    -0.744 OA
ENDBRANCH  86  89
ENDBRANCH  68  82
BRANCH  69  93
ATOM     93  C   UNL A   1      44.416  28.360  27.545  1.00  0.00     0.023 A 
ATOM     94  C   UNL A   1      43.596  27.225  27.203  1.00  0.00     0.012 A 
ATOM     95  C   UNL A   1      45.553  28.532  26.728  1.00  0.00     0.148 A 
ATOM     96  C   UNL A   1      43.810  26.404  26.083  1.00  0.00     0.002 A 
ATOM     97  C   UNL A   1      45.784  27.679  25.616  1.00  0.00     0.091 A 
ATOM     98  F   UNL A   1      46.353  29.579  26.968  1.00  0.00    -0.205 F 
ATOM     99  C   UNL A   1      44.901  26.640  25.278  1.00  0.00     0.022 A 
BRANCH  97 100
ATOM    100  S   UNL A   1      47.169  27.883  24.474  1.00  0.00     0.127 S 
ATOM    101  O   UNL A   1      47.255  26.568  23.835  1.00  0.00    -0.237 OA
ATOM    102  O   UNL A   1      46.684  28.948  23.599  1.00  0.00    -0.237 OA
ATOM    103  O   UNL A   1      48.310  28.219  25.313  1.00  0.00    -0.744 OA
ENDBRANCH  97 100
ENDBRANCH  69  93
BRANCH  81 104
ATOM    104  C   UNL A   1      41.208  28.573  32.533  1.00  0.00     0.023 A 
ATOM    105  C   UNL A   1      40.922  27.391  33.255  1.00  0.00     0.012 A 
ATOM    106  C   UNL A   1      42.254  29.383  33.001  1.00  0.00     0.148 A 
ATOM    107  C   UNL A   1      41.616  27.061  34.424  1.00  0.00     0.002 A 
ATOM    108  C   UNL A   1      42.979  29.028  34.136  1.00  0.00     0.091 A 
ATOM    109  F   UNL A   1      42.518  30.517  32.334  1.00  0.00    -0.205 F 
ATOM    110  C   UNL A   1      42.656  27.873  34.859  1.00  0.00     0.022 A 
BRANCH 108 111
ATOM    111  S   UNL A   1      44.357  30.037  34.683  1.00  0.00     0.127 S 
ATOM    112  O   UNL A   1      44.100  31.298  33.989  1.00  0.00    -0.237 OA
ATOM    113  O   UNL A   1      44.181  30.094  36.131  1.00  0.00    -0.237 OA
ATOM    114  O   UNL A   1      45.551  29.317  34.251  1.00  0.00    -0.744 OA
ENDBRANCH 108 111
ENDBRANCH  81 104
ENDBRANCH  55  56
ENDBRANCH  48  50
ENDBRANCH  47  48
ENDBRANCH  46  47
ENDBRANCH  45  46
ENDBRANCH  44  45
ENDBRANCH  43  44
ENDBRANCH  42  43
ENDBRANCH  41  42
ENDBRANCH   1  41
TORSDOF 31
ENDMDL
