MODEL 1
REMARK VINA RESULT:      -7.8      0.000      0.000
REMARK SMILES O=C(C[C@H](NC(=O)[C@]12C[C@H]3C[C@H](C[C@H](C3)C1)C2)c1cccc([N+](=O)[O-])c1)OCCOCCOCCOCCOC(=O)c1ccc(-c2c3nc(c(-c4cccc(S(=O)(=O)[O-])c4F)c4ccc([nH]4)c(-c4cccc(S(=O)(=O)[O-])c4F)c4nc(c(-c5cccc(S(=O)(=O)[O-])c5F)c5ccc2[nH]5)C=C4)C=C3)cc1
REMARK SMILES IDX 33 1 32 2 31 3 30 4 29 5 28 6 27 7 2 8 1 9 3 10 4 11 18 12
REMARK SMILES IDX 19 13 26 14 20 15 22 16 21 17 23 18 24 19 25 20 5 21 6 22
REMARK SMILES IDX 7 24 8 25 9 26 16 27 17 28 10 29 14 30 12 31 11 32 15 33
REMARK SMILES IDX 13 34 34 35 35 36 36 37 37 38 38 39 39 40 40 41 41 42 42 43
REMARK SMILES IDX 43 44 104 45 44 46 103 47 45 48 46 49 47 50 97 51 48 52
REMARK SMILES IDX 102 53 96 54 98 55 49 56 101 57 95 58 94 59 50 61 82 62
REMARK SMILES IDX 62 63 81 64 63 65 66 66 80 67 99 68 64 69 65 70 79 72 100 73
REMARK SMILES IDX 67 74 51 75 52 76 60 77 53 78 55 79 61 80 54 81 56 82 57 83
REMARK SMILES IDX 58 84 59 85 83 86 84 87 92 88 85 89 87 90 93 91 86 92 88 93
REMARK SMILES IDX 89 94 90 95 91 96 68 97 69 98 77 99 70 100 72 101 78 102
REMARK SMILES IDX 71 103 73 104 74 105 75 106 76 107
REMARK H PARENT 5 23 98 60 66 71
REMARK Flexibility Score: inf
ROOT
ATOM      1  O   UNL A   1      41.497  26.682  28.658  1.00  0.00    -0.377 OA
ENDROOT
BRANCH   1   2
ATOM      2  C   UNL A   1      40.603  27.765  28.879  1.00  0.00     0.188 C 
BRANCH   2   3
ATOM      3  C   UNL A   1      40.326  28.640  27.654  1.00  0.00     0.188 C 
BRANCH   3   4
ATOM      4  O   UNL A   1      38.989  29.127  27.574  1.00  0.00    -0.376 OA
BRANCH   4   5
ATOM      5  C   UNL A   1      37.994  28.662  28.486  1.00  0.00     0.202 C 
BRANCH   5   6
ATOM      6  C   UNL A   1      37.284  29.605  29.465  1.00  0.00     0.261 C 
BRANCH   6   7
ATOM      7  O   UNL A   1      35.873  29.778  29.291  1.00  0.00    -0.463 OA
BRANCH   7   8
ATOM      8  C   UNL A   1      35.479  30.742  28.428  1.00  0.00     0.308 C 
ATOM      9  O   UNL A   1      36.009  30.927  27.342  1.00  0.00    -0.252 OA
BRANCH   8  10
ATOM     10  C   UNL A   1      34.543  31.713  29.078  1.00  0.00     0.152 C 
BRANCH  10  11
ATOM     11  C   UNL A   1      35.216  32.702  29.996  1.00  0.00     0.123 C 
BRANCH  11  12
ATOM     12  C   UNL A   1      34.298  33.938  30.076  1.00  0.00    -0.018 A 
ATOM     13  C   UNL A   1      33.769  34.513  28.904  1.00  0.00     0.006 A 
ATOM     14  C   UNL A   1      34.152  34.643  31.287  1.00  0.00     0.091 A 
ATOM     15  C   UNL A   1      33.143  35.764  28.925  1.00  0.00     0.007 A 
ATOM     16  C   UNL A   1      33.513  35.899  31.301  1.00  0.00     0.269 A 
ATOM     17  C   UNL A   1      33.015  36.465  30.121  1.00  0.00     0.085 A 
BRANCH  16  18
ATOM     18  N   UNL A   1      33.421  36.662  32.553  1.00  0.00     0.062 N 
ATOM     19  O   UNL A   1      34.475  36.918  33.153  1.00  0.00    -0.258 OA
ATOM     20  O   UNL A   1      32.293  36.999  32.937  1.00  0.00    -0.258 OA
ENDBRANCH  16  18
ENDBRANCH  11  12
BRANCH  11  21
ATOM     21  N   UNL A   1      35.619  32.245  31.340  1.00  0.00    -0.348 N 
ATOM     22  C   UNL A   1      36.661  32.241  32.204  1.00  0.00     0.226 C 
ATOM     23  H   UNL A   1      34.858  31.780  31.757  1.00  0.00     0.164 HD
ATOM     24  O   UNL A   1      36.361  31.783  33.319  1.00  0.00    -0.274 OA
BRANCH  22  25
ATOM     25  C   UNL A   1      38.115  32.714  31.951  1.00  0.00     0.050 C 
ATOM     26  C   UNL A   1      39.088  32.360  33.106  1.00  0.00     0.020 C 
ATOM     27  C   UNL A   1      38.159  34.199  31.526  1.00  0.00     0.020 C 
ATOM     28  C   UNL A   1      38.700  31.927  30.720  1.00  0.00     0.020 C 
ATOM     29  C   UNL A   1      40.508  32.878  32.809  1.00  0.00    -0.010 C 
ATOM     30  C   UNL A   1      39.598  34.661  31.263  1.00  0.00    -0.010 C 
ATOM     31  C   UNL A   1      40.140  32.377  30.383  1.00  0.00    -0.010 C 
ATOM     32  C   UNL A   1      41.058  32.130  31.591  1.00  0.00     0.007 C 
ATOM     33  C   UNL A   1      40.479  34.380  32.494  1.00  0.00     0.007 C 
ATOM     34  C   UNL A   1      40.147  33.880  30.061  1.00  0.00     0.007 C 
ENDBRANCH  22  25
ENDBRANCH  11  21
ENDBRANCH  10  11
ENDBRANCH   8  10
ENDBRANCH   7   8
ENDBRANCH   6   7
ENDBRANCH   5   6
ENDBRANCH   4   5
ENDBRANCH   3   4
ENDBRANCH   2   3
ENDBRANCH   1   2
BRANCH   1  35
ATOM     35  C   UNL A   1      41.068  25.727  27.699  1.00  0.00     0.188 C 
BRANCH  35  36
ATOM     36  C   UNL A   1      41.988  24.513  27.425  1.00  0.00     0.188 C 
BRANCH  36  37
ATOM     37  O   UNL A   1      41.689  23.785  26.237  1.00  0.00    -0.376 OA
BRANCH  37  38
ATOM     38  C   UNL A   1      42.817  23.215  25.578  1.00  0.00     0.202 C 
BRANCH  38  39
ATOM     39  C   UNL A   1      43.802  24.221  24.959  1.00  0.00     0.261 C 
BRANCH  39  40
ATOM     40  O   UNL A   1      45.022  24.419  25.689  1.00  0.00    -0.460 OA
BRANCH  40  41
ATOM     41  C   UNL A   1      45.796  25.477  25.361  1.00  0.00     0.338 C 
ATOM     42  O   UNL A   1      46.411  25.631  24.318  1.00  0.00    -0.246 OA
BRANCH  41  43
ATOM     43  C   UNL A   1      45.537  26.544  26.363  1.00  0.00     0.060 A 
ATOM     44  C   UNL A   1      46.539  26.828  27.305  1.00  0.00     0.016 A 
ATOM     45  C   UNL A   1      44.404  27.363  26.278  1.00  0.00     0.016 A 
ATOM     46  C   UNL A   1      46.413  27.932  28.152  1.00  0.00     0.010 A 
ATOM     47  C   UNL A   1      44.261  28.447  27.153  1.00  0.00     0.010 A 
ATOM     48  C   UNL A   1      45.254  28.723  28.106  1.00  0.00    -0.014 A 
BRANCH  48  49
ATOM     49  C   UNL A   1      44.964  29.640  29.237  1.00  0.00     0.031 A 
ATOM     50  C   UNL A   1      44.522  29.004  30.527  1.00  0.00     0.074 A 
ATOM     51  C   UNL A   1      45.081  30.979  29.146  1.00  0.00     0.049 A 
ATOM     52  N   UNL A   1      44.239  29.559  31.675  1.00  0.00    -0.248 NA
ATOM     53  C   UNL A   1      44.384  27.536  30.519  1.00  0.00     0.031 C 
ATOM     54  C   UNL A   1      45.486  31.723  27.955  1.00  0.00     0.029 A 
ATOM     55  N   UNL A   1      44.845  31.954  30.087  1.00  0.00    -0.354 N 
ATOM     56  C   UNL A   1      43.893  28.514  32.521  1.00  0.00     0.074 A 
ATOM     57  C   UNL A   1      43.979  27.292  31.753  1.00  0.00     0.031 C 
ATOM     58  C   UNL A   1      45.439  33.041  28.229  1.00  0.00     0.029 A 
ATOM     59  C   UNL A   1      44.993  33.235  29.609  1.00  0.00     0.049 A 
ATOM     60  H   UNL A   1      44.592  31.752  31.017  1.00  0.00     0.167 HD
ATOM     61  C   UNL A   1      43.549  28.557  33.827  1.00  0.00     0.034 A 
ATOM     62  C   UNL A   1      44.780  34.421  30.218  1.00  0.00     0.034 A 
ATOM     63  C   UNL A   1      43.440  29.764  34.591  1.00  0.00     0.049 A 
ATOM     64  C   UNL A   1      44.353  34.443  31.667  1.00  0.00     0.074 A 
ATOM     65  C   UNL A   1      43.112  29.909  35.927  1.00  0.00     0.029 A 
ATOM     66  N   UNL A   1      43.635  31.038  34.083  1.00  0.00    -0.354 N 
ATOM     67  N   UNL A   1      44.169  33.440  32.492  1.00  0.00    -0.248 NA
ATOM     68  C   UNL A   1      44.139  35.764  32.280  1.00  0.00     0.031 C 
ATOM     69  C   UNL A   1      43.089  31.276  36.222  1.00  0.00     0.029 A 
ATOM     70  C   UNL A   1      43.428  31.978  35.076  1.00  0.00     0.049 A 
ATOM     71  H   UNL A   1      43.885  31.244  33.153  1.00  0.00     0.167 HD
ATOM     72  C   UNL A   1      43.854  34.008  33.724  1.00  0.00     0.074 A 
ATOM     73  C   UNL A   1      43.900  35.444  33.544  1.00  0.00     0.031 C 
ATOM     74  C   UNL A   1      43.536  33.401  34.895  1.00  0.00     0.034 A 
BRANCH  61  75
ATOM     75  C   UNL A   1      43.294  27.245  34.515  1.00  0.00     0.023 A 
ATOM     76  C   UNL A   1      41.967  26.799  34.679  1.00  0.00     0.012 A 
ATOM     77  C   UNL A   1      44.359  26.440  34.959  1.00  0.00     0.148 A 
ATOM     78  C   UNL A   1      41.702  25.577  35.294  1.00  0.00     0.002 A 
ATOM     79  C   UNL A   1      44.089  25.206  35.534  1.00  0.00     0.091 A 
ATOM     80  F   UNL A   1      45.610  26.902  34.821  1.00  0.00    -0.205 F 
ATOM     81  C   UNL A   1      42.763  24.776  35.710  1.00  0.00     0.022 A 
BRANCH  79  82
ATOM     82  S   UNL A   1      45.382  24.068  36.042  1.00  0.00     0.127 S 
ATOM     83  O   UNL A   1      45.868  24.702  37.267  1.00  0.00    -0.237 OA
ATOM     84  O   UNL A   1      44.634  22.829  36.252  1.00  0.00    -0.237 OA
ATOM     85  O   UNL A   1      46.337  24.027  34.943  1.00  0.00    -0.744 OA
ENDBRANCH  79  82
ENDBRANCH  61  75
BRANCH  62  86
ATOM     86  C   UNL A   1      44.984  35.705  29.480  1.00  0.00     0.023 A 
ATOM     87  C   UNL A   1      46.279  36.250  29.371  1.00  0.00     0.012 A 
ATOM     88  C   UNL A   1      43.899  36.408  28.921  1.00  0.00     0.148 A 
ATOM     89  C   UNL A   1      46.484  37.487  28.757  1.00  0.00     0.002 A 
ATOM     90  C   UNL A   1      44.117  37.613  28.262  1.00  0.00     0.091 A 
ATOM     91  F   UNL A   1      42.669  35.891  29.058  1.00  0.00    -0.205 F 
ATOM     92  C   UNL A   1      45.405  38.164  28.196  1.00  0.00     0.022 A 
BRANCH  90  93
ATOM     93  S   UNL A   1      42.802  38.488  27.408  1.00  0.00     0.127 S 
ATOM     94  O   UNL A   1      42.400  37.513  26.397  1.00  0.00    -0.237 OA
ATOM     95  O   UNL A   1      41.829  38.699  28.482  1.00  0.00    -0.237 OA
ATOM     96  O   UNL A   1      43.412  39.712  26.906  1.00  0.00    -0.744 OA
ENDBRANCH  90  93
ENDBRANCH  62  86
BRANCH  74  97
ATOM     97  C   UNL A   1      43.249  34.278  36.087  1.00  0.00     0.023 A 
ATOM     98  C   UNL A   1      44.315  34.781  36.859  1.00  0.00     0.012 A 
ATOM     99  C   UNL A   1      41.930  34.664  36.396  1.00  0.00     0.148 A 
ATOM    100  C   UNL A   1      44.069  35.624  37.944  1.00  0.00     0.002 A 
ATOM    101  C   UNL A   1      41.697  35.544  37.447  1.00  0.00     0.091 A 
ATOM    102  F   UNL A   1      40.927  34.164  35.660  1.00  0.00    -0.205 F 
ATOM    103  C   UNL A   1      42.763  36.014  38.230  1.00  0.00     0.022 A 
BRANCH 101 104
ATOM    104  S   UNL A   1      40.057  36.175  37.822  1.00  0.00     0.127 S 
ATOM    105  O   UNL A   1      39.627  36.682  36.520  1.00  0.00    -0.237 OA
ATOM    106  O   UNL A   1      39.353  34.973  38.271  1.00  0.00    -0.237 OA
ATOM    107  O   UNL A   1      40.245  37.183  38.857  1.00  0.00    -0.744 OA
ENDBRANCH 101 104
ENDBRANCH  74  97
ENDBRANCH  48  49
ENDBRANCH  41  43
ENDBRANCH  40  41
ENDBRANCH  39  40
ENDBRANCH  38  39
ENDBRANCH  37  38
ENDBRANCH  36  37
ENDBRANCH  35  36
ENDBRANCH   1  35
TORSDOF 28
ENDMDL
MODEL 2
REMARK VINA RESULT:      -7.3      3.464      9.585
REMARK SMILES O=C(C[C@H](NC(=O)[C@]12C[C@H]3C[C@H](C[C@H](C3)C1)C2)c1cccc([N+](=O)[O-])c1)OCCOCCOCCOCCOC(=O)c1ccc(-c2c3nc(c(-c4cccc(S(=O)(=O)[O-])c4F)c4ccc([nH]4)c(-c4cccc(S(=O)(=O)[O-])c4F)c4nc(c(-c5cccc(S(=O)(=O)[O-])c5F)c5ccc2[nH]5)C=C4)C=C3)cc1
REMARK SMILES IDX 33 1 32 2 31 3 30 4 29 5 28 6 27 7 2 8 1 9 3 10 4 11 18 12
REMARK SMILES IDX 19 13 26 14 20 15 22 16 21 17 23 18 24 19 25 20 5 21 6 22
REMARK SMILES IDX 7 24 8 25 9 26 16 27 17 28 10 29 14 30 12 31 11 32 15 33
REMARK SMILES IDX 13 34 34 35 35 36 36 37 37 38 38 39 39 40 40 41 41 42 42 43
REMARK SMILES IDX 43 44 104 45 44 46 103 47 45 48 46 49 47 50 97 51 48 52
REMARK SMILES IDX 102 53 96 54 98 55 49 56 101 57 95 58 94 59 50 61 82 62
REMARK SMILES IDX 62 63 81 64 63 65 66 66 80 67 99 68 64 69 65 70 79 72 100 73
REMARK SMILES IDX 67 74 51 75 52 76 60 77 53 78 55 79 61 80 54 81 56 82 57 83
REMARK SMILES IDX 58 84 59 85 83 86 84 87 92 88 85 89 87 90 93 91 86 92 88 93
REMARK SMILES IDX 89 94 90 95 91 96 68 97 69 98 77 99 70 100 72 101 78 102
REMARK SMILES IDX 71 103 73 104 74 105 75 106 76 107
REMARK H PARENT 5 23 98 60 66 71
REMARK Flexibility Score: inf
ROOT
ATOM      1  O   UNL A   1      38.351  34.277  32.834  1.00  0.00    -0.377 OA
ENDROOT
BRANCH   1   2
ATOM      2  C   UNL A   1      39.209  34.931  33.760  1.00  0.00     0.188 C 
BRANCH   2   3
ATOM      3  C   UNL A   1      40.551  34.237  34.006  1.00  0.00     0.188 C 
BRANCH   3   4
ATOM      4  O   UNL A   1      40.558  33.362  35.130  1.00  0.00    -0.376 OA
BRANCH   4   5
ATOM      5  C   UNL A   1      40.660  33.884  36.454  1.00  0.00     0.202 C 
BRANCH   5   6
ATOM      6  C   UNL A   1      41.647  33.314  37.481  1.00  0.00     0.261 C 
BRANCH   6   7
ATOM      7  O   UNL A   1      42.865  32.760  36.971  1.00  0.00    -0.463 OA
BRANCH   7   8
ATOM      8  C   UNL A   1      42.889  31.424  36.767  1.00  0.00     0.308 C 
ATOM      9  O   UNL A   1      43.110  30.614  37.656  1.00  0.00    -0.252 OA
BRANCH   8  10
ATOM     10  C   UNL A   1      42.912  31.091  35.308  1.00  0.00     0.152 C 
BRANCH  10  11
ATOM     11  C   UNL A   1      42.350  29.732  34.974  1.00  0.00     0.123 C 
BRANCH  11  12
ATOM     12  C   UNL A   1      40.839  29.919  34.726  1.00  0.00    -0.018 A 
ATOM     13  C   UNL A   1      40.328  29.945  33.414  1.00  0.00     0.006 A 
ATOM     14  C   UNL A   1      39.982  30.285  35.782  1.00  0.00     0.091 A 
ATOM     15  C   UNL A   1      39.015  30.354  33.152  1.00  0.00     0.007 A 
ATOM     16  C   UNL A   1      38.659  30.688  35.511  1.00  0.00     0.269 A 
ATOM     17  C   UNL A   1      38.176  30.731  34.197  1.00  0.00     0.085 A 
BRANCH  16  18
ATOM     18  N   UNL A   1      37.787  31.134  36.607  1.00  0.00     0.062 N 
ATOM     19  O   UNL A   1      37.365  32.298  36.573  1.00  0.00    -0.258 OA
ATOM     20  O   UNL A   1      37.532  30.318  37.504  1.00  0.00    -0.258 OA
ENDBRANCH  16  18
ENDBRANCH  11  12
BRANCH  11  21
ATOM     21  N   UNL A   1      42.981  28.964  33.884  1.00  0.00    -0.348 N 
ATOM     22  C   UNL A   1      43.378  27.716  33.542  1.00  0.00     0.226 C 
ATOM     23  H   UNL A   1      43.184  29.577  33.141  1.00  0.00     0.164 HD
ATOM     24  O   UNL A   1      43.763  27.638  32.364  1.00  0.00    -0.274 OA
BRANCH  22  25
ATOM     25  C   UNL A   1      43.408  26.444  34.428  1.00  0.00     0.050 C 
ATOM     26  C   UNL A   1      42.000  25.964  34.867  1.00  0.00     0.020 C 
ATOM     27  C   UNL A   1      44.412  26.593  35.593  1.00  0.00     0.020 C 
ATOM     28  C   UNL A   1      43.960  25.242  33.574  1.00  0.00     0.020 C 
ATOM     29  C   UNL A   1      42.098  24.716  35.764  1.00  0.00    -0.010 C 
ATOM     30  C   UNL A   1      44.451  25.328  36.461  1.00  0.00    -0.010 C 
ATOM     31  C   UNL A   1      44.056  23.943  34.408  1.00  0.00    -0.010 C 
ATOM     32  C   UNL A   1      42.665  23.559  34.935  1.00  0.00     0.007 C 
ATOM     33  C   UNL A   1      43.035  24.977  36.951  1.00  0.00     0.007 C 
ATOM     34  C   UNL A   1      44.990  24.171  35.607  1.00  0.00     0.007 C 
ENDBRANCH  22  25
ENDBRANCH  11  21
ENDBRANCH  10  11
ENDBRANCH   8  10
ENDBRANCH   7   8
ENDBRANCH   6   7
ENDBRANCH   5   6
ENDBRANCH   4   5
ENDBRANCH   3   4
ENDBRANCH   2   3
ENDBRANCH   1   2
BRANCH   1  35
ATOM     35  C   UNL A   1      38.996  33.714  31.702  1.00  0.00     0.188 C 
BRANCH  35  36
ATOM     36  C   UNL A   1      38.110  33.055  30.617  1.00  0.00     0.188 C 
BRANCH  36  37
ATOM     37  O   UNL A   1      36.874  32.525  31.087  1.00  0.00    -0.376 OA
BRANCH  37  38
ATOM     38  C   UNL A   1      35.712  33.043  30.444  1.00  0.00     0.202 C 
BRANCH  38  39
ATOM     39  C   UNL A   1      34.925  32.039  29.586  1.00  0.00     0.261 C 
BRANCH  39  40
ATOM     40  O   UNL A   1      35.640  31.487  28.470  1.00  0.00    -0.460 OA
BRANCH  40  41
ATOM     41  C   UNL A   1      35.704  30.142  28.356  1.00  0.00     0.338 C 
ATOM     42  O   UNL A   1      34.798  29.400  28.011  1.00  0.00    -0.246 OA
BRANCH  41  43
ATOM     43  C   UNL A   1      37.135  29.756  28.442  1.00  0.00     0.060 A 
ATOM     44  C   UNL A   1      37.595  29.168  29.632  1.00  0.00     0.016 A 
ATOM     45  C   UNL A   1      37.974  29.813  27.321  1.00  0.00     0.016 A 
ATOM     46  C   UNL A   1      38.884  28.633  29.698  1.00  0.00     0.010 A 
ATOM     47  C   UNL A   1      39.279  29.311  27.401  1.00  0.00     0.010 A 
ATOM     48  C   UNL A   1      39.745  28.738  28.595  1.00  0.00    -0.014 A 
BRANCH  48  49
ATOM     49  C   UNL A   1      41.200  28.515  28.793  1.00  0.00     0.031 A 
ATOM     50  C   UNL A   1      41.769  27.234  28.247  1.00  0.00     0.074 A 
ATOM     51  C   UNL A   1      41.998  29.397  29.424  1.00  0.00     0.049 A 
ATOM     52  N   UNL A   1      43.001  26.803  28.248  1.00  0.00    -0.248 NA
ATOM     53  C   UNL A   1      40.810  26.313  27.609  1.00  0.00     0.031 C 
ATOM     54  C   UNL A   1      41.575  30.667  30.010  1.00  0.00     0.029 A 
ATOM     55  N   UNL A   1      43.346  29.336  29.693  1.00  0.00    -0.354 N 
ATOM     56  C   UNL A   1      42.966  25.568  27.614  1.00  0.00     0.074 A 
ATOM     57  C   UNL A   1      41.590  25.305  27.257  1.00  0.00     0.031 C 
ATOM     58  C   UNL A   1      42.638  31.252  30.597  1.00  0.00     0.029 A 
ATOM     59  C   UNL A   1      43.813  30.394  30.437  1.00  0.00     0.049 A 
ATOM     60  H   UNL A   1      43.923  28.601  29.381  1.00  0.00     0.167 HD
ATOM     61  C   UNL A   1      43.987  24.729  27.333  1.00  0.00     0.034 A 
ATOM     62  C   UNL A   1      45.044  30.629  30.939  1.00  0.00     0.034 A 
ATOM     63  C   UNL A   1      45.352  24.970  27.700  1.00  0.00     0.049 A 
ATOM     64  C   UNL A   1      46.160  29.653  30.648  1.00  0.00     0.074 A 
ATOM     65  C   UNL A   1      46.461  24.186  27.446  1.00  0.00     0.029 A 
ATOM     66  N   UNL A   1      45.791  26.070  28.419  1.00  0.00    -0.354 N 
ATOM     67  N   UNL A   1      46.139  28.561  29.922  1.00  0.00    -0.248 NA
ATOM     68  C   UNL A   1      47.483  29.963  31.215  1.00  0.00     0.031 C 
ATOM     69  C   UNL A   1      47.572  24.802  28.030  1.00  0.00     0.029 A 
ATOM     70  C   UNL A   1      47.156  25.983  28.625  1.00  0.00     0.049 A 
ATOM     71  H   UNL A   1      45.217  26.805  28.735  1.00  0.00     0.167 HD
ATOM     72  C   UNL A   1      47.444  28.075  29.917  1.00  0.00     0.074 A 
ATOM     73  C   UNL A   1      48.237  29.008  30.689  1.00  0.00     0.031 C 
ATOM     74  C   UNL A   1      47.941  26.951  29.345  1.00  0.00     0.034 A 
BRANCH  61  75
ATOM     75  C   UNL A   1      43.661  23.481  26.563  1.00  0.00     0.023 A 
ATOM     76  C   UNL A   1      44.184  23.313  25.265  1.00  0.00     0.012 A 
ATOM     77  C   UNL A   1      42.875  22.461  27.133  1.00  0.00     0.148 A 
ATOM     78  C   UNL A   1      43.915  22.157  24.537  1.00  0.00     0.002 A 
ATOM     79  C   UNL A   1      42.646  21.295  26.417  1.00  0.00     0.091 A 
ATOM     80  F   UNL A   1      42.362  22.659  28.355  1.00  0.00    -0.205 F 
ATOM     81  C   UNL A   1      43.157  21.143  25.117  1.00  0.00     0.022 A 
BRANCH  79  82
ATOM     82  S   UNL A   1      41.739  19.901  27.097  1.00  0.00     0.127 S 
ATOM     83  O   UNL A   1      42.781  19.217  27.862  1.00  0.00    -0.237 OA
ATOM     84  O   UNL A   1      40.722  20.567  27.911  1.00  0.00    -0.237 OA
ATOM     85  O   UNL A   1      41.220  19.162  25.955  1.00  0.00    -0.744 OA
ENDBRANCH  79  82
ENDBRANCH  61  75
BRANCH  62  86
ATOM     86  C   UNL A   1      45.316  31.852  31.754  1.00  0.00     0.023 A 
ATOM     87  C   UNL A   1      45.429  31.747  33.155  1.00  0.00     0.012 A 
ATOM     88  C   UNL A   1      45.423  33.122  31.154  1.00  0.00     0.148 A 
ATOM     89  C   UNL A   1      45.603  32.886  33.944  1.00  0.00     0.002 A 
ATOM     90  C   UNL A   1      45.651  34.245  31.941  1.00  0.00     0.091 A 
ATOM     91  F   UNL A   1      45.284  33.209  29.823  1.00  0.00    -0.205 F 
ATOM     92  C   UNL A   1      45.722  34.133  33.338  1.00  0.00     0.022 A 
BRANCH  90  93
ATOM     93  S   UNL A   1      45.937  35.870  31.231  1.00  0.00     0.127 S 
ATOM     94  O   UNL A   1      46.352  36.640  32.400  1.00  0.00    -0.237 OA
ATOM     95  O   UNL A   1      47.001  35.596  30.263  1.00  0.00    -0.237 OA
ATOM     96  O   UNL A   1      44.668  36.259  30.629  1.00  0.00    -0.744 OA
ENDBRANCH  90  93
ENDBRANCH  62  86
BRANCH  74  97
ATOM     97  C   UNL A   1      49.416  26.677  29.493  1.00  0.00     0.023 A 
ATOM     98  C   UNL A   1      50.320  27.175  28.534  1.00  0.00     0.012 A 
ATOM     99  C   UNL A   1      49.911  25.994  30.621  1.00  0.00     0.148 A 
ATOM    100  C   UNL A   1      51.692  26.963  28.676  1.00  0.00     0.002 A 
ATOM    101  C   UNL A   1      51.283  25.831  30.781  1.00  0.00     0.091 A 
ATOM    102  F   UNL A   1      49.036  25.515  31.516  1.00  0.00    -0.205 F 
ATOM    103  C   UNL A   1      52.174  26.303  29.804  1.00  0.00     0.022 A 
BRANCH 101 104
ATOM    104  S   UNL A   1      51.993  25.080  32.251  1.00  0.00     0.127 S 
ATOM    105  O   UNL A   1      53.422  25.122  31.946  1.00  0.00    -0.237 OA
ATOM    106  O   UNL A   1      51.568  25.997  33.309  1.00  0.00    -0.237 OA
ATOM    107  O   UNL A   1      51.409  23.748  32.340  1.00  0.00    -0.744 OA
ENDBRANCH 101 104
ENDBRANCH  74  97
ENDBRANCH  48  49
ENDBRANCH  41  43
ENDBRANCH  40  41
ENDBRANCH  39  40
ENDBRANCH  38  39
ENDBRANCH  37  38
ENDBRANCH  36  37
ENDBRANCH  35  36
ENDBRANCH   1  35
TORSDOF 28
ENDMDL
MODEL 3
REMARK VINA RESULT:      -7.2      3.879     10.679
REMARK SMILES O=C(C[C@H](NC(=O)[C@]12C[C@H]3C[C@H](C[C@H](C3)C1)C2)c1cccc([N+](=O)[O-])c1)OCCOCCOCCOCCOC(=O)c1ccc(-c2c3nc(c(-c4cccc(S(=O)(=O)[O-])c4F)c4ccc([nH]4)c(-c4cccc(S(=O)(=O)[O-])c4F)c4nc(c(-c5cccc(S(=O)(=O)[O-])c5F)c5ccc2[nH]5)C=C4)C=C3)cc1
REMARK SMILES IDX 33 1 32 2 31 3 30 4 29 5 28 6 27 7 2 8 1 9 3 10 4 11 18 12
REMARK SMILES IDX 19 13 26 14 20 15 22 16 21 17 23 18 24 19 25 20 5 21 6 22
REMARK SMILES IDX 7 24 8 25 9 26 16 27 17 28 10 29 14 30 12 31 11 32 15 33
REMARK SMILES IDX 13 34 34 35 35 36 36 37 37 38 38 39 39 40 40 41 41 42 42 43
REMARK SMILES IDX 43 44 104 45 44 46 103 47 45 48 46 49 47 50 97 51 48 52
REMARK SMILES IDX 102 53 96 54 98 55 49 56 101 57 95 58 94 59 50 61 82 62
REMARK SMILES IDX 62 63 81 64 63 65 66 66 80 67 99 68 64 69 65 70 79 72 100 73
REMARK SMILES IDX 67 74 51 75 52 76 60 77 53 78 55 79 61 80 54 81 56 82 57 83
REMARK SMILES IDX 58 84 59 85 83 86 84 87 92 88 85 89 87 90 93 91 86 92 88 93
REMARK SMILES IDX 89 94 90 95 91 96 68 97 69 98 77 99 70 100 72 101 78 102
REMARK SMILES IDX 71 103 73 104 74 105 75 106 76 107
REMARK H PARENT 5 23 98 60 66 71
REMARK Flexibility Score: inf
ROOT
ATOM      1  O   UNL A   1      32.613  35.300  31.640  1.00  0.00    -0.377 OA
ENDROOT
BRANCH   1   2
ATOM      2  C   UNL A   1      33.595  34.935  32.601  1.00  0.00     0.188 C 
BRANCH   2   3
ATOM      3  C   UNL A   1      34.998  35.490  32.341  1.00  0.00     0.188 C 
BRANCH   3   4
ATOM      4  O   UNL A   1      35.891  35.359  33.443  1.00  0.00    -0.376 OA
BRANCH   4   5
ATOM      5  C   UNL A   1      35.584  34.479  34.524  1.00  0.00     0.202 C 
BRANCH   5   6
ATOM      6  C   UNL A   1      36.378  33.192  34.777  1.00  0.00     0.261 C 
BRANCH   6   7
ATOM      7  O   UNL A   1      37.460  33.271  35.713  1.00  0.00    -0.463 OA
BRANCH   7   8
ATOM      8  C   UNL A   1      38.259  32.185  35.815  1.00  0.00     0.308 C 
ATOM      9  O   UNL A   1      38.042  31.264  36.587  1.00  0.00    -0.252 OA
BRANCH   8  10
ATOM     10  C   UNL A   1      39.560  32.392  35.104  1.00  0.00     0.152 C 
BRANCH  10  11
ATOM     11  C   UNL A   1      40.738  32.613  36.019  1.00  0.00     0.123 C 
BRANCH  11  12
ATOM     12  C   UNL A   1      41.665  31.390  35.863  1.00  0.00    -0.018 A 
ATOM     13  C   UNL A   1      43.032  31.482  36.188  1.00  0.00     0.006 A 
ATOM     14  C   UNL A   1      41.217  30.236  35.190  1.00  0.00     0.091 A 
ATOM     15  C   UNL A   1      43.935  30.476  35.829  1.00  0.00     0.007 A 
ATOM     16  C   UNL A   1      42.132  29.223  34.839  1.00  0.00     0.269 A 
ATOM     17  C   UNL A   1      43.492  29.345  35.150  1.00  0.00     0.085 A 
BRANCH  16  18
ATOM     18  N   UNL A   1      41.675  28.052  34.079  1.00  0.00     0.062 N 
ATOM     19  O   UNL A   1      42.536  27.273  33.643  1.00  0.00    -0.258 OA
ATOM     20  O   UNL A   1      40.455  27.917  33.913  1.00  0.00    -0.258 OA
ENDBRANCH  16  18
ENDBRANCH  11  12
BRANCH  11  21
ATOM     21  N   UNL A   1      41.491  33.875  35.896  1.00  0.00    -0.348 N 
ATOM     22  C   UNL A   1      41.772  35.025  36.552  1.00  0.00     0.226 C 
ATOM     23  H   UNL A   1      41.956  33.883  35.028  1.00  0.00     0.164 HD
ATOM     24  O   UNL A   1      42.623  35.717  35.970  1.00  0.00    -0.274 OA
BRANCH  22  25
ATOM     25  C   UNL A   1      41.162  35.543  37.879  1.00  0.00     0.050 C 
ATOM     26  C   UNL A   1      39.620  35.709  37.827  1.00  0.00     0.020 C 
ATOM     27  C   UNL A   1      41.911  36.792  38.395  1.00  0.00     0.020 C 
ATOM     28  C   UNL A   1      41.379  34.456  38.997  1.00  0.00     0.020 C 
ATOM     29  C   UNL A   1      39.078  36.250  39.164  1.00  0.00    -0.010 C 
ATOM     30  C   UNL A   1      41.314  37.295  39.716  1.00  0.00    -0.010 C 
ATOM     31  C   UNL A   1      40.829  34.922  40.365  1.00  0.00    -0.010 C 
ATOM     32  C   UNL A   1      39.321  35.200  40.252  1.00  0.00     0.007 C 
ATOM     33  C   UNL A   1      39.804  37.544  39.556  1.00  0.00     0.007 C 
ATOM     34  C   UNL A   1      41.537  36.218  40.789  1.00  0.00     0.007 C 
ENDBRANCH  22  25
ENDBRANCH  11  21
ENDBRANCH  10  11
ENDBRANCH   8  10
ENDBRANCH   7   8
ENDBRANCH   6   7
ENDBRANCH   5   6
ENDBRANCH   4   5
ENDBRANCH   3   4
ENDBRANCH   2   3
ENDBRANCH   1   2
BRANCH   1  35
ATOM     35  C   UNL A   1      33.078  36.122  30.579  1.00  0.00     0.188 C 
BRANCH  35  36
ATOM     36  C   UNL A   1      33.110  35.517  29.155  1.00  0.00     0.188 C 
BRANCH  36  37
ATOM     37  O   UNL A   1      34.389  35.515  28.529  1.00  0.00    -0.376 OA
BRANCH  37  38
ATOM     38  C   UNL A   1      34.842  34.238  28.085  1.00  0.00     0.202 C 
BRANCH  38  39
ATOM     39  C   UNL A   1      34.636  33.080  29.076  1.00  0.00     0.261 C 
BRANCH  39  40
ATOM     40  O   UNL A   1      35.824  32.360  29.438  1.00  0.00    -0.460 OA
BRANCH  40  41
ATOM     41  C   UNL A   1      36.001  32.035  30.738  1.00  0.00     0.338 C 
ATOM     42  O   UNL A   1      35.125  31.896  31.577  1.00  0.00    -0.246 OA
BRANCH  41  43
ATOM     43  C   UNL A   1      37.411  31.596  30.898  1.00  0.00     0.060 A 
ATOM     44  C   UNL A   1      38.378  32.140  30.037  1.00  0.00     0.016 A 
ATOM     45  C   UNL A   1      37.807  30.795  31.977  1.00  0.00     0.016 A 
ATOM     46  C   UNL A   1      39.735  31.891  30.260  1.00  0.00     0.010 A 
ATOM     47  C   UNL A   1      39.164  30.515  32.176  1.00  0.00     0.010 A 
ATOM     48  C   UNL A   1      40.131  31.045  31.307  1.00  0.00    -0.014 A 
BRANCH  48  49
ATOM     49  C   UNL A   1      41.510  30.493  31.305  1.00  0.00     0.031 A 
ATOM     50  C   UNL A   1      42.580  31.345  31.931  1.00  0.00     0.074 A 
ATOM     51  C   UNL A   1      41.820  29.293  30.778  1.00  0.00     0.049 A 
ATOM     52  N   UNL A   1      43.851  31.097  32.097  1.00  0.00    -0.248 NA
ATOM     53  C   UNL A   1      42.152  32.660  32.445  1.00  0.00     0.031 C 
ATOM     54  C   UNL A   1      40.884  28.375  30.132  1.00  0.00     0.029 A 
ATOM     55  N   UNL A   1      43.033  28.652  30.692  1.00  0.00    -0.354 N 
ATOM     56  C   UNL A   1      44.372  32.217  32.731  1.00  0.00     0.074 A 
ATOM     57  C   UNL A   1      43.288  33.157  32.904  1.00  0.00     0.031 C 
ATOM     58  C   UNL A   1      41.565  27.301  29.686  1.00  0.00     0.029 A 
ATOM     59  C   UNL A   1      42.984  27.460  30.007  1.00  0.00     0.049 A 
ATOM     60  H   UNL A   1      43.861  29.014  31.083  1.00  0.00     0.167 HD
ATOM     61  C   UNL A   1      45.636  32.444  33.151  1.00  0.00     0.034 A 
ATOM     62  C   UNL A   1      43.976  26.607  29.672  1.00  0.00     0.034 A 
ATOM     63  C   UNL A   1      46.722  31.528  32.966  1.00  0.00     0.049 A 
ATOM     64  C   UNL A   1      45.389  26.905  30.116  1.00  0.00     0.074 A 
ATOM     65  C   UNL A   1      48.037  31.662  33.371  1.00  0.00     0.029 A 
ATOM     66  N   UNL A   1      46.626  30.315  32.303  1.00  0.00    -0.354 N 
ATOM     67  N   UNL A   1      45.838  27.902  30.840  1.00  0.00    -0.248 NA
ATOM     68  C   UNL A   1      46.429  25.939  29.726  1.00  0.00     0.031 C 
ATOM     69  C   UNL A   1      48.743  30.536  32.935  1.00  0.00     0.029 A 
ATOM     70  C   UNL A   1      47.859  29.691  32.280  1.00  0.00     0.049 A 
ATOM     71  H   UNL A   1      45.800  29.951  31.908  1.00  0.00     0.167 HD
ATOM     72  C   UNL A   1      47.198  27.665  31.022  1.00  0.00     0.074 A 
ATOM     73  C   UNL A   1      47.495  26.415  30.354  1.00  0.00     0.031 C 
ATOM     74  C   UNL A   1      48.125  28.419  31.664  1.00  0.00     0.034 A 
BRANCH  61  75
ATOM     75  C   UNL A   1      45.898  33.731  33.881  1.00  0.00     0.023 A 
ATOM     76  C   UNL A   1      45.796  33.761  35.286  1.00  0.00     0.012 A 
ATOM     77  C   UNL A   1      46.283  34.894  33.186  1.00  0.00     0.148 A 
ATOM     78  C   UNL A   1      46.055  34.935  35.990  1.00  0.00     0.002 A 
ATOM     79  C   UNL A   1      46.578  36.048  33.898  1.00  0.00     0.091 A 
ATOM     80  F   UNL A   1      46.340  34.848  31.848  1.00  0.00    -0.205 F 
ATOM     81  C   UNL A   1      46.457  36.074  35.298  1.00  0.00     0.022 A 
BRANCH  79  82
ATOM     82  S   UNL A   1      47.170  37.549  33.109  1.00  0.00     0.127 S 
ATOM     83  O   UNL A   1      47.305  38.450  34.253  1.00  0.00    -0.237 OA
ATOM     84  O   UNL A   1      48.436  37.109  32.526  1.00  0.00    -0.237 OA
ATOM     85  O   UNL A   1      46.149  37.924  32.140  1.00  0.00    -0.744 OA
ENDBRANCH  79  82
ENDBRANCH  61  75
BRANCH  62  86
ATOM     86  C   UNL A   1      43.685  25.367  28.890  1.00  0.00     0.023 A 
ATOM     87  C   UNL A   1      43.341  24.179  29.566  1.00  0.00     0.012 A 
ATOM     88  C   UNL A   1      43.785  25.349  27.485  1.00  0.00     0.148 A 
ATOM     89  C   UNL A   1      43.143  22.989  28.862  1.00  0.00     0.002 A 
ATOM     90  C   UNL A   1      43.532  24.173  26.786  1.00  0.00     0.091 A 
ATOM     91  F   UNL A   1      44.140  26.479  26.858  1.00  0.00    -0.205 F 
ATOM     92  C   UNL A   1      43.230  22.987  27.473  1.00  0.00     0.022 A 
BRANCH  90  93
ATOM     93  S   UNL A   1      43.504  24.113  24.992  1.00  0.00     0.127 S 
ATOM     94  O   UNL A   1      42.988  22.770  24.744  1.00  0.00    -0.237 OA
ATOM     95  O   UNL A   1      42.579  25.200  24.665  1.00  0.00    -0.237 OA
ATOM     96  O   UNL A   1      44.879  24.354  24.574  1.00  0.00    -0.744 OA
ENDBRANCH  90  93
ENDBRANCH  62  86
BRANCH  74  97
ATOM     97  C   UNL A   1      49.541  27.904  31.714  1.00  0.00     0.023 A 
ATOM     98  C   UNL A   1      49.970  27.142  32.819  1.00  0.00     0.012 A 
ATOM     99  C   UNL A   1      50.420  28.109  30.633  1.00  0.00     0.148 A 
ATOM    100  C   UNL A   1      51.266  26.626  32.865  1.00  0.00     0.002 A 
ATOM    101  C   UNL A   1      51.693  27.549  30.663  1.00  0.00     0.091 A 
ATOM    102  F   UNL A   1      50.001  28.848  29.597  1.00  0.00    -0.205 F 
ATOM    103  C   UNL A   1      52.122  26.819  31.783  1.00  0.00     0.022 A 
BRANCH 101 104
ATOM    104  S   UNL A   1      52.824  27.666  29.272  1.00  0.00     0.127 S 
ATOM    105  O   UNL A   1      53.285  29.048  29.377  1.00  0.00    -0.237 OA
ATOM    106  O   UNL A   1      53.833  26.659  29.604  1.00  0.00    -0.237 OA
ATOM    107  O   UNL A   1      52.033  27.355  28.088  1.00  0.00    -0.744 OA
ENDBRANCH 101 104
ENDBRANCH  74  97
ENDBRANCH  48  49
ENDBRANCH  41  43
ENDBRANCH  40  41
ENDBRANCH  39  40
ENDBRANCH  38  39
ENDBRANCH  37  38
ENDBRANCH  36  37
ENDBRANCH  35  36
ENDBRANCH   1  35
TORSDOF 28
ENDMDL
