MODEL 1
REMARK VINA RESULT:     -10.1      0.000      0.000
REMARK SMILES C[C@]12CCC[C@](C)(C(=O)OCCOCCOCCOCCOC(=O)c3ccc(-c4c5nc(c(-c6cccc(S(=O)(=O)[O-])c6F)c6ccc([nH]6)c(-c6cccc(S(=O)(=O)[O-])c6F)c6nc(c(-c7cccc(S(=O)(=O)[O-])c7F)c7ccc4[nH]7)C=C6)C=C5)cc3)[C@@H]1CC[C@]13C=C(CO)[C@H](CC[C@H]12)C3
REMARK SMILES IDX 17 1 16 2 15 3 14 4 13 5 12 6 11 7 10 8 8 9 9 10 6 11 1 12
REMARK SMILES IDX 2 13 3 14 88 15 99 16 4 17 89 18 91 19 98 20 5 21 7 22 90 23
REMARK SMILES IDX 92 24 100 25 97 26 93 27 96 28 94 29 95 30 18 32 19 33 20 34
REMARK SMILES IDX 21 35 22 36 23 37 24 38 25 39 26 40 87 41 27 42 86 43 28 44
REMARK SMILES IDX 29 45 30 46 80 47 31 48 85 49 79 50 81 51 32 52 84 53 78 54
REMARK SMILES IDX 77 55 33 57 65 58 45 59 64 60 46 61 49 62 63 63 82 64 47 65
REMARK SMILES IDX 48 66 62 68 83 69 50 70 34 71 35 72 43 73 36 74 38 75 44 76
REMARK SMILES IDX 37 77 39 78 40 79 41 80 42 81 66 82 67 83 75 84 68 85 70 86
REMARK SMILES IDX 76 87 69 88 71 89 72 90 73 91 74 92 51 93 52 94 60 95 53 96
REMARK SMILES IDX 55 97 61 98 54 99 56 100 57 101 58 102 59 103
REMARK H PARENT 95 31 81 56 49 67
REMARK Flexibility Score: inf
ROOT
ATOM      1  C   UNL A   1      32.900  35.866  29.550  1.00  0.00     0.188 C 
ENDROOT
BRANCH   1   2
ATOM      2  O   UNL A   1      32.618  34.575  29.023  1.00  0.00    -0.377 OA
BRANCH   2   3
ATOM      3  C   UNL A   1      33.448  34.072  27.986  1.00  0.00     0.188 C 
BRANCH   3   4
ATOM      4  C   UNL A   1      33.813  32.580  28.021  1.00  0.00     0.188 C 
BRANCH   4   5
ATOM      5  O   UNL A   1      35.177  32.280  27.750  1.00  0.00    -0.376 OA
BRANCH   5   6
ATOM      6  C   UNL A   1      35.601  30.925  27.634  1.00  0.00     0.202 C 
BRANCH   6   7
ATOM      7  C   UNL A   1      34.535  29.792  27.623  1.00  0.00     0.261 C 
BRANCH   7   8
ATOM      8  O   UNL A   1      34.308  28.941  26.460  1.00  0.00    -0.463 OA
BRANCH   8   9
ATOM      9  C   UNL A   1      33.121  28.334  26.325  1.00  0.00     0.312 C 
ATOM     10  O   UNL A   1      32.633  27.638  27.205  1.00  0.00    -0.252 OA
BRANCH   9  11
ATOM     11  C   UNL A   1      32.400  28.470  24.992  1.00  0.00     0.069 C 
ATOM     12  C   UNL A   1      34.245  26.035  25.377  1.00  0.00     0.012 C 
ATOM     13  C   UNL A   1      32.971  26.009  24.424  1.00  0.00    -0.025 C 
ATOM     14  C   UNL A   1      33.560  26.431  23.055  1.00  0.00     0.007 C 
ATOM     15  C   UNL A   1      31.802  27.043  24.692  1.00  0.00     0.012 C 
ATOM     16  C   UNL A   1      32.492  24.536  24.548  1.00  0.00     0.005 C 
ATOM     17  C   UNL A   1      34.146  27.861  23.104  1.00  0.00     0.002 C 
ATOM     18  C   UNL A   1      30.629  26.621  25.629  1.00  0.00     0.006 C 
ATOM     19  C   UNL A   1      31.372  24.207  25.618  1.00  0.00    -0.008 C 
ATOM     20  C   UNL A   1      32.509  23.479  23.457  1.00  0.00     0.006 C 
ATOM     21  C   UNL A   1      33.258  28.919  23.781  1.00  0.00     0.019 C 
ATOM     22  C   UNL A   1      31.317  29.544  25.221  1.00  0.00     0.024 C 
ATOM     23  C   UNL A   1      30.205  25.165  25.553  1.00  0.00     0.012 C 
ATOM     24  C   UNL A   1      32.124  24.051  26.915  1.00  0.00    -0.018 C 
ATOM     25  C   UNL A   1      30.904  22.733  25.537  1.00  0.00     0.019 C 
ATOM     26  C   UNL A   1      32.895  22.145  24.215  1.00  0.00     0.008 C 
ATOM     27  C   UNL A   1      32.816  22.891  26.827  1.00  0.00    -0.045 C 
ATOM     28  C   UNL A   1      32.262  22.033  25.656  1.00  0.00     0.018 C 
BRANCH  27  29
ATOM     29  C   UNL A   1      34.025  22.533  27.626  1.00  0.00     0.187 C 
BRANCH  29  30
ATOM     30  O   UNL A   1      34.794  21.523  26.982  1.00  0.00    -0.392 OA
ATOM     31  H   UNL A   1      35.683  21.864  26.792  1.00  0.00     0.211 HD
ENDBRANCH  29  30
ENDBRANCH  27  29
ENDBRANCH   9  11
ENDBRANCH   8   9
ENDBRANCH   7   8
ENDBRANCH   6   7
ENDBRANCH   5   6
ENDBRANCH   4   5
ENDBRANCH   3   4
ENDBRANCH   2   3
ENDBRANCH   1   2
BRANCH   1  32
ATOM     32  C   UNL A   1      32.674  36.105  31.052  1.00  0.00     0.188 C 
BRANCH  32  33
ATOM     33  O   UNL A   1      32.649  34.919  31.838  1.00  0.00    -0.376 OA
BRANCH  33  34
ATOM     34  C   UNL A   1      33.668  34.760  32.812  1.00  0.00     0.202 C 
BRANCH  34  35
ATOM     35  C   UNL A   1      34.332  33.379  32.904  1.00  0.00     0.261 C 
BRANCH  35  36
ATOM     36  O   UNL A   1      34.693  32.753  31.665  1.00  0.00    -0.460 OA
BRANCH  36  37
ATOM     37  C   UNL A   1      35.651  33.325  30.889  1.00  0.00     0.338 C 
ATOM     38  O   UNL A   1      35.690  34.457  30.488  1.00  0.00    -0.246 OA
BRANCH  37  39
ATOM     39  C   UNL A   1      36.776  32.356  30.836  1.00  0.00     0.060 A 
ATOM     40  C   UNL A   1      36.606  31.096  31.430  1.00  0.00     0.016 A 
ATOM     41  C   UNL A   1      37.938  32.649  30.116  1.00  0.00     0.016 A 
ATOM     42  C   UNL A   1      37.615  30.138  31.334  1.00  0.00     0.010 A 
ATOM     43  C   UNL A   1      38.962  31.704  30.050  1.00  0.00     0.010 A 
ATOM     44  C   UNL A   1      38.819  30.464  30.695  1.00  0.00    -0.014 A 
BRANCH  44  45
ATOM     45  C   UNL A   1      40.028  29.662  30.988  1.00  0.00     0.031 A 
ATOM     46  C   UNL A   1      40.828  30.066  32.197  1.00  0.00     0.074 A 
ATOM     47  C   UNL A   1      40.425  28.638  30.213  1.00  0.00     0.049 A 
ATOM     48  N   UNL A   1      41.930  29.555  32.675  1.00  0.00    -0.248 NA
ATOM     49  C   UNL A   1      40.309  31.209  32.973  1.00  0.00     0.031 C 
ATOM     50  C   UNL A   1      39.736  28.155  29.019  1.00  0.00     0.029 A 
ATOM     51  N   UNL A   1      41.534  27.835  30.313  1.00  0.00    -0.354 N 
ATOM     52  C   UNL A   1      42.241  30.318  33.793  1.00  0.00     0.074 A 
ATOM     53  C   UNL A   1      41.224  31.335  33.920  1.00  0.00     0.031 C 
ATOM     54  C   UNL A   1      40.458  27.157  28.476  1.00  0.00     0.029 A 
ATOM     55  C   UNL A   1      41.666  26.945  29.273  1.00  0.00     0.049 A 
ATOM     56  H   UNL A   1      42.175  27.891  31.058  1.00  0.00     0.167 HD
ATOM     57  C   UNL A   1      43.276  30.181  34.651  1.00  0.00     0.034 A 
ATOM     58  C   UNL A   1      42.660  26.077  28.997  1.00  0.00     0.034 A 
ATOM     59  C   UNL A   1      44.294  29.180  34.519  1.00  0.00     0.049 A 
ATOM     60  C   UNL A   1      43.831  25.971  29.946  1.00  0.00     0.074 A 
ATOM     61  C   UNL A   1      45.369  28.935  35.353  1.00  0.00     0.029 A 
ATOM     62  N   UNL A   1      44.374  28.273  33.475  1.00  0.00    -0.354 N 
ATOM     63  N   UNL A   1      44.040  26.604  31.076  1.00  0.00    -0.248 NA
ATOM     64  C   UNL A   1      44.889  25.010  29.596  1.00  0.00     0.031 C 
ATOM     65  C   UNL A   1      46.116  27.892  34.796  1.00  0.00     0.029 A 
ATOM     66  C   UNL A   1      45.491  27.474  33.632  1.00  0.00     0.049 A 
ATOM     67  H   UNL A   1      43.731  28.208  32.733  1.00  0.00     0.167 HD
ATOM     68  C   UNL A   1      45.231  26.095  31.587  1.00  0.00     0.074 A 
ATOM     69  C   UNL A   1      45.688  25.087  30.652  1.00  0.00     0.031 C 
ATOM     70  C   UNL A   1      45.896  26.437  32.719  1.00  0.00     0.034 A 
BRANCH  57  71
ATOM     71  C   UNL A   1      43.337  31.131  35.811  1.00  0.00     0.023 A 
ATOM     72  C   UNL A   1      42.699  30.792  37.022  1.00  0.00     0.012 A 
ATOM     73  C   UNL A   1      44.036  32.349  35.712  1.00  0.00     0.148 A 
ATOM     74  C   UNL A   1      42.735  31.661  38.110  1.00  0.00     0.002 A 
ATOM     75  C   UNL A   1      44.102  33.191  36.814  1.00  0.00     0.091 A 
ATOM     76  F   UNL A   1      44.602  32.668  34.540  1.00  0.00    -0.205 F 
ATOM     77  C   UNL A   1      43.445  32.855  38.010  1.00  0.00     0.022 A 
BRANCH  75  78
ATOM     78  S   UNL A   1      45.047  34.718  36.805  1.00  0.00     0.127 S 
ATOM     79  O   UNL A   1      46.410  34.219  36.632  1.00  0.00    -0.237 OA
ATOM     80  O   UNL A   1      44.499  35.412  35.639  1.00  0.00    -0.237 OA
ATOM     81  O   UNL A   1      44.775  35.366  38.080  1.00  0.00    -0.744 OA
ENDBRANCH  75  78
ENDBRANCH  57  71
BRANCH  58  82
ATOM     82  C   UNL A   1      42.587  25.210  27.785  1.00  0.00     0.023 A 
ATOM     83  C   UNL A   1      43.075  25.692  26.554  1.00  0.00     0.012 A 
ATOM     84  C   UNL A   1      42.036  23.915  27.842  1.00  0.00     0.148 A 
ATOM     85  C   UNL A   1      42.988  24.915  25.398  1.00  0.00     0.002 A 
ATOM     86  C   UNL A   1      41.999  23.125  26.697  1.00  0.00     0.091 A 
ATOM     87  F   UNL A   1      41.554  23.481  29.015  1.00  0.00    -0.205 F 
ATOM     88  C   UNL A   1      42.458  23.629  25.471  1.00  0.00     0.022 A 
BRANCH  86  89
ATOM     89  S   UNL A   1      41.446  21.416  26.723  1.00  0.00     0.127 S 
ATOM     90  O   UNL A   1      40.014  21.567  26.967  1.00  0.00    -0.237 OA
ATOM     91  O   UNL A   1      41.797  20.966  25.376  1.00  0.00    -0.237 OA
ATOM     92  O   UNL A   1      42.206  20.773  27.786  1.00  0.00    -0.744 OA
ENDBRANCH  86  89
ENDBRANCH  58  82
BRANCH  70  93
ATOM     93  C   UNL A   1      47.174  25.705  33.037  1.00  0.00     0.023 A 
ATOM     94  C   UNL A   1      48.403  26.215  32.577  1.00  0.00     0.012 A 
ATOM     95  C   UNL A   1      47.163  24.574  33.878  1.00  0.00     0.148 A 
ATOM     96  C   UNL A   1      49.602  25.595  32.928  1.00  0.00     0.002 A 
ATOM     97  C   UNL A   1      48.364  23.990  34.263  1.00  0.00     0.091 A 
ATOM     98  F   UNL A   1      45.981  24.097  34.293  1.00  0.00    -0.205 F 
ATOM     99  C   UNL A   1      49.584  24.493  33.780  1.00  0.00     0.022 A 
BRANCH  97 100
ATOM    100  S   UNL A   1      48.441  22.632  35.436  1.00  0.00     0.127 S 
ATOM    101  O   UNL A   1      47.746  21.572  34.710  1.00  0.00    -0.237 OA
ATOM    102  O   UNL A   1      49.882  22.429  35.584  1.00  0.00    -0.237 OA
ATOM    103  O   UNL A   1      47.773  23.107  36.641  1.00  0.00    -0.744 OA
ENDBRANCH  97 100
ENDBRANCH  70  93
ENDBRANCH  44  45
ENDBRANCH  37  39
ENDBRANCH  36  37
ENDBRANCH  35  36
ENDBRANCH  34  35
ENDBRANCH  33  34
ENDBRANCH  32  33
ENDBRANCH   1  32
TORSDOF 25
ENDMDL
MODEL 2
REMARK VINA RESULT:      -9.8      2.406      4.015
REMARK SMILES C[C@]12CCC[C@](C)(C(=O)OCCOCCOCCOCCOC(=O)c3ccc(-c4c5nc(c(-c6cccc(S(=O)(=O)[O-])c6F)c6ccc([nH]6)c(-c6cccc(S(=O)(=O)[O-])c6F)c6nc(c(-c7cccc(S(=O)(=O)[O-])c7F)c7ccc4[nH]7)C=C6)C=C5)cc3)[C@@H]1CC[C@]13C=C(CO)[C@H](CC[C@H]12)C3
REMARK SMILES IDX 17 1 16 2 15 3 14 4 13 5 12 6 11 7 10 8 8 9 9 10 6 11 1 12
REMARK SMILES IDX 2 13 3 14 88 15 99 16 4 17 89 18 91 19 98 20 5 21 7 22 90 23
REMARK SMILES IDX 92 24 100 25 97 26 93 27 96 28 94 29 95 30 18 32 19 33 20 34
REMARK SMILES IDX 21 35 22 36 23 37 24 38 25 39 26 40 87 41 27 42 86 43 28 44
REMARK SMILES IDX 29 45 30 46 80 47 31 48 85 49 79 50 81 51 32 52 84 53 78 54
REMARK SMILES IDX 77 55 33 57 65 58 45 59 64 60 46 61 49 62 63 63 82 64 47 65
REMARK SMILES IDX 48 66 62 68 83 69 50 70 34 71 35 72 43 73 36 74 38 75 44 76
REMARK SMILES IDX 37 77 39 78 40 79 41 80 42 81 66 82 67 83 75 84 68 85 70 86
REMARK SMILES IDX 76 87 69 88 71 89 72 90 73 91 74 92 51 93 52 94 60 95 53 96
REMARK SMILES IDX 55 97 61 98 54 99 56 100 57 101 58 102 59 103
REMARK H PARENT 95 31 81 56 49 67
REMARK Flexibility Score: inf
ROOT
ATOM      1  C   UNL A   1      32.851  29.305  25.396  1.00  0.00     0.188 C 
ENDROOT
BRANCH   1   2
ATOM      2  O   UNL A   1      31.802  29.396  24.441  1.00  0.00    -0.377 OA
BRANCH   2   3
ATOM      3  C   UNL A   1      32.097  29.101  23.083  1.00  0.00     0.188 C 
BRANCH   3   4
ATOM      4  C   UNL A   1      33.573  29.082  22.658  1.00  0.00     0.188 C 
BRANCH   4   5
ATOM      5  O   UNL A   1      33.887  28.205  21.582  1.00  0.00    -0.376 OA
BRANCH   5   6
ATOM      6  C   UNL A   1      33.709  26.800  21.730  1.00  0.00     0.202 C 
BRANCH   6   7
ATOM      7  C   UNL A   1      34.107  26.119  23.072  1.00  0.00     0.261 C 
BRANCH   7   8
ATOM      8  O   UNL A   1      33.621  26.590  24.364  1.00  0.00    -0.463 OA
BRANCH   8   9
ATOM      9  C   UNL A   1      33.270  25.687  25.290  1.00  0.00     0.312 C 
ATOM     10  O   UNL A   1      34.088  25.135  26.013  1.00  0.00    -0.252 OA
BRANCH   9  11
ATOM     11  C   UNL A   1      31.803  25.295  25.381  1.00  0.00     0.069 C 
ATOM     12  C   UNL A   1      33.649  23.533  23.657  1.00  0.00     0.012 C 
ATOM     13  C   UNL A   1      32.357  22.966  24.393  1.00  0.00    -0.025 C 
ATOM     14  C   UNL A   1      31.253  23.128  23.319  1.00  0.00     0.007 C 
ATOM     15  C   UNL A   1      31.801  23.743  25.656  1.00  0.00     0.012 C 
ATOM     16  C   UNL A   1      32.782  21.511  24.738  1.00  0.00     0.005 C 
ATOM     17  C   UNL A   1      31.033  24.612  22.948  1.00  0.00     0.002 C 
ATOM     18  C   UNL A   1      32.313  23.334  27.072  1.00  0.00     0.006 C 
ATOM     19  C   UNL A   1      33.397  21.237  26.172  1.00  0.00    -0.008 C 
ATOM     20  C   UNL A   1      32.203  20.233  24.157  1.00  0.00     0.006 C 
ATOM     21  C   UNL A   1      30.927  25.584  24.135  1.00  0.00     0.019 C 
ATOM     22  C   UNL A   1      31.233  26.118  26.555  1.00  0.00     0.024 C 
ATOM     23  C   UNL A   1      32.580  21.854  27.283  1.00  0.00     0.012 C 
ATOM     24  C   UNL A   1      34.851  21.609  26.035  1.00  0.00    -0.018 C 
ATOM     25  C   UNL A   1      33.649  19.730  26.419  1.00  0.00     0.019 C 
ATOM     26  C   UNL A   1      33.452  19.274  24.008  1.00  0.00     0.008 C 
ATOM     27  C   UNL A   1      35.425  20.655  25.266  1.00  0.00    -0.045 C 
ATOM     28  C   UNL A   1      34.497  19.413  25.182  1.00  0.00     0.018 C 
BRANCH  27  29
ATOM     29  C   UNL A   1      36.690  20.807  24.486  1.00  0.00     0.187 C 
BRANCH  29  30
ATOM     30  O   UNL A   1      37.642  21.598  25.188  1.00  0.00    -0.392 OA
ATOM     31  H   UNL A   1      38.087  22.196  24.567  1.00  0.00     0.211 HD
ENDBRANCH  29  30
ENDBRANCH  27  29
ENDBRANCH   9  11
ENDBRANCH   8   9
ENDBRANCH   7   8
ENDBRANCH   6   7
ENDBRANCH   5   6
ENDBRANCH   4   5
ENDBRANCH   3   4
ENDBRANCH   2   3
ENDBRANCH   1   2
BRANCH   1  32
ATOM     32  C   UNL A   1      33.004  30.441  26.421  1.00  0.00     0.188 C 
BRANCH  32  33
ATOM     33  O   UNL A   1      31.776  30.913  26.962  1.00  0.00    -0.376 OA
BRANCH  33  34
ATOM     34  C   UNL A   1      31.242  32.112  26.423  1.00  0.00     0.202 C 
BRANCH  34  35
ATOM     35  C   UNL A   1      31.921  33.424  26.839  1.00  0.00     0.261 C 
BRANCH  35  36
ATOM     36  O   UNL A   1      32.584  33.432  28.112  1.00  0.00    -0.460 OA
BRANCH  36  37
ATOM     37  C   UNL A   1      33.646  34.258  28.299  1.00  0.00     0.338 C 
ATOM     38  O   UNL A   1      33.635  35.456  28.395  1.00  0.00    -0.246 OA
BRANCH  37  39
ATOM     39  C   UNL A   1      34.803  33.382  28.619  1.00  0.00     0.060 A 
ATOM     40  C   UNL A   1      34.552  32.076  29.068  1.00  0.00     0.016 A 
ATOM     41  C   UNL A   1      36.111  33.807  28.372  1.00  0.00     0.016 A 
ATOM     42  C   UNL A   1      35.615  31.205  29.305  1.00  0.00     0.010 A 
ATOM     43  C   UNL A   1      37.176  32.949  28.643  1.00  0.00     0.010 A 
ATOM     44  C   UNL A   1      36.932  31.661  29.151  1.00  0.00    -0.014 A 
BRANCH  44  45
ATOM     45  C   UNL A   1      38.028  30.935  29.829  1.00  0.00     0.031 A 
ATOM     46  C   UNL A   1      38.330  31.340  31.247  1.00  0.00     0.074 A 
ATOM     47  C   UNL A   1      38.749  29.977  29.220  1.00  0.00     0.049 A 
ATOM     48  N   UNL A   1      39.240  30.887  32.066  1.00  0.00    -0.248 NA
ATOM     49  C   UNL A   1      37.485  32.407  31.816  1.00  0.00     0.031 C 
ATOM     50  C   UNL A   1      38.552  29.500  27.854  1.00  0.00     0.029 A 
ATOM     51  N   UNL A   1      39.818  29.251  29.683  1.00  0.00    -0.354 N 
ATOM     52  C   UNL A   1      39.085  31.620  33.236  1.00  0.00     0.074 A 
ATOM     53  C   UNL A   1      38.006  32.556  33.022  1.00  0.00     0.031 C 
ATOM     54  C   UNL A   1      39.496  28.582  27.575  1.00  0.00     0.029 A 
ATOM     55  C   UNL A   1      40.370  28.420  28.736  1.00  0.00     0.049 A 
ATOM     56  H   UNL A   1      40.158  29.319  30.604  1.00  0.00     0.167 HD
ATOM     57  C   UNL A   1      39.771  31.517  34.395  1.00  0.00     0.034 A 
ATOM     58  C   UNL A   1      41.467  27.637  28.805  1.00  0.00     0.034 A 
ATOM     59  C   UNL A   1      40.851  30.598  34.606  1.00  0.00     0.049 A 
ATOM     60  C   UNL A   1      42.246  27.573  30.097  1.00  0.00     0.074 A 
ATOM     61  C   UNL A   1      41.592  30.393  35.754  1.00  0.00     0.029 A 
ATOM     62  N   UNL A   1      41.358  29.747  33.637  1.00  0.00    -0.354 N 
ATOM     63  N   UNL A   1      42.003  28.167  31.241  1.00  0.00    -0.248 NA
ATOM     64  C   UNL A   1      43.435  26.706  30.117  1.00  0.00     0.031 C 
ATOM     65  C   UNL A   1      42.567  29.431  35.471  1.00  0.00     0.029 A 
ATOM     66  C   UNL A   1      42.415  29.023  34.155  1.00  0.00     0.049 A 
ATOM     67  H   UNL A   1      41.015  29.669  32.718  1.00  0.00     0.167 HD
ATOM     68  C   UNL A   1      42.984  27.721  32.122  1.00  0.00     0.074 A 
ATOM     69  C   UNL A   1      43.814  26.791  31.385  1.00  0.00     0.031 C 
ATOM     70  C   UNL A   1      43.191  28.059  33.420  1.00  0.00     0.034 A 
BRANCH  57  71
ATOM     71  C   UNL A   1      39.353  32.417  35.522  1.00  0.00     0.023 A 
ATOM     72  C   UNL A   1      38.428  31.949  36.478  1.00  0.00     0.012 A 
ATOM     73  C   UNL A   1      39.884  33.714  35.646  1.00  0.00     0.148 A 
ATOM     74  C   UNL A   1      38.019  32.769  37.528  1.00  0.00     0.002 A 
ATOM     75  C   UNL A   1      39.503  34.510  36.719  1.00  0.00     0.091 A 
ATOM     76  F   UNL A   1      40.733  34.151  34.705  1.00  0.00    -0.205 F 
ATOM     77  C   UNL A   1      38.564  34.044  37.655  1.00  0.00     0.022 A 
BRANCH  75  78
ATOM     78  S   UNL A   1      40.199  36.141  37.005  1.00  0.00     0.127 S 
ATOM     79  O   UNL A   1      41.610  35.825  37.221  1.00  0.00    -0.237 OA
ATOM     80  O   UNL A   1      39.913  36.823  35.743  1.00  0.00    -0.237 OA
ATOM     81  O   UNL A   1      39.495  36.680  38.160  1.00  0.00    -0.744 OA
ENDBRANCH  75  78
ENDBRANCH  57  71
BRANCH  58  82
ATOM     82  C   UNL A   1      41.884  26.823  27.627  1.00  0.00     0.023 A 
ATOM     83  C   UNL A   1      42.571  27.440  26.562  1.00  0.00     0.012 A 
ATOM     84  C   UNL A   1      41.604  25.444  27.552  1.00  0.00     0.148 A 
ATOM     85  C   UNL A   1      42.943  26.707  25.434  1.00  0.00     0.002 A 
ATOM     86  C   UNL A   1      42.022  24.709  26.448  1.00  0.00     0.091 A 
ATOM     87  F   UNL A   1      40.928  24.878  28.562  1.00  0.00    -0.205 F 
ATOM     88  C   UNL A   1      42.677  25.342  25.380  1.00  0.00     0.022 A 
BRANCH  86  89
ATOM     89  S   UNL A   1      41.830  22.926  26.348  1.00  0.00     0.127 S 
ATOM     90  O   UNL A   1      40.378  22.782  26.303  1.00  0.00    -0.237 OA
ATOM     91  O   UNL A   1      42.520  22.619  25.094  1.00  0.00    -0.237 OA
ATOM     92  O   UNL A   1      42.484  22.393  27.535  1.00  0.00    -0.744 OA
ENDBRANCH  86  89
ENDBRANCH  58  82
BRANCH  70  93
ATOM     93  C   UNL A   1      44.338  27.406  34.146  1.00  0.00     0.023 A 
ATOM     94  C   UNL A   1      45.599  28.032  34.167  1.00  0.00     0.012 A 
ATOM     95  C   UNL A   1      44.138  26.227  34.893  1.00  0.00     0.148 A 
ATOM     96  C   UNL A   1      46.651  27.483  34.900  1.00  0.00     0.002 A 
ATOM     97  C   UNL A   1      45.176  25.712  35.659  1.00  0.00     0.091 A 
ATOM     98  F   UNL A   1      42.933  25.639  34.848  1.00  0.00    -0.205 F 
ATOM     99  C   UNL A   1      46.436  26.332  35.655  1.00  0.00     0.022 A 
BRANCH  97 100
ATOM    100  S   UNL A   1      44.961  24.293  36.740  1.00  0.00     0.127 S 
ATOM    101  O   UNL A   1      46.322  24.084  37.230  1.00  0.00    -0.237 OA
ATOM    102  O   UNL A   1      44.023  24.802  37.741  1.00  0.00    -0.237 OA
ATOM    103  O   UNL A   1      44.428  23.229  35.901  1.00  0.00    -0.744 OA
ENDBRANCH  97 100
ENDBRANCH  70  93
ENDBRANCH  44  45
ENDBRANCH  37  39
ENDBRANCH  36  37
ENDBRANCH  35  36
ENDBRANCH  34  35
ENDBRANCH  33  34
ENDBRANCH  32  33
ENDBRANCH   1  32
TORSDOF 25
ENDMDL
MODEL 3
REMARK VINA RESULT:      -9.6      4.077      4.771
REMARK SMILES C[C@]12CCC[C@](C)(C(=O)OCCOCCOCCOCCOC(=O)c3ccc(-c4c5nc(c(-c6cccc(S(=O)(=O)[O-])c6F)c6ccc([nH]6)c(-c6cccc(S(=O)(=O)[O-])c6F)c6nc(c(-c7cccc(S(=O)(=O)[O-])c7F)c7ccc4[nH]7)C=C6)C=C5)cc3)[C@@H]1CC[C@]13C=C(CO)[C@H](CC[C@H]12)C3
REMARK SMILES IDX 17 1 16 2 15 3 14 4 13 5 12 6 11 7 10 8 8 9 9 10 6 11 1 12
REMARK SMILES IDX 2 13 3 14 88 15 99 16 4 17 89 18 91 19 98 20 5 21 7 22 90 23
REMARK SMILES IDX 92 24 100 25 97 26 93 27 96 28 94 29 95 30 18 32 19 33 20 34
REMARK SMILES IDX 21 35 22 36 23 37 24 38 25 39 26 40 87 41 27 42 86 43 28 44
REMARK SMILES IDX 29 45 30 46 80 47 31 48 85 49 79 50 81 51 32 52 84 53 78 54
REMARK SMILES IDX 77 55 33 57 65 58 45 59 64 60 46 61 49 62 63 63 82 64 47 65
REMARK SMILES IDX 48 66 62 68 83 69 50 70 34 71 35 72 43 73 36 74 38 75 44 76
REMARK SMILES IDX 37 77 39 78 40 79 41 80 42 81 66 82 67 83 75 84 68 85 70 86
REMARK SMILES IDX 76 87 69 88 71 89 72 90 73 91 74 92 51 93 52 94 60 95 53 96
REMARK SMILES IDX 55 97 61 98 54 99 56 100 57 101 58 102 59 103
REMARK H PARENT 95 31 81 56 49 67
REMARK Flexibility Score: inf
ROOT
ATOM      1  C   UNL A   1      33.217  35.825  29.203  1.00  0.00     0.188 C 
ENDROOT
BRANCH   1   2
ATOM      2  O   UNL A   1      32.917  34.454  28.974  1.00  0.00    -0.377 OA
BRANCH   2   3
ATOM      3  C   UNL A   1      33.509  33.811  27.854  1.00  0.00     0.188 C 
BRANCH   3   4
ATOM      4  C   UNL A   1      33.786  32.304  27.956  1.00  0.00     0.188 C 
BRANCH   4   5
ATOM      5  O   UNL A   1      32.723  31.458  27.532  1.00  0.00    -0.376 OA
BRANCH   5   6
ATOM      6  C   UNL A   1      33.000  30.140  27.072  1.00  0.00     0.202 C 
BRANCH   6   7
ATOM      7  C   UNL A   1      31.875  29.065  27.116  1.00  0.00     0.261 C 
BRANCH   7   8
ATOM      8  O   UNL A   1      32.108  27.673  26.749  1.00  0.00    -0.463 OA
BRANCH   8   9
ATOM      9  C   UNL A   1      31.241  27.068  25.925  1.00  0.00     0.312 C 
ATOM     10  O   UNL A   1      30.386  26.289  26.324  1.00  0.00    -0.252 OA
BRANCH   9  11
ATOM     11  C   UNL A   1      31.388  27.319  24.431  1.00  0.00     0.069 C 
ATOM     12  C   UNL A   1      33.502  25.545  25.798  1.00  0.00     0.012 C 
ATOM     13  C   UNL A   1      33.098  25.380  24.267  1.00  0.00    -0.025 C 
ATOM     14  C   UNL A   1      34.113  26.300  23.545  1.00  0.00     0.007 C 
ATOM     15  C   UNL A   1      31.680  25.905  23.797  1.00  0.00     0.012 C 
ATOM     16  C   UNL A   1      33.263  23.851  24.042  1.00  0.00     0.005 C 
ATOM     17  C   UNL A   1      33.949  27.776  23.972  1.00  0.00     0.002 C 
ATOM     18  C   UNL A   1      30.470  24.920  23.822  1.00  0.00     0.006 C 
ATOM     19  C   UNL A   1      31.983  22.934  24.207  1.00  0.00    -0.008 C 
ATOM     20  C   UNL A   1      34.294  23.169  23.160  1.00  0.00     0.006 C 
ATOM     21  C   UNL A   1      32.504  28.302  23.997  1.00  0.00     0.019 C 
ATOM     22  C   UNL A   1      30.038  27.915  23.983  1.00  0.00     0.024 C 
ATOM     23  C   UNL A   1      30.779  23.476  23.471  1.00  0.00     0.012 C 
ATOM     24  C   UNL A   1      31.887  22.685  25.691  1.00  0.00    -0.018 C 
ATOM     25  C   UNL A   1      32.269  21.461  23.825  1.00  0.00     0.019 C 
ATOM     26  C   UNL A   1      34.693  21.867  23.965  1.00  0.00     0.008 C 
ATOM     27  C   UNL A   1      32.905  21.854  26.012  1.00  0.00    -0.045 C 
ATOM     28  C   UNL A   1      33.481  21.201  24.725  1.00  0.00     0.018 C 
BRANCH  27  29
ATOM     29  C   UNL A   1      33.499  21.686  27.372  1.00  0.00     0.187 C 
BRANCH  29  30
ATOM     30  O   UNL A   1      32.690  22.296  28.371  1.00  0.00    -0.392 OA
ATOM     31  H   UNL A   1      31.767  22.020  28.254  1.00  0.00     0.211 HD
ENDBRANCH  29  30
ENDBRANCH  27  29
ENDBRANCH   9  11
ENDBRANCH   8   9
ENDBRANCH   7   8
ENDBRANCH   6   7
ENDBRANCH   5   6
ENDBRANCH   4   5
ENDBRANCH   3   4
ENDBRANCH   2   3
ENDBRANCH   1   2
BRANCH   1  32
ATOM     32  C   UNL A   1      32.955  36.404  30.603  1.00  0.00     0.188 C 
BRANCH  32  33
ATOM     33  O   UNL A   1      32.670  35.428  31.598  1.00  0.00    -0.376 OA
BRANCH  33  34
ATOM     34  C   UNL A   1      33.517  35.387  32.735  1.00  0.00     0.202 C 
BRANCH  34  35
ATOM     35  C   UNL A   1      35.006  35.111  32.484  1.00  0.00     0.261 C 
BRANCH  35  36
ATOM     36  O   UNL A   1      35.481  33.796  32.807  1.00  0.00    -0.460 OA
BRANCH  36  37
ATOM     37  C   UNL A   1      35.278  32.785  31.923  1.00  0.00     0.338 C 
ATOM     38  O   UNL A   1      34.254  32.490  31.367  1.00  0.00    -0.246 OA
BRANCH  37  39
ATOM     39  C   UNL A   1      36.624  32.261  31.574  1.00  0.00     0.060 A 
ATOM     40  C   UNL A   1      37.513  31.949  32.615  1.00  0.00     0.016 A 
ATOM     41  C   UNL A   1      36.960  31.979  30.247  1.00  0.00     0.016 A 
ATOM     42  C   UNL A   1      38.755  31.386  32.324  1.00  0.00     0.010 A 
ATOM     43  C   UNL A   1      38.217  31.450  29.953  1.00  0.00     0.010 A 
ATOM     44  C   UNL A   1      39.132  31.192  30.988  1.00  0.00    -0.014 A 
BRANCH  44  45
ATOM     45  C   UNL A   1      40.568  31.051  30.659  1.00  0.00     0.031 A 
ATOM     46  C   UNL A   1      41.368  32.323  30.572  1.00  0.00     0.074 A 
ATOM     47  C   UNL A   1      41.144  29.860  30.421  1.00  0.00     0.049 A 
ATOM     48  N   UNL A   1      42.631  32.494  30.287  1.00  0.00    -0.248 NA
ATOM     49  C   UNL A   1      40.638  33.576  30.843  1.00  0.00     0.031 C 
ATOM     50  C   UNL A   1      40.474  28.563  30.474  1.00  0.00     0.029 A 
ATOM     51  N   UNL A   1      42.434  29.562  30.058  1.00  0.00    -0.354 N 
ATOM     52  C   UNL A   1      42.840  33.866  30.332  1.00  0.00     0.074 A 
ATOM     53  C   UNL A   1      41.577  34.487  30.657  1.00  0.00     0.031 C 
ATOM     54  C   UNL A   1      41.353  27.606  30.121  1.00  0.00     0.029 A 
ATOM     55  C   UNL A   1      42.639  28.226  29.801  1.00  0.00     0.049 A 
ATOM     56  H   UNL A   1      43.145  30.239  29.987  1.00  0.00     0.167 HD
ATOM     57  C   UNL A   1      43.985  34.555  30.133  1.00  0.00     0.034 A 
ATOM     58  C   UNL A   1      43.737  27.591  29.343  1.00  0.00     0.034 A 
ATOM     59  C   UNL A   1      45.237  33.942  29.797  1.00  0.00     0.049 A 
ATOM     60  C   UNL A   1      44.994  28.387  29.084  1.00  0.00     0.074 A 
ATOM     61  C   UNL A   1      46.465  34.547  29.605  1.00  0.00     0.029 A 
ATOM     62  N   UNL A   1      45.415  32.585  29.582  1.00  0.00    -0.354 N 
ATOM     63  N   UNL A   1      45.216  29.667  29.266  1.00  0.00    -0.248 NA
ATOM     64  C   UNL A   1      46.162  27.645  28.583  1.00  0.00     0.031 C 
ATOM     65  C   UNL A   1      47.383  33.554  29.248  1.00  0.00     0.029 A 
ATOM     66  C   UNL A   1      46.730  32.331  29.243  1.00  0.00     0.049 A 
ATOM     67  H   UNL A   1      44.709  31.903  29.660  1.00  0.00     0.167 HD
ATOM     68  C   UNL A   1      46.552  29.877  28.936  1.00  0.00     0.074 A 
ATOM     69  C   UNL A   1      47.096  28.587  28.561  1.00  0.00     0.031 C 
ATOM     70  C   UNL A   1      47.264  31.032  28.929  1.00  0.00     0.034 A 
BRANCH  57  71
ATOM     71  C   UNL A   1      43.927  36.047  30.292  1.00  0.00     0.023 A 
ATOM     72  C   UNL A   1      43.702  36.857  29.160  1.00  0.00     0.012 A 
ATOM     73  C   UNL A   1      44.077  36.646  31.556  1.00  0.00     0.148 A 
ATOM     74  C   UNL A   1      43.652  38.245  29.281  1.00  0.00     0.002 A 
ATOM     75  C   UNL A   1      43.985  38.026  31.675  1.00  0.00     0.091 A 
ATOM     76  F   UNL A   1      44.328  35.858  32.612  1.00  0.00    -0.205 F 
ATOM     77  C   UNL A   1      43.782  38.828  30.539  1.00  0.00     0.022 A 
BRANCH  75  78
ATOM     78  S   UNL A   1      44.073  38.866  33.260  1.00  0.00     0.127 S 
ATOM     79  O   UNL A   1      44.095  40.269  32.849  1.00  0.00    -0.237 OA
ATOM     80  O   UNL A   1      42.832  38.438  33.904  1.00  0.00    -0.237 OA
ATOM     81  O   UNL A   1      45.288  38.384  33.902  1.00  0.00    -0.744 OA
ENDBRANCH  75  78
ENDBRANCH  57  71
BRANCH  58  82
ATOM     82  C   UNL A   1      43.716  26.115  29.126  1.00  0.00     0.023 A 
ATOM     83  C   UNL A   1      44.100  25.253  30.173  1.00  0.00     0.012 A 
ATOM     84  C   UNL A   1      43.323  25.560  27.893  1.00  0.00     0.148 A 
ATOM     85  C   UNL A   1      44.122  23.870  29.986  1.00  0.00     0.002 A 
ATOM     86  C   UNL A   1      43.298  24.179  27.728  1.00  0.00     0.091 A 
ATOM     87  F   UNL A   1      42.984  26.395  26.900  1.00  0.00    -0.205 F 
ATOM     88  C   UNL A   1      43.713  23.333  28.768  1.00  0.00     0.022 A 
BRANCH  86  89
ATOM     89  S   UNL A   1      42.671  23.397  26.237  1.00  0.00     0.127 S 
ATOM     90  O   UNL A   1      43.303  22.082  26.301  1.00  0.00    -0.237 OA
ATOM     91  O   UNL A   1      41.228  23.400  26.479  1.00  0.00    -0.237 OA
ATOM     92  O   UNL A   1      43.095  24.252  25.137  1.00  0.00    -0.744 OA
ENDBRANCH  86  89
ENDBRANCH  58  82
BRANCH  70  93
ATOM     93  C   UNL A   1      48.716  30.964  28.534  1.00  0.00     0.023 A 
ATOM     94  C   UNL A   1      49.090  31.228  27.202  1.00  0.00     0.012 A 
ATOM     95  C   UNL A   1      49.715  30.744  29.503  1.00  0.00     0.148 A 
ATOM     96  C   UNL A   1      50.435  31.249  26.835  1.00  0.00     0.002 A 
ATOM     97  C   UNL A   1      51.055  30.813  29.141  1.00  0.00     0.091 A 
ATOM     98  F   UNL A   1      49.337  30.480  30.763  1.00  0.00    -0.205 F 
ATOM     99  C   UNL A   1      51.417  31.055  27.805  1.00  0.00     0.022 A 
BRANCH  97 100
ATOM    100  S   UNL A   1      52.384  30.676  30.341  1.00  0.00     0.127 S 
ATOM    101  O   UNL A   1      53.566  30.809  29.493  1.00  0.00    -0.237 OA
ATOM    102  O   UNL A   1      52.132  31.818  31.219  1.00  0.00    -0.237 OA
ATOM    103  O   UNL A   1      52.215  29.377  30.979  1.00  0.00    -0.744 OA
ENDBRANCH  97 100
ENDBRANCH  70  93
ENDBRANCH  44  45
ENDBRANCH  37  39
ENDBRANCH  36  37
ENDBRANCH  35  36
ENDBRANCH  34  35
ENDBRANCH  33  34
ENDBRANCH  32  33
ENDBRANCH   1  32
TORSDOF 25
ENDMDL
