MODEL 1
REMARK VINA RESULT:      -9.2      0.000      0.000
REMARK SMILES CCc1ccc(-c2cc(Cl)cc3c2O[C@@H](C(F)(F)F)C(C(=O)OCCOCCOCCOCCOC(=O)c2ccc(-c4c5nc(c(-c6cccc(S(=O)(=O)[O-])c6F)c6ccc([nH]6)c(-c6cccc(S(=O)(=O)[O-])c6F)c6nc(c(-c7cccc(S(=O)(=O)[O-])c7F)c7ccc4[nH]7)C=C6)C=C5)cc2)=C3)cc1
REMARK SMILES IDX 30 1 29 2 28 3 27 4 26 5 25 6 24 7 23 8 21 9 22 10 20 11
REMARK SMILES IDX 7 12 8 13 13 14 9 15 12 16 14 17 10 18 11 19 101 20 15 21
REMARK SMILES IDX 6 22 3 23 4 24 103 25 5 26 102 27 2 28 1 29 16 30 17 31
REMARK SMILES IDX 18 32 19 33 31 34 32 35 33 36 34 37 35 38 36 39 37 40 38 41
REMARK SMILES IDX 39 42 100 43 40 44 99 45 41 46 42 47 43 48 93 49 44 50 98 51
REMARK SMILES IDX 92 52 94 53 45 54 97 55 91 56 90 57 46 59 78 60 58 61 77 62
REMARK SMILES IDX 59 63 62 64 76 65 95 66 60 67 61 68 75 70 96 71 63 72 47 73
REMARK SMILES IDX 48 74 56 75 49 76 51 77 57 78 50 79 52 80 53 81 54 82 55 83
REMARK SMILES IDX 79 84 80 85 88 86 81 87 83 88 89 89 82 90 84 91 85 92 86 93
REMARK SMILES IDX 87 94 64 95 65 96 73 97 66 98 68 99 74 100 67 101 69 102
REMARK SMILES IDX 70 103 71 104 72 105
REMARK H PARENT 94 58 62 69
REMARK Flexibility Score: inf
ROOT
ATOM      1  C   UNL A   1      36.211  32.067  29.677  1.00  0.00     0.188 C 
ENDROOT
BRANCH   1   2
ATOM      2  O   UNL A   1      36.597  30.922  28.925  1.00  0.00    -0.377 OA
BRANCH   2   3
ATOM      3  C   UNL A   1      35.611  29.940  28.684  1.00  0.00     0.188 C 
BRANCH   3   4
ATOM      4  C   UNL A   1      35.173  29.893  27.214  1.00  0.00     0.188 C 
BRANCH   4   5
ATOM      5  O   UNL A   1      33.804  30.226  27.003  1.00  0.00    -0.376 OA
BRANCH   5   6
ATOM      6  C   UNL A   1      33.023  29.353  26.187  1.00  0.00     0.202 C 
BRANCH   6   7
ATOM      7  C   UNL A   1      33.752  28.391  25.237  1.00  0.00     0.261 C 
BRANCH   7   8
ATOM      8  O   UNL A   1      32.926  27.239  24.946  1.00  0.00    -0.460 OA
BRANCH   8   9
ATOM      9  C   UNL A   1      33.474  26.045  25.220  1.00  0.00     0.338 C 
ATOM     10  O   UNL A   1      34.282  25.835  26.118  1.00  0.00    -0.246 OA
BRANCH   9  11
ATOM     11  C   UNL A   1      32.853  24.939  24.447  1.00  0.00     0.087 C 
ATOM     12  C   UNL A   1      34.424  21.191  25.273  1.00  0.00     0.026 A 
ATOM     13  C   UNL A   1      35.782  21.373  25.633  1.00  0.00     0.033 A 
ATOM     14  C   UNL A   1      33.739  22.345  24.843  1.00  0.00     0.135 A 
ATOM     15  C   UNL A   1      36.471  22.538  25.304  1.00  0.00     0.042 A 
ATOM     16  C   UNL A   1      34.485  23.407  24.303  1.00  0.00     0.019 A 
ATOM     17  O   UNL A   1      32.395  22.544  25.143  1.00  0.00    -0.475 OA
ATOM     18  Cl  UNL A   1      38.120  22.710  25.749  1.00  0.00    -0.084 Cl
ATOM     19  C   UNL A   1      35.851  23.517  24.544  1.00  0.00     0.032 A 
ATOM     20  C   UNL A   1      33.758  24.466  23.571  1.00  0.00     0.027 C 
ATOM     21  C   UNL A   1      31.829  23.910  24.898  1.00  0.00     0.316 C 
BRANCH  12  22
ATOM     22  C   UNL A   1      34.073  19.788  24.870  1.00  0.00    -0.015 A 
ATOM     23  C   UNL A   1      33.794  16.936  25.101  1.00  0.00    -0.048 A 
ATOM     24  C   UNL A   1      32.723  17.799  25.371  1.00  0.00     0.004 A 
ATOM     25  C   UNL A   1      34.968  17.506  24.602  1.00  0.00     0.004 A 
ATOM     26  C   UNL A   1      32.854  19.195  25.247  1.00  0.00     0.009 A 
ATOM     27  C   UNL A   1      35.101  18.904  24.484  1.00  0.00     0.009 A 
BRANCH  23  28
ATOM     28  C   UNL A   1      33.622  15.458  25.394  1.00  0.00     0.032 C 
ATOM     29  C   UNL A   1      32.206  14.938  25.633  1.00  0.00     0.009 C 
ENDBRANCH  23  28
ENDBRANCH  12  22
BRANCH  21  30
ATOM     30  C   UNL A   1      30.714  24.362  25.876  1.00  0.00     0.430 C 
ATOM     31  F   UNL A   1      29.881  23.313  26.120  1.00  0.00    -0.167 F 
ATOM     32  F   UNL A   1      31.234  24.721  27.075  1.00  0.00    -0.167 F 
ATOM     33  F   UNL A   1      29.939  25.371  25.463  1.00  0.00    -0.167 F 
ENDBRANCH  21  30
ENDBRANCH   9  11
ENDBRANCH   8   9
ENDBRANCH   7   8
ENDBRANCH   6   7
ENDBRANCH   5   6
ENDBRANCH   4   5
ENDBRANCH   3   4
ENDBRANCH   2   3
ENDBRANCH   1   2
BRANCH   1  34
ATOM     34  C   UNL A   1      34.782  32.643  29.565  1.00  0.00     0.188 C 
BRANCH  34  35
ATOM     35  O   UNL A   1      34.416  33.534  30.620  1.00  0.00    -0.376 OA
BRANCH  35  36
ATOM     36  C   UNL A   1      35.348  33.698  31.681  1.00  0.00     0.202 C 
BRANCH  36  37
ATOM     37  C   UNL A   1      34.885  33.120  33.025  1.00  0.00     0.261 C 
BRANCH  37  38
ATOM     38  O   UNL A   1      35.945  32.680  33.886  1.00  0.00    -0.460 OA
BRANCH  38  39
ATOM     39  C   UNL A   1      37.055  33.448  33.926  1.00  0.00     0.338 C 
ATOM     40  O   UNL A   1      37.145  34.583  34.366  1.00  0.00    -0.246 OA
BRANCH  39  41
ATOM     41  C   UNL A   1      38.208  32.613  33.537  1.00  0.00     0.060 A 
ATOM     42  C   UNL A   1      39.491  33.048  33.890  1.00  0.00     0.016 A 
ATOM     43  C   UNL A   1      38.028  31.416  32.838  1.00  0.00     0.016 A 
ATOM     44  C   UNL A   1      40.606  32.316  33.489  1.00  0.00     0.010 A 
ATOM     45  C   UNL A   1      39.147  30.692  32.423  1.00  0.00     0.010 A 
ATOM     46  C   UNL A   1      40.440  31.165  32.706  1.00  0.00    -0.014 A 
BRANCH  46  47
ATOM     47  C   UNL A   1      41.612  30.604  31.997  1.00  0.00     0.031 A 
ATOM     48  C   UNL A   1      42.212  29.327  32.524  1.00  0.00     0.074 A 
ATOM     49  C   UNL A   1      42.127  31.198  30.906  1.00  0.00     0.049 A 
ATOM     50  N   UNL A   1      43.201  28.620  32.050  1.00  0.00    -0.248 NA
ATOM     51  C   UNL A   1      41.614  28.776  33.754  1.00  0.00     0.031 C 
ATOM     52  C   UNL A   1      41.652  32.446  30.315  1.00  0.00     0.029 A 
ATOM     53  N   UNL A   1      43.189  30.832  30.116  1.00  0.00    -0.354 N 
ATOM     54  C   UNL A   1      43.360  27.556  32.929  1.00  0.00     0.074 A 
ATOM     55  C   UNL A   1      42.373  27.715  33.974  1.00  0.00     0.031 C 
ATOM     56  C   UNL A   1      42.439  32.760  29.270  1.00  0.00     0.029 A 
ATOM     57  C   UNL A   1      43.476  31.738  29.125  1.00  0.00     0.049 A 
ATOM     58  H   UNL A   1      43.696  29.998  30.248  1.00  0.00     0.167 HD
ATOM     59  C   UNL A   1      44.234  26.527  32.864  1.00  0.00     0.034 A 
ATOM     60  C   UNL A   1      44.471  31.744  28.213  1.00  0.00     0.034 A 
ATOM     61  C   UNL A   1      45.198  26.355  31.814  1.00  0.00     0.049 A 
ATOM     62  C   UNL A   1      45.432  30.582  28.163  1.00  0.00     0.074 A 
ATOM     63  C   UNL A   1      46.079  25.306  31.621  1.00  0.00     0.029 A 
ATOM     64  N   UNL A   1      45.423  27.263  30.793  1.00  0.00    -0.354 N 
ATOM     65  N   UNL A   1      45.457  29.496  28.898  1.00  0.00    -0.248 NA
ATOM     66  C   UNL A   1      46.478  30.628  27.129  1.00  0.00     0.031 C 
ATOM     67  C   UNL A   1      46.857  25.595  30.496  1.00  0.00     0.029 A 
ATOM     68  C   UNL A   1      46.442  26.811  29.976  1.00  0.00     0.049 A 
ATOM     69  H   UNL A   1      44.930  28.107  30.668  1.00  0.00     0.167 HD
ATOM     70  C   UNL A   1      46.495  28.717  28.396  1.00  0.00     0.074 A 
ATOM     71  C   UNL A   1      47.059  29.444  27.278  1.00  0.00     0.031 C 
ATOM     72  C   UNL A   1      46.954  27.518  28.831  1.00  0.00     0.034 A 
BRANCH  59  73
ATOM     73  C   UNL A   1      44.168  25.484  33.945  1.00  0.00     0.023 A 
ATOM     74  C   UNL A   1      43.397  24.321  33.744  1.00  0.00     0.012 A 
ATOM     75  C   UNL A   1      44.919  25.626  35.127  1.00  0.00     0.148 A 
ATOM     76  C   UNL A   1      43.359  23.322  34.715  1.00  0.00     0.002 A 
ATOM     77  C   UNL A   1      44.908  24.607  36.072  1.00  0.00     0.091 A 
ATOM     78  F   UNL A   1      45.622  26.752  35.307  1.00  0.00    -0.205 F 
ATOM     79  C   UNL A   1      44.122  23.460  35.872  1.00  0.00     0.022 A 
BRANCH  77  80
ATOM     80  S   UNL A   1      45.910  24.656  37.561  1.00  0.00     0.127 S 
ATOM     81  O   UNL A   1      46.046  26.096  37.778  1.00  0.00    -0.237 OA
ATOM     82  O   UNL A   1      45.053  23.971  38.529  1.00  0.00    -0.237 OA
ATOM     83  O   UNL A   1      47.145  23.956  37.238  1.00  0.00    -0.744 OA
ENDBRANCH  77  80
ENDBRANCH  59  73
BRANCH  60  84
ATOM     84  C   UNL A   1      44.596  32.873  27.248  1.00  0.00     0.023 A 
ATOM     85  C   UNL A   1      43.996  32.775  25.977  1.00  0.00     0.012 A 
ATOM     86  C   UNL A   1      45.312  34.039  27.580  1.00  0.00     0.148 A 
ATOM     87  C   UNL A   1      44.140  33.801  25.041  1.00  0.00     0.002 A 
ATOM     88  C   UNL A   1      45.406  35.080  26.662  1.00  0.00     0.091 A 
ATOM     89  F   UNL A   1      45.896  34.105  28.784  1.00  0.00    -0.205 F 
ATOM     90  C   UNL A   1      44.836  34.956  25.387  1.00  0.00     0.022 A 
BRANCH  88  91
ATOM     91  S   UNL A   1      46.181  36.649  27.071  1.00  0.00     0.127 S 
ATOM     92  O   UNL A   1      46.666  37.091  25.767  1.00  0.00    -0.237 OA
ATOM     93  O   UNL A   1      45.053  37.416  27.602  1.00  0.00    -0.237 OA
ATOM     94  O   UNL A   1      47.204  36.330  28.058  1.00  0.00    -0.744 OA
ENDBRANCH  88  91
ENDBRANCH  60  84
BRANCH  72  95
ATOM     95  C   UNL A   1      48.107  26.891  28.089  1.00  0.00     0.023 A 
ATOM     96  C   UNL A   1      47.858  26.119  26.938  1.00  0.00     0.012 A 
ATOM     97  C   UNL A   1      49.437  27.141  28.480  1.00  0.00     0.148 A 
ATOM     98  C   UNL A   1      48.915  25.579  26.204  1.00  0.00     0.002 A 
ATOM     99  C   UNL A   1      50.486  26.641  27.717  1.00  0.00     0.091 A 
ATOM    100  F   UNL A   1      49.654  27.866  29.587  1.00  0.00    -0.205 F 
ATOM    101  C   UNL A   1      50.227  25.850  26.586  1.00  0.00     0.022 A 
BRANCH  99 102
ATOM    102  S   UNL A   1      52.204  27.024  28.078  1.00  0.00     0.127 S 
ATOM    103  O   UNL A   1      52.888  26.432  26.930  1.00  0.00    -0.237 OA
ATOM    104  O   UNL A   1      52.202  28.486  28.098  1.00  0.00    -0.237 OA
ATOM    105  O   UNL A   1      52.489  26.405  29.365  1.00  0.00    -0.744 OA
ENDBRANCH  99 102
ENDBRANCH  72  95
ENDBRANCH  46  47
ENDBRANCH  39  41
ENDBRANCH  38  39
ENDBRANCH  37  38
ENDBRANCH  36  37
ENDBRANCH  35  36
ENDBRANCH  34  35
ENDBRANCH   1  34
TORSDOF 26
ENDMDL
MODEL 2
REMARK VINA RESULT:      -8.6      7.793     16.188
REMARK SMILES CCc1ccc(-c2cc(Cl)cc3c2O[C@@H](C(F)(F)F)C(C(=O)OCCOCCOCCOCCOC(=O)c2ccc(-c4c5nc(c(-c6cccc(S(=O)(=O)[O-])c6F)c6ccc([nH]6)c(-c6cccc(S(=O)(=O)[O-])c6F)c6nc(c(-c7cccc(S(=O)(=O)[O-])c7F)c7ccc4[nH]7)C=C6)C=C5)cc2)=C3)cc1
REMARK SMILES IDX 30 1 29 2 28 3 27 4 26 5 25 6 24 7 23 8 21 9 22 10 20 11
REMARK SMILES IDX 7 12 8 13 13 14 9 15 12 16 14 17 10 18 11 19 101 20 15 21
REMARK SMILES IDX 6 22 3 23 4 24 103 25 5 26 102 27 2 28 1 29 16 30 17 31
REMARK SMILES IDX 18 32 19 33 31 34 32 35 33 36 34 37 35 38 36 39 37 40 38 41
REMARK SMILES IDX 39 42 100 43 40 44 99 45 41 46 42 47 43 48 93 49 44 50 98 51
REMARK SMILES IDX 92 52 94 53 45 54 97 55 91 56 90 57 46 59 78 60 58 61 77 62
REMARK SMILES IDX 59 63 62 64 76 65 95 66 60 67 61 68 75 70 96 71 63 72 47 73
REMARK SMILES IDX 48 74 56 75 49 76 51 77 57 78 50 79 52 80 53 81 54 82 55 83
REMARK SMILES IDX 79 84 80 85 88 86 81 87 83 88 89 89 82 90 84 91 85 92 86 93
REMARK SMILES IDX 87 94 64 95 65 96 73 97 66 98 68 99 74 100 67 101 69 102
REMARK SMILES IDX 70 103 71 104 72 105
REMARK H PARENT 94 58 62 69
REMARK Flexibility Score: inf
ROOT
ATOM      1  C   UNL A   1      52.049  39.017  28.002  1.00  0.00     0.188 C 
ENDROOT
BRANCH   1   2
ATOM      2  O   UNL A   1      51.690  39.912  29.049  1.00  0.00    -0.377 OA
BRANCH   2   3
ATOM      3  C   UNL A   1      52.199  41.228  28.982  1.00  0.00     0.188 C 
BRANCH   3   4
ATOM      4  C   UNL A   1      51.167  42.280  29.411  1.00  0.00     0.188 C 
BRANCH   4   5
ATOM      5  O   UNL A   1      49.840  42.010  28.968  1.00  0.00    -0.376 OA
BRANCH   5   6
ATOM      6  C   UNL A   1      48.759  42.491  29.767  1.00  0.00     0.202 C 
BRANCH   6   7
ATOM      7  C   UNL A   1      47.325  42.289  29.255  1.00  0.00     0.261 C 
BRANCH   7   8
ATOM      8  O   UNL A   1      46.896  43.430  28.476  1.00  0.00    -0.460 OA
BRANCH   8   9
ATOM      9  C   UNL A   1      46.906  43.266  27.145  1.00  0.00     0.338 C 
ATOM     10  O   UNL A   1      47.918  43.176  26.458  1.00  0.00    -0.246 OA
BRANCH   9  11
ATOM     11  C   UNL A   1      45.554  43.001  26.590  1.00  0.00     0.087 C 
ATOM     12  C   UNL A   1      45.321  43.292  22.459  1.00  0.00     0.026 A 
ATOM     13  C   UNL A   1      46.281  44.250  22.049  1.00  0.00     0.033 A 
ATOM     14  C   UNL A   1      45.166  43.131  23.851  1.00  0.00     0.135 A 
ATOM     15  C   UNL A   1      46.814  45.174  22.945  1.00  0.00     0.042 A 
ATOM     16  C   UNL A   1      45.512  44.200  24.694  1.00  0.00     0.019 A 
ATOM     17  O   UNL A   1      44.896  41.886  24.410  1.00  0.00    -0.475 OA
ATOM     18  Cl  UNL A   1      47.965  46.326  22.401  1.00  0.00    -0.084 Cl
ATOM     19  C   UNL A   1      46.351  45.218  24.250  1.00  0.00     0.032 A 
ATOM     20  C   UNL A   1      45.058  44.152  26.100  1.00  0.00     0.027 C 
ATOM     21  C   UNL A   1      45.029  41.755  25.897  1.00  0.00     0.316 C 
BRANCH  12  22
ATOM     22  C   UNL A   1      44.257  43.007  21.440  1.00  0.00    -0.015 A 
ATOM     23  C   UNL A   1      42.026  43.512  19.697  1.00  0.00    -0.048 A 
ATOM     24  C   UNL A   1      43.347  43.567  19.229  1.00  0.00     0.004 A 
ATOM     25  C   UNL A   1      41.830  43.086  21.013  1.00  0.00     0.004 A 
ATOM     26  C   UNL A   1      44.440  43.309  20.078  1.00  0.00     0.009 A 
ATOM     27  C   UNL A   1      42.924  42.833  21.865  1.00  0.00     0.009 A 
BRANCH  23  28
ATOM     28  C   UNL A   1      40.911  43.941  18.765  1.00  0.00     0.032 C 
ATOM     29  C   UNL A   1      40.962  45.357  18.195  1.00  0.00     0.009 C 
ENDBRANCH  23  28
ENDBRANCH  12  22
BRANCH  21  30
ATOM     30  C   UNL A   1      45.504  40.372  26.411  1.00  0.00     0.430 C 
ATOM     31  F   UNL A   1      46.799  40.177  26.040  1.00  0.00    -0.167 F 
ATOM     32  F   UNL A   1      45.485  40.323  27.766  1.00  0.00    -0.167 F 
ATOM     33  F   UNL A   1      44.821  39.310  25.969  1.00  0.00    -0.167 F 
ENDBRANCH  21  30
ENDBRANCH   9  11
ENDBRANCH   8   9
ENDBRANCH   7   8
ENDBRANCH   6   7
ENDBRANCH   5   6
ENDBRANCH   4   5
ENDBRANCH   3   4
ENDBRANCH   2   3
ENDBRANCH   1   2
BRANCH   1  34
ATOM     34  C   UNL A   1      53.506  38.932  27.499  1.00  0.00     0.188 C 
BRANCH  34  35
ATOM     35  O   UNL A   1      53.720  39.486  26.199  1.00  0.00    -0.376 OA
BRANCH  35  36
ATOM     36  C   UNL A   1      54.339  38.646  25.233  1.00  0.00     0.202 C 
BRANCH  36  37
ATOM     37  C   UNL A   1      54.458  37.176  25.656  1.00  0.00     0.261 C 
BRANCH  37  38
ATOM     38  O   UNL A   1      53.749  36.251  24.819  1.00  0.00    -0.460 OA
BRANCH  38  39
ATOM     39  C   UNL A   1      53.518  35.022  25.329  1.00  0.00     0.338 C 
ATOM     40  O   UNL A   1      54.344  34.147  25.534  1.00  0.00    -0.246 OA
BRANCH  39  41
ATOM     41  C   UNL A   1      52.121  34.974  25.801  1.00  0.00     0.060 A 
ATOM     42  C   UNL A   1      51.885  35.002  27.180  1.00  0.00     0.016 A 
ATOM     43  C   UNL A   1      51.057  34.906  24.897  1.00  0.00     0.016 A 
ATOM     44  C   UNL A   1      50.582  34.899  27.663  1.00  0.00     0.010 A 
ATOM     45  C   UNL A   1      49.753  34.787  25.382  1.00  0.00     0.010 A 
ATOM     46  C   UNL A   1      49.517  34.735  26.767  1.00  0.00    -0.014 A 
BRANCH  46  47
ATOM     47  C   UNL A   1      48.208  34.277  27.284  1.00  0.00     0.031 A 
ATOM     48  C   UNL A   1      47.987  32.795  27.433  1.00  0.00     0.074 A 
ATOM     49  C   UNL A   1      47.242  35.147  27.628  1.00  0.00     0.049 A 
ATOM     50  N   UNL A   1      46.952  32.156  27.908  1.00  0.00    -0.248 NA
ATOM     51  C   UNL A   1      49.081  31.916  26.982  1.00  0.00     0.031 C 
ATOM     52  C   UNL A   1      47.327  36.600  27.509  1.00  0.00     0.029 A 
ATOM     53  N   UNL A   1      45.984  34.922  28.129  1.00  0.00    -0.354 N 
ATOM     54  C   UNL A   1      47.258  30.806  27.795  1.00  0.00     0.074 A 
ATOM     55  C   UNL A   1      48.570  30.714  27.195  1.00  0.00     0.031 C 
ATOM     56  C   UNL A   1      46.157  37.138  27.898  1.00  0.00     0.029 A 
ATOM     57  C   UNL A   1      45.240  36.065  28.286  1.00  0.00     0.049 A 
ATOM     58  H   UNL A   1      45.647  34.024  28.355  1.00  0.00     0.167 HD
ATOM     59  C   UNL A   1      46.522  29.737  28.175  1.00  0.00     0.034 A 
ATOM     60  C   UNL A   1      43.961  36.224  28.687  1.00  0.00     0.034 A 
ATOM     61  C   UNL A   1      45.230  29.827  28.792  1.00  0.00     0.049 A 
ATOM     62  C   UNL A   1      43.165  35.012  29.106  1.00  0.00     0.074 A 
ATOM     63  C   UNL A   1      44.438  28.803  29.280  1.00  0.00     0.029 A 
ATOM     64  N   UNL A   1      44.530  31.006  28.989  1.00  0.00    -0.354 N 
ATOM     65  N   UNL A   1      43.535  33.755  29.156  1.00  0.00    -0.248 NA
ATOM     66  C   UNL A   1      41.786  35.248  29.563  1.00  0.00     0.031 C 
ATOM     67  C   UNL A   1      43.245  29.362  29.746  1.00  0.00     0.029 A 
ATOM     68  C   UNL A   1      43.306  30.736  29.573  1.00  0.00     0.049 A 
ATOM     69  H   UNL A   1      44.856  31.903  28.749  1.00  0.00     0.167 HD
ATOM     70  C   UNL A   1      42.450  33.057  29.679  1.00  0.00     0.074 A 
ATOM     71  C   UNL A   1      41.418  34.035  29.953  1.00  0.00     0.031 C 
ATOM     72  C   UNL A   1      42.312  31.726  29.895  1.00  0.00     0.034 A 
BRANCH  59  73
ATOM     73  C   UNL A   1      47.114  28.371  27.962  1.00  0.00     0.023 A 
ATOM     74  C   UNL A   1      48.056  27.868  28.883  1.00  0.00     0.012 A 
ATOM     75  C   UNL A   1      46.689  27.562  26.891  1.00  0.00     0.148 A 
ATOM     76  C   UNL A   1      48.582  26.587  28.728  1.00  0.00     0.002 A 
ATOM     77  C   UNL A   1      47.187  26.271  26.767  1.00  0.00     0.091 A 
ATOM     78  F   UNL A   1      45.813  28.072  26.014  1.00  0.00    -0.205 F 
ATOM     79  C   UNL A   1      48.140  25.786  27.679  1.00  0.00     0.022 A 
BRANCH  77  80
ATOM     80  S   UNL A   1      46.629  25.136  25.493  1.00  0.00     0.127 S 
ATOM     81  O   UNL A   1      47.495  25.500  24.373  1.00  0.00    -0.237 OA
ATOM     82  O   UNL A   1      46.923  23.834  26.094  1.00  0.00    -0.237 OA
ATOM     83  O   UNL A   1      45.213  25.411  25.301  1.00  0.00    -0.744 OA
ENDBRANCH  77  80
ENDBRANCH  59  73
BRANCH  60  84
ATOM     84  C   UNL A   1      43.357  37.586  28.745  1.00  0.00     0.023 A 
ATOM     85  C   UNL A   1      42.473  38.000  27.731  1.00  0.00     0.012 A 
ATOM     86  C   UNL A   1      43.662  38.473  29.794  1.00  0.00     0.148 A 
ATOM     87  C   UNL A   1      41.932  39.288  27.741  1.00  0.00     0.002 A 
ATOM     88  C   UNL A   1      43.079  39.735  29.827  1.00  0.00     0.091 A 
ATOM     89  F   UNL A   1      44.524  38.070  30.738  1.00  0.00    -0.205 F 
ATOM     90  C   UNL A   1      42.227  40.151  28.793  1.00  0.00     0.022 A 
BRANCH  88  91
ATOM     91  S   UNL A   1      43.311  40.861  31.207  1.00  0.00     0.127 S 
ATOM     92  O   UNL A   1      42.532  42.020  30.782  1.00  0.00    -0.237 OA
ATOM     93  O   UNL A   1      42.734  40.105  32.319  1.00  0.00    -0.237 OA
ATOM     94  O   UNL A   1      44.750  41.062  31.306  1.00  0.00    -0.744 OA
ENDBRANCH  88  91
ENDBRANCH  60  84
BRANCH  72  95
ATOM     95  C   UNL A   1      41.012  31.237  30.481  1.00  0.00     0.023 A 
ATOM     96  C   UNL A   1      40.043  30.655  29.641  1.00  0.00     0.012 A 
ATOM     97  C   UNL A   1      40.790  31.274  31.872  1.00  0.00     0.148 A 
ATOM     98  C   UNL A   1      38.858  30.144  30.172  1.00  0.00     0.002 A 
ATOM     99  C   UNL A   1      39.629  30.719  32.400  1.00  0.00     0.091 A 
ATOM    100  F   UNL A   1      41.716  31.845  32.654  1.00  0.00    -0.205 F 
ATOM    101  C   UNL A   1      38.658  30.165  31.551  1.00  0.00     0.022 A 
BRANCH  99 102
ATOM    102  S   UNL A   1      39.334  30.612  34.168  1.00  0.00     0.127 S 
ATOM    103  O   UNL A   1      38.375  29.511  34.244  1.00  0.00    -0.237 OA
ATOM    104  O   UNL A   1      40.664  30.299  34.690  1.00  0.00    -0.237 OA
ATOM    105  O   UNL A   1      38.823  31.917  34.567  1.00  0.00    -0.744 OA
ENDBRANCH  99 102
ENDBRANCH  72  95
ENDBRANCH  46  47
ENDBRANCH  39  41
ENDBRANCH  38  39
ENDBRANCH  37  38
ENDBRANCH  36  37
ENDBRANCH  35  36
ENDBRANCH  34  35
ENDBRANCH   1  34
TORSDOF 26
ENDMDL
MODEL 3
REMARK VINA RESULT:      -8.1      8.471     13.832
REMARK SMILES CCc1ccc(-c2cc(Cl)cc3c2O[C@@H](C(F)(F)F)C(C(=O)OCCOCCOCCOCCOC(=O)c2ccc(-c4c5nc(c(-c6cccc(S(=O)(=O)[O-])c6F)c6ccc([nH]6)c(-c6cccc(S(=O)(=O)[O-])c6F)c6nc(c(-c7cccc(S(=O)(=O)[O-])c7F)c7ccc4[nH]7)C=C6)C=C5)cc2)=C3)cc1
REMARK SMILES IDX 30 1 29 2 28 3 27 4 26 5 25 6 24 7 23 8 21 9 22 10 20 11
REMARK SMILES IDX 7 12 8 13 13 14 9 15 12 16 14 17 10 18 11 19 101 20 15 21
REMARK SMILES IDX 6 22 3 23 4 24 103 25 5 26 102 27 2 28 1 29 16 30 17 31
REMARK SMILES IDX 18 32 19 33 31 34 32 35 33 36 34 37 35 38 36 39 37 40 38 41
REMARK SMILES IDX 39 42 100 43 40 44 99 45 41 46 42 47 43 48 93 49 44 50 98 51
REMARK SMILES IDX 92 52 94 53 45 54 97 55 91 56 90 57 46 59 78 60 58 61 77 62
REMARK SMILES IDX 59 63 62 64 76 65 95 66 60 67 61 68 75 70 96 71 63 72 47 73
REMARK SMILES IDX 48 74 56 75 49 76 51 77 57 78 50 79 52 80 53 81 54 82 55 83
REMARK SMILES IDX 79 84 80 85 88 86 81 87 83 88 89 89 82 90 84 91 85 92 86 93
REMARK SMILES IDX 87 94 64 95 65 96 73 97 66 98 68 99 74 100 67 101 69 102
REMARK SMILES IDX 70 103 71 104 72 105
REMARK H PARENT 94 58 62 69
REMARK Flexibility Score: inf
ROOT
ATOM      1  C   UNL A   1      46.132  27.765  40.222  1.00  0.00     0.188 C 
ENDROOT
BRANCH   1   2
ATOM      2  O   UNL A   1      46.881  28.245  39.111  1.00  0.00    -0.377 OA
BRANCH   2   3
ATOM      3  C   UNL A   1      48.288  28.147  39.183  1.00  0.00     0.188 C 
BRANCH   3   4
ATOM      4  C   UNL A   1      48.754  26.831  39.820  1.00  0.00     0.188 C 
BRANCH   4   5
ATOM      5  O   UNL A   1      48.977  25.779  38.886  1.00  0.00    -0.376 OA
BRANCH   5   6
ATOM      6  C   UNL A   1      49.707  24.634  39.330  1.00  0.00     0.202 C 
BRANCH   6   7
ATOM      7  C   UNL A   1      50.460  23.797  38.286  1.00  0.00     0.261 C 
BRANCH   7   8
ATOM      8  O   UNL A   1      49.707  22.608  37.948  1.00  0.00    -0.460 OA
BRANCH   8   9
ATOM      9  C   UNL A   1      50.149  21.921  36.883  1.00  0.00     0.338 C 
ATOM     10  O   UNL A   1      51.185  22.163  36.274  1.00  0.00    -0.246 OA
BRANCH   9  11
ATOM     11  C   UNL A   1      49.352  20.695  36.622  1.00  0.00     0.087 C 
ATOM     12  C   UNL A   1      47.938  18.820  40.040  1.00  0.00     0.026 A 
ATOM     13  C   UNL A   1      48.871  19.072  41.076  1.00  0.00     0.033 A 
ATOM     14  C   UNL A   1      48.298  19.283  38.759  1.00  0.00     0.135 A 
ATOM     15  C   UNL A   1      50.175  19.477  40.797  1.00  0.00     0.042 A 
ATOM     16  C   UNL A   1      49.662  19.454  38.465  1.00  0.00     0.019 A 
ATOM     17  O   UNL A   1      47.346  19.778  37.873  1.00  0.00    -0.475 OA
ATOM     18  Cl  UNL A   1      51.276  19.758  42.084  1.00  0.00    -0.084 Cl
ATOM     19  C   UNL A   1      50.604  19.568  39.482  1.00  0.00     0.032 A 
ATOM     20  C   UNL A   1      50.052  19.628  37.049  1.00  0.00     0.027 C 
ATOM     21  C   UNL A   1      47.845  20.505  36.660  1.00  0.00     0.316 C 
BRANCH  12  22
ATOM     22  C   UNL A   1      47.015  17.666  40.306  1.00  0.00    -0.015 A 
ATOM     23  C   UNL A   1      44.665  16.283  41.215  1.00  0.00    -0.048 A 
ATOM     24  C   UNL A   1      44.809  16.678  39.878  1.00  0.00     0.004 A 
ATOM     25  C   UNL A   1      45.757  16.481  42.064  1.00  0.00     0.004 A 
ATOM     26  C   UNL A   1      45.964  17.345  39.427  1.00  0.00     0.009 A 
ATOM     27  C   UNL A   1      46.911  17.154  41.615  1.00  0.00     0.009 A 
BRANCH  23  28
ATOM     28  C   UNL A   1      43.338  15.699  41.657  1.00  0.00     0.032 C 
ATOM     29  C   UNL A   1      42.249  15.521  40.601  1.00  0.00     0.009 C 
ENDBRANCH  23  28
ENDBRANCH  12  22
BRANCH  21  30
ATOM     30  C   UNL A   1      46.944  21.658  36.149  1.00  0.00     0.430 C 
ATOM     31  F   UNL A   1      46.283  21.248  35.032  1.00  0.00    -0.167 F 
ATOM     32  F   UNL A   1      45.992  21.973  37.061  1.00  0.00    -0.167 F 
ATOM     33  F   UNL A   1      47.569  22.795  35.823  1.00  0.00    -0.167 F 
ENDBRANCH  21  30
ENDBRANCH   9  11
ENDBRANCH   8   9
ENDBRANCH   7   8
ENDBRANCH   6   7
ENDBRANCH   5   6
ENDBRANCH   4   5
ENDBRANCH   3   4
ENDBRANCH   2   3
ENDBRANCH   1   2
BRANCH   1  34
ATOM     34  C   UNL A   1      45.100  26.629  40.049  1.00  0.00     0.188 C 
BRANCH  34  35
ATOM     35  O   UNL A   1      45.510  25.583  39.166  1.00  0.00    -0.376 OA
BRANCH  35  36
ATOM     36  C   UNL A   1      44.486  24.899  38.457  1.00  0.00     0.202 C 
BRANCH  36  37
ATOM     37  C   UNL A   1      43.408  25.815  37.860  1.00  0.00     0.261 C 
BRANCH  37  38
ATOM     38  O   UNL A   1      42.473  25.157  36.994  1.00  0.00    -0.460 OA
BRANCH  38  39
ATOM     39  C   UNL A   1      42.302  25.691  35.766  1.00  0.00     0.338 C 
ATOM     40  O   UNL A   1      41.293  26.226  35.335  1.00  0.00    -0.246 OA
BRANCH  39  41
ATOM     41  C   UNL A   1      43.610  25.712  35.085  1.00  0.00     0.060 A 
ATOM     42  C   UNL A   1      44.144  26.951  34.711  1.00  0.00     0.016 A 
ATOM     43  C   UNL A   1      44.306  24.529  34.822  1.00  0.00     0.016 A 
ATOM     44  C   UNL A   1      45.349  27.006  34.014  1.00  0.00     0.010 A 
ATOM     45  C   UNL A   1      45.506  24.583  34.110  1.00  0.00     0.010 A 
ATOM     46  C   UNL A   1      46.006  25.819  33.663  1.00  0.00    -0.014 A 
BRANCH  46  47
ATOM     47  C   UNL A   1      47.073  25.865  32.638  1.00  0.00     0.031 A 
ATOM     48  C   UNL A   1      46.674  25.697  31.196  1.00  0.00     0.074 A 
ATOM     49  C   UNL A   1      48.361  26.065  32.969  1.00  0.00     0.049 A 
ATOM     50  N   UNL A   1      47.414  25.750  30.121  1.00  0.00    -0.248 NA
ATOM     51  C   UNL A   1      45.248  25.431  30.932  1.00  0.00     0.031 C 
ATOM     52  C   UNL A   1      48.874  26.218  34.328  1.00  0.00     0.029 A 
ATOM     53  N   UNL A   1      49.477  26.149  32.174  1.00  0.00    -0.354 N 
ATOM     54  C   UNL A   1      46.553  25.505  29.058  1.00  0.00     0.074 A 
ATOM     55  C   UNL A   1      45.236  25.290  29.616  1.00  0.00     0.031 C 
ATOM     56  C   UNL A   1      50.212  26.347  34.276  1.00  0.00     0.029 A 
ATOM     57  C   UNL A   1      50.648  26.279  32.881  1.00  0.00     0.049 A 
ATOM     58  H   UNL A   1      49.441  26.119  31.191  1.00  0.00     0.167 HD
ATOM     59  C   UNL A   1      46.828  25.480  27.735  1.00  0.00     0.034 A 
ATOM     60  C   UNL A   1      51.925  26.327  32.447  1.00  0.00     0.034 A 
ATOM     61  C   UNL A   1      48.129  25.717  27.178  1.00  0.00     0.049 A 
ATOM     62  C   UNL A   1      52.201  26.299  30.964  1.00  0.00     0.074 A 
ATOM     63  C   UNL A   1      48.493  25.786  25.845  1.00  0.00     0.029 A 
ATOM     64  N   UNL A   1      49.283  25.903  27.921  1.00  0.00    -0.354 N 
ATOM     65  N   UNL A   1      51.354  26.240  29.965  1.00  0.00    -0.248 NA
ATOM     66  C   UNL A   1      53.610  26.384  30.548  1.00  0.00     0.031 C 
ATOM     67  C   UNL A   1      49.875  25.986  25.784  1.00  0.00     0.029 A 
ATOM     68  C   UNL A   1      50.366  26.068  27.077  1.00  0.00     0.049 A 
ATOM     69  H   UNL A   1      49.326  25.917  28.905  1.00  0.00     0.167 HD
ATOM     70  C   UNL A   1      52.122  26.315  28.806  1.00  0.00     0.074 A 
ATOM     71  C   UNL A   1      53.500  26.448  29.228  1.00  0.00     0.031 C 
ATOM     72  C   UNL A   1      51.725  26.259  27.511  1.00  0.00     0.034 A 
BRANCH  59  73
ATOM     73  C   UNL A   1      45.688  25.217  26.790  1.00  0.00     0.023 A 
ATOM     74  C   UNL A   1      44.959  26.301  26.259  1.00  0.00     0.012 A 
ATOM     75  C   UNL A   1      45.384  23.906  26.378  1.00  0.00     0.148 A 
ATOM     76  C   UNL A   1      43.929  26.081  25.347  1.00  0.00     0.002 A 
ATOM     77  C   UNL A   1      44.383  23.698  25.437  1.00  0.00     0.091 A 
ATOM     78  F   UNL A   1      46.073  22.891  26.916  1.00  0.00    -0.205 F 
ATOM     79  C   UNL A   1      43.649  24.782  24.928  1.00  0.00     0.022 A 
BRANCH  77  80
ATOM     80  S   UNL A   1      43.994  22.074  24.779  1.00  0.00     0.127 S 
ATOM     81  O   UNL A   1      42.623  21.885  25.251  1.00  0.00    -0.237 OA
ATOM     82  O   UNL A   1      44.118  22.289  23.337  1.00  0.00    -0.237 OA
ATOM     83  O   UNL A   1      44.978  21.163  25.346  1.00  0.00    -0.744 OA
ENDBRANCH  77  80
ENDBRANCH  59  73
BRANCH  60  84
ATOM     84  C   UNL A   1      53.044  26.439  33.425  1.00  0.00     0.023 A 
ATOM     85  C   UNL A   1      53.648  25.272  33.932  1.00  0.00     0.012 A 
ATOM     86  C   UNL A   1      53.507  27.695  33.861  1.00  0.00     0.148 A 
ATOM     87  C   UNL A   1      54.666  25.353  34.884  1.00  0.00     0.002 A 
ATOM     88  C   UNL A   1      54.557  27.770  34.769  1.00  0.00     0.091 A 
ATOM     89  F   UNL A   1      52.905  28.794  33.386  1.00  0.00    -0.205 F 
ATOM     90  C   UNL A   1      55.127  26.601  35.295  1.00  0.00     0.022 A 
BRANCH  88  91
ATOM     91  S   UNL A   1      55.291  29.337  35.257  1.00  0.00     0.127 S 
ATOM     92  O   UNL A   1      54.165  30.007  35.900  1.00  0.00    -0.237 OA
ATOM     93  O   UNL A   1      56.353  28.906  36.166  1.00  0.00    -0.237 OA
ATOM     94  O   UNL A   1      55.771  29.941  34.021  1.00  0.00    -0.744 OA
ENDBRANCH  88  91
ENDBRANCH  60  84
BRANCH  72  95
ATOM     95  C   UNL A   1      52.784  26.368  26.443  1.00  0.00     0.023 A 
ATOM     96  C   UNL A   1      53.471  25.213  26.022  1.00  0.00     0.012 A 
ATOM     97  C   UNL A   1      53.033  27.596  25.798  1.00  0.00     0.148 A 
ATOM     98  C   UNL A   1      54.413  25.284  24.996  1.00  0.00     0.002 A 
ATOM     99  C   UNL A   1      53.937  27.650  24.743  1.00  0.00     0.091 A 
ATOM    100  F   UNL A   1      52.380  28.687  26.223  1.00  0.00    -0.205 F 
ATOM    101  C   UNL A   1      54.636  26.497  24.349  1.00  0.00     0.022 A 
BRANCH  99 102
ATOM    102  S   UNL A   1      54.211  29.146  23.789  1.00  0.00     0.127 S 
ATOM    103  O   UNL A   1      55.147  28.681  22.767  1.00  0.00    -0.237 OA
ATOM    104  O   UNL A   1      52.870  29.453  23.293  1.00  0.00    -0.237 OA
ATOM    105  O   UNL A   1      54.744  30.126  24.727  1.00  0.00    -0.744 OA
ENDBRANCH  99 102
ENDBRANCH  72  95
ENDBRANCH  46  47
ENDBRANCH  39  41
ENDBRANCH  38  39
ENDBRANCH  37  38
ENDBRANCH  36  37
ENDBRANCH  35  36
ENDBRANCH  34  35
ENDBRANCH   1  34
TORSDOF 26
ENDMDL
