MODEL 1
REMARK VINA RESULT:     -10.2      0.000      0.000
REMARK SMILES CC1=Nc2ncnn2[C@H](c2ccc(F)cc2)[C@@H]1C(=O)OCCOCCOCCOCCOC(=O)c1ccc(-c2c3nc(c(-c4cccc(S(=O)(=O)[O-])c4F)c4ccc([nH]4)c(-c4cccc(S(=O)(=O)[O-])c4F)c4nc(c(-c5cccc(S(=O)(=O)[O-])c5F)c5ccc2[nH]5)C=C4)C=C3)cc1
REMARK SMILES IDX 27 1 26 2 25 3 24 4 23 5 22 6 21 7 20 8 18 9 19 10 17 11
REMARK SMILES IDX 1 12 2 13 3 14 4 15 9 16 5 17 8 18 6 19 7 20 10 21 11 22
REMARK SMILES IDX 16 23 12 24 15 25 13 26 14 27 28 28 29 29 30 30 31 31 32 32
REMARK SMILES IDX 33 33 34 34 35 35 36 36 97 37 37 38 96 39 38 40 39 41 40 42
REMARK SMILES IDX 90 43 41 44 95 45 89 46 91 47 42 48 94 49 88 50 87 51 43 53
REMARK SMILES IDX 75 54 55 55 74 56 56 57 59 58 73 59 92 60 57 61 58 62 72 64
REMARK SMILES IDX 93 65 60 66 44 67 45 68 53 69 46 70 48 71 54 72 47 73 49 74
REMARK SMILES IDX 50 75 51 76 52 77 76 78 77 79 85 80 78 81 80 82 86 83 79 84
REMARK SMILES IDX 81 85 82 86 83 87 84 88 61 89 62 90 70 91 63 92 65 93 71 94
REMARK SMILES IDX 64 95 66 96 67 97 68 98 69 99
REMARK H PARENT 91 52 59 63
REMARK Flexibility Score: inf
ROOT
ATOM      1  C   UNL A   1      40.834  20.502  26.559  1.00  0.00     0.188 C 
ENDROOT
BRANCH   1   2
ATOM      2  O   UNL A   1      39.944  21.176  25.693  1.00  0.00    -0.377 OA
BRANCH   2   3
ATOM      3  C   UNL A   1      38.770  21.736  26.226  1.00  0.00     0.188 C 
BRANCH   3   4
ATOM      4  C   UNL A   1      38.166  22.834  25.345  1.00  0.00     0.188 C 
BRANCH   4   5
ATOM      5  O   UNL A   1      37.039  22.380  24.600  1.00  0.00    -0.376 OA
BRANCH   5   6
ATOM      6  C   UNL A   1      36.187  23.387  24.072  1.00  0.00     0.202 C 
BRANCH   6   7
ATOM      7  C   UNL A   1      35.137  22.890  23.072  1.00  0.00     0.261 C 
BRANCH   7   8
ATOM      8  O   UNL A   1      34.142  23.797  22.522  1.00  0.00    -0.463 OA
BRANCH   8   9
ATOM      9  C   UNL A   1      32.803  23.629  22.578  1.00  0.00     0.317 C 
ATOM     10  O   UNL A   1      32.191  22.577  22.639  1.00  0.00    -0.251 OA
BRANCH   9  11
ATOM     11  C   UNL A   1      32.102  24.945  22.504  1.00  0.00     0.173 C 
ATOM     12  C   UNL A   1      32.711  25.315  19.988  1.00  0.00     0.063 C 
ATOM     13  C   UNL A   1      32.735  25.817  21.418  1.00  0.00     0.036 C 
ATOM     14  N   UNL A   1      33.351  26.938  21.621  1.00  0.00    -0.220 NA
ATOM     15  C   UNL A   1      33.434  27.423  22.876  1.00  0.00     0.248 A 
ATOM     16  C   UNL A   1      32.059  25.609  23.898  1.00  0.00     0.161 C 
ATOM     17  N   UNL A   1      33.955  28.561  23.282  1.00  0.00    -0.198 NA
ATOM     18  N   UNL A   1      32.905  26.789  23.969  1.00  0.00    -0.221 N 
ATOM     19  C   UNL A   1      33.660  28.603  24.610  1.00  0.00     0.248 A 
ATOM     20  N   UNL A   1      32.986  27.553  25.079  1.00  0.00    -0.157 NA
BRANCH  16  21
ATOM     21  C   UNL A   1      32.241  24.721  25.144  1.00  0.00    -0.022 A 
ATOM     22  C   UNL A   1      31.122  24.072  25.692  1.00  0.00     0.009 A 
ATOM     23  C   UNL A   1      33.482  24.535  25.790  1.00  0.00     0.009 A 
ATOM     24  C   UNL A   1      31.254  23.208  26.784  1.00  0.00     0.039 A 
ATOM     25  C   UNL A   1      33.627  23.618  26.834  1.00  0.00     0.039 A 
ATOM     26  C   UNL A   1      32.510  22.961  27.321  1.00  0.00     0.123 A 
ATOM     27  F   UNL A   1      32.641  22.094  28.333  1.00  0.00    -0.207 F 
ENDBRANCH  16  21
ENDBRANCH   9  11
ENDBRANCH   8   9
ENDBRANCH   7   8
ENDBRANCH   6   7
ENDBRANCH   5   6
ENDBRANCH   4   5
ENDBRANCH   3   4
ENDBRANCH   2   3
ENDBRANCH   1   2
BRANCH   1  28
ATOM     28  C   UNL A   1      42.082  19.714  26.095  1.00  0.00     0.188 C 
BRANCH  28  29
ATOM     29  O   UNL A   1      43.301  20.179  25.517  1.00  0.00    -0.376 OA
BRANCH  29  30
ATOM     30  C   UNL A   1      43.959  21.424  25.636  1.00  0.00     0.202 C 
BRANCH  30  31
ATOM     31  C   UNL A   1      43.502  22.590  24.766  1.00  0.00     0.261 C 
BRANCH  31  32
ATOM     32  O   UNL A   1      42.606  23.444  25.432  1.00  0.00    -0.460 OA
BRANCH  32  33
ATOM     33  C   UNL A   1      43.057  24.719  25.445  1.00  0.00     0.338 C 
ATOM     34  O   UNL A   1      43.946  25.214  24.779  1.00  0.00    -0.246 OA
BRANCH  33  35
ATOM     35  C   UNL A   1      42.376  25.429  26.514  1.00  0.00     0.060 A 
ATOM     36  C   UNL A   1      41.407  26.348  26.114  1.00  0.00     0.016 A 
ATOM     37  C   UNL A   1      42.952  25.409  27.791  1.00  0.00     0.016 A 
ATOM     38  C   UNL A   1      41.186  27.422  26.930  1.00  0.00     0.010 A 
ATOM     39  C   UNL A   1      42.744  26.492  28.596  1.00  0.00     0.010 A 
ATOM     40  C   UNL A   1      41.937  27.517  28.104  1.00  0.00    -0.014 A 
BRANCH  40  41
ATOM     41  C   UNL A   1      41.824  28.738  28.858  1.00  0.00     0.031 A 
ATOM     42  C   UNL A   1      42.838  29.727  28.465  1.00  0.00     0.074 A 
ATOM     43  C   UNL A   1      40.814  28.920  29.728  1.00  0.00     0.049 A 
ATOM     44  N   UNL A   1      43.793  30.206  29.189  1.00  0.00    -0.248 NA
ATOM     45  C   UNL A   1      42.911  30.093  27.039  1.00  0.00     0.031 C 
ATOM     46  C   UNL A   1      39.638  28.053  29.878  1.00  0.00     0.029 A 
ATOM     47  N   UNL A   1      40.528  29.987  30.524  1.00  0.00    -0.354 N 
ATOM     48  C   UNL A   1      44.379  31.167  28.377  1.00  0.00     0.074 A 
ATOM     49  C   UNL A   1      43.983  30.881  27.024  1.00  0.00     0.031 C 
ATOM     50  C   UNL A   1      38.659  28.752  30.489  1.00  0.00     0.029 A 
ATOM     51  C   UNL A   1      39.183  30.050  30.874  1.00  0.00     0.049 A 
ATOM     52  H   UNL A   1      41.200  30.642  30.821  1.00  0.00     0.167 HD
ATOM     53  C   UNL A   1      44.791  32.342  28.912  1.00  0.00     0.034 A 
ATOM     54  C   UNL A   1      38.527  31.137  31.340  1.00  0.00     0.034 A 
ATOM     55  C   UNL A   1      44.941  32.265  30.337  1.00  0.00     0.049 A 
ATOM     56  C   UNL A   1      39.534  32.070  31.900  1.00  0.00     0.074 A 
ATOM     57  C   UNL A   1      45.824  31.693  31.223  1.00  0.00     0.029 A 
ATOM     58  N   UNL A   1      43.811  32.603  31.031  1.00  0.00    -0.354 N 
ATOM     59  N   UNL A   1      40.261  31.818  32.955  1.00  0.00    -0.248 NA
ATOM     60  C   UNL A   1      39.955  33.224  31.110  1.00  0.00     0.031 C 
ATOM     61  C   UNL A   1      45.139  31.610  32.468  1.00  0.00     0.029 A 
ATOM     62  C   UNL A   1      43.852  32.123  32.311  1.00  0.00     0.049 A 
ATOM     63  H   UNL A   1      43.065  33.127  30.657  1.00  0.00     0.167 HD
ATOM     64  C   UNL A   1      41.440  32.502  32.722  1.00  0.00     0.074 A 
ATOM     65  C   UNL A   1      41.127  33.483  31.695  1.00  0.00     0.031 C 
ATOM     66  C   UNL A   1      42.643  31.990  33.103  1.00  0.00     0.034 A 
BRANCH  53  67
ATOM     67  C   UNL A   1      44.579  33.676  28.242  1.00  0.00     0.023 A 
ATOM     68  C   UNL A   1      43.323  33.901  27.646  1.00  0.00     0.012 A 
ATOM     69  C   UNL A   1      45.617  34.580  27.919  1.00  0.00     0.148 A 
ATOM     70  C   UNL A   1      43.115  34.968  26.767  1.00  0.00     0.002 A 
ATOM     71  C   UNL A   1      45.378  35.696  27.129  1.00  0.00     0.091 A 
ATOM     72  F   UNL A   1      46.885  34.294  28.234  1.00  0.00    -0.205 F 
ATOM     73  C   UNL A   1      44.136  35.880  26.525  1.00  0.00     0.022 A 
BRANCH  71  74
ATOM     74  S   UNL A   1      46.659  36.928  26.870  1.00  0.00     0.127 S 
ATOM     75  O   UNL A   1      47.316  36.948  28.172  1.00  0.00    -0.237 OA
ATOM     76  O   UNL A   1      47.439  36.330  25.786  1.00  0.00    -0.237 OA
ATOM     77  O   UNL A   1      45.944  38.139  26.484  1.00  0.00    -0.744 OA
ENDBRANCH  71  74
ENDBRANCH  53  67
BRANCH  54  78
ATOM     78  C   UNL A   1      37.110  31.531  31.151  1.00  0.00     0.023 A 
ATOM     79  C   UNL A   1      36.336  31.844  32.287  1.00  0.00     0.012 A 
ATOM     80  C   UNL A   1      36.578  31.849  29.880  1.00  0.00     0.148 A 
ATOM     81  C   UNL A   1      35.101  32.488  32.167  1.00  0.00     0.002 A 
ATOM     82  C   UNL A   1      35.334  32.466  29.764  1.00  0.00     0.091 A 
ATOM     83  F   UNL A   1      37.323  31.641  28.786  1.00  0.00    -0.205 F 
ATOM     84  C   UNL A   1      34.601  32.803  30.907  1.00  0.00     0.022 A 
BRANCH  82  85
ATOM     85  S   UNL A   1      34.624  32.880  28.163  1.00  0.00     0.127 S 
ATOM     86  O   UNL A   1      33.498  33.735  28.538  1.00  0.00    -0.237 OA
ATOM     87  O   UNL A   1      35.730  33.574  27.510  1.00  0.00    -0.237 OA
ATOM     88  O   UNL A   1      34.230  31.606  27.571  1.00  0.00    -0.744 OA
ENDBRANCH  82  85
ENDBRANCH  54  78
BRANCH  66  89
ATOM     89  C   UNL A   1      42.696  31.047  34.267  1.00  0.00     0.023 A 
ATOM     90  C   UNL A   1      42.787  31.485  35.601  1.00  0.00     0.012 A 
ATOM     91  C   UNL A   1      42.465  29.684  34.007  1.00  0.00     0.148 A 
ATOM     92  C   UNL A   1      42.646  30.577  36.654  1.00  0.00     0.002 A 
ATOM     93  C   UNL A   1      42.261  28.797  35.055  1.00  0.00     0.091 A 
ATOM     94  F   UNL A   1      42.405  29.283  32.728  1.00  0.00    -0.205 F 
ATOM     95  C   UNL A   1      42.361  29.239  36.382  1.00  0.00     0.022 A 
BRANCH  93  96
ATOM     96  S   UNL A   1      41.725  27.110  34.756  1.00  0.00     0.127 S 
ATOM     97  O   UNL A   1      41.422  26.640  36.106  1.00  0.00    -0.237 OA
ATOM     98  O   UNL A   1      40.556  27.298  33.896  1.00  0.00    -0.237 OA
ATOM     99  O   UNL A   1      42.846  26.450  34.095  1.00  0.00    -0.744 OA
ENDBRANCH  93  96
ENDBRANCH  66  89
ENDBRANCH  40  41
ENDBRANCH  33  35
ENDBRANCH  32  33
ENDBRANCH  31  32
ENDBRANCH  30  31
ENDBRANCH  29  30
ENDBRANCH  28  29
ENDBRANCH   1  28
TORSDOF 24
ENDMDL
MODEL 2
REMARK VINA RESULT:     -10.2      2.994      9.082
REMARK SMILES CC1=Nc2ncnn2[C@H](c2ccc(F)cc2)[C@@H]1C(=O)OCCOCCOCCOCCOC(=O)c1ccc(-c2c3nc(c(-c4cccc(S(=O)(=O)[O-])c4F)c4ccc([nH]4)c(-c4cccc(S(=O)(=O)[O-])c4F)c4nc(c(-c5cccc(S(=O)(=O)[O-])c5F)c5ccc2[nH]5)C=C4)C=C3)cc1
REMARK SMILES IDX 27 1 26 2 25 3 24 4 23 5 22 6 21 7 20 8 18 9 19 10 17 11
REMARK SMILES IDX 1 12 2 13 3 14 4 15 9 16 5 17 8 18 6 19 7 20 10 21 11 22
REMARK SMILES IDX 16 23 12 24 15 25 13 26 14 27 28 28 29 29 30 30 31 31 32 32
REMARK SMILES IDX 33 33 34 34 35 35 36 36 97 37 37 38 96 39 38 40 39 41 40 42
REMARK SMILES IDX 90 43 41 44 95 45 89 46 91 47 42 48 94 49 88 50 87 51 43 53
REMARK SMILES IDX 75 54 55 55 74 56 56 57 59 58 73 59 92 60 57 61 58 62 72 64
REMARK SMILES IDX 93 65 60 66 44 67 45 68 53 69 46 70 48 71 54 72 47 73 49 74
REMARK SMILES IDX 50 75 51 76 52 77 76 78 77 79 85 80 78 81 80 82 86 83 79 84
REMARK SMILES IDX 81 85 82 86 83 87 84 88 61 89 62 90 70 91 63 92 65 93 71 94
REMARK SMILES IDX 64 95 66 96 67 97 68 98 69 99
REMARK H PARENT 91 52 59 63
REMARK Flexibility Score: inf
ROOT
ATOM      1  C   UNL A   1      31.207  29.185  23.811  1.00  0.00     0.188 C 
ENDROOT
BRANCH   1   2
ATOM      2  O   UNL A   1      29.967  28.725  23.315  1.00  0.00    -0.377 OA
BRANCH   2   3
ATOM      3  C   UNL A   1      29.712  27.343  23.297  1.00  0.00     0.188 C 
BRANCH   3   4
ATOM      4  C   UNL A   1      30.910  26.510  22.831  1.00  0.00     0.188 C 
BRANCH   4   5
ATOM      5  O   UNL A   1      30.815  25.145  23.226  1.00  0.00    -0.376 OA
BRANCH   5   6
ATOM      6  C   UNL A   1      31.915  24.313  22.884  1.00  0.00     0.202 C 
BRANCH   6   7
ATOM      7  C   UNL A   1      31.720  22.822  23.186  1.00  0.00     0.261 C 
BRANCH   7   8
ATOM      8  O   UNL A   1      31.247  22.379  24.488  1.00  0.00    -0.463 OA
BRANCH   8   9
ATOM      9  C   UNL A   1      32.005  21.825  25.457  1.00  0.00     0.317 C 
ATOM     10  O   UNL A   1      32.539  20.729  25.444  1.00  0.00    -0.251 OA
BRANCH   9  11
ATOM     11  C   UNL A   1      32.091  22.729  26.643  1.00  0.00     0.173 C 
ATOM     12  C   UNL A   1      29.509  22.694  27.062  1.00  0.00     0.063 C 
ATOM     13  C   UNL A   1      30.776  23.491  26.817  1.00  0.00     0.036 C 
ATOM     14  N   UNL A   1      30.633  24.775  26.717  1.00  0.00    -0.220 NA
ATOM     15  C   UNL A   1      31.718  25.537  26.469  1.00  0.00     0.248 A 
ATOM     16  C   UNL A   1      33.335  23.638  26.536  1.00  0.00     0.161 C 
ATOM     17  N   UNL A   1      31.797  26.848  26.393  1.00  0.00    -0.198 NA
ATOM     18  N   UNL A   1      32.980  25.029  26.307  1.00  0.00    -0.221 N 
ATOM     19  C   UNL A   1      33.130  27.089  26.253  1.00  0.00     0.248 A 
ATOM     20  N   UNL A   1      33.907  26.006  26.226  1.00  0.00    -0.157 NA
BRANCH  16  21
ATOM     21  C   UNL A   1      34.490  23.202  25.615  1.00  0.00    -0.022 A 
ATOM     22  C   UNL A   1      35.392  22.222  26.062  1.00  0.00     0.009 A 
ATOM     23  C   UNL A   1      34.712  23.754  24.335  1.00  0.00     0.009 A 
ATOM     24  C   UNL A   1      36.416  21.753  25.234  1.00  0.00     0.039 A 
ATOM     25  C   UNL A   1      35.689  23.236  23.480  1.00  0.00     0.039 A 
ATOM     26  C   UNL A   1      36.532  22.238  23.938  1.00  0.00     0.123 A 
ATOM     27  F   UNL A   1      37.482  21.751  23.129  1.00  0.00    -0.207 F 
ENDBRANCH  16  21
ENDBRANCH   9  11
ENDBRANCH   8   9
ENDBRANCH   7   8
ENDBRANCH   6   7
ENDBRANCH   5   6
ENDBRANCH   4   5
ENDBRANCH   3   4
ENDBRANCH   2   3
ENDBRANCH   1   2
BRANCH   1  28
ATOM     28  C   UNL A   1      31.375  30.081  25.062  1.00  0.00     0.188 C 
BRANCH  28  29
ATOM     29  O   UNL A   1      32.546  30.406  25.809  1.00  0.00    -0.376 OA
BRANCH  29  30
ATOM     30  C   UNL A   1      32.713  30.684  27.184  1.00  0.00     0.202 C 
BRANCH  30  31
ATOM     31  C   UNL A   1      33.858  31.587  27.625  1.00  0.00     0.261 C 
BRANCH  31  32
ATOM     32  O   UNL A   1      34.719  30.962  28.543  1.00  0.00    -0.460 OA
BRANCH  32  33
ATOM     33  C   UNL A   1      35.184  31.840  29.460  1.00  0.00     0.338 C 
ATOM     34  O   UNL A   1      34.912  33.018  29.587  1.00  0.00    -0.246 OA
BRANCH  33  35
ATOM     35  C   UNL A   1      36.209  31.174  30.246  1.00  0.00     0.060 A 
ATOM     36  C   UNL A   1      37.279  31.969  30.652  1.00  0.00     0.016 A 
ATOM     37  C   UNL A   1      36.234  29.773  30.245  1.00  0.00     0.016 A 
ATOM     38  C   UNL A   1      38.487  31.353  30.828  1.00  0.00     0.010 A 
ATOM     39  C   UNL A   1      37.445  29.162  30.403  1.00  0.00     0.010 A 
ATOM     40  C   UNL A   1      38.559  29.977  30.599  1.00  0.00    -0.014 A 
BRANCH  40  41
ATOM     41  C   UNL A   1      39.868  29.378  30.613  1.00  0.00     0.031 A 
ATOM     42  C   UNL A   1      40.530  29.524  31.917  1.00  0.00     0.074 A 
ATOM     43  C   UNL A   1      40.322  28.689  29.551  1.00  0.00     0.049 A 
ATOM     44  N   UNL A   1      41.608  30.181  32.185  1.00  0.00    -0.248 NA
ATOM     45  C   UNL A   1      39.806  29.031  33.103  1.00  0.00     0.031 C 
ATOM     46  C   UNL A   1      39.531  28.288  28.380  1.00  0.00     0.029 A 
ATOM     47  N   UNL A   1      41.511  28.052  29.365  1.00  0.00    -0.354 N 
ATOM     48  C   UNL A   1      41.845  29.904  33.524  1.00  0.00     0.074 A 
ATOM     49  C   UNL A   1      40.611  29.428  34.086  1.00  0.00     0.031 C 
ATOM     50  C   UNL A   1      40.159  27.268  27.760  1.00  0.00     0.029 A 
ATOM     51  C   UNL A   1      41.436  27.040  28.414  1.00  0.00     0.049 A 
ATOM     52  H   UNL A   1      42.336  28.283  29.851  1.00  0.00     0.167 HD
ATOM     53  C   UNL A   1      43.113  29.694  33.954  1.00  0.00     0.034 A 
ATOM     54  C   UNL A   1      42.310  26.021  28.258  1.00  0.00     0.034 A 
ATOM     55  C   UNL A   1      44.089  30.199  33.032  1.00  0.00     0.049 A 
ATOM     56  C   UNL A   1      43.593  26.422  28.885  1.00  0.00     0.074 A 
ATOM     57  C   UNL A   1      44.557  31.432  32.643  1.00  0.00     0.029 A 
ATOM     58  N   UNL A   1      44.494  29.283  32.098  1.00  0.00    -0.354 N 
ATOM     59  N   UNL A   1      44.350  27.391  28.449  1.00  0.00    -0.248 NA
ATOM     60  C   UNL A   1      43.930  25.910  30.210  1.00  0.00     0.031 C 
ATOM     61  C   UNL A   1      45.181  31.239  31.378  1.00  0.00     0.029 A 
ATOM     62  C   UNL A   1      45.070  29.896  31.020  1.00  0.00     0.049 A 
ATOM     63  H   UNL A   1      44.385  28.309  32.192  1.00  0.00     0.167 HD
ATOM     64  C   UNL A   1      44.962  27.879  29.589  1.00  0.00     0.074 A 
ATOM     65  C   UNL A   1      44.823  26.829  30.586  1.00  0.00     0.031 C 
ATOM     66  C   UNL A   1      45.207  29.209  29.749  1.00  0.00     0.034 A 
BRANCH  53  67
ATOM     67  C   UNL A   1      43.485  28.611  34.935  1.00  0.00     0.023 A 
ATOM     68  C   UNL A   1      44.248  28.993  36.055  1.00  0.00     0.012 A 
ATOM     69  C   UNL A   1      43.379  27.225  34.671  1.00  0.00     0.148 A 
ATOM     70  C   UNL A   1      44.880  28.045  36.864  1.00  0.00     0.002 A 
ATOM     71  C   UNL A   1      43.920  26.285  35.536  1.00  0.00     0.091 A 
ATOM     72  F   UNL A   1      42.894  26.795  33.500  1.00  0.00    -0.205 F 
ATOM     73  C   UNL A   1      44.698  26.688  36.619  1.00  0.00     0.022 A 
BRANCH  71  74
ATOM     74  S   UNL A   1      43.629  24.531  35.284  1.00  0.00     0.127 S 
ATOM     75  O   UNL A   1      44.294  24.302  34.006  1.00  0.00    -0.237 OA
ATOM     76  O   UNL A   1      44.294  23.944  36.448  1.00  0.00    -0.237 OA
ATOM     77  O   UNL A   1      42.177  24.384  35.298  1.00  0.00    -0.744 OA
ENDBRANCH  71  74
ENDBRANCH  53  67
BRANCH  54  78
ATOM     78  C   UNL A   1      42.063  24.634  27.793  1.00  0.00     0.023 A 
ATOM     79  C   UNL A   1      40.785  24.072  27.988  1.00  0.00     0.012 A 
ATOM     80  C   UNL A   1      42.965  23.949  26.946  1.00  0.00     0.148 A 
ATOM     81  C   UNL A   1      40.402  22.899  27.331  1.00  0.00     0.002 A 
ATOM     82  C   UNL A   1      42.588  22.765  26.316  1.00  0.00     0.091 A 
ATOM     83  F   UNL A   1      44.156  24.498  26.676  1.00  0.00    -0.205 F 
ATOM     84  C   UNL A   1      41.301  22.247  26.492  1.00  0.00     0.022 A 
BRANCH  82  85
ATOM     85  S   UNL A   1      43.712  21.864  25.237  1.00  0.00     0.127 S 
ATOM     86  O   UNL A   1      43.644  22.645  24.002  1.00  0.00    -0.237 OA
ATOM     87  O   UNL A   1      44.977  21.969  25.959  1.00  0.00    -0.237 OA
ATOM     88  O   UNL A   1      43.150  20.523  25.122  1.00  0.00    -0.744 OA
ENDBRANCH  82  85
ENDBRANCH  54  78
BRANCH  66  89
ATOM     89  C   UNL A   1      45.396  30.065  28.533  1.00  0.00     0.023 A 
ATOM     90  C   UNL A   1      44.321  30.626  27.820  1.00  0.00     0.012 A 
ATOM     91  C   UNL A   1      46.709  30.457  28.215  1.00  0.00     0.148 A 
ATOM     92  C   UNL A   1      44.556  31.564  26.810  1.00  0.00     0.002 A 
ATOM     93  C   UNL A   1      46.934  31.435  27.257  1.00  0.00     0.091 A 
ATOM     94  F   UNL A   1      47.722  29.893  28.892  1.00  0.00    -0.205 F 
ATOM     95  C   UNL A   1      45.858  31.985  26.544  1.00  0.00     0.022 A 
BRANCH  93  96
ATOM     96  S   UNL A   1      48.569  32.130  27.001  1.00  0.00     0.127 S 
ATOM     97  O   UNL A   1      48.909  32.618  28.335  1.00  0.00    -0.237 OA
ATOM     98  O   UNL A   1      49.341  30.968  26.559  1.00  0.00    -0.237 OA
ATOM     99  O   UNL A   1      48.408  33.156  25.977  1.00  0.00    -0.744 OA
ENDBRANCH  93  96
ENDBRANCH  66  89
ENDBRANCH  40  41
ENDBRANCH  33  35
ENDBRANCH  32  33
ENDBRANCH  31  32
ENDBRANCH  30  31
ENDBRANCH  29  30
ENDBRANCH  28  29
ENDBRANCH   1  28
TORSDOF 24
ENDMDL
MODEL 3
REMARK VINA RESULT:     -10.0      2.374      2.971
REMARK SMILES CC1=Nc2ncnn2[C@H](c2ccc(F)cc2)[C@@H]1C(=O)OCCOCCOCCOCCOC(=O)c1ccc(-c2c3nc(c(-c4cccc(S(=O)(=O)[O-])c4F)c4ccc([nH]4)c(-c4cccc(S(=O)(=O)[O-])c4F)c4nc(c(-c5cccc(S(=O)(=O)[O-])c5F)c5ccc2[nH]5)C=C4)C=C3)cc1
REMARK SMILES IDX 27 1 26 2 25 3 24 4 23 5 22 6 21 7 20 8 18 9 19 10 17 11
REMARK SMILES IDX 1 12 2 13 3 14 4 15 9 16 5 17 8 18 6 19 7 20 10 21 11 22
REMARK SMILES IDX 16 23 12 24 15 25 13 26 14 27 28 28 29 29 30 30 31 31 32 32
REMARK SMILES IDX 33 33 34 34 35 35 36 36 97 37 37 38 96 39 38 40 39 41 40 42
REMARK SMILES IDX 90 43 41 44 95 45 89 46 91 47 42 48 94 49 88 50 87 51 43 53
REMARK SMILES IDX 75 54 55 55 74 56 56 57 59 58 73 59 92 60 57 61 58 62 72 64
REMARK SMILES IDX 93 65 60 66 44 67 45 68 53 69 46 70 48 71 54 72 47 73 49 74
REMARK SMILES IDX 50 75 51 76 52 77 76 78 77 79 85 80 78 81 80 82 86 83 79 84
REMARK SMILES IDX 81 85 82 86 83 87 84 88 61 89 62 90 70 91 63 92 65 93 71 94
REMARK SMILES IDX 64 95 66 96 67 97 68 98 69 99
REMARK H PARENT 91 52 59 63
REMARK Flexibility Score: inf
ROOT
ATOM      1  C   UNL A   1      41.080  20.540  27.247  1.00  0.00     0.188 C 
ENDROOT
BRANCH   1   2
ATOM      2  O   UNL A   1      39.997  21.431  27.072  1.00  0.00    -0.377 OA
BRANCH   2   3
ATOM      3  C   UNL A   1      39.228  21.345  25.899  1.00  0.00     0.188 C 
BRANCH   3   4
ATOM      4  C   UNL A   1      37.994  22.253  25.912  1.00  0.00     0.188 C 
BRANCH   4   5
ATOM      5  O   UNL A   1      37.343  22.309  24.647  1.00  0.00    -0.376 OA
BRANCH   5   6
ATOM      6  C   UNL A   1      36.032  22.858  24.638  1.00  0.00     0.202 C 
BRANCH   6   7
ATOM      7  C   UNL A   1      35.491  23.227  23.252  1.00  0.00     0.261 C 
BRANCH   7   8
ATOM      8  O   UNL A   1      34.257  23.981  23.108  1.00  0.00    -0.463 OA
BRANCH   8   9
ATOM      9  C   UNL A   1      33.335  23.811  22.137  1.00  0.00     0.317 C 
ATOM     10  O   UNL A   1      33.521  23.404  21.003  1.00  0.00    -0.251 OA
BRANCH   9  11
ATOM     11  C   UNL A   1      31.985  24.244  22.607  1.00  0.00     0.173 C 
ATOM     12  C   UNL A   1      32.504  26.786  22.279  1.00  0.00     0.063 C 
ATOM     13  C   UNL A   1      32.060  25.656  23.188  1.00  0.00     0.036 C 
ATOM     14  N   UNL A   1      31.829  25.973  24.422  1.00  0.00    -0.220 NA
ATOM     15  C   UNL A   1      31.460  25.008  25.289  1.00  0.00     0.248 A 
ATOM     16  C   UNL A   1      31.393  23.195  23.576  1.00  0.00     0.161 C 
ATOM     17  N   UNL A   1      31.124  25.129  26.555  1.00  0.00    -0.198 NA
ATOM     18  N   UNL A   1      31.320  23.691  24.940  1.00  0.00    -0.221 N 
ATOM     19  C   UNL A   1      30.724  23.877  26.910  1.00  0.00     0.248 A 
ATOM     20  N   UNL A   1      30.794  22.960  25.946  1.00  0.00    -0.157 NA
BRANCH  16  21
ATOM     21  C   UNL A   1      31.948  21.759  23.537  1.00  0.00    -0.022 A 
ATOM     22  C   UNL A   1      31.702  20.959  22.407  1.00  0.00     0.009 A 
ATOM     23  C   UNL A   1      32.682  21.181  24.594  1.00  0.00     0.009 A 
ATOM     24  C   UNL A   1      32.240  19.673  22.305  1.00  0.00     0.039 A 
ATOM     25  C   UNL A   1      33.279  19.925  24.464  1.00  0.00     0.039 A 
ATOM     26  C   UNL A   1      33.053  19.182  23.318  1.00  0.00     0.123 A 
ATOM     27  F   UNL A   1      33.608  17.970  23.194  1.00  0.00    -0.207 F 
ENDBRANCH  16  21
ENDBRANCH   9  11
ENDBRANCH   8   9
ENDBRANCH   7   8
ENDBRANCH   6   7
ENDBRANCH   5   6
ENDBRANCH   4   5
ENDBRANCH   3   4
ENDBRANCH   2   3
ENDBRANCH   1   2
BRANCH   1  28
ATOM     28  C   UNL A   1      42.010  20.054  26.109  1.00  0.00     0.188 C 
BRANCH  28  29
ATOM     29  O   UNL A   1      43.096  20.717  25.464  1.00  0.00    -0.376 OA
BRANCH  29  30
ATOM     30  C   UNL A   1      43.694  21.971  25.724  1.00  0.00     0.202 C 
BRANCH  30  31
ATOM     31  C   UNL A   1      43.513  23.101  24.717  1.00  0.00     0.261 C 
BRANCH  31  32
ATOM     32  O   UNL A   1      42.635  24.099  25.175  1.00  0.00    -0.460 OA
BRANCH  32  33
ATOM     33  C   UNL A   1      43.266  25.288  25.308  1.00  0.00     0.338 C 
ATOM     34  O   UNL A   1      44.328  25.639  24.831  1.00  0.00    -0.246 OA
BRANCH  33  35
ATOM     35  C   UNL A   1      42.516  26.095  26.254  1.00  0.00     0.060 A 
ATOM     36  C   UNL A   1      41.777  27.144  25.709  1.00  0.00     0.016 A 
ATOM     37  C   UNL A   1      42.845  25.997  27.612  1.00  0.00     0.016 A 
ATOM     38  C   UNL A   1      41.573  28.243  26.496  1.00  0.00     0.010 A 
ATOM     39  C   UNL A   1      42.656  27.102  28.391  1.00  0.00     0.010 A 
ATOM     40  C   UNL A   1      42.108  28.232  27.786  1.00  0.00    -0.014 A 
BRANCH  40  41
ATOM     41  C   UNL A   1      42.040  29.460  28.534  1.00  0.00     0.031 A 
ATOM     42  C   UNL A   1      43.238  30.292  28.343  1.00  0.00     0.074 A 
ATOM     43  C   UNL A   1      40.932  29.789  29.221  1.00  0.00     0.049 A 
ATOM     44  N   UNL A   1      44.111  30.632  29.230  1.00  0.00    -0.248 NA
ATOM     45  C   UNL A   1      43.608  30.637  26.959  1.00  0.00     0.031 C 
ATOM     46  C   UNL A   1      39.636  29.101  29.148  1.00  0.00     0.029 A 
ATOM     47  N   UNL A   1      40.666  30.889  29.978  1.00  0.00    -0.354 N 
ATOM     48  C   UNL A   1      44.960  31.494  28.551  1.00  0.00     0.074 A 
ATOM     49  C   UNL A   1      44.768  31.262  27.145  1.00  0.00     0.031 C 
ATOM     50  C   UNL A   1      38.676  29.936  29.596  1.00  0.00     0.029 A 
ATOM     51  C   UNL A   1      39.304  31.147  30.092  1.00  0.00     0.049 A 
ATOM     52  H   UNL A   1      41.363  31.443  30.399  1.00  0.00     0.167 HD
ATOM     53  C   UNL A   1      45.436  32.600  29.174  1.00  0.00     0.034 A 
ATOM     54  C   UNL A   1      38.739  32.319  30.461  1.00  0.00     0.034 A 
ATOM     55  C   UNL A   1      45.323  32.509  30.601  1.00  0.00     0.049 A 
ATOM     56  C   UNL A   1      39.756  33.100  31.205  1.00  0.00     0.074 A 
ATOM     57  C   UNL A   1      45.949  31.820  31.614  1.00  0.00     0.029 A 
ATOM     58  N   UNL A   1      44.150  33.009  31.097  1.00  0.00    -0.354 N 
ATOM     59  N   UNL A   1      40.245  32.751  32.363  1.00  0.00    -0.248 NA
ATOM     60  C   UNL A   1      40.467  34.178  30.523  1.00  0.00     0.031 C 
ATOM     61  C   UNL A   1      45.053  31.842  32.720  1.00  0.00     0.029 A 
ATOM     62  C   UNL A   1      43.899  32.534  32.354  1.00  0.00     0.049 A 
ATOM     63  H   UNL A   1      43.562  33.633  30.611  1.00  0.00     0.167 HD
ATOM     64  C   UNL A   1      41.532  33.257  32.352  1.00  0.00     0.074 A 
ATOM     65  C   UNL A   1      41.544  34.268  31.306  1.00  0.00     0.031 C 
ATOM     66  C   UNL A   1      42.565  32.580  32.924  1.00  0.00     0.034 A 
BRANCH  53  67
ATOM     67  C   UNL A   1      45.535  33.948  28.505  1.00  0.00     0.023 A 
ATOM     68  C   UNL A   1      46.809  34.545  28.451  1.00  0.00     0.012 A 
ATOM     69  C   UNL A   1      44.425  34.769  28.198  1.00  0.00     0.148 A 
ATOM     70  C   UNL A   1      46.969  35.893  28.116  1.00  0.00     0.002 A 
ATOM     71  C   UNL A   1      44.597  36.077  27.765  1.00  0.00     0.091 A 
ATOM     72  F   UNL A   1      43.182  34.357  28.470  1.00  0.00    -0.205 F 
ATOM     73  C   UNL A   1      45.864  36.655  27.750  1.00  0.00     0.022 A 
BRANCH  71  74
ATOM     74  S   UNL A   1      43.193  37.052  27.211  1.00  0.00     0.127 S 
ATOM     75  O   UNL A   1      43.847  38.264  26.733  1.00  0.00    -0.237 OA
ATOM     76  O   UNL A   1      42.624  36.197  26.169  1.00  0.00    -0.237 OA
ATOM     77  O   UNL A   1      42.344  37.191  28.389  1.00  0.00    -0.744 OA
ENDBRANCH  71  74
ENDBRANCH  53  67
BRANCH  54  78
ATOM     78  C   UNL A   1      37.447  32.912  30.038  1.00  0.00     0.023 A 
ATOM     79  C   UNL A   1      36.988  32.673  28.726  1.00  0.00     0.012 A 
ATOM     80  C   UNL A   1      36.543  33.489  30.960  1.00  0.00     0.148 A 
ATOM     81  C   UNL A   1      35.669  32.954  28.357  1.00  0.00     0.002 A 
ATOM     82  C   UNL A   1      35.238  33.794  30.579  1.00  0.00     0.091 A 
ATOM     83  F   UNL A   1      36.921  33.653  32.234  1.00  0.00    -0.205 F 
ATOM     84  C   UNL A   1      34.792  33.511  29.284  1.00  0.00     0.022 A 
BRANCH  82  85
ATOM     85  S   UNL A   1      34.063  34.534  31.724  1.00  0.00     0.127 S 
ATOM     86  O   UNL A   1      33.837  33.448  32.678  1.00  0.00    -0.237 OA
ATOM     87  O   UNL A   1      34.823  35.664  32.252  1.00  0.00    -0.237 OA
ATOM     88  O   UNL A   1      32.894  34.871  30.919  1.00  0.00    -0.744 OA
ENDBRANCH  82  85
ENDBRANCH  54  78
BRANCH  66  89
ATOM     89  C   UNL A   1      42.281  31.644  34.060  1.00  0.00     0.023 A 
ATOM     90  C   UNL A   1      42.067  30.265  33.877  1.00  0.00     0.012 A 
ATOM     91  C   UNL A   1      42.415  32.150  35.365  1.00  0.00     0.148 A 
ATOM     92  C   UNL A   1      41.992  29.410  34.980  1.00  0.00     0.002 A 
ATOM     93  C   UNL A   1      42.404  31.289  36.453  1.00  0.00     0.091 A 
ATOM     94  F   UNL A   1      42.595  33.471  35.518  1.00  0.00    -0.205 F 
ATOM     95  C   UNL A   1      42.182  29.917  36.265  1.00  0.00     0.022 A 
BRANCH  93  96
ATOM     96  S   UNL A   1      42.813  31.868  38.103  1.00  0.00     0.127 S 
ATOM     97  O   UNL A   1      43.639  30.777  38.615  1.00  0.00    -0.237 OA
ATOM     98  O   UNL A   1      43.538  33.110  37.831  1.00  0.00    -0.237 OA
ATOM     99  O   UNL A   1      41.537  32.064  38.782  1.00  0.00    -0.744 OA
ENDBRANCH  93  96
ENDBRANCH  66  89
ENDBRANCH  40  41
ENDBRANCH  33  35
ENDBRANCH  32  33
ENDBRANCH  31  32
ENDBRANCH  30  31
ENDBRANCH  29  30
ENDBRANCH  28  29
ENDBRANCH   1  28
TORSDOF 24
ENDMDL
