MODEL 1
REMARK VINA RESULT:      -7.0      0.000      0.000
REMARK SMILES C[C@@H](c1cccc(F)c1)[C@@](C)(O)C(=O)OCCOCCOCCOCCOC(=O)c1ccc(-c2c3nc(c(-c4cccc(S(=O)(=O)[O-])c4F)c4ccc([nH]4)c(-c4cccc(S(=O)(=O)[O-])c4F)c4nc(c(-c5cccc(S(=O)(=O)[O-])c5F)c5ccc2[nH]5)C=C4)C=C3)cc1
REMARK SMILES IDX 22 1 21 2 20 3 19 4 18 5 17 6 16 7 15 8 13 9 14 10 10 11
REMARK SMILES IDX 11 12 2 13 1 14 3 15 4 16 9 17 5 18 7 19 6 20 8 21 12 22
REMARK SMILES IDX 23 24 24 25 25 26 26 27 27 28 28 29 29 30 30 31 31 32 92 33
REMARK SMILES IDX 32 34 91 35 33 36 34 37 35 38 85 39 36 40 90 41 84 42 86 43
REMARK SMILES IDX 37 44 89 45 83 46 82 47 38 49 70 50 50 51 69 52 51 53 54 54
REMARK SMILES IDX 68 55 87 56 52 57 53 58 67 60 88 61 55 62 39 63 40 64 48 65
REMARK SMILES IDX 41 66 43 67 49 68 42 69 44 70 45 71 46 72 47 73 71 74 72 75
REMARK SMILES IDX 80 76 73 77 75 78 81 79 74 80 76 81 77 82 78 83 79 84 56 85
REMARK SMILES IDX 57 86 65 87 58 88 60 89 66 90 59 91 61 92 62 93 63 94 64 95
REMARK H PARENT 12 23 86 48 54 59
REMARK Flexibility Score: inf
ROOT
ATOM      1  C   UNL A   1      41.654  19.228  26.263  1.00  0.00     0.188 C 
ENDROOT
BRANCH   1   2
ATOM      2  O   UNL A   1      41.137  20.370  26.922  1.00  0.00    -0.377 OA
BRANCH   2   3
ATOM      3  C   UNL A   1      40.628  21.435  26.144  1.00  0.00     0.188 C 
BRANCH   3   4
ATOM      4  C   UNL A   1      39.838  22.563  26.835  1.00  0.00     0.188 C 
BRANCH   4   5
ATOM      5  O   UNL A   1      40.533  23.794  26.921  1.00  0.00    -0.376 OA
BRANCH   5   6
ATOM      6  C   UNL A   1      40.060  24.728  27.874  1.00  0.00     0.202 C 
BRANCH   6   7
ATOM      7  C   UNL A   1      41.090  25.601  28.609  1.00  0.00     0.261 C 
BRANCH   7   8
ATOM      8  O   UNL A   1      41.083  27.003  28.284  1.00  0.00    -0.461 OA
BRANCH   8   9
ATOM      9  C   UNL A   1      40.908  27.904  29.284  1.00  0.00     0.338 C 
ATOM     10  O   UNL A   1      40.959  27.615  30.474  1.00  0.00    -0.249 OA
BRANCH   9  11
ATOM     11  C   UNL A   1      40.591  29.332  28.725  1.00  0.00     0.165 C 
ATOM     12  C   UNL A   1      41.113  29.291  27.276  1.00  0.00     0.055 C 
BRANCH  11  13
ATOM     13  C   UNL A   1      39.058  29.713  28.791  1.00  0.00     0.059 C 
ATOM     14  C   UNL A   1      38.155  28.741  28.016  1.00  0.00     0.016 C 
BRANCH  13  15
ATOM     15  C   UNL A   1      38.460  30.070  30.169  1.00  0.00    -0.039 A 
ATOM     16  C   UNL A   1      37.893  29.060  30.977  1.00  0.00     0.004 A 
ATOM     17  C   UNL A   1      38.507  31.366  30.715  1.00  0.00     0.043 A 
ATOM     18  C   UNL A   1      37.381  29.335  32.255  1.00  0.00     0.003 A 
ATOM     19  C   UNL A   1      38.000  31.630  31.990  1.00  0.00     0.123 A 
ATOM     20  C   UNL A   1      37.433  30.628  32.764  1.00  0.00     0.039 A 
ATOM     21  F   UNL A   1      38.054  32.879  32.474  1.00  0.00    -0.207 F 
ENDBRANCH  13  15
ENDBRANCH  11  13
BRANCH  11  22
ATOM     22  O   UNL A   1      41.322  30.401  29.339  1.00  0.00    -0.378 OA
ATOM     23  H   UNL A   1      41.585  31.044  28.660  1.00  0.00     0.212 HD
ENDBRANCH  11  22
ENDBRANCH   9  11
ENDBRANCH   8   9
ENDBRANCH   7   8
ENDBRANCH   6   7
ENDBRANCH   5   6
ENDBRANCH   4   5
ENDBRANCH   3   4
ENDBRANCH   2   3
ENDBRANCH   1   2
BRANCH   1  24
ATOM     24  C   UNL A   1      43.103  19.219  25.718  1.00  0.00     0.188 C 
BRANCH  24  25
ATOM     25  O   UNL A   1      43.550  20.420  25.104  1.00  0.00    -0.376 OA
BRANCH  25  26
ATOM     26  C   UNL A   1      44.845  20.437  24.530  1.00  0.00     0.202 C 
BRANCH  26  27
ATOM     27  C   UNL A   1      45.783  21.568  24.974  1.00  0.00     0.261 C 
BRANCH  27  28
ATOM     28  O   UNL A   1      45.335  22.895  24.670  1.00  0.00    -0.460 OA
BRANCH  28  29
ATOM     29  C   UNL A   1      46.273  23.865  24.617  1.00  0.00     0.338 C 
ATOM     30  O   UNL A   1      47.193  23.962  23.823  1.00  0.00    -0.246 OA
BRANCH  29  31
ATOM     31  C   UNL A   1      45.858  24.918  25.562  1.00  0.00     0.060 A 
ATOM     32  C   UNL A   1      46.837  25.551  26.342  1.00  0.00     0.016 A 
ATOM     33  C   UNL A   1      44.522  25.318  25.628  1.00  0.00     0.016 A 
ATOM     34  C   UNL A   1      46.477  26.582  27.203  1.00  0.00     0.010 A 
ATOM     35  C   UNL A   1      44.156  26.322  26.522  1.00  0.00     0.010 A 
ATOM     36  C   UNL A   1      45.129  26.932  27.333  1.00  0.00    -0.014 A 
BRANCH  36  37
ATOM     37  C   UNL A   1      44.708  27.751  28.488  1.00  0.00     0.031 A 
ATOM     38  C   UNL A   1      44.586  29.233  28.279  1.00  0.00     0.074 A 
ATOM     39  C   UNL A   1      44.431  27.198  29.680  1.00  0.00     0.049 A 
ATOM     40  N   UNL A   1      44.272  30.167  29.135  1.00  0.00    -0.248 NA
ATOM     41  C   UNL A   1      44.858  29.730  26.917  1.00  0.00     0.031 C 
ATOM     42  C   UNL A   1      44.492  25.770  29.984  1.00  0.00     0.029 A 
ATOM     43  N   UNL A   1      44.063  27.784  30.865  1.00  0.00    -0.354 N 
ATOM     44  C   UNL A   1      44.336  31.359  28.427  1.00  0.00     0.074 A 
ATOM     45  C   UNL A   1      44.727  31.038  27.074  1.00  0.00     0.031 C 
ATOM     46  C   UNL A   1      44.195  25.592  31.283  1.00  0.00     0.029 A 
ATOM     47  C   UNL A   1      43.955  26.894  31.906  1.00  0.00     0.049 A 
ATOM     48  H   UNL A   1      43.893  28.748  30.960  1.00  0.00     0.167 HD
ATOM     49  C   UNL A   1      44.079  32.612  28.865  1.00  0.00     0.034 A 
ATOM     50  C   UNL A   1      43.714  27.112  33.215  1.00  0.00     0.034 A 
ATOM     51  C   UNL A   1      43.679  32.920  30.209  1.00  0.00     0.049 A 
ATOM     52  C   UNL A   1      43.470  28.522  33.689  1.00  0.00     0.074 A 
ATOM     53  C   UNL A   1      43.358  34.153  30.745  1.00  0.00     0.029 A 
ATOM     54  N   UNL A   1      43.562  31.991  31.232  1.00  0.00    -0.354 N 
ATOM     55  N   UNL A   1      43.440  29.634  32.992  1.00  0.00    -0.248 NA
ATOM     56  C   UNL A   1      43.199  28.709  35.123  1.00  0.00     0.031 C 
ATOM     57  C   UNL A   1      43.087  33.977  32.102  1.00  0.00     0.029 A 
ATOM     58  C   UNL A   1      43.190  32.627  32.402  1.00  0.00     0.049 A 
ATOM     59  H   UNL A   1      43.720  31.025  31.139  1.00  0.00     0.167 HD
ATOM     60  C   UNL A   1      43.114  30.644  33.892  1.00  0.00     0.074 A 
ATOM     61  C   UNL A   1      42.943  30.011  35.183  1.00  0.00     0.031 C 
ATOM     62  C   UNL A   1      42.977  31.975  33.670  1.00  0.00     0.034 A 
BRANCH  49  63
ATOM     63  C   UNL A   1      44.211  33.743  27.883  1.00  0.00     0.023 A 
ATOM     64  C   UNL A   1      43.058  34.291  27.286  1.00  0.00     0.012 A 
ATOM     65  C   UNL A   1      45.470  34.311  27.610  1.00  0.00     0.148 A 
ATOM     66  C   UNL A   1      43.158  35.377  26.418  1.00  0.00     0.002 A 
ATOM     67  C   UNL A   1      45.557  35.423  26.784  1.00  0.00     0.091 A 
ATOM     68  F   UNL A   1      46.556  33.754  28.165  1.00  0.00    -0.205 F 
ATOM     69  C   UNL A   1      44.404  35.952  26.178  1.00  0.00     0.022 A 
BRANCH  67  70
ATOM     70  S   UNL A   1      47.102  36.289  26.485  1.00  0.00     0.127 S 
ATOM     71  O   UNL A   1      47.589  36.503  27.847  1.00  0.00    -0.237 OA
ATOM     72  O   UNL A   1      47.859  35.303  25.715  1.00  0.00    -0.237 OA
ATOM     73  O   UNL A   1      46.752  37.499  25.754  1.00  0.00    -0.744 OA
ENDBRANCH  67  70
ENDBRANCH  49  63
BRANCH  50  74
ATOM     74  C   UNL A   1      43.656  25.958  34.155  1.00  0.00     0.023 A 
ATOM     75  C   UNL A   1      42.405  25.444  34.548  1.00  0.00     0.012 A 
ATOM     76  C   UNL A   1      44.832  25.334  34.618  1.00  0.00     0.148 A 
ATOM     77  C   UNL A   1      42.326  24.338  35.396  1.00  0.00     0.002 A 
ATOM     78  C   UNL A   1      44.745  24.198  35.414  1.00  0.00     0.091 A 
ATOM     79  F   UNL A   1      46.011  25.849  34.245  1.00  0.00    -0.205 F 
ATOM     80  C   UNL A   1      43.494  23.707  35.818  1.00  0.00     0.022 A 
BRANCH  78  81
ATOM     81  S   UNL A   1      46.187  23.242  35.898  1.00  0.00     0.127 S 
ATOM     82  O   UNL A   1      46.913  24.196  36.734  1.00  0.00    -0.237 OA
ATOM     83  O   UNL A   1      45.574  22.128  36.624  1.00  0.00    -0.237 OA
ATOM     84  O   UNL A   1      46.850  22.866  34.658  1.00  0.00    -0.744 OA
ENDBRANCH  78  81
ENDBRANCH  50  74
BRANCH  62  85
ATOM     85  C   UNL A   1      42.591  32.858  34.830  1.00  0.00     0.023 A 
ATOM     86  C   UNL A   1      43.591  33.488  35.595  1.00  0.00     0.012 A 
ATOM     87  C   UNL A   1      41.237  33.170  35.067  1.00  0.00     0.148 A 
ATOM     88  C   UNL A   1      43.248  34.401  36.592  1.00  0.00     0.002 A 
ATOM     89  C   UNL A   1      40.906  34.120  36.025  1.00  0.00     0.091 A 
ATOM     90  F   UNL A   1      40.301  32.549  34.335  1.00  0.00    -0.205 F 
ATOM     91  C   UNL A   1      41.909  34.729  36.796  1.00  0.00     0.022 A 
BRANCH  89  92
ATOM     92  S   UNL A   1      39.221  34.690  36.280  1.00  0.00     0.127 S 
ATOM     93  O   UNL A   1      39.394  35.657  37.363  1.00  0.00    -0.237 OA
ATOM     94  O   UNL A   1      38.895  35.280  34.981  1.00  0.00    -0.237 OA
ATOM     95  O   UNL A   1      38.442  33.508  36.623  1.00  0.00    -0.744 OA
ENDBRANCH  89  92
ENDBRANCH  62  85
ENDBRANCH  36  37
ENDBRANCH  29  31
ENDBRANCH  28  29
ENDBRANCH  27  28
ENDBRANCH  26  27
ENDBRANCH  25  26
ENDBRANCH  24  25
ENDBRANCH   1  24
TORSDOF 26
ENDMDL
MODEL 2
REMARK VINA RESULT:      -6.8      3.440      7.702
REMARK SMILES C[C@@H](c1cccc(F)c1)[C@@](C)(O)C(=O)OCCOCCOCCOCCOC(=O)c1ccc(-c2c3nc(c(-c4cccc(S(=O)(=O)[O-])c4F)c4ccc([nH]4)c(-c4cccc(S(=O)(=O)[O-])c4F)c4nc(c(-c5cccc(S(=O)(=O)[O-])c5F)c5ccc2[nH]5)C=C4)C=C3)cc1
REMARK SMILES IDX 22 1 21 2 20 3 19 4 18 5 17 6 16 7 15 8 13 9 14 10 10 11
REMARK SMILES IDX 11 12 2 13 1 14 3 15 4 16 9 17 5 18 7 19 6 20 8 21 12 22
REMARK SMILES IDX 23 24 24 25 25 26 26 27 27 28 28 29 29 30 30 31 31 32 92 33
REMARK SMILES IDX 32 34 91 35 33 36 34 37 35 38 85 39 36 40 90 41 84 42 86 43
REMARK SMILES IDX 37 44 89 45 83 46 82 47 38 49 70 50 50 51 69 52 51 53 54 54
REMARK SMILES IDX 68 55 87 56 52 57 53 58 67 60 88 61 55 62 39 63 40 64 48 65
REMARK SMILES IDX 41 66 43 67 49 68 42 69 44 70 45 71 46 72 47 73 71 74 72 75
REMARK SMILES IDX 80 76 73 77 75 78 81 79 74 80 76 81 77 82 78 83 79 84 56 85
REMARK SMILES IDX 57 86 65 87 58 88 60 89 66 90 59 91 61 92 62 93 63 94 64 95
REMARK H PARENT 12 23 86 48 54 59
REMARK Flexibility Score: inf
ROOT
ATOM      1  C   UNL A   1      44.141  22.701  26.650  1.00  0.00     0.188 C 
ENDROOT
BRANCH   1   2
ATOM      2  O   UNL A   1      43.846  23.623  27.685  1.00  0.00    -0.377 OA
BRANCH   2   3
ATOM      3  C   UNL A   1      44.756  23.758  28.759  1.00  0.00     0.188 C 
BRANCH   3   4
ATOM      4  C   UNL A   1      44.268  23.494  30.196  1.00  0.00     0.188 C 
BRANCH   4   5
ATOM      5  O   UNL A   1      43.757  24.637  30.858  1.00  0.00    -0.376 OA
BRANCH   5   6
ATOM      6  C   UNL A   1      44.694  25.453  31.538  1.00  0.00     0.202 C 
BRANCH   6   7
ATOM      7  C   UNL A   1      44.167  26.440  32.591  1.00  0.00     0.261 C 
BRANCH   7   8
ATOM      8  O   UNL A   1      44.432  27.834  32.344  1.00  0.00    -0.461 OA
BRANCH   8   9
ATOM      9  C   UNL A   1      44.831  28.616  33.379  1.00  0.00     0.338 C 
ATOM     10  O   UNL A   1      45.932  28.528  33.911  1.00  0.00    -0.249 OA
BRANCH   9  11
ATOM     11  C   UNL A   1      43.698  29.599  33.829  1.00  0.00     0.165 C 
ATOM     12  C   UNL A   1      43.262  30.289  32.523  1.00  0.00     0.055 C 
BRANCH  11  13
ATOM     13  C   UNL A   1      42.489  28.884  34.554  1.00  0.00     0.059 C 
ATOM     14  C   UNL A   1      42.472  29.108  36.074  1.00  0.00     0.016 C 
BRANCH  13  15
ATOM     15  C   UNL A   1      41.081  29.041  33.940  1.00  0.00    -0.039 A 
ATOM     16  C   UNL A   1      40.657  28.170  32.913  1.00  0.00     0.004 A 
ATOM     17  C   UNL A   1      40.143  29.984  34.398  1.00  0.00     0.043 A 
ATOM     18  C   UNL A   1      39.369  28.250  32.360  1.00  0.00     0.003 A 
ATOM     19  C   UNL A   1      38.861  30.053  33.847  1.00  0.00     0.123 A 
ATOM     20  C   UNL A   1      38.466  29.198  32.829  1.00  0.00     0.039 A 
ATOM     21  F   UNL A   1      37.996  30.970  34.303  1.00  0.00    -0.207 F 
ENDBRANCH  13  15
ENDBRANCH  11  13
BRANCH  11  22
ATOM     22  O   UNL A   1      44.127  30.674  34.675  1.00  0.00    -0.378 OA
ATOM     23  H   UNL A   1      44.044  31.514  34.197  1.00  0.00     0.212 HD
ENDBRANCH  11  22
ENDBRANCH   9  11
ENDBRANCH   8   9
ENDBRANCH   7   8
ENDBRANCH   6   7
ENDBRANCH   5   6
ENDBRANCH   4   5
ENDBRANCH   3   4
ENDBRANCH   2   3
ENDBRANCH   1   2
BRANCH   1  24
ATOM     24  C   UNL A   1      43.243  22.611  25.392  1.00  0.00     0.188 C 
BRANCH  24  25
ATOM     25  O   UNL A   1      42.316  21.535  25.359  1.00  0.00    -0.376 OA
BRANCH  25  26
ATOM     26  C   UNL A   1      41.716  21.132  26.577  1.00  0.00     0.202 C 
BRANCH  26  27
ATOM     27  C   UNL A   1      40.199  21.333  26.701  1.00  0.00     0.261 C 
BRANCH  27  28
ATOM     28  O   UNL A   1      39.611  22.199  25.722  1.00  0.00    -0.460 OA
BRANCH  28  29
ATOM     29  C   UNL A   1      38.607  23.003  26.134  1.00  0.00     0.338 C 
ATOM     30  O   UNL A   1      37.424  22.722  26.223  1.00  0.00    -0.246 OA
BRANCH  29  31
ATOM     31  C   UNL A   1      39.228  24.227  26.671  1.00  0.00     0.060 A 
ATOM     32  C   UNL A   1      39.006  24.564  28.015  1.00  0.00     0.016 A 
ATOM     33  C   UNL A   1      40.074  24.997  25.871  1.00  0.00     0.016 A 
ATOM     34  C   UNL A   1      39.623  25.686  28.558  1.00  0.00     0.010 A 
ATOM     35  C   UNL A   1      40.657  26.144  26.405  1.00  0.00     0.010 A 
ATOM     36  C   UNL A   1      40.406  26.506  27.739  1.00  0.00    -0.014 A 
BRANCH  36  37
ATOM     37  C   UNL A   1      40.753  27.865  28.205  1.00  0.00     0.031 A 
ATOM     38  C   UNL A   1      42.207  28.240  28.228  1.00  0.00     0.074 A 
ATOM     39  C   UNL A   1      39.809  28.742  28.585  1.00  0.00     0.049 A 
ATOM     40  N   UNL A   1      42.770  29.348  28.625  1.00  0.00    -0.248 NA
ATOM     41  C   UNL A   1      43.157  27.223  27.737  1.00  0.00     0.031 C 
ATOM     42  C   UNL A   1      38.369  28.490  28.577  1.00  0.00     0.029 A 
ATOM     43  N   UNL A   1      39.930  30.018  29.072  1.00  0.00    -0.354 N 
ATOM     44  C   UNL A   1      44.135  29.154  28.460  1.00  0.00     0.074 A 
ATOM     45  C   UNL A   1      44.321  27.820  27.936  1.00  0.00     0.031 C 
ATOM     46  C   UNL A   1      37.739  29.573  29.063  1.00  0.00     0.029 A 
ATOM     47  C   UNL A   1      38.731  30.579  29.444  1.00  0.00     0.049 A 
ATOM     48  H   UNL A   1      40.791  30.487  29.148  1.00  0.00     0.167 HD
ATOM     49  C   UNL A   1      45.143  30.017  28.713  1.00  0.00     0.034 A 
ATOM     50  C   UNL A   1      38.473  31.757  30.045  1.00  0.00     0.034 A 
ATOM     51  C   UNL A   1      44.947  31.346  29.221  1.00  0.00     0.049 A 
ATOM     52  C   UNL A   1      39.617  32.689  30.354  1.00  0.00     0.074 A 
ATOM     53  C   UNL A   1      45.900  32.314  29.475  1.00  0.00     0.029 A 
ATOM     54  N   UNL A   1      43.718  31.886  29.569  1.00  0.00    -0.354 N 
ATOM     55  N   UNL A   1      40.897  32.534  30.107  1.00  0.00    -0.248 NA
ATOM     56  C   UNL A   1      39.284  33.968  30.999  1.00  0.00     0.031 C 
ATOM     57  C   UNL A   1      45.253  33.426  30.016  1.00  0.00     0.029 A 
ATOM     58  C   UNL A   1      43.891  33.170  30.053  1.00  0.00     0.049 A 
ATOM     59  H   UNL A   1      42.853  31.425  29.484  1.00  0.00     0.167 HD
ATOM     60  C   UNL A   1      41.516  33.705  30.532  1.00  0.00     0.074 A 
ATOM     61  C   UNL A   1      40.469  34.568  31.040  1.00  0.00     0.031 C 
ATOM     62  C   UNL A   1      42.832  34.034  30.511  1.00  0.00     0.034 A 
BRANCH  49  63
ATOM     63  C   UNL A   1      46.548  29.561  28.432  1.00  0.00     0.023 A 
ATOM     64  C   UNL A   1      47.226  30.036  27.292  1.00  0.00     0.012 A 
ATOM     65  C   UNL A   1      47.222  28.721  29.340  1.00  0.00     0.148 A 
ATOM     66  C   UNL A   1      48.548  29.667  27.048  1.00  0.00     0.002 A 
ATOM     67  C   UNL A   1      48.554  28.400  29.118  1.00  0.00     0.091 A 
ATOM     68  F   UNL A   1      46.548  28.258  30.402  1.00  0.00    -0.205 F 
ATOM     69  C   UNL A   1      49.216  28.862  27.968  1.00  0.00     0.022 A 
BRANCH  67  70
ATOM     70  S   UNL A   1      49.527  27.444  30.287  1.00  0.00     0.127 S 
ATOM     71  O   UNL A   1      50.717  27.133  29.495  1.00  0.00    -0.237 OA
ATOM     72  O   UNL A   1      49.747  28.410  31.362  1.00  0.00    -0.237 OA
ATOM     73  O   UNL A   1      48.709  26.297  30.652  1.00  0.00    -0.744 OA
ENDBRANCH  67  70
ENDBRANCH  49  63
BRANCH  50  74
ATOM     74  C   UNL A   1      37.064  32.132  30.355  1.00  0.00     0.023 A 
ATOM     75  C   UNL A   1      36.528  31.833  31.622  1.00  0.00     0.012 A 
ATOM     76  C   UNL A   1      36.273  32.832  29.422  1.00  0.00     0.148 A 
ATOM     77  C   UNL A   1      35.225  32.211  31.949  1.00  0.00     0.002 A 
ATOM     78  C   UNL A   1      34.998  33.256  29.775  1.00  0.00     0.091 A 
ATOM     79  F   UNL A   1      36.798  33.093  28.216  1.00  0.00    -0.205 F 
ATOM     80  C   UNL A   1      34.465  32.933  31.033  1.00  0.00     0.022 A 
BRANCH  78  81
ATOM     81  S   UNL A   1      33.996  34.303  28.713  1.00  0.00     0.127 S 
ATOM     82  O   UNL A   1      33.203  35.048  29.688  1.00  0.00    -0.237 OA
ATOM     83  O   UNL A   1      35.019  35.089  28.020  1.00  0.00    -0.237 OA
ATOM     84  O   UNL A   1      33.244  33.397  27.856  1.00  0.00    -0.744 OA
ENDBRANCH  78  81
ENDBRANCH  50  74
BRANCH  62  85
ATOM     85  C   UNL A   1      43.239  35.394  31.018  1.00  0.00     0.023 A 
ATOM     86  C   UNL A   1      43.629  35.554  32.361  1.00  0.00     0.012 A 
ATOM     87  C   UNL A   1      43.366  36.478  30.125  1.00  0.00     0.148 A 
ATOM     88  C   UNL A   1      44.122  36.778  32.813  1.00  0.00     0.002 A 
ATOM     89  C   UNL A   1      43.909  37.676  30.569  1.00  0.00     0.091 A 
ATOM     90  F   UNL A   1      42.978  36.306  28.853  1.00  0.00    -0.205 F 
ATOM     91  C   UNL A   1      44.277  37.832  31.915  1.00  0.00     0.022 A 
BRANCH  89  92
ATOM     92  S   UNL A   1      44.252  39.051  29.463  1.00  0.00     0.127 S 
ATOM     93  O   UNL A   1      44.877  38.372  28.329  1.00  0.00    -0.237 OA
ATOM     94  O   UNL A   1      42.911  39.574  29.197  1.00  0.00    -0.237 OA
ATOM     95  O   UNL A   1      45.122  39.957  30.200  1.00  0.00    -0.744 OA
ENDBRANCH  89  92
ENDBRANCH  62  85
ENDBRANCH  36  37
ENDBRANCH  29  31
ENDBRANCH  28  29
ENDBRANCH  27  28
ENDBRANCH  26  27
ENDBRANCH  25  26
ENDBRANCH  24  25
ENDBRANCH   1  24
TORSDOF 26
ENDMDL
MODEL 3
REMARK VINA RESULT:      -6.6      6.715     14.178
REMARK SMILES C[C@@H](c1cccc(F)c1)[C@@](C)(O)C(=O)OCCOCCOCCOCCOC(=O)c1ccc(-c2c3nc(c(-c4cccc(S(=O)(=O)[O-])c4F)c4ccc([nH]4)c(-c4cccc(S(=O)(=O)[O-])c4F)c4nc(c(-c5cccc(S(=O)(=O)[O-])c5F)c5ccc2[nH]5)C=C4)C=C3)cc1
REMARK SMILES IDX 22 1 21 2 20 3 19 4 18 5 17 6 16 7 15 8 13 9 14 10 10 11
REMARK SMILES IDX 11 12 2 13 1 14 3 15 4 16 9 17 5 18 7 19 6 20 8 21 12 22
REMARK SMILES IDX 23 24 24 25 25 26 26 27 27 28 28 29 29 30 30 31 31 32 92 33
REMARK SMILES IDX 32 34 91 35 33 36 34 37 35 38 85 39 36 40 90 41 84 42 86 43
REMARK SMILES IDX 37 44 89 45 83 46 82 47 38 49 70 50 50 51 69 52 51 53 54 54
REMARK SMILES IDX 68 55 87 56 52 57 53 58 67 60 88 61 55 62 39 63 40 64 48 65
REMARK SMILES IDX 41 66 43 67 49 68 42 69 44 70 45 71 46 72 47 73 71 74 72 75
REMARK SMILES IDX 80 76 73 77 75 78 81 79 74 80 76 81 77 82 78 83 79 84 56 85
REMARK SMILES IDX 57 86 65 87 58 88 60 89 66 90 59 91 61 92 62 93 63 94 64 95
REMARK H PARENT 12 23 86 48 54 59
REMARK Flexibility Score: inf
ROOT
ATOM      1  C   UNL A   1      46.922  43.772  25.039  1.00  0.00     0.188 C 
ENDROOT
BRANCH   1   2
ATOM      2  O   UNL A   1      46.403  44.585  24.001  1.00  0.00    -0.377 OA
BRANCH   2   3
ATOM      3  C   UNL A   1      45.258  44.145  23.297  1.00  0.00     0.188 C 
BRANCH   3   4
ATOM      4  C   UNL A   1      43.861  44.413  23.889  1.00  0.00     0.188 C 
BRANCH   4   5
ATOM      5  O   UNL A   1      42.928  43.368  23.679  1.00  0.00    -0.376 OA
BRANCH   5   6
ATOM      6  C   UNL A   1      42.065  43.499  22.563  1.00  0.00     0.202 C 
BRANCH   6   7
ATOM      7  C   UNL A   1      42.225  42.507  21.401  1.00  0.00     0.261 C 
BRANCH   7   8
ATOM      8  O   UNL A   1      43.372  42.701  20.553  1.00  0.00    -0.461 OA
BRANCH   8   9
ATOM      9  C   UNL A   1      43.508  43.884  19.900  1.00  0.00     0.338 C 
ATOM     10  O   UNL A   1      44.139  44.836  20.346  1.00  0.00    -0.249 OA
BRANCH   9  11
ATOM     11  C   UNL A   1      42.723  43.889  18.545  1.00  0.00     0.165 C 
ATOM     12  C   UNL A   1      41.344  44.467  18.914  1.00  0.00     0.055 C 
BRANCH  11  13
ATOM     13  C   UNL A   1      43.431  44.725  17.405  1.00  0.00     0.059 C 
ATOM     14  C   UNL A   1      43.318  44.078  16.016  1.00  0.00     0.016 C 
BRANCH  13  15
ATOM     15  C   UNL A   1      43.163  46.244  17.350  1.00  0.00    -0.039 A 
ATOM     16  C   UNL A   1      42.189  46.758  16.465  1.00  0.00     0.004 A 
ATOM     17  C   UNL A   1      43.800  47.168  18.198  1.00  0.00     0.043 A 
ATOM     18  C   UNL A   1      41.883  48.128  16.417  1.00  0.00     0.003 A 
ATOM     19  C   UNL A   1      43.484  48.529  18.148  1.00  0.00     0.123 A 
ATOM     20  C   UNL A   1      42.536  49.018  17.262  1.00  0.00     0.039 A 
ATOM     21  F   UNL A   1      44.118  49.382  18.965  1.00  0.00    -0.207 F 
ENDBRANCH  13  15
ENDBRANCH  11  13
BRANCH  11  22
ATOM     22  O   UNL A   1      42.435  42.592  18.006  1.00  0.00    -0.378 OA
ATOM     23  H   UNL A   1      41.842  42.116  18.609  1.00  0.00     0.212 HD
ENDBRANCH  11  22
ENDBRANCH   9  11
ENDBRANCH   8   9
ENDBRANCH   7   8
ENDBRANCH   6   7
ENDBRANCH   5   6
ENDBRANCH   4   5
ENDBRANCH   3   4
ENDBRANCH   2   3
ENDBRANCH   1   2
BRANCH   1  24
ATOM     24  C   UNL A   1      46.767  42.232  24.989  1.00  0.00     0.188 C 
BRANCH  24  25
ATOM     25  O   UNL A   1      45.570  41.705  25.542  1.00  0.00    -0.376 OA
BRANCH  25  26
ATOM     26  C   UNL A   1      45.034  42.329  26.696  1.00  0.00     0.202 C 
BRANCH  26  27
ATOM     27  C   UNL A   1      44.140  41.466  27.597  1.00  0.00     0.261 C 
BRANCH  27  28
ATOM     28  O   UNL A   1      42.964  40.938  26.974  1.00  0.00    -0.460 OA
BRANCH  28  29
ATOM     29  C   UNL A   1      42.038  40.376  27.780  1.00  0.00     0.338 C 
ATOM     30  O   UNL A   1      40.942  40.825  28.074  1.00  0.00    -0.246 OA
BRANCH  29  31
ATOM     31  C   UNL A   1      42.497  39.007  28.075  1.00  0.00     0.060 A 
ATOM     32  C   UNL A   1      42.403  38.031  27.072  1.00  0.00     0.016 A 
ATOM     33  C   UNL A   1      43.074  38.709  29.312  1.00  0.00     0.016 A 
ATOM     34  C   UNL A   1      42.878  36.745  27.310  1.00  0.00     0.010 A 
ATOM     35  C   UNL A   1      43.510  37.410  29.563  1.00  0.00     0.010 A 
ATOM     36  C   UNL A   1      43.382  36.420  28.574  1.00  0.00    -0.014 A 
BRANCH  36  37
ATOM     37  C   UNL A   1      43.540  34.997  28.940  1.00  0.00     0.031 A 
ATOM     38  C   UNL A   1      42.314  34.257  29.392  1.00  0.00     0.074 A 
ATOM     39  C   UNL A   1      44.730  34.378  28.862  1.00  0.00     0.049 A 
ATOM     40  N   UNL A   1      42.195  33.023  29.799  1.00  0.00    -0.248 NA
ATOM     41  C   UNL A   1      41.049  35.015  29.386  1.00  0.00     0.031 C 
ATOM     42  C   UNL A   1      45.976  34.995  28.412  1.00  0.00     0.029 A 
ATOM     43  N   UNL A   1      45.082  33.092  29.184  1.00  0.00    -0.354 N 
ATOM     44  C   UNL A   1      40.855  32.865  30.123  1.00  0.00     0.074 A 
ATOM     45  C   UNL A   1      40.198  34.127  29.877  1.00  0.00     0.031 C 
ATOM     46  C   UNL A   1      46.966  34.090  28.510  1.00  0.00     0.029 A 
ATOM     47  C   UNL A   1      46.428  32.844  29.058  1.00  0.00     0.049 A 
ATOM     48  H   UNL A   1      44.434  32.412  29.477  1.00  0.00     0.167 HD
ATOM     49  C   UNL A   1      40.225  31.758  30.576  1.00  0.00     0.034 A 
ATOM     50  C   UNL A   1      47.142  31.746  29.374  1.00  0.00     0.034 A 
ATOM     51  C   UNL A   1      40.884  30.503  30.806  1.00  0.00     0.049 A 
ATOM     52  C   UNL A   1      46.425  30.535  29.915  1.00  0.00     0.074 A 
ATOM     53  C   UNL A   1      40.329  29.310  31.228  1.00  0.00     0.029 A 
ATOM     54  N   UNL A   1      42.244  30.284  30.650  1.00  0.00    -0.354 N 
ATOM     55  N   UNL A   1      45.142  30.365  30.129  1.00  0.00    -0.248 NA
ATOM     56  C   UNL A   1      47.245  29.357  30.233  1.00  0.00     0.031 C 
ATOM     57  C   UNL A   1      41.359  28.379  31.367  1.00  0.00     0.029 A 
ATOM     58  C   UNL A   1      42.550  28.977  30.985  1.00  0.00     0.049 A 
ATOM     59  H   UNL A   1      42.895  30.957  30.347  1.00  0.00     0.167 HD
ATOM     60  C   UNL A   1      44.996  29.054  30.573  1.00  0.00     0.074 A 
ATOM     61  C   UNL A   1      46.321  28.469  30.583  1.00  0.00     0.031 C 
ATOM     62  C   UNL A   1      43.869  28.397  30.945  1.00  0.00     0.034 A 
BRANCH  49  63
ATOM     63  C   UNL A   1      38.748  31.847  30.842  1.00  0.00     0.023 A 
ATOM     64  C   UNL A   1      38.285  32.135  32.142  1.00  0.00     0.012 A 
ATOM     65  C   UNL A   1      37.822  31.720  29.789  1.00  0.00     0.148 A 
ATOM     66  C   UNL A   1      36.922  32.277  32.393  1.00  0.00     0.002 A 
ATOM     67  C   UNL A   1      36.470  31.913  30.036  1.00  0.00     0.091 A 
ATOM     68  F   UNL A   1      38.283  31.416  28.567  1.00  0.00    -0.205 F 
ATOM     69  C   UNL A   1      36.016  32.181  31.339  1.00  0.00     0.022 A 
BRANCH  67  70
ATOM     70  S   UNL A   1      35.235  31.899  28.733  1.00  0.00     0.127 S 
ATOM     71  O   UNL A   1      35.823  32.818  27.759  1.00  0.00    -0.237 OA
ATOM     72  O   UNL A   1      35.240  30.494  28.324  1.00  0.00    -0.237 OA
ATOM     73  O   UNL A   1      33.995  32.353  29.345  1.00  0.00    -0.744 OA
ENDBRANCH  67  70
ENDBRANCH  49  63
BRANCH  50  74
ATOM     74  C   UNL A   1      48.615  31.734  29.145  1.00  0.00     0.023 A 
ATOM     75  C   UNL A   1      49.489  31.867  30.241  1.00  0.00     0.012 A 
ATOM     76  C   UNL A   1      49.152  31.538  27.857  1.00  0.00     0.148 A 
ATOM     77  C   UNL A   1      50.872  31.819  30.057  1.00  0.00     0.002 A 
ATOM     78  C   UNL A   1      50.528  31.432  27.689  1.00  0.00     0.091 A 
ATOM     79  F   UNL A   1      48.303  31.429  26.826  1.00  0.00    -0.205 F 
ATOM     80  C   UNL A   1      51.391  31.588  28.785  1.00  0.00     0.022 A 
BRANCH  78  81
ATOM     81  S   UNL A   1      51.282  31.005  26.115  1.00  0.00     0.127 S 
ATOM     82  O   UNL A   1      50.868  32.124  25.272  1.00  0.00    -0.237 OA
ATOM     83  O   UNL A   1      52.704  30.988  26.463  1.00  0.00    -0.237 OA
ATOM     84  O   UNL A   1      50.732  29.708  25.749  1.00  0.00    -0.744 OA
ENDBRANCH  78  81
ENDBRANCH  50  74
BRANCH  62  85
ATOM     85  C   UNL A   1      43.988  26.954  31.368  1.00  0.00     0.023 A 
ATOM     86  C   UNL A   1      44.098  25.945  30.394  1.00  0.00     0.012 A 
ATOM     87  C   UNL A   1      44.130  26.622  32.731  1.00  0.00     0.148 A 
ATOM     88  C   UNL A   1      44.330  24.622  30.770  1.00  0.00     0.002 A 
ATOM     89  C   UNL A   1      44.414  25.312  33.094  1.00  0.00     0.091 A 
ATOM     90  F   UNL A   1      44.009  27.598  33.642  1.00  0.00    -0.205 F 
ATOM     91  C   UNL A   1      44.503  24.308  32.116  1.00  0.00     0.022 A 
BRANCH  89  92
ATOM     92  S   UNL A   1      44.766  24.834  34.791  1.00  0.00     0.127 S 
ATOM     93  O   UNL A   1      43.462  25.018  35.427  1.00  0.00    -0.237 OA
ATOM     94  O   UNL A   1      45.178  23.438  34.638  1.00  0.00    -0.237 OA
ATOM     95  O   UNL A   1      45.815  25.730  35.255  1.00  0.00    -0.744 OA
ENDBRANCH  89  92
ENDBRANCH  62  85
ENDBRANCH  36  37
ENDBRANCH  29  31
ENDBRANCH  28  29
ENDBRANCH  27  28
ENDBRANCH  26  27
ENDBRANCH  25  26
ENDBRANCH  24  25
ENDBRANCH   1  24
TORSDOF 26
ENDMDL
