
     RDKit          3D

153164  0  0  0  0  0  0  0  0999 V2000
   34.4210   17.6850   23.8360 C   0  0  0  0  0  0  0  0  0  0  0  0
   34.4970   18.9950   24.5870 C   0  0  0  0  0  0  0  0  0  0  0  0
   35.6800   19.5180   24.9870 C   0  0  0  0  0  0  0  0  0  0  0  0
   37.0420   18.9570   24.6200 C   0  0  0  0  0  0  0  0  0  0  0  0
   35.7290   20.8710   25.6510 C   0  0  0  0  0  0  0  0  0  0  0  0
   34.6980   21.9080   25.1560 C   0  0  1  0  0  0  0  0  0  0  0  0
   35.4040   22.7500   24.1430 C   0  0  0  0  0  0  0  0  0  0  0  0
   35.2340   22.5840   22.9350 O   0  0  0  0  0  0  0  0  0  0  0  0
   36.1920   23.7810   24.5720 N   0  0  0  0  0  0  0  0  0  0  0  0
   36.8650   23.9330   25.8500 C   0  0  0  0  0  0  0  0  0  0  0  0
   38.5380   23.3680   26.2170 C   0  0  0  0  0  0  0  0  0  0  0  0
   39.8360   23.8620   27.8630 C   0  0  0  0  0  0  0  0  0  0  0  0
   41.5800   22.8500   27.6380 C   0  0  0  0  0  0  0  0  0  0  0  0
   41.8100   22.2320   25.7940 C   0  0  0  0  0  0  0  0  0  0  0  0
   43.6910   22.2540   25.2190 C   0  0  0  0  0  0  0  0  0  0  0  0
   44.7360   24.0660   25.3420 N   0  0  0  0  0  0  0  0  0  0  0  0
   44.6620   25.5570   25.1280 C   0  0  0  0  0  0  0  0  0  0  0  0
   45.6450   26.1160   24.6380 O   0  0  0  0  0  0  0  0  0  0  0  0
   43.5440   26.4420   25.6300 C   0  0  0  0  0  0  0  0  0  0  0  0
   42.2230   26.0450   25.9050 C   0  0  0  0  0  0  0  0  0  0  0  0
   41.4700   26.7280   26.8980 C   0  0  0  0  0  0  0  0  0  0  0  0
   42.0670   27.7430   27.6640 C   0  0  0  0  0  0  0  0  0  0  0  0
   41.4620   28.4690   28.8430 C   0  0  0  0  0  0  0  0  0  0  0  0
   42.1090   28.2660   30.2130 C   0  0  0  0  0  0  0  0  0  0  0  0
   41.6290   28.4930   31.4120 N   0  0  0  0  0  0  0  0  0  0  0  0
   42.5090   27.8510   32.2760 C   0  0  0  0  0  0  0  0  0  0  0  0
   42.6640   27.9790   33.6150 C   0  0  0  0  0  0  0  0  0  0  0  0
   43.7510   27.1710   34.2780 C   0  0  0  0  0  0  0  0  0  0  0  0
   45.0830   27.6220   34.3450 C   0  0  0  0  0  0  0  0  0  0  0  0
   45.4210   28.8160   33.8300 F   0  0  0  0  0  0  0  0  0  0  0  0
   46.0920   26.8200   34.8670 C   0  0  0  0  0  0  0  0  0  0  0  0
   47.3670   27.2340   34.8170 F   0  0  0  0  0  0  0  0  0  0  0  0
   45.7850   25.5830   35.4070 C   0  0  0  0  0  0  0  0  0  0  0  0
   46.7560   24.8110   35.9130 F   0  0  0  0  0  0  0  0  0  0  0  0
   44.4700   25.1410   35.4120 C   0  0  0  0  0  0  0  0  0  0  0  0
   44.1680   23.9550   35.9570 F   0  0  0  0  0  0  0  0  0  0  0  0
   43.4650   25.9180   34.8390 C   0  0  0  0  0  0  0  0  0  0  0  0
   42.2130   25.4400   34.8260 F   0  0  0  0  0  0  0  0  0  0  0  0
   41.8990   28.8990   34.4030 C   0  0  0  0  0  0  0  0  0  0  0  0
   42.0780   29.2680   35.7210 C   0  0  0  0  0  0  0  0  0  0  0  0
   41.0690   30.1780   36.0530 C   0  0  0  0  0  0  0  0  0  0  0  0
   40.3010   30.4150   34.9230 C   0  0  0  0  0  0  0  0  0  0  0  0
   40.8200   29.6200   33.9190 N   0  0  0  0  0  0  0  0  0  0  0  0
   39.1750   31.2980   34.7620 C   0  0  0  0  0  0  0  0  0  0  0  0
   38.7540   32.0920   35.9620 C   0  0  0  0  0  0  0  0  0  0  0  0
   38.0160   31.5130   37.0050 C   0  0  0  0  0  0  0  0  0  0  0  0
   37.5960   30.2430   36.9100 F   0  0  0  0  0  0  0  0  0  0  0  0
   37.6860   32.2500   38.1390 C   0  0  0  0  0  0  0  0  0  0  0  0
   36.9440   31.6900   39.1040 F   0  0  0  0  0  0  0  0  0  0  0  0
   38.1180   33.5620   38.2690 C   0  0  0  0  0  0  0  0  0  0  0  0
   37.8120   34.2640   39.3690 F   0  0  0  0  0  0  0  0  0  0  0  0
   38.8640   34.1470   37.2580 C   0  0  0  0  0  0  0  0  0  0  0  0
   39.3020   35.4070   37.3910 F   0  0  0  0  0  0  0  0  0  0  0  0
   39.1670   33.4250   36.1080 C   0  0  0  0  0  0  0  0  0  0  0  0
   39.8890   34.0200   35.1460 F   0  0  0  0  0  0  0  0  0  0  0  0
   38.4820   31.4700   33.6080 C   0  0  0  0  0  0  0  0  0  0  0  0
   38.6920   30.8890   32.3620 N   0  0  0  0  0  0  0  0  0  0  0  0
   37.7570   31.3660   31.5750 C   0  0  0  0  0  0  0  0  0  0  0  0
   37.5270   31.1190   30.0990 C   0  0  0  0  0  0  0  0  0  0  0  0
   36.4100   31.8180   29.3940 C   0  0  0  0  0  0  0  0  0  0  0  0
   35.3220   31.0800   28.8970 C   0  0  0  0  0  0  0  0  0  0  0  0
   35.2990   29.7480   29.0400 F   0  0  0  0  0  0  0  0  0  0  0  0
   34.2760   31.6960   28.2090 C   0  0  0  0  0  0  0  0  0  0  0  0
   33.2760   30.9560   27.7110 F   0  0  0  0  0  0  0  0  0  0  0  0
   34.2810   33.0690   28.0260 C   0  0  0  0  0  0  0  0  0  0  0  0
   33.2710   33.6630   27.3740 F   0  0  0  0  0  0  0  0  0  0  0  0
   35.3370   33.8230   28.5150 C   0  0  0  0  0  0  0  0  0  0  0  0
   35.3390   35.1520   28.3440 F   0  0  0  0  0  0  0  0  0  0  0  0
   36.3980   33.2040   29.1820 C   0  0  0  0  0  0  0  0  0  0  0  0
   37.4110   33.9600   29.6260 F   0  0  0  0  0  0  0  0  0  0  0  0
   38.4100   30.3640   29.4090 C   0  0  0  0  0  0  0  0  0  0  0  0
   38.3400   30.0470   27.9840 C   0  0  0  0  0  0  0  0  0  0  0  0
   39.4180   29.3170   27.6340 C   0  0  0  0  0  0  0  0  0  0  0  0
   40.2780   29.1260   28.8040 C   0  0  0  0  0  0  0  0  0  0  0  0
   39.5710   29.7460   29.8180 N   0  0  0  0  0  0  0  0  0  0  0  0
   36.8180   32.2750   32.2550 C   0  0  0  0  0  0  0  0  0  0  0  0
   37.3380   32.3450   33.4730 C   0  0  0  0  0  0  0  0  0  0  0  0
   43.4020   27.0690   31.4620 C   0  0  0  0  0  0  0  0  0  0  0  0
   43.4090   27.5670   30.2380 C   0  0  0  0  0  0  0  0  0  0  0  0
   43.3530   28.1470   27.2620 C   0  0  0  0  0  0  0  0  0  0  0  0
   43.9910   27.6400   26.1410 C   0  0  0  0  0  0  0  0  0  0  0  0
   33.3170   21.4110   24.7290 C   0  0  1  0  0  0  0  0  0  0  0  0
   32.4170   22.3750   23.7700 C   0  0  0  0  0  0  0  0  0  0  0  0
   32.4790   22.1220   22.5530 O   0  0  0  0  0  0  0  0  0  0  0  0
   31.8180   23.6120   24.1190 N   0  0  0  0  0  0  0  0  0  0  0  0
   30.6990   23.9620   25.3970 C   0  0  0  0  0  0  0  0  0  0  0  0
   31.2570   25.2980   26.8150 C   0  0  0  0  0  0  0  0  0  0  0  0
   32.6460   26.6070   26.0690 N   0  0  0  0  0  0  0  0  0  0  0  0
   32.3790   28.4290   25.7170 C   0  0  0  0  0  0  0  0  0  0  0  0
   33.7840   29.1620   24.6710 C   0  0  0  0  0  0  0  0  0  0  0  0
   33.6600   29.0310   22.8420 C   0  0  0  0  0  0  0  0  0  0  0  0
   32.0350   28.4920   22.1650 C   0  0  0  0  0  0  0  0  0  0  0  0
   30.6280   28.2010   23.2320 C   0  0  0  0  0  0  0  0  0  0  0  0
   29.2320   28.8430   23.0220 C   0  0  0  0  0  0  0  0  0  0  0  0
   29.0190   29.1750   21.7050 F   0  0  0  0  0  0  0  0  0  0  0  0
   28.1650   28.1000   23.3990 F   0  0  0  0  0  0  0  0  0  0  0  0
   29.1110   30.0460   23.6650 F   0  0  0  0  0  0  0  0  0  0  0  0
   30.8140   28.1720   24.9510 C   0  0  0  0  0  0  0  0  0  0  0  0
   33.4520   26.0890   24.4740 C   0  0  0  0  0  0  0  0  0  0  0  0
   32.6160   24.8620   23.4400 C   0  0  0  0  0  0  0  0  0  0  0  0
   33.1990   19.8340   24.6270 C   0  0  0  0  0  0  0  0  0  0  0  0
   34.3727   16.8530   24.5540 H   0  0  0  0  0  0  0  0  0  0  0  0
   33.5209   17.6765   23.2038 H   0  0  0  0  0  0  0  0  0  0  0  0
   35.3141   17.5724   23.2038 H   0  0  0  0  0  0  0  0  0  0  0  0
   37.6028   18.7260   25.5377 H   0  0  0  0  0  0  0  0  0  0  0  0
   36.9130   18.0388   24.0282 H   0  0  0  0  0  0  0  0  0  0  0  0
   37.5971   19.6997   24.0282 H   0  0  0  0  0  0  0  0  0  0  0  0
   35.5657   20.7227   26.7286 H   0  0  0  0  0  0  0  0  0  0  0  0
   36.7142   21.2893   25.3971 H   0  0  0  0  0  0  0  0  0  0  0  0
   34.3748   22.4998   26.0251 H   0  0  0  0  0  0  0  0  0  0  0  0
   36.3210   24.5170   23.9310 H   0  0  0  0  0  0  0  0  0  0  0  0
   36.8711   25.0146   26.0504 H   0  0  0  0  0  0  0  0  0  0  0  0
   36.2816   23.2310   26.4638 H   0  0  0  0  0  0  0  0  0  0  0  0
   38.4467   22.2729   26.2665 H   0  0  0  0  0  0  0  0  0  0  0  0
   39.0602   23.9477   25.4416 H   0  0  0  0  0  0  0  0  0  0  0  0
   40.0334   24.9441   27.8675 H   0  0  0  0  0  0  0  0  0  0  0  0
   39.3595   23.5829   28.8143 H   0  0  0  0  0  0  0  0  0  0  0  0
   42.4165   23.5145   27.9003 H   0  0  0  0  0  0  0  0  0  0  0  0
   41.5596   21.9711   28.2991 H   0  0  0  0  0  0  0  0  0  0  0  0
   41.4300   21.2026   25.7173 H   0  0  0  0  0  0  0  0  0  0  0  0
   41.2533   22.9193   25.1400 H   0  0  0  0  0  0  0  0  0  0  0  0
   44.2309   21.5224   25.8381 H   0  0  0  0  0  0  0  0  0  0  0  0
   43.6518   22.0320   24.1424 H   0  0  0  0  0  0  0  0  0  0  0  0
   45.6400   23.8620   25.6730 H   0  0  0  0  0  0  0  0  0  0  0  0
   41.7734   25.2070   25.3522 H   0  0  0  0  0  0  0  0  0  0  0  0
   40.4164   26.4611   27.0673 H   0  0  0  0  0  0  0  0  0  0  0  0
   42.8732   28.9099   36.3914 H   0  0  0  0  0  0  0  0  0  0  0  0
   40.9113   30.6296   37.0436 H   0  0  0  0  0  0  0  0  0  0  0  0
   40.4750   29.5730   32.9980 H   0  0  0  0  0  0  0  0  0  0  0  0
   37.5333   30.3560   27.3030 H   0  0  0  0  0  0  0  0  0  0  0  0
   39.6203   28.9256   26.6261 H   0  0  0  0  0  0  0  0  0  0  0  0
   39.8730   29.7460   30.7550 H   0  0  0  0  0  0  0  0  0  0  0  0
   35.9190   32.7677   31.8561 H   0  0  0  0  0  0  0  0  0  0  0  0
   36.9491   32.9864   34.2776 H   0  0  0  0  0  0  0  0  0  0  0  0
   43.9833   26.1995   31.8028 H   0  0  0  0  0  0  0  0  0  0  0  0
   44.1744   27.4835   29.4524 H   0  0  0  0  0  0  0  0  0  0  0  0
   43.8775   28.9017   27.8665 H   0  0  0  0  0  0  0  0  0  0  0  0
   44.8289   28.1782   25.6737 H   0  0  0  0  0  0  0  0  0  0  0  0
   32.6705   21.5949   25.5997 H   0  0  0  0  0  0  0  0  0  0  0  0
   29.7798   24.3458   24.9303 H   0  0  0  0  0  0  0  0  0  0  0  0
   30.5989   23.0112   25.9411 H   0  0  0  0  0  0  0  0  0  0  0  0
   30.3729   25.8609   27.1488 H   0  0  0  0  0  0  0  0  0  0  0  0
   31.7028   24.7522   27.6596 H   0  0  0  0  0  0  0  0  0  0  0  0
   34.6473   29.6510   25.1460 H   0  0  0  0  0  0  0  0  0  0  0  0
   34.5122   29.2625   22.1861 H   0  0  0  0  0  0  0  0  0  0  0  0
   31.9264   28.3455   21.0802 H   0  0  0  0  0  0  0  0  0  0  0  0
   29.9321   27.9883   25.5823 H   0  0  0  0  0  0  0  0  0  0  0  0
   33.5768   26.9960   23.8642 H   0  0  0  0  0  0  0  0  0  0  0  0
   34.3773   25.5862   24.7919 H   0  0  0  0  0  0  0  0  0  0  0  0
   31.8824   25.4105   22.8309 H   0  0  0  0  0  0  0  0  0  0  0  0
   33.4497   24.3690   22.9186 H   0  0  0  0  0  0  0  0  0  0  0  0
   32.6208   19.4952   25.4993 H   0  0  0  0  0  0  0  0  0  0  0  0
   32.7391   19.6630   23.6425 H   0  0  0  0  0  0  0  0  0  0  0  0
  1  2  1  0
  2  3  2  0
  3  4  1  0
  3  5  1  0
  5  6  1  0
  6  7  1  0
  7  8  2  0
  7  9  1  0
  9 10  1  0
 10 11  1  0
 11 12  1  0
 12 13  1  0
 13 14  1  0
 14 15  1  0
 15 16  1  0
 16 17  1  0
 17 18  2  0
 17 19  1  0
 19 20  2  0
 20 21  1  0
 21 22  2  0
 22 23  1  0
 23 24  1  0
 24 25  2  0
 25 26  1  0
 26 27  2  0
 27 28  1  0
 28 29  2  0
 29 30  1  0
 29 31  1  0
 31 32  1  0
 31 33  2  0
 33 34  1  0
 33 35  1  0
 35 36  1  0
 35 37  2  0
 37 38  1  0
 27 39  1  0
 39 40  2  0
 40 41  1  0
 41 42  2  0
 42 43  1  0
 42 44  1  0
 44 45  1  0
 45 46  2  0
 46 47  1  0
 46 48  1  0
 48 49  1  0
 48 50  2  0
 50 51  1  0
 50 52  1  0
 52 53  1  0
 52 54  2  0
 54 55  1  0
 44 56  2  0
 56 57  1  0
 57 58  2  0
 58 59  1  0
 59 60  1  0
 60 61  2  0
 61 62  1  0
 61 63  1  0
 63 64  1  0
 63 65  2  0
 65 66  1  0
 65 67  1  0
 67 68  1  0
 67 69  2  0
 69 70  1  0
 59 71  2  0
 71 72  1  0
 72 73  2  0
 73 74  1  0
 74 75  1  0
 58 76  1  0
 76 77  2  0
 26 78  1  0
 78 79  2  0
 22 80  1  0
 80 81  2  0
  6 82  1  0
 82 83  1  0
 83 84  2  0
 83 85  1  0
 85 86  1  0
 86 87  1  0
 87 88  1  0
 88 89  1  0
 89 90  2  0
 90 91  1  0
 91 92  2  0
 92 93  1  0
 93 94  1  0
 94 95  1  0
 94 96  1  0
 94 97  1  0
 93 98  2  0
 88 99  1  0
 99100  1  0
 82101  1  0
101  2  1  0
 81 19  1  0
100 85  1  0
 74 23  2  0
 98 89  1  0
 79 24  1  0
 37 28  1  0
 43 39  1  0
 54 45  1  0
 77 56  1  0
 69 60  1  0
 75 71  1  0
  1102  1  0
  1103  1  0
  1104  1  0
  4105  1  0
  4106  1  0
  4107  1  0
  5108  1  0
  5109  1  0
  6110  1  1
  9111  1  0
 10112  1  0
 10113  1  0
 11114  1  0
 11115  1  0
 12116  1  0
 12117  1  0
 13118  1  0
 13119  1  0
 14120  1  0
 14121  1  0
 15122  1  0
 15123  1  0
 16124  1  0
 20125  1  0
 21126  1  0
 40127  1  0
 41128  1  0
 43129  1  0
 72130  1  0
 73131  1  0
 75132  1  0
 76133  1  0
 77134  1  0
 78135  1  0
 79136  1  0
 80137  1  0
 81138  1  0
 82139  1  1
 86140  1  0
 86141  1  0
 87142  1  0
 87143  1  0
 90144  1  0
 91145  1  0
 92146  1  0
 98147  1  0
 99148  1  0
 99149  1  0
100150  1  0
100151  1  0
101152  1  0
101153  1  0
M  END
>  <meeko>  (1) 
{"free_energy": -17.7}

$$$$

     RDKit          3D

153164  0  0  0  0  0  0  0  0999 V2000
   33.0490   17.8640   24.0770 C   0  0  0  0  0  0  0  0  0  0  0  0
   33.3300   19.2130   24.7000 C   0  0  0  0  0  0  0  0  0  0  0  0
   34.5900   19.6080   25.0010 C   0  0  0  0  0  0  0  0  0  0  0  0
   35.8480   18.8430   24.6300 C   0  0  0  0  0  0  0  0  0  0  0  0
   34.8460   20.9940   25.5350 C   0  0  0  0  0  0  0  0  0  0  0  0
   33.9300   22.1110   24.9900 C   0  0  1  0  0  0  0  0  0  0  0  0
   34.6830   22.7640   23.8750 C   0  0  0  0  0  0  0  0  0  0  0  0
   34.4630   22.4810   22.6970 O   0  0  0  0  0  0  0  0  0  0  0  0
   35.5760   23.7550   24.1710 N   0  0  0  0  0  0  0  0  0  0  0  0
   36.2970   23.9820   25.4100 C   0  0  0  0  0  0  0  0  0  0  0  0
   37.6840   22.9930   26.0030 C   0  0  0  0  0  0  0  0  0  0  0  0
   39.5460   23.6110   26.8910 C   0  0  0  0  0  0  0  0  0  0  0  0
   40.9970   22.3090   26.3250 C   0  0  0  0  0  0  0  0  0  0  0  0
   41.7260   21.3450   27.8650 C   0  0  0  0  0  0  0  0  0  0  0  0
   42.0530   19.4440   27.4790 C   0  0  0  0  0  0  0  0  0  0  0  0
   43.5690   18.9650   26.1130 N   0  0  0  0  0  0  0  0  0  0  0  0
   44.3140   19.4120   24.8820 C   0  0  0  0  0  0  0  0  0  0  0  0
   44.5880   18.5590   24.0340 O   0  0  0  0  0  0  0  0  0  0  0  0
   44.9050   20.7900   24.6880 C   0  0  0  0  0  0  0  0  0  0  0  0
   44.5260   21.7320   23.7140 C   0  0  0  0  0  0  0  0  0  0  0  0
   44.6650   23.1200   23.9800 C   0  0  0  0  0  0  0  0  0  0  0  0
   45.0990   23.5580   25.2410 C   0  0  0  0  0  0  0  0  0  0  0  0
   45.1690   24.9840   25.7360 C   0  0  0  0  0  0  0  0  0  0  0  0
   46.5210   25.6950   25.6740 C   0  0  0  0  0  0  0  0  0  0  0  0
   46.9380   26.7660   26.3050 N   0  0  0  0  0  0  0  0  0  0  0  0
   48.3160   26.7790   26.1130 C   0  0  0  0  0  0  0  0  0  0  0  0
   49.2110   27.7780   26.2980 C   0  0  0  0  0  0  0  0  0  0  0  0
   50.6530   27.5020   25.9540 C   0  0  0  0  0  0  0  0  0  0  0  0
   51.5910   27.1080   26.9270 C   0  0  0  0  0  0  0  0  0  0  0  0
   51.2130   26.9420   28.2060 F   0  0  0  0  0  0  0  0  0  0  0  0
   52.9380   26.9590   26.6140 C   0  0  0  0  0  0  0  0  0  0  0  0
   53.8240   26.6890   27.5840 F   0  0  0  0  0  0  0  0  0  0  0  0
   53.3690   27.1230   25.3080 C   0  0  0  0  0  0  0  0  0  0  0  0
   54.6650   26.9750   25.0050 F   0  0  0  0  0  0  0  0  0  0  0  0
   52.4540   27.4480   24.3170 C   0  0  0  0  0  0  0  0  0  0  0  0
   52.8650   27.5810   23.0490 F   0  0  0  0  0  0  0  0  0  0  0  0
   51.1130   27.6530   24.6380 C   0  0  0  0  0  0  0  0  0  0  0  0
   50.2660   28.0080   23.6610 F   0  0  0  0  0  0  0  0  0  0  0  0
   48.8350   29.0920   26.7260 C   0  0  0  0  0  0  0  0  0  0  0  0
   49.6000   30.2410   26.7720 C   0  0  0  0  0  0  0  0  0  0  0  0
   48.8000   31.2690   27.2810 C   0  0  0  0  0  0  0  0  0  0  0  0
   47.5240   30.7690   27.4960 C   0  0  0  0  0  0  0  0  0  0  0  0
   47.5620   29.4310   27.1540 N   0  0  0  0  0  0  0  0  0  0  0  0
   46.3530   31.4530   27.9780 C   0  0  0  0  0  0  0  0  0  0  0  0
   46.4960   32.9120   28.2930 C   0  0  0  0  0  0  0  0  0  0  0  0
   46.9160   33.3540   29.5560 C   0  0  0  0  0  0  0  0  0  0  0  0
   47.1210   32.4720   30.5450 F   0  0  0  0  0  0  0  0  0  0  0  0
   47.1020   34.7090   29.8120 C   0  0  0  0  0  0  0  0  0  0  0  0
   47.4620   35.1130   31.0380 F   0  0  0  0  0  0  0  0  0  0  0  0
   46.9090   35.6430   28.8040 C   0  0  0  0  0  0  0  0  0  0  0  0
   47.1040   36.9450   29.0490 F   0  0  0  0  0  0  0  0  0  0  0  0
   46.5110   35.2260   27.5430 C   0  0  0  0  0  0  0  0  0  0  0  0
   46.3460   36.1220   26.5610 F   0  0  0  0  0  0  0  0  0  0  0  0
   46.2920   33.8750   27.2930 C   0  0  0  0  0  0  0  0  0  0  0  0
   45.9060   33.5020   26.0630 F   0  0  0  0  0  0  0  0  0  0  0  0
   45.1360   30.8800   28.1530 C   0  0  0  0  0  0  0  0  0  0  0  0
   44.7360   29.5710   27.9020 N   0  0  0  0  0  0  0  0  0  0  0  0
   43.4700   29.5050   28.2390 C   0  0  0  0  0  0  0  0  0  0  0  0
   42.5090   28.3400   28.1350 C   0  0  0  0  0  0  0  0  0  0  0  0
   41.0820   28.5150   28.5430 C   0  0  0  0  0  0  0  0  0  0  0  0
   40.6780   28.1790   29.8470 C   0  0  0  0  0  0  0  0  0  0  0  0
   41.5710   27.6840   30.7150 F   0  0  0  0  0  0  0  0  0  0  0  0
   39.3490   28.3030   30.2530 C   0  0  0  0  0  0  0  0  0  0  0  0
   38.9910   27.9330   31.4900 F   0  0  0  0  0  0  0  0  0  0  0  0
   38.3980   28.7920   29.3730 C   0  0  0  0  0  0  0  0  0  0  0  0
   37.1230   28.9200   29.7660 F   0  0  0  0  0  0  0  0  0  0  0  0
   38.7710   29.1400   28.0830 C   0  0  0  0  0  0  0  0  0  0  0  0
   37.8520   29.6200   27.2340 F   0  0  0  0  0  0  0  0  0  0  0  0
   40.0970   28.9930   27.6670 C   0  0  0  0  0  0  0  0  0  0  0  0
   40.4190   29.3220   26.4090 F   0  0  0  0  0  0  0  0  0  0  0  0
   42.9230   27.1900   27.5570 C   0  0  0  0  0  0  0  0  0  0  0  0
   42.1170   25.9860   27.3660 C   0  0  0  0  0  0  0  0  0  0  0  0
   42.8440   25.0600   26.7090 C   0  0  0  0  0  0  0  0  0  0  0  0
   44.1690   25.6050   26.4070 C   0  0  0  0  0  0  0  0  0  0  0  0
   44.1340   26.8580   26.9910 N   0  0  0  0  0  0  0  0  0  0  0  0
   42.9380   30.7630   28.7880 C   0  0  0  0  0  0  0  0  0  0  0  0
   43.9760   31.5790   28.6620 C   0  0  0  0  0  0  0  0  0  0  0  0
   48.6670   25.5230   25.5050 C   0  0  0  0  0  0  0  0  0  0  0  0
   47.5950   25.0160   24.9220 C   0  0  0  0  0  0  0  0  0  0  0  0
   45.5510   22.5590   26.1230 C   0  0  0  0  0  0  0  0  0  0  0  0
   45.6370   21.2210   25.7710 C   0  0  0  0  0  0  0  0  0  0  0  0
   32.4760   21.7660   24.6690 C   0  0  1  0  0  0  0  0  0  0  0  0
   31.6570   22.7540   23.6630 C   0  0  0  0  0  0  0  0  0  0  0  0
   31.3710   22.2670   22.5540 O   0  0  0  0  0  0  0  0  0  0  0  0
   31.4900   24.1570   23.7880 N   0  0  0  0  0  0  0  0  0  0  0  0
   30.8220   25.0640   25.1070 C   0  0  0  0  0  0  0  0  0  0  0  0
   32.0120   26.4150   26.0360 C   0  0  0  0  0  0  0  0  0  0  0  0
   33.4800   27.0790   24.7680 N   0  0  0  0  0  0  0  0  0  0  0  0
   33.6130   28.7950   24.0250 C   0  0  0  0  0  0  0  0  0  0  0  0
   32.6060   28.9530   22.4230 C   0  0  0  0  0  0  0  0  0  0  0  0
   30.8300   29.4040   22.5580 C   0  0  0  0  0  0  0  0  0  0  0  0
   30.2520   29.9820   24.2070 C   0  0  0  0  0  0  0  0  0  0  0  0
   31.3850   30.1800   25.5780 C   0  0  0  0  0  0  0  0  0  0  0  0
   31.5130   31.4760   26.4200 C   0  0  0  0  0  0  0  0  0  0  0  0
   30.7160   31.4340   27.5400 F   0  0  0  0  0  0  0  0  0  0  0  0
   32.7540   31.7920   26.8550 F   0  0  0  0  0  0  0  0  0  0  0  0
   31.0450   32.5770   25.7530 F   0  0  0  0  0  0  0  0  0  0  0  0
   33.0100   29.5960   25.4730 C   0  0  0  0  0  0  0  0  0  0  0  0
   33.7380   26.0480   23.2410 C   0  0  0  0  0  0  0  0  0  0  0  0
   32.4030   24.9550   22.6970 C   0  0  0  0  0  0  0  0  0  0  0  0
   32.1540   20.2150   24.7160 C   0  0  0  0  0  0  0  0  0  0  0  0
   32.8937   17.1186   24.8709 H   0  0  0  0  0  0  0  0  0  0  0  0
   32.1452   17.9292   23.4534 H   0  0  0  0  0  0  0  0  0  0  0  0
   33.9037   17.5629   23.4534 H   0  0  0  0  0  0  0  0  0  0  0  0
   36.3683   18.5266   25.5461 H   0  0  0  0  0  0  0  0  0  0  0  0
   35.5769   17.9567   24.0376 H   0  0  0  0  0  0  0  0  0  0  0  0
   36.5102   19.4915   24.0376 H   0  0  0  0  0  0  0  0  0  0  0  0
   34.7229   20.9614   26.6276 H   0  0  0  0  0  0  0  0  0  0  0  0
   35.8615   21.2560   25.2031 H   0  0  0  0  0  0  0  0  0  0  0  0
   33.7310   22.8120   25.8141 H   0  0  0  0  0  0  0  0  0  0  0  0
   35.7560   24.3990   23.4480 H   0  0  0  0  0  0  0  0  0  0  0  0
   36.6803   25.0107   25.3407 H   0  0  0  0  0  0  0  0  0  0  0  0
   35.5260   23.6956   26.1404 H   0  0  0  0  0  0  0  0  0  0  0  0
   37.2362   22.3266   26.7550 H   0  0  0  0  0  0  0  0  0  0  0  0
   38.0826   22.6992   25.0208 H   0  0  0  0  0  0  0  0  0  0  0  0
   39.8024   24.6240   26.5472 H   0  0  0  0  0  0  0  0  0  0  0  0
   39.4552   23.6192   27.9872 H   0  0  0  0  0  0  0  0  0  0  0  0
   40.5710   21.5832   25.6166 H   0  0  0  0  0  0  0  0  0  0  0  0
   41.8115   22.8793   25.8545 H   0  0  0  0  0  0  0  0  0  0  0  0
   42.6771   21.8143   28.1568 H   0  0  0  0  0  0  0  0  0  0  0  0
   40.9832   21.3984   28.6745 H   0  0  0  0  0  0  0  0  0  0  0  0
   42.3046   18.9552   28.4318 H   0  0  0  0  0  0  0  0  0  0  0  0
   41.1275   19.0983   26.9953 H   0  0  0  0  0  0  0  0  0  0  0  0
   43.9460   18.0970   26.3860 H   0  0  0  0  0  0  0  0  0  0  0  0
   44.1227   21.3939   22.7481 H   0  0  0  0  0  0  0  0  0  0  0  0
   44.4317   23.8545   23.1951 H   0  0  0  0  0  0  0  0  0  0  0  0
   50.6519   30.3315   26.4631 H   0  0  0  0  0  0  0  0  0  0  0  0
   49.1275   32.3005   27.4778 H   0  0  0  0  0  0  0  0  0  0  0  0
   46.7990   28.8110   27.2070 H   0  0  0  0  0  0  0  0  0  0  0  0
   41.0788   25.8556   27.7054 H   0  0  0  0  0  0  0  0  0  0  0  0
   42.4958   24.0515   26.4414 H   0  0  0  0  0  0  0  0  0  0  0  0
   44.9100   27.4640   27.0010 H   0  0  0  0  0  0  0  0  0  0  0  0
   41.9384   30.9721   29.1969 H   0  0  0  0  0  0  0  0  0  0  0  0
   43.9573   32.6500   28.9124 H   0  0  0  0  0  0  0  0  0  0  0  0
   49.6648   25.0604   25.5226 H   0  0  0  0  0  0  0  0  0  0  0  0
   47.5226   24.2874   24.1011 H   0  0  0  0  0  0  0  0  0  0  0  0
   45.8502   22.8537   27.1397 H   0  0  0  0  0  0  0  0  0  0  0  0
   46.2709   20.5249   26.3399 H   0  0  0  0  0  0  0  0  0  0  0  0
   31.9051   22.1075   25.5451 H   0  0  0  0  0  0  0  0  0  0  0  0
   29.9492   25.6098   24.7192 H   0  0  0  0  0  0  0  0  0  0  0  0
   30.6108   24.3092   25.8788 H   0  0  0  0  0  0  0  0  0  0  0  0
   31.4018   27.2704   26.3615 H   0  0  0  0  0  0  0  0  0  0  0  0
   32.4854   25.9322   26.9037 H   0  0  0  0  0  0  0  0  0  0  0  0
   33.0726   28.7795   21.4421 H   0  0  0  0  0  0  0  0  0  0  0  0
   30.1478   29.3323   21.6981 H   0  0  0  0  0  0  0  0  0  0  0  0
   29.1861   30.2109   24.3531 H   0  0  0  0  0  0  0  0  0  0  0  0
   33.6837   29.7283   26.3324 H   0  0  0  0  0  0  0  0  0  0  0  0
   33.9466   26.7416   22.4131 H   0  0  0  0  0  0  0  0  0  0  0  0
   34.5514   25.3606   23.5164 H   0  0  0  0  0  0  0  0  0  0  0  0
   31.7144   25.5714   22.1004 H   0  0  0  0  0  0  0  0  0  0  0  0
   32.9408   24.1441   22.1840 H   0  0  0  0  0  0  0  0  0  0  0  0
   31.5837   20.0304   25.6383 H   0  0  0  0  0  0  0  0  0  0  0  0
   31.6260   20.0227   23.7704 H   0  0  0  0  0  0  0  0  0  0  0  0
  1  2  1  0
  2  3  2  0
  3  4  1  0
  3  5  1  0
  5  6  1  0
  6  7  1  0
  7  8  2  0
  7  9  1  0
  9 10  1  0
 10 11  1  0
 11 12  1  0
 12 13  1  0
 13 14  1  0
 14 15  1  0
 15 16  1  0
 16 17  1  0
 17 18  2  0
 17 19  1  0
 19 20  2  0
 20 21  1  0
 21 22  2  0
 22 23  1  0
 23 24  1  0
 24 25  2  0
 25 26  1  0
 26 27  2  0
 27 28  1  0
 28 29  2  0
 29 30  1  0
 29 31  1  0
 31 32  1  0
 31 33  2  0
 33 34  1  0
 33 35  1  0
 35 36  1  0
 35 37  2  0
 37 38  1  0
 27 39  1  0
 39 40  2  0
 40 41  1  0
 41 42  2  0
 42 43  1  0
 42 44  1  0
 44 45  1  0
 45 46  2  0
 46 47  1  0
 46 48  1  0
 48 49  1  0
 48 50  2  0
 50 51  1  0
 50 52  1  0
 52 53  1  0
 52 54  2  0
 54 55  1  0
 44 56  2  0
 56 57  1  0
 57 58  2  0
 58 59  1  0
 59 60  1  0
 60 61  2  0
 61 62  1  0
 61 63  1  0
 63 64  1  0
 63 65  2  0
 65 66  1  0
 65 67  1  0
 67 68  1  0
 67 69  2  0
 69 70  1  0
 59 71  2  0
 71 72  1  0
 72 73  2  0
 73 74  1  0
 74 75  1  0
 58 76  1  0
 76 77  2  0
 26 78  1  0
 78 79  2  0
 22 80  1  0
 80 81  2  0
  6 82  1  0
 82 83  1  0
 83 84  2  0
 83 85  1  0
 85 86  1  0
 86 87  1  0
 87 88  1  0
 88 89  1  0
 89 90  2  0
 90 91  1  0
 91 92  2  0
 92 93  1  0
 93 94  1  0
 94 95  1  0
 94 96  1  0
 94 97  1  0
 93 98  2  0
 88 99  1  0
 99100  1  0
 82101  1  0
101  2  1  0
 81 19  1  0
100 85  1  0
 74 23  2  0
 98 89  1  0
 79 24  1  0
 37 28  1  0
 43 39  1  0
 54 45  1  0
 77 56  1  0
 69 60  1  0
 75 71  1  0
  1102  1  0
  1103  1  0
  1104  1  0
  4105  1  0
  4106  1  0
  4107  1  0
  5108  1  0
  5109  1  0
  6110  1  1
  9111  1  0
 10112  1  0
 10113  1  0
 11114  1  0
 11115  1  0
 12116  1  0
 12117  1  0
 13118  1  0
 13119  1  0
 14120  1  0
 14121  1  0
 15122  1  0
 15123  1  0
 16124  1  0
 20125  1  0
 21126  1  0
 40127  1  0
 41128  1  0
 43129  1  0
 72130  1  0
 73131  1  0
 75132  1  0
 76133  1  0
 77134  1  0
 78135  1  0
 79136  1  0
 80137  1  0
 81138  1  0
 82139  1  1
 86140  1  0
 86141  1  0
 87142  1  0
 87143  1  0
 90144  1  0
 91145  1  0
 92146  1  0
 98147  1  0
 99148  1  0
 99149  1  0
100150  1  0
100151  1  0
101152  1  0
101153  1  0
M  END
>  <meeko>  (2) 
{"free_energy": -17.0}

$$$$

     RDKit          3D

153164  0  0  0  0  0  0  0  0999 V2000
   32.2280   17.8790   22.3580 C   0  0  0  0  0  0  0  0  0  0  0  0
   32.5910   18.7560   23.5350 C   0  0  0  0  0  0  0  0  0  0  0  0
   33.2840   18.2730   24.5940 C   0  0  0  0  0  0  0  0  0  0  0  0
   33.8920   16.8840   24.6700 C   0  0  0  0  0  0  0  0  0  0  0  0
   33.7100   19.1960   25.7080 C   0  0  0  0  0  0  0  0  0  0  0  0
   34.0820   20.6350   25.2930 C   0  0  1  0  0  0  0  0  0  0  0  0
   35.5710   20.6600   25.1530 C   0  0  0  0  0  0  0  0  0  0  0  0
   36.1860   19.7240   24.6410 O   0  0  0  0  0  0  0  0  0  0  0  0
   36.2520   21.7830   25.5280 N   0  0  0  0  0  0  0  0  0  0  0  0
   35.8610   22.7990   26.4900 C   0  0  0  0  0  0  0  0  0  0  0  0
   36.7180   24.3640   26.7550 C   0  0  0  0  0  0  0  0  0  0  0  0
   38.6020   24.7650   27.7170 C   0  0  0  0  0  0  0  0  0  0  0  0
   40.0880   23.9720   26.5850 C   0  0  0  0  0  0  0  0  0  0  0  0
   39.9830   22.0170   26.5430 C   0  0  0  0  0  0  0  0  0  0  0  0
   41.7500   21.1700   26.3720 C   0  0  0  0  0  0  0  0  0  0  0  0
   43.3100   22.3050   25.5520 N   0  0  0  0  0  0  0  0  0  0  0  0
   43.8820   23.6900   25.3890 C   0  0  0  0  0  0  0  0  0  0  0  0
   44.3580   23.9890   24.2920 O   0  0  0  0  0  0  0  0  0  0  0  0
   44.0760   24.6780   26.5180 C   0  0  0  0  0  0  0  0  0  0  0  0
   44.4140   26.0370   26.3890 C   0  0  0  0  0  0  0  0  0  0  0  0
   43.9820   26.9690   27.3700 C   0  0  0  0  0  0  0  0  0  0  0  0
   43.1500   26.5540   28.4220 C   0  0  0  0  0  0  0  0  0  0  0  0
   42.4910   27.4310   29.4620 C   0  0  0  0  0  0  0  0  0  0  0  0
   43.1030   27.4570   30.8620 C   0  0  0  0  0  0  0  0  0  0  0  0
   42.5820   27.8470   32.0020 N   0  0  0  0  0  0  0  0  0  0  0  0
   43.4550   27.3700   32.9750 C   0  0  0  0  0  0  0  0  0  0  0  0
   43.5670   27.7040   34.2820 C   0  0  0  0  0  0  0  0  0  0  0  0
   44.6560   27.0400   35.0860 C   0  0  0  0  0  0  0  0  0  0  0  0
   44.4320   25.8560   35.8140 C   0  0  0  0  0  0  0  0  0  0  0  0
   43.2260   25.2640   35.7900 F   0  0  0  0  0  0  0  0  0  0  0  0
   45.4170   25.3140   36.6330 C   0  0  0  0  0  0  0  0  0  0  0  0
   45.1370   24.2470   37.3960 F   0  0  0  0  0  0  0  0  0  0  0  0
   46.6720   25.8950   36.6860 C   0  0  0  0  0  0  0  0  0  0  0  0
   47.6220   25.3710   37.4720 F   0  0  0  0  0  0  0  0  0  0  0  0
   46.9390   27.0270   35.9290 C   0  0  0  0  0  0  0  0  0  0  0  0
   48.1620   27.5750   35.9590 F   0  0  0  0  0  0  0  0  0  0  0  0
   45.9380   27.6040   35.1500 C   0  0  0  0  0  0  0  0  0  0  0  0
   46.2220   28.7210   34.4650 F   0  0  0  0  0  0  0  0  0  0  0  0
   42.7530   28.7070   34.9020 C   0  0  0  0  0  0  0  0  0  0  0  0
   42.8840   29.2760   36.1540 C   0  0  0  0  0  0  0  0  0  0  0  0
   41.8410   30.1930   36.3180 C   0  0  0  0  0  0  0  0  0  0  0  0
   41.1000   30.2320   35.1470 C   0  0  0  0  0  0  0  0  0  0  0  0
   41.6700   29.3120   34.2880 N   0  0  0  0  0  0  0  0  0  0  0  0
   39.9550   31.0440   34.8260 C   0  0  0  0  0  0  0  0  0  0  0  0
   39.4770   31.9960   35.8820 C   0  0  0  0  0  0  0  0  0  0  0  0
   38.4790   31.6370   36.7990 C   0  0  0  0  0  0  0  0  0  0  0  0
   37.8640   30.4490   36.6960 F   0  0  0  0  0  0  0  0  0  0  0  0
   38.0900   32.5120   37.8090 C   0  0  0  0  0  0  0  0  0  0  0  0
   37.1040   32.1650   38.6480 F   0  0  0  0  0  0  0  0  0  0  0  0
   38.7160   33.7420   37.9460 C   0  0  0  0  0  0  0  0  0  0  0  0
   38.3510   34.5760   38.9290 F   0  0  0  0  0  0  0  0  0  0  0  0
   39.7180   34.1090   37.0620 C   0  0  0  0  0  0  0  0  0  0  0  0
   40.3410   35.2870   37.2050 F   0  0  0  0  0  0  0  0  0  0  0  0
   40.0860   33.2520   36.0300 C   0  0  0  0  0  0  0  0  0  0  0  0
   41.0580   33.6360   35.1890 F   0  0  0  0  0  0  0  0  0  0  0  0
   39.2910   31.0180   33.6440 C   0  0  0  0  0  0  0  0  0  0  0  0
   39.5530   30.2630   32.5050 N   0  0  0  0  0  0  0  0  0  0  0  0
   38.6290   30.5860   31.6320 C   0  0  0  0  0  0  0  0  0  0  0  0
   38.4490   30.1120   30.2050 C   0  0  0  0  0  0  0  0  0  0  0  0
   37.3340   30.6610   29.3760 C   0  0  0  0  0  0  0  0  0  0  0  0
   36.2190   29.8580   29.0770 C   0  0  0  0  0  0  0  0  0  0  0  0
   36.1690   28.5950   29.5220 F   0  0  0  0  0  0  0  0  0  0  0  0
   35.1740   30.3280   28.2810 C   0  0  0  0  0  0  0  0  0  0  0  0
   34.1470   29.5210   27.9810 F   0  0  0  0  0  0  0  0  0  0  0  0
   35.2060   31.6220   27.7890 C   0  0  0  0  0  0  0  0  0  0  0  0
   34.1970   32.0780   27.0330 F   0  0  0  0  0  0  0  0  0  0  0  0
   36.2890   32.4400   28.0760 C   0  0  0  0  0  0  0  0  0  0  0  0
   36.3170   33.6940   27.6050 F   0  0  0  0  0  0  0  0  0  0  0  0
   37.3480   31.9610   28.8520 C   0  0  0  0  0  0  0  0  0  0  0  0
   38.3880   32.7720   29.0960 F   0  0  0  0  0  0  0  0  0  0  0  0
   39.3720   29.2900   29.6590 C   0  0  0  0  0  0  0  0  0  0  0  0
   39.3530   28.7600   28.2980 C   0  0  0  0  0  0  0  0  0  0  0  0
   40.4600   28.0210   28.0890 C   0  0  0  0  0  0  0  0  0  0  0  0
   41.2910   28.0360   29.2950 C   0  0  0  0  0  0  0  0  0  0  0  0
   40.5380   28.7790   30.1860 N   0  0  0  0  0  0  0  0  0  0  0  0
   37.6460   31.5560   32.1430 C   0  0  0  0  0  0  0  0  0  0  0  0
   38.1270   31.8250   33.3500 C   0  0  0  0  0  0  0  0  0  0  0  0
   44.3920   26.5040   32.3100 C   0  0  0  0  0  0  0  0  0  0  0  0
   44.4210   26.8110   31.0250 C   0  0  0  0  0  0  0  0  0  0  0  0
   42.9400   25.1680   28.5360 C   0  0  0  0  0  0  0  0  0  0  0  0
   43.5580   24.2380   27.7150 C   0  0  0  0  0  0  0  0  0  0  0  0
   33.3170   21.2780   24.1360 C   0  0  1  0  0  0  0  0  0  0  0  0
   33.9980   22.5520   23.3800 C   0  0  0  0  0  0  0  0  0  0  0  0
   35.2030   22.4210   23.0960 O   0  0  0  0  0  0  0  0  0  0  0  0
   33.4720   23.8650   23.2700 N   0  0  0  0  0  0  0  0  0  0  0  0
   31.9510   24.3810   22.6150 C   0  0  0  0  0  0  0  0  0  0  0  0
   30.6610   25.3480   23.8430 C   0  0  0  0  0  0  0  0  0  0  0  0
   31.6720   26.2810   25.3630 N   0  0  0  0  0  0  0  0  0  0  0  0
   31.8840   28.1310   25.5840 C   0  0  0  0  0  0  0  0  0  0  0  0
   33.5520   28.7380   24.9120 C   0  0  0  0  0  0  0  0  0  0  0  0
   33.6610   29.1740   23.1300 C   0  0  0  0  0  0  0  0  0  0  0  0
   32.0680   29.2980   22.2160 C   0  0  0  0  0  0  0  0  0  0  0  0
   30.4960   29.0930   23.0460 C   0  0  0  0  0  0  0  0  0  0  0  0
   29.3290   30.1110   22.9600 C   0  0  0  0  0  0  0  0  0  0  0  0
   28.1090   29.4990   23.1300 F   0  0  0  0  0  0  0  0  0  0  0  0
   29.3600   31.1380   23.8400 F   0  0  0  0  0  0  0  0  0  0  0  0
   29.2200   30.6720   21.7150 F   0  0  0  0  0  0  0  0  0  0  0  0
   30.4250   28.5240   24.6780 C   0  0  0  0  0  0  0  0  0  0  0  0
   33.4300   25.7260   25.6070 C   0  0  0  0  0  0  0  0  0  0  0  0
   34.2770   24.9010   24.2380 C   0  0  0  0  0  0  0  0  0  0  0  0
   32.3800   20.2750   23.3440 C   0  0  0  0  0  0  0  0  0  0  0  0
   31.8312   16.9204   22.7236 H   0  0  0  0  0  0  0  0  0  0  0  0
   31.4645   18.3828   21.7471 H   0  0  0  0  0  0  0  0  0  0  0  0
   33.1242   17.6958   21.7471 H   0  0  0  0  0  0  0  0  0  0  0  0
   34.0180   16.5961   25.7241 H   0  0  0  0  0  0  0  0  0  0  0  0
   33.2265   16.1646   24.1705 H   0  0  0  0  0  0  0  0  0  0  0  0
   34.8720   16.8849   24.1705 H   0  0  0  0  0  0  0  0  0  0  0  0
   32.8812   19.2577   26.4286 H   0  0  0  0  0  0  0  0  0  0  0  0
   34.6327   18.7588   26.1172 H   0  0  0  0  0  0  0  0  0  0  0  0
   33.7348   21.3118   26.0876 H   0  0  0  0  0  0  0  0  0  0  0  0
   37.1240   21.9210   25.0910 H   0  0  0  0  0  0  0  0  0  0  0  0
   34.8292   23.0721   26.2237 H   0  0  0  0  0  0  0  0  0  0  0  0
   36.1016   22.2817   27.4305 H   0  0  0  0  0  0  0  0  0  0  0  0
   36.8399   24.7779   25.7431 H   0  0  0  0  0  0  0  0  0  0  0  0
   36.0641   24.7546   27.5487 H   0  0  0  0  0  0  0  0  0  0  0  0
   38.7467   25.8514   27.8104 H   0  0  0  0  0  0  0  0  0  0  0  0
   38.6143   24.3165   28.7214 H   0  0  0  0  0  0  0  0  0  0  0  0
   40.0015   24.3578   25.5585 H   0  0  0  0  0  0  0  0  0  0  0  0
   41.0531   24.2588   27.0280 H   0  0  0  0  0  0  0  0  0  0  0  0
   39.5139   21.6690   27.4751 H   0  0  0  0  0  0  0  0  0  0  0  0
   39.3901   21.7334   25.6609 H   0  0  0  0  0  0  0  0  0  0  0  0
   42.0642   20.8624   27.3803 H   0  0  0  0  0  0  0  0  0  0  0  0
   41.5950   20.3542   25.6505 H   0  0  0  0  0  0  0  0  0  0  0  0
   43.9120   21.6810   25.0850 H   0  0  0  0  0  0  0  0  0  0  0  0
   45.0115   26.3774   25.5304 H   0  0  0  0  0  0  0  0  0  0  0  0
   44.3005   28.0199   27.3052 H   0  0  0  0  0  0  0  0  0  0  0  0
   43.6687   29.0484   36.8905 H   0  0  0  0  0  0  0  0  0  0  0  0
   41.6420   30.7841   37.2241 H   0  0  0  0  0  0  0  0  0  0  0  0
   41.3530   29.1160   33.3770 H   0  0  0  0  0  0  0  0  0  0  0  0
   38.5582   28.9368   27.5584 H   0  0  0  0  0  0  0  0  0  0  0  0
   40.7021   27.4889   27.1572 H   0  0  0  0  0  0  0  0  0  0  0  0
   40.8120   28.9290   31.1190 H   0  0  0  0  0  0  0  0  0  0  0  0
   36.7461   31.9544   31.6515 H   0  0  0  0  0  0  0  0  0  0  0  0
   37.6959   32.5665   34.0387 H   0  0  0  0  0  0  0  0  0  0  0  0
   44.9873   25.7149   32.7926 H   0  0  0  0  0  0  0  0  0  0  0  0
   45.2110   26.6338   30.2803 H   0  0  0  0  0  0  0  0  0  0  0  0
   42.2524   24.8047   29.3140 H   0  0  0  0  0  0  0  0  0  0  0  0
   43.6322   23.1811   28.0108 H   0  0  0  0  0  0  0  0  0  0  0  0
   32.5568   21.9111   24.6168 H   0  0  0  0  0  0  0  0  0  0  0  0
   32.1696   25.0559   21.7743 H   0  0  0  0  0  0  0  0  0  0  0  0
   31.4332   23.4456   22.3564 H   0  0  0  0  0  0  0  0  0  0  0  0
   30.1054   26.1000   23.2635 H   0  0  0  0  0  0  0  0  0  0  0  0
   29.9673   24.6132   24.2776 H   0  0  0  0  0  0  0  0  0  0  0  0
   34.4287   28.8263   25.5705 H   0  0  0  0  0  0  0  0  0  0  0  0
   34.6274   29.3515   22.6355 H   0  0  0  0  0  0  0  0  0  0  0  0
   32.0827   29.5027   21.1353 H   0  0  0  0  0  0  0  0  0  0  0  0
   29.4445   28.4046   25.1622 H   0  0  0  0  0  0  0  0  0  0  0  0
   34.0194   26.6192   25.8615 H   0  0  0  0  0  0  0  0  0  0  0  0
   33.3605   24.9511   26.3846 H   0  0  0  0  0  0  0  0  0  0  0  0
   34.6738   25.6953   23.5886 H   0  0  0  0  0  0  0  0  0  0  0  0
   34.9992   24.2491   24.7512 H   0  0  0  0  0  0  0  0  0  0  0  0
   31.3441   20.4978   23.6392 H   0  0  0  0  0  0  0  0  0  0  0  0
   32.6334   20.4496   22.2879 H   0  0  0  0  0  0  0  0  0  0  0  0
  1  2  1  0
  2  3  2  0
  3  4  1  0
  3  5  1  0
  5  6  1  0
  6  7  1  0
  7  8  2  0
  7  9  1  0
  9 10  1  0
 10 11  1  0
 11 12  1  0
 12 13  1  0
 13 14  1  0
 14 15  1  0
 15 16  1  0
 16 17  1  0
 17 18  2  0
 17 19  1  0
 19 20  2  0
 20 21  1  0
 21 22  2  0
 22 23  1  0
 23 24  1  0
 24 25  2  0
 25 26  1  0
 26 27  2  0
 27 28  1  0
 28 29  2  0
 29 30  1  0
 29 31  1  0
 31 32  1  0
 31 33  2  0
 33 34  1  0
 33 35  1  0
 35 36  1  0
 35 37  2  0
 37 38  1  0
 27 39  1  0
 39 40  2  0
 40 41  1  0
 41 42  2  0
 42 43  1  0
 42 44  1  0
 44 45  1  0
 45 46  2  0
 46 47  1  0
 46 48  1  0
 48 49  1  0
 48 50  2  0
 50 51  1  0
 50 52  1  0
 52 53  1  0
 52 54  2  0
 54 55  1  0
 44 56  2  0
 56 57  1  0
 57 58  2  0
 58 59  1  0
 59 60  1  0
 60 61  2  0
 61 62  1  0
 61 63  1  0
 63 64  1  0
 63 65  2  0
 65 66  1  0
 65 67  1  0
 67 68  1  0
 67 69  2  0
 69 70  1  0
 59 71  2  0
 71 72  1  0
 72 73  2  0
 73 74  1  0
 74 75  1  0
 58 76  1  0
 76 77  2  0
 26 78  1  0
 78 79  2  0
 22 80  1  0
 80 81  2  0
  6 82  1  0
 82 83  1  0
 83 84  2  0
 83 85  1  0
 85 86  1  0
 86 87  1  0
 87 88  1  0
 88 89  1  0
 89 90  2  0
 90 91  1  0
 91 92  2  0
 92 93  1  0
 93 94  1  0
 94 95  1  0
 94 96  1  0
 94 97  1  0
 93 98  2  0
 88 99  1  0
 99100  1  0
 82101  1  0
101  2  1  0
 81 19  1  0
100 85  1  0
 74 23  2  0
 98 89  1  0
 79 24  1  0
 37 28  1  0
 43 39  1  0
 54 45  1  0
 77 56  1  0
 69 60  1  0
 75 71  1  0
  1102  1  0
  1103  1  0
  1104  1  0
  4105  1  0
  4106  1  0
  4107  1  0
  5108  1  0
  5109  1  0
  6110  1  1
  9111  1  0
 10112  1  0
 10113  1  0
 11114  1  0
 11115  1  0
 12116  1  0
 12117  1  0
 13118  1  0
 13119  1  0
 14120  1  0
 14121  1  0
 15122  1  0
 15123  1  0
 16124  1  0
 20125  1  0
 21126  1  0
 40127  1  0
 41128  1  0
 43129  1  0
 72130  1  0
 73131  1  0
 75132  1  0
 76133  1  0
 77134  1  0
 78135  1  0
 79136  1  0
 80137  1  0
 81138  1  0
 82139  1  1
 86140  1  0
 86141  1  0
 87142  1  0
 87143  1  0
 90144  1  0
 91145  1  0
 92146  1  0
 98147  1  0
 99148  1  0
 99149  1  0
100150  1  0
100151  1  0
101152  1  0
101153  1  0
M  END
>  <meeko>  (3) 
{"free_energy": -16.9}

$$$$

