
     RDKit          3D

134145  0  0  0  0  0  0  0  0999 V2000
   32.9040   25.4780   21.0580 C   0  0  0  0  0  0  0  0  0  0  0  0
   32.5280   24.5140   22.0580 O   0  0  0  0  0  0  0  0  0  0  0  0
   32.6440   24.5060   23.5390 C   0  0  0  0  0  0  0  0  0  0  0  0
   32.0590   25.7060   23.8870 C   0  0  0  0  0  0  0  0  0  0  0  0
   32.9300   26.5810   24.5500 C   0  0  0  0  0  0  0  0  0  0  0  0
   32.9840   27.9770   23.8690 C   0  0  2  0  0  0  0  0  0  0  0  0
   33.8110   28.9130   24.6720 N   0  0  0  0  0  4  0  0  0  0  0  0
   32.9500   29.7350   25.5670 C   0  0  2  0  0  0  0  0  0  0  0  0
   33.0800   29.5190   27.1200 C   0  0  0  0  0  0  0  0  0  0  0  0
   32.4810   28.5570   27.6270 O   0  0  0  0  0  0  0  0  0  0  0  0
   33.7430   30.3560   27.9980 N   0  0  0  0  0  0  0  0  0  0  0  0
   34.6660   31.4120   27.6350 C   0  0  0  0  0  0  0  0  0  0  0  0
   34.3880   32.9250   28.0470 C   0  0  0  0  0  0  0  0  0  0  0  0
   35.2800   33.9450   29.4010 C   0  0  0  0  0  0  0  0  0  0  0  0
   35.2120   33.7740   31.3800 N   0  0  0  0  0  0  0  0  0  0  0  0
   36.0740   32.7020   32.5660 C   0  0  0  0  0  0  0  0  0  0  0  0
   36.2810   33.1530   33.6590 O   0  0  0  0  0  0  0  0  0  0  0  0
   36.3950   30.8300   32.2850 C   0  0  0  0  0  0  0  0  0  0  0  0
   36.1480   30.1700   31.0420 C   0  0  0  0  0  0  0  0  0  0  0  0
   37.2090   29.5710   30.2210 C   0  0  0  0  0  0  0  0  0  0  0  0
   38.5110   29.4140   30.6930 C   0  0  0  0  0  0  0  0  0  0  0  0
   39.6900   28.8300   29.8680 C   0  0  0  0  0  0  0  0  0  0  0  0
   40.8330   29.7840   29.5620 C   0  0  0  0  0  0  0  0  0  0  0  0
   41.9660   29.5900   28.9250 N   0  0  0  0  0  0  0  0  0  0  0  0
   42.6030   30.8250   28.9180 C   0  0  0  0  0  0  0  0  0  0  0  0
   43.8740   31.1570   28.5940 C   0  0  0  0  0  0  0  0  0  0  0  0
   44.2700   32.5830   28.8450 C   0  0  0  0  0  0  0  0  0  0  0  0
   44.6990   33.0060   30.1170 C   0  0  0  0  0  0  0  0  0  0  0  0
   44.7760   32.1290   31.1300 F   0  0  0  0  0  0  0  0  0  0  0  0
   44.9600   34.3470   30.3730 C   0  0  0  0  0  0  0  0  0  0  0  0
   45.2700   34.7400   31.6160 F   0  0  0  0  0  0  0  0  0  0  0  0
   44.8590   35.2800   29.3530 C   0  0  0  0  0  0  0  0  0  0  0  0
   45.1030   36.5730   29.6030 F   0  0  0  0  0  0  0  0  0  0  0  0
   44.4870   34.8750   28.0780 C   0  0  0  0  0  0  0  0  0  0  0  0
   44.3990   35.7760   27.0910 F   0  0  0  0  0  0  0  0  0  0  0  0
   44.1800   33.5420   27.8280 C   0  0  0  0  0  0  0  0  0  0  0  0
   43.7780   33.1870   26.5980 F   0  0  0  0  0  0  0  0  0  0  0  0
   44.8600   30.2590   28.0740 C   0  0  0  0  0  0  0  0  0  0  0  0
   46.1850   30.5200   27.7740 C   0  0  0  0  0  0  0  0  0  0  0  0
   46.7390   29.3650   27.2150 C   0  0  0  0  0  0  0  0  0  0  0  0
   45.7780   28.3700   27.2340 C   0  0  0  0  0  0  0  0  0  0  0  0
   44.6270   28.9330   27.7600 N   0  0  0  0  0  0  0  0  0  0  0  0
   45.8840   27.0010   26.8020 C   0  0  0  0  0  0  0  0  0  0  0  0
   47.2190   26.5460   26.2780 C   0  0  0  0  0  0  0  0  0  0  0  0
   47.6340   26.8100   24.9650 C   0  0  0  0  0  0  0  0  0  0  0  0
   46.7940   27.3930   24.0960 F   0  0  0  0  0  0  0  0  0  0  0  0
   48.9140   26.4660   24.5320 C   0  0  0  0  0  0  0  0  0  0  0  0
   49.2770   26.7020   23.2630 F   0  0  0  0  0  0  0  0  0  0  0  0
   49.8150   25.8810   25.4100 C   0  0  0  0  0  0  0  0  0  0  0  0
   51.0530   25.5740   24.9990 F   0  0  0  0  0  0  0  0  0  0  0  0
   49.4310   25.6190   26.7160 C   0  0  0  0  0  0  0  0  0  0  0  0
   50.3070   25.0770   27.5740 F   0  0  0  0  0  0  0  0  0  0  0  0
   48.1430   25.9310   27.1410 C   0  0  0  0  0  0  0  0  0  0  0  0
   47.8080   25.6680   28.4140 F   0  0  0  0  0  0  0  0  0  0  0  0
   44.8590   26.1150   26.8600 C   0  0  0  0  0  0  0  0  0  0  0  0
   43.5680   26.3040   27.3540 N   0  0  0  0  0  0  0  0  0  0  0  0
   42.9440   25.1640   27.1980 C   0  0  0  0  0  0  0  0  0  0  0  0
   41.5330   24.7680   27.6260 C   0  0  0  0  0  0  0  0  0  0  0  0
   41.1050   23.3450   27.3610 C   0  0  0  0  0  0  0  0  0  0  0  0
   41.8200   22.2530   27.8950 C   0  0  0  0  0  0  0  0  0  0  0  0
   42.8650   22.4720   28.7050 F   0  0  0  0  0  0  0  0  0  0  0  0
   41.5300   20.9320   27.5310 C   0  0  0  0  0  0  0  0  0  0  0  0
   42.2810   19.9260   28.0020 F   0  0  0  0  0  0  0  0  0  0  0  0
   40.4960   20.6640   26.6500 C   0  0  0  0  0  0  0  0  0  0  0  0
   40.2220   19.4000   26.2940 F   0  0  0  0  0  0  0  0  0  0  0  0
   39.7600   21.7150   26.1250 C   0  0  0  0  0  0  0  0  0  0  0  0
   38.7620   21.4600   25.2670 F   0  0  0  0  0  0  0  0  0  0  0  0
   40.0680   23.0380   26.4660 C   0  0  0  0  0  0  0  0  0  0  0  0
   39.3670   24.0250   25.8890 F   0  0  0  0  0  0  0  0  0  0  0  0
   40.7230   25.6650   28.2560 C   0  0  0  0  0  0  0  0  0  0  0  0
   39.3810   25.3790   28.7690 C   0  0  0  0  0  0  0  0  0  0  0  0
   38.8870   26.4700   29.3980 C   0  0  0  0  0  0  0  0  0  0  0  0
   39.8420   27.5730   29.3400 C   0  0  0  0  0  0  0  0  0  0  0  0
   40.8980   26.9980   28.6140 N   0  0  0  0  0  0  0  0  0  0  0  0
   43.7720   24.1370   26.5290 C   0  0  0  0  0  0  0  0  0  0  0  0
   44.9400   24.7520   26.3980 C   0  0  0  0  0  0  0  0  0  0  0  0
   41.6700   31.7840   29.4560 C   0  0  0  0  0  0  0  0  0  0  0  0
   40.6420   31.1710   30.0070 C   0  0  0  0  0  0  0  0  0  0  0  0
   38.5580   29.5780   32.0920 C   0  0  0  0  0  0  0  0  0  0  0  0
   37.4490   30.0930   32.8860 C   0  0  0  0  0  0  0  0  0  0  0  0
   31.4780   29.6720   25.1210 C   0  0  0  0  0  0  0  0  0  0  0  0
   31.4360   28.7890   23.5440 S   0  0  0  0  0  0  0  0  0  0  0  0
   34.0300   26.0820   25.3630 C   0  0  0  0  0  0  0  0  0  0  0  0
   34.5910   24.7740   25.2730 C   0  0  0  0  0  0  0  0  0  0  0  0
   34.0470   23.9910   24.2760 C   0  0  0  0  0  0  0  0  0  0  0  0
   34.9870   22.5250   23.8980 O   0  0  0  0  0  0  0  0  0  0  0  0
   35.0670   20.9600   25.0280 C   0  0  0  0  0  0  0  0  0  0  0  0
   34.0930   19.2680   24.6250 C   0  0  0  0  0  0  0  0  0  0  0  0
   32.9290   18.7920   25.3090 C   0  0  0  0  0  0  0  0  0  0  0  0
   32.5250   17.4090   25.5580 C   0  0  0  0  0  0  0  0  0  0  0  0
   33.1980   16.3170   25.0580 C   0  0  0  0  0  0  0  0  0  0  0  0
   32.7520   14.7050   25.4220 Cl  0  0  0  0  0  0  0  0  0  0  0  0
   34.3200   16.5840   24.3560 C   0  0  0  0  0  0  0  0  0  0  0  0
   34.7370   17.9410   24.2460 C   0  0  0  0  0  0  0  0  0  0  0  0
   33.2617   26.3951   21.5489 H   0  0  0  0  0  0  0  0  0  0  0  0
   33.7056   25.0615   20.4303 H   0  0  0  0  0  0  0  0  0  0  0  0
   32.0321   25.7143   20.4303 H   0  0  0  0  0  0  0  0  0  0  0  0
   31.0101   25.9522   23.6654 H   0  0  0  0  0  0  0  0  0  0  0  0
   33.4150   27.7434   22.8843 H   0  0  0  0  0  0  0  0  0  0  0  0
   34.3260   29.5290   24.0430 H   0  0  0  0  0  0  0  0  0  0  0  0
   34.4580   28.3720   25.2440 H   0  0  0  0  0  0  0  0  0  0  0  0
   33.3596   30.7471   25.4334 H   0  0  0  0  0  0  0  0  0  0  0  0
   33.5710   30.2220   28.9580 H   0  0  0  0  0  0  0  0  0  0  0  0
   35.6377   31.1422   28.0744 H   0  0  0  0  0  0  0  0  0  0  0  0
   34.5796   31.4411   26.5388 H   0  0  0  0  0  0  0  0  0  0  0  0
   34.5326   33.5000   27.1205 H   0  0  0  0  0  0  0  0  0  0  0  0
   33.4155   32.7925   28.5437 H   0  0  0  0  0  0  0  0  0  0  0  0
   36.3476   33.8378   29.1586 H   0  0  0  0  0  0  0  0  0  0  0  0
   34.6777   34.8613   29.3134 H   0  0  0  0  0  0  0  0  0  0  0  0
   34.5820   34.3990   31.8050 H   0  0  0  0  0  0  0  0  0  0  0  0
   35.1107   30.1072   30.6814 H   0  0  0  0  0  0  0  0  0  0  0  0
   36.9682   29.2358   29.2014 H   0  0  0  0  0  0  0  0  0  0  0  0
   46.7109   31.4708   27.9455 H   0  0  0  0  0  0  0  0  0  0  0  0
   47.7632   29.2644   26.8266 H   0  0  0  0  0  0  0  0  0  0  0  0
   43.7720   28.4610   27.8890 H   0  0  0  0  0  0  0  0  0  0  0  0
   38.8536   24.4200   28.6591 H   0  0  0  0  0  0  0  0  0  0  0  0
   37.9022   26.5194   29.8856 H   0  0  0  0  0  0  0  0  0  0  0  0
   41.7060   27.5030   28.3740 H   0  0  0  0  0  0  0  0  0  0  0  0
   43.4903   23.1200   26.2185 H   0  0  0  0  0  0  0  0  0  0  0  0
   45.8488   24.2844   25.9912 H   0  0  0  0  0  0  0  0  0  0  0  0
   41.7986   32.8756   29.4124 H   0  0  0  0  0  0  0  0  0  0  0  0
   39.8449   31.5904   30.6385 H   0  0  0  0  0  0  0  0  0  0  0  0
   39.4852   29.3014   32.6152 H   0  0  0  0  0  0  0  0  0  0  0  0
   37.4286   29.9072   33.9700 H   0  0  0  0  0  0  0  0  0  0  0  0
   30.8796   29.1336   25.8707 H   0  0  0  0  0  0  0  0  0  0  0  0
   31.0582   30.6831   25.0142 H   0  0  0  0  0  0  0  0  0  0  0  0
   34.4627   26.7685   26.1056 H   0  0  0  0  0  0  0  0  0  0  0  0
   35.3894   24.4197   25.9416 H   0  0  0  0  0  0  0  0  0  0  0  0
   36.1309   20.6878   25.0912 H   0  0  0  0  0  0  0  0  0  0  0  0
   34.5311   21.3108   25.9223 H   0  0  0  0  0  0  0  0  0  0  0  0
   32.2512   19.5665   25.6973 H   0  0  0  0  0  0  0  0  0  0  0  0
   31.6345   17.2313   26.1789 H   0  0  0  0  0  0  0  0  0  0  0  0
   34.8960   15.7755   23.8821 H   0  0  0  0  0  0  0  0  0  0  0  0
   35.7326   18.0546   23.7923 H   0  0  0  0  0  0  0  0  0  0  0  0
  1  2  1  0
  2  3  1  0
  3  4  2  0
  4  5  1  0
  5  6  1  0
  6  7  1  0
  7  8  1  0
  8  9  1  0
  9 10  2  0
  9 11  1  0
 11 12  1  0
 12 13  1  0
 13 14  1  0
 14 15  1  0
 15 16  1  0
 16 17  2  0
 16 18  1  0
 18 19  2  0
 19 20  1  0
 20 21  2  0
 21 22  1  0
 22 23  1  0
 23 24  2  0
 24 25  1  0
 25 26  2  0
 26 27  1  0
 27 28  2  0
 28 29  1  0
 28 30  1  0
 30 31  1  0
 30 32  2  0
 32 33  1  0
 32 34  1  0
 34 35  1  0
 34 36  2  0
 36 37  1  0
 26 38  1  0
 38 39  2  0
 39 40  1  0
 40 41  2  0
 41 42  1  0
 41 43  1  0
 43 44  1  0
 44 45  2  0
 45 46  1  0
 45 47  1  0
 47 48  1  0
 47 49  2  0
 49 50  1  0
 49 51  1  0
 51 52  1  0
 51 53  2  0
 53 54  1  0
 43 55  2  0
 55 56  1  0
 56 57  2  0
 57 58  1  0
 58 59  1  0
 59 60  2  0
 60 61  1  0
 60 62  1  0
 62 63  1  0
 62 64  2  0
 64 65  1  0
 64 66  1  0
 66 67  1  0
 66 68  2  0
 68 69  1  0
 58 70  2  0
 70 71  1  0
 71 72  2  0
 72 73  1  0
 73 74  1  0
 57 75  1  0
 75 76  2  0
 25 77  1  0
 77 78  2  0
 21 79  1  0
 79 80  2  0
  8 81  1  0
 81 82  1  0
  5 83  2  0
 83 84  1  0
 84 85  2  0
 85 86  1  0
 86 87  1  0
 87 88  1  0
 88 89  2  0
 89 90  1  0
 90 91  2  0
 91 92  1  0
 91 93  1  0
 93 94  2  0
 85  3  1  0
 94 88  1  0
 82  6  1  0
 80 18  1  0
 73 22  2  0
 78 23  1  0
 36 27  1  0
 42 38  1  0
 53 44  1  0
 76 55  1  0
 68 59  1  0
 74 70  1  0
  1 95  1  0
  1 96  1  0
  1 97  1  0
  4 98  1  0
  6 99  1  6
  7100  1  0
  7101  1  0
  8102  1  1
 11103  1  0
 12104  1  0
 12105  1  0
 13106  1  0
 13107  1  0
 14108  1  0
 14109  1  0
 15110  1  0
 19111  1  0
 20112  1  0
 39113  1  0
 40114  1  0
 42115  1  0
 71116  1  0
 72117  1  0
 74118  1  0
 75119  1  0
 76120  1  0
 77121  1  0
 78122  1  0
 79123  1  0
 80124  1  0
 81125  1  0
 81126  1  0
 83127  1  0
 84128  1  0
 87129  1  0
 87130  1  0
 89131  1  0
 90132  1  0
 93133  1  0
 94134  1  0
M  CHG  1   7   1
M  END
>  <meeko>  (1) 
{"free_energy": -17.5}

$$$$

     RDKit          3D

134145  0  0  0  0  0  0  0  0999 V2000
   32.6860   22.6380   22.7270 C   0  0  0  0  0  0  0  0  0  0  0  0
   32.2000   23.1660   23.9750 O   0  0  0  0  0  0  0  0  0  0  0  0
   30.9520   23.8820   24.3450 C   0  0  0  0  0  0  0  0  0  0  0  0
   30.8100   24.7820   23.3090 C   0  0  0  0  0  0  0  0  0  0  0  0
   30.8400   26.1200   23.7250 C   0  0  0  0  0  0  0  0  0  0  0  0
   31.8960   26.9510   22.9440 C   0  0  2  0  0  0  0  0  0  0  0  0
   33.1930   26.9480   23.6670 N   0  0  0  0  0  4  0  0  0  0  0  0
   33.3240   28.1680   24.5100 C   0  0  2  0  0  0  0  0  0  0  0  0
   33.3410   27.9860   26.0740 C   0  0  0  0  0  0  0  0  0  0  0  0
   33.3110   26.8310   26.5270 O   0  0  0  0  0  0  0  0  0  0  0  0
   33.3060   29.0070   27.0040 N   0  0  0  0  0  0  0  0  0  0  0  0
   33.5320   30.4130   26.7350 C   0  0  0  0  0  0  0  0  0  0  0  0
   34.5560   31.2630   27.6100 C   0  0  0  0  0  0  0  0  0  0  0  0
   34.1390   32.5070   29.0060 C   0  0  0  0  0  0  0  0  0  0  0  0
   34.3960   32.3540   30.9710 N   0  0  0  0  0  0  0  0  0  0  0  0
   35.6990   31.6210   32.0000 C   0  0  0  0  0  0  0  0  0  0  0  0
   35.9020   32.1300   33.0680 O   0  0  0  0  0  0  0  0  0  0  0  0
   36.5430   29.9370   31.6280 C   0  0  0  0  0  0  0  0  0  0  0  0
   36.6620   29.3940   30.3120 C   0  0  0  0  0  0  0  0  0  0  0  0
   37.9510   29.1840   29.6380 C   0  0  0  0  0  0  0  0  0  0  0  0
   39.1660   29.3000   30.3120 C   0  0  0  0  0  0  0  0  0  0  0  0
   40.5640   29.1340   29.6560 C   0  0  0  0  0  0  0  0  0  0  0  0
   40.8820   27.7580   29.0930 C   0  0  0  0  0  0  0  0  0  0  0  0
   41.9450   27.3150   28.4610 N   0  0  0  0  0  0  0  0  0  0  0  0
   41.6960   25.9700   28.2150 C   0  0  0  0  0  0  0  0  0  0  0  0
   42.3420   25.0870   27.4190 C   0  0  0  0  0  0  0  0  0  0  0  0
   41.7040   23.7350   27.2750 C   0  0  0  0  0  0  0  0  0  0  0  0
   42.2990   22.5880   27.8290 C   0  0  0  0  0  0  0  0  0  0  0  0
   43.4480   22.6860   28.5150 F   0  0  0  0  0  0  0  0  0  0  0  0
   41.7640   21.3250   27.6010 C   0  0  0  0  0  0  0  0  0  0  0  0
   42.4030   20.2380   28.0550 F   0  0  0  0  0  0  0  0  0  0  0  0
   40.5940   21.1900   26.8700 C   0  0  0  0  0  0  0  0  0  0  0  0
   40.0830   19.9720   26.6440 F   0  0  0  0  0  0  0  0  0  0  0  0
   39.9640   22.3150   26.3570 C   0  0  0  0  0  0  0  0  0  0  0  0
   38.8270   22.1840   25.6600 F   0  0  0  0  0  0  0  0  0  0  0  0
   40.5200   23.5760   26.5440 C   0  0  0  0  0  0  0  0  0  0  0  0
   39.9130   24.6410   25.9970 F   0  0  0  0  0  0  0  0  0  0  0  0
   43.5450   25.3520   26.6900 C   0  0  0  0  0  0  0  0  0  0  0  0
   44.2230   24.5160   25.8220 C   0  0  0  0  0  0  0  0  0  0  0  0
   45.3880   25.1700   25.4110 C   0  0  0  0  0  0  0  0  0  0  0  0
   45.3940   26.4370   25.9680 C   0  0  0  0  0  0  0  0  0  0  0  0
   44.2590   26.5340   26.7560 N   0  0  0  0  0  0  0  0  0  0  0  0
   46.3610   27.4900   25.8100 C   0  0  0  0  0  0  0  0  0  0  0  0
   47.5260   27.2240   24.8940 C   0  0  0  0  0  0  0  0  0  0  0  0
   47.5460   27.6700   23.5650 C   0  0  0  0  0  0  0  0  0  0  0  0
   46.4650   28.2630   23.0350 F   0  0  0  0  0  0  0  0  0  0  0  0
   48.6760   27.4980   22.7670 C   0  0  0  0  0  0  0  0  0  0  0  0
   48.6600   27.9070   21.4900 F   0  0  0  0  0  0  0  0  0  0  0  0
   49.8180   26.9090   23.2880 C   0  0  0  0  0  0  0  0  0  0  0  0
   50.9110   26.7680   22.5260 F   0  0  0  0  0  0  0  0  0  0  0  0
   49.8260   26.4690   24.6020 C   0  0  0  0  0  0  0  0  0  0  0  0
   50.9350   25.9220   25.1180 F   0  0  0  0  0  0  0  0  0  0  0  0
   48.6880   26.6090   25.3930 C   0  0  0  0  0  0  0  0  0  0  0  0
   48.7330   26.1760   26.6620 F   0  0  0  0  0  0  0  0  0  0  0  0
   46.2640   28.6960   26.4230 C   0  0  0  0  0  0  0  0  0  0  0  0
   45.2530   29.1710   27.2590 N   0  0  0  0  0  0  0  0  0  0  0  0
   45.6000   30.3860   27.6020 C   0  0  0  0  0  0  0  0  0  0  0  0
   44.8390   31.4070   28.4440 C   0  0  0  0  0  0  0  0  0  0  0  0
   45.4740   32.7660   28.6220 C   0  0  0  0  0  0  0  0  0  0  0  0
   45.2390   33.8110   27.7040 C   0  0  0  0  0  0  0  0  0  0  0  0
   44.3900   33.6250   26.6840 F   0  0  0  0  0  0  0  0  0  0  0  0
   45.9410   35.0200   27.7670 C   0  0  0  0  0  0  0  0  0  0  0  0
   45.7440   35.9610   26.8320 F   0  0  0  0  0  0  0  0  0  0  0  0
   46.8720   35.2330   28.7710 C   0  0  0  0  0  0  0  0  0  0  0  0
   47.5510   36.3880   28.8280 F   0  0  0  0  0  0  0  0  0  0  0  0
   47.1100   34.2330   29.7010 C   0  0  0  0  0  0  0  0  0  0  0  0
   48.0150   34.4320   30.6700 F   0  0  0  0  0  0  0  0  0  0  0  0
   46.4290   33.0120   29.6200 C   0  0  0  0  0  0  0  0  0  0  0  0
   46.7330   32.0520   30.5070 F   0  0  0  0  0  0  0  0  0  0  0  0
   43.6200   31.1010   28.9700 C   0  0  0  0  0  0  0  0  0  0  0  0
   42.7720   32.0200   29.7330 C   0  0  0  0  0  0  0  0  0  0  0  0
   41.6030   31.4150   30.0450 C   0  0  0  0  0  0  0  0  0  0  0  0
   41.5810   30.0460   29.5350 C   0  0  0  0  0  0  0  0  0  0  0  0
   42.8440   29.9470   28.9300 N   0  0  0  0  0  0  0  0  0  0  0  0
   46.9140   30.7900   27.0530 C   0  0  0  0  0  0  0  0  0  0  0  0
   47.2430   29.7480   26.3020 C   0  0  0  0  0  0  0  0  0  0  0  0
   40.4740   25.6350   28.9040 C   0  0  0  0  0  0  0  0  0  0  0  0
   39.8620   26.7260   29.3180 C   0  0  0  0  0  0  0  0  0  0  0  0
   38.9650   29.2970   31.7080 C   0  0  0  0  0  0  0  0  0  0  0  0
   37.6560   29.4170   32.3380 C   0  0  0  0  0  0  0  0  0  0  0  0
   32.3010   29.2380   24.0890 C   0  0  0  0  0  0  0  0  0  0  0  0
   31.5000   28.6450   22.5810 S   0  0  0  0  0  0  0  0  0  0  0  0
   30.3870   26.5100   25.0530 C   0  0  0  0  0  0  0  0  0  0  0  0
   30.2600   25.6310   26.1690 C   0  0  0  0  0  0  0  0  0  0  0  0
   30.6750   24.3390   25.9230 C   0  0  0  0  0  0  0  0  0  0  0  0
   30.8910   23.3470   27.3870 O   0  0  0  0  0  0  0  0  0  0  0  0
   32.5710   22.5670   27.9370 C   0  0  0  0  0  0  0  0  0  0  0  0
   34.2440   22.6990   26.8600 C   0  0  0  0  0  0  0  0  0  0  0  0
   34.6880   23.8580   26.1470 C   0  0  0  0  0  0  0  0  0  0  0  0
   35.4580   23.9200   24.9060 C   0  0  0  0  0  0  0  0  0  0  0  0
   35.9680   22.8120   24.2700 C   0  0  0  0  0  0  0  0  0  0  0  0
   36.8040   22.9000   22.7780 Cl  0  0  0  0  0  0  0  0  0  0  0  0
   35.6660   21.6190   24.8250 C   0  0  0  0  0  0  0  0  0  0  0  0
   34.8110   21.6060   25.9640 C   0  0  0  0  0  0  0  0  0  0  0  0
   33.4187   21.8420   22.9261 H   0  0  0  0  0  0  0  0  0  0  0  0
   31.8445   22.2260   22.1506 H   0  0  0  0  0  0  0  0  0  0  0  0
   33.1662   23.4425   22.1506 H   0  0  0  0  0  0  0  0  0  0  0  0
   30.6854   24.4790   22.2589 H   0  0  0  0  0  0  0  0  0  0  0  0
   31.9316   26.4358   21.9728 H   0  0  0  0  0  0  0  0  0  0  0  0
   33.9540   26.9250   22.9880 H   0  0  0  0  0  0  0  0  0  0  0  0
   33.2320   26.1250   24.2680 H   0  0  0  0  0  0  0  0  0  0  0  0
   34.3510   28.5000   24.2976 H   0  0  0  0  0  0  0  0  0  0  0  0
   33.1090   28.7550   27.9350 H   0  0  0  0  0  0  0  0  0  0  0  0
   33.8804   30.4798   25.6938 H   0  0  0  0  0  0  0  0  0  0  0  0
   32.5627   30.8662   26.9902 H   0  0  0  0  0  0  0  0  0  0  0  0
   35.2088   30.5156   28.0846 H   0  0  0  0  0  0  0  0  0  0  0  0
   34.8926   31.9733   26.8405 H   0  0  0  0  0  0  0  0  0  0  0  0
   34.6964   33.4149   28.7321 H   0  0  0  0  0  0  0  0  0  0  0  0
   33.0464   32.3803   28.9920 H   0  0  0  0  0  0  0  0  0  0  0  0
   33.6660   32.7580   31.4930 H   0  0  0  0  0  0  0  0  0  0  0  0
   35.7418   29.1190   29.7757 H   0  0  0  0  0  0  0  0  0  0  0  0
   37.9574   28.9273   28.5684 H   0  0  0  0  0  0  0  0  0  0  0  0
   43.9016   23.5115   25.5094 H   0  0  0  0  0  0  0  0  0  0  0  0
   46.1664   24.7498   24.7571 H   0  0  0  0  0  0  0  0  0  0  0  0
   44.0000   27.3250   27.2830 H   0  0  0  0  0  0  0  0  0  0  0  0
   43.0451   33.0487   30.0108 H   0  0  0  0  0  0  0  0  0  0  0  0
   40.7828   31.8881   30.6049 H   0  0  0  0  0  0  0  0  0  0  0  0
   43.1590   29.1180   28.5060 H   0  0  0  0  0  0  0  0  0  0  0  0
   47.4758   31.7200   27.2247 H   0  0  0  0  0  0  0  0  0  0  0  0
   48.1424   29.6933   25.6710 H   0  0  0  0  0  0  0  0  0  0  0  0
   40.1043   24.6111   29.0619 H   0  0  0  0  0  0  0  0  0  0  0  0
   38.8469   26.8356   29.7274 H   0  0  0  0  0  0  0  0  0  0  0  0
   39.8465   29.1985   32.3586 H   0  0  0  0  0  0  0  0  0  0  0  0
   37.5287   29.0985   33.3832 H   0  0  0  0  0  0  0  0  0  0  0  0
   31.5530   29.3779   24.8833 H   0  0  0  0  0  0  0  0  0  0  0  0
   32.7956   30.2050   23.9148 H   0  0  0  0  0  0  0  0  0  0  0  0
   30.1217   27.5663   25.2076 H   0  0  0  0  0  0  0  0  0  0  0  0
   29.8648   25.9558   27.1428 H   0  0  0  0  0  0  0  0  0  0  0  0
   32.8054   23.0141   28.9143 H   0  0  0  0  0  0  0  0  0  0  0  0
   32.3471   21.4929   27.8589 H   0  0  0  0  0  0  0  0  0  0  0  0
   34.4145   24.8270   26.5900 H   0  0  0  0  0  0  0  0  0  0  0  0
   35.6396   24.9071   24.4559 H   0  0  0  0  0  0  0  0  0  0  0  0
   36.0688   20.6836   24.4094 H   0  0  0  0  0  0  0  0  0  0  0  0
   34.4938   20.5946   26.2580 H   0  0  0  0  0  0  0  0  0  0  0  0
  1  2  1  0
  2  3  1  0
  3  4  2  0
  4  5  1  0
  5  6  1  0
  6  7  1  0
  7  8  1  0
  8  9  1  0
  9 10  2  0
  9 11  1  0
 11 12  1  0
 12 13  1  0
 13 14  1  0
 14 15  1  0
 15 16  1  0
 16 17  2  0
 16 18  1  0
 18 19  2  0
 19 20  1  0
 20 21  2  0
 21 22  1  0
 22 23  1  0
 23 24  2  0
 24 25  1  0
 25 26  2  0
 26 27  1  0
 27 28  2  0
 28 29  1  0
 28 30  1  0
 30 31  1  0
 30 32  2  0
 32 33  1  0
 32 34  1  0
 34 35  1  0
 34 36  2  0
 36 37  1  0
 26 38  1  0
 38 39  2  0
 39 40  1  0
 40 41  2  0
 41 42  1  0
 41 43  1  0
 43 44  1  0
 44 45  2  0
 45 46  1  0
 45 47  1  0
 47 48  1  0
 47 49  2  0
 49 50  1  0
 49 51  1  0
 51 52  1  0
 51 53  2  0
 53 54  1  0
 43 55  2  0
 55 56  1  0
 56 57  2  0
 57 58  1  0
 58 59  1  0
 59 60  2  0
 60 61  1  0
 60 62  1  0
 62 63  1  0
 62 64  2  0
 64 65  1  0
 64 66  1  0
 66 67  1  0
 66 68  2  0
 68 69  1  0
 58 70  2  0
 70 71  1  0
 71 72  2  0
 72 73  1  0
 73 74  1  0
 57 75  1  0
 75 76  2  0
 25 77  1  0
 77 78  2  0
 21 79  1  0
 79 80  2  0
  8 81  1  0
 81 82  1  0
  5 83  2  0
 83 84  1  0
 84 85  2  0
 85 86  1  0
 86 87  1  0
 87 88  1  0
 88 89  2  0
 89 90  1  0
 90 91  2  0
 91 92  1  0
 91 93  1  0
 93 94  2  0
 85  3  1  0
 94 88  1  0
 82  6  1  0
 80 18  1  0
 73 22  2  0
 78 23  1  0
 36 27  1  0
 42 38  1  0
 53 44  1  0
 76 55  1  0
 68 59  1  0
 74 70  1  0
  1 95  1  0
  1 96  1  0
  1 97  1  0
  4 98  1  0
  6 99  1  6
  7100  1  0
  7101  1  0
  8102  1  6
 11103  1  0
 12104  1  0
 12105  1  0
 13106  1  0
 13107  1  0
 14108  1  0
 14109  1  0
 15110  1  0
 19111  1  0
 20112  1  0
 39113  1  0
 40114  1  0
 42115  1  0
 71116  1  0
 72117  1  0
 74118  1  0
 75119  1  0
 76120  1  0
 77121  1  0
 78122  1  0
 79123  1  0
 80124  1  0
 81125  1  0
 81126  1  0
 83127  1  0
 84128  1  0
 87129  1  0
 87130  1  0
 89131  1  0
 90132  1  0
 93133  1  0
 94134  1  0
M  CHG  1   7   1
M  END
>  <meeko>  (2) 
{"free_energy": -16.9}

$$$$

     RDKit          3D

134145  0  0  0  0  0  0  0  0999 V2000
   29.3910   26.5000   23.8860 C   0  0  0  0  0  0  0  0  0  0  0  0
   30.2380   25.4040   24.2780 O   0  0  0  0  0  0  0  0  0  0  0  0
   31.3370   25.2900   25.2710 C   0  0  0  0  0  0  0  0  0  0  0  0
   31.4500   26.5830   25.7370 C   0  0  0  0  0  0  0  0  0  0  0  0
   32.7060   27.1560   25.4960 C   0  0  0  0  0  0  0  0  0  0  0  0
   32.5940   28.5190   24.7580 C   0  0  2  0  0  0  0  0  0  0  0  0
   33.8000   29.3460   25.0130 N   0  0  0  0  0  4  0  0  0  0  0  0
   33.5560   30.2950   26.1340 C   0  0  2  0  0  0  0  0  0  0  0  0
   34.3710   30.0900   27.4650 C   0  0  0  0  0  0  0  0  0  0  0  0
   34.9900   29.0240   27.6110 O   0  0  0  0  0  0  0  0  0  0  0  0
   34.3980   30.9630   28.5360 N   0  0  0  0  0  0  0  0  0  0  0  0
   33.9280   32.3340   28.5300 C   0  0  0  0  0  0  0  0  0  0  0  0
   34.9160   33.5400   28.2010 C   0  0  0  0  0  0  0  0  0  0  0  0
   34.4860   35.4050   28.1210 C   0  0  0  0  0  0  0  0  0  0  0  0
   33.2900   36.4910   29.2800 N   0  0  0  0  0  0  0  0  0  0  0  0
   33.2840   36.8620   31.0570 C   0  0  0  0  0  0  0  0  0  0  0  0
   32.8400   37.9260   31.3910 O   0  0  0  0  0  0  0  0  0  0  0  0
   33.6520   35.5670   32.4260 C   0  0  0  0  0  0  0  0  0  0  0  0
   33.6090   34.1570   32.2030 C   0  0  0  0  0  0  0  0  0  0  0  0
   34.7910   33.2880   32.3010 C   0  0  0  0  0  0  0  0  0  0  0  0
   36.0010   33.7400   32.8270 C   0  0  0  0  0  0  0  0  0  0  0  0
   37.2990   32.8920   32.9210 C   0  0  0  0  0  0  0  0  0  0  0  0
   38.1880   33.1580   34.1260 C   0  0  0  0  0  0  0  0  0  0  0  0
   39.3140   32.5960   34.5010 N   0  0  0  0  0  0  0  0  0  0  0  0
   39.6940   33.2650   35.6580 C   0  0  0  0  0  0  0  0  0  0  0  0
   40.6440   32.9670   36.5750 C   0  0  0  0  0  0  0  0  0  0  0  0
   40.6840   33.8420   37.7940 C   0  0  0  0  0  0  0  0  0  0  0  0
   39.8800   33.5660   38.9150 C   0  0  0  0  0  0  0  0  0  0  0  0
   39.0680   32.4970   38.9170 F   0  0  0  0  0  0  0  0  0  0  0  0
   39.8390   34.4370   39.9970 C   0  0  0  0  0  0  0  0  0  0  0  0
   38.9910   34.2050   41.0080 F   0  0  0  0  0  0  0  0  0  0  0  0
   40.6440   35.5650   40.0080 C   0  0  0  0  0  0  0  0  0  0  0  0
   40.5990   36.4090   41.0490 F   0  0  0  0  0  0  0  0  0  0  0  0
   41.4830   35.8290   38.9350 C   0  0  0  0  0  0  0  0  0  0  0  0
   42.2690   36.9140   38.9520 F   0  0  0  0  0  0  0  0  0  0  0  0
   41.4940   34.9840   37.8300 C   0  0  0  0  0  0  0  0  0  0  0  0
   42.2810   35.2890   36.7870 F   0  0  0  0  0  0  0  0  0  0  0  0
   41.5700   31.8790   36.4870 C   0  0  0  0  0  0  0  0  0  0  0  0
   42.5250   31.4890   37.4080 C   0  0  0  0  0  0  0  0  0  0  0  0
   43.2510   30.4290   36.8590 C   0  0  0  0  0  0  0  0  0  0  0  0
   42.7000   30.1170   35.6290 C   0  0  0  0  0  0  0  0  0  0  0  0
   41.6720   31.0190   35.4090 N   0  0  0  0  0  0  0  0  0  0  0  0
   43.0780   29.0810   34.7050 C   0  0  0  0  0  0  0  0  0  0  0  0
   44.2050   28.1710   35.1140 C   0  0  0  0  0  0  0  0  0  0  0  0
   43.9810   26.9680   35.7970 C   0  0  0  0  0  0  0  0  0  0  0  0
   42.7440   26.6430   36.2050 F   0  0  0  0  0  0  0  0  0  0  0  0
   45.0300   26.0940   36.0780 C   0  0  0  0  0  0  0  0  0  0  0  0
   44.7950   24.9630   36.7590 F   0  0  0  0  0  0  0  0  0  0  0  0
   46.3170   26.3880   35.6530 C   0  0  0  0  0  0  0  0  0  0  0  0
   47.3200   25.5350   35.9010 F   0  0  0  0  0  0  0  0  0  0  0  0
   46.5630   27.5670   34.9670 C   0  0  0  0  0  0  0  0  0  0  0  0
   47.8000   27.8430   34.5320 F   0  0  0  0  0  0  0  0  0  0  0  0
   45.5220   28.4580   34.7140 C   0  0  0  0  0  0  0  0  0  0  0  0
   45.7950   29.5870   34.0430 F   0  0  0  0  0  0  0  0  0  0  0  0
   42.4650   28.8800   33.5130 C   0  0  0  0  0  0  0  0  0  0  0  0
   41.3770   29.5600   32.9650 N   0  0  0  0  0  0  0  0  0  0  0  0
   41.1450   29.0070   31.8000 C   0  0  0  0  0  0  0  0  0  0  0  0
   40.0330   29.2970   30.7960 C   0  0  0  0  0  0  0  0  0  0  0  0
   39.9870   28.4440   29.5510 C   0  0  0  0  0  0  0  0  0  0  0  0
   39.3640   27.1790   29.5510 C   0  0  0  0  0  0  0  0  0  0  0  0
   38.7430   26.7410   30.6550 F   0  0  0  0  0  0  0  0  0  0  0  0
   39.4510   26.3140   28.4530 C   0  0  0  0  0  0  0  0  0  0  0  0
   38.9090   25.0890   28.5190 F   0  0  0  0  0  0  0  0  0  0  0  0
   40.1330   26.7030   27.3130 C   0  0  0  0  0  0  0  0  0  0  0  0
   40.2250   25.8720   26.2640 F   0  0  0  0  0  0  0  0  0  0  0  0
   40.7380   27.9490   27.2740 C   0  0  0  0  0  0  0  0  0  0  0  0
   41.4050   28.3280   26.1740 F   0  0  0  0  0  0  0  0  0  0  0  0
   40.6760   28.8030   28.3820 C   0  0  0  0  0  0  0  0  0  0  0  0
   41.3250   29.9760   28.3210 F   0  0  0  0  0  0  0  0  0  0  0  0
   39.1030   30.2600   31.0510 C   0  0  0  0  0  0  0  0  0  0  0  0
   37.9570   30.5780   30.1960 C   0  0  0  0  0  0  0  0  0  0  0  0
   37.2010   31.5370   30.7790 C   0  0  0  0  0  0  0  0  0  0  0  0
   37.7860   31.9490   32.0520 C   0  0  0  0  0  0  0  0  0  0  0  0
   38.9350   31.1440   32.1120 N   0  0  0  0  0  0  0  0  0  0  0  0
   42.1130   27.9390   31.4640 C   0  0  0  0  0  0  0  0  0  0  0  0
   42.8540   27.8680   32.5620 C   0  0  0  0  0  0  0  0  0  0  0  0
   38.7820   34.3690   35.8260 C   0  0  0  0  0  0  0  0  0  0  0  0
   37.7560   34.2500   35.0080 C   0  0  0  0  0  0  0  0  0  0  0  0
   35.8210   34.9530   33.5210 C   0  0  0  0  0  0  0  0  0  0  0  0
   34.5970   35.7430   33.4710 C   0  0  0  0  0  0  0  0  0  0  0  0
   32.0500   30.4270   26.4230 C   0  0  0  0  0  0  0  0  0  0  0  0
   31.1760   29.5300   25.1180 S   0  0  0  0  0  0  0  0  0  0  0  0
   33.9080   26.3380   25.4160 C   0  0  0  0  0  0  0  0  0  0  0  0
   33.9320   24.9330   25.1700 C   0  0  0  0  0  0  0  0  0  0  0  0
   32.6910   24.3790   24.9340 C   0  0  0  0  0  0  0  0  0  0  0  0
   32.7410   22.7350   24.2470 O   0  0  0  0  0  0  0  0  0  0  0  0
   34.1460   21.4530   24.5870 C   0  0  0  0  0  0  0  0  0  0  0  0
   36.0740   21.9460   24.6950 C   0  0  0  0  0  0  0  0  0  0  0  0
   37.1640   21.0290   24.8400 C   0  0  0  0  0  0  0  0  0  0  0  0
   38.4370   21.2340   25.5270 C   0  0  0  0  0  0  0  0  0  0  0  0
   38.8220   22.4360   26.0760 C   0  0  0  0  0  0  0  0  0  0  0  0
   40.2860   22.6360   26.9410 Cl  0  0  0  0  0  0  0  0  0  0  0  0
   37.9160   23.4350   26.0060 C   0  0  0  0  0  0  0  0  0  0  0  0
   36.6430   23.1490   25.4360 C   0  0  0  0  0  0  0  0  0  0  0  0
   29.0026   27.0026   24.7841 H   0  0  0  0  0  0  0  0  0  0  0  0
   29.9723   27.2166   23.2872 H   0  0  0  0  0  0  0  0  0  0  0  0
   28.5509   26.1182   23.2872 H   0  0  0  0  0  0  0  0  0  0  0  0
   30.6332   27.1133   26.2484 H   0  0  0  0  0  0  0  0  0  0  0  0
   32.4862   28.2115   23.7074 H   0  0  0  0  0  0  0  0  0  0  0  0
   34.0280   29.8740   24.1700 H   0  0  0  0  0  0  0  0  0  0  0  0
   34.5730   28.7310   25.2630 H   0  0  0  0  0  0  0  0  0  0  0  0
   33.9668   31.2387   25.7459 H   0  0  0  0  0  0  0  0  0  0  0  0
   34.7710   30.6210   29.3810 H   0  0  0  0  0  0  0  0  0  0  0  0
   33.1171   32.3831   27.7884 H   0  0  0  0  0  0  0  0  0  0  0  0
   33.6782   32.5081   29.5870 H   0  0  0  0  0  0  0  0  0  0  0  0
   35.7118   33.4665   28.9568 H   0  0  0  0  0  0  0  0  0  0  0  0
   35.0685   33.3512   27.1281 H   0  0  0  0  0  0  0  0  0  0  0  0
   35.4611   35.9088   28.1945 H   0  0  0  0  0  0  0  0  0  0  0  0
   33.8340   35.3658   27.2359 H   0  0  0  0  0  0  0  0  0  0  0  0
   32.5490   36.9130   28.7900 H   0  0  0  0  0  0  0  0  0  0  0  0
   32.6432   33.6981   31.9450 H   0  0  0  0  0  0  0  0  0  0  0  0
   34.7187   32.2486   31.9483 H   0  0  0  0  0  0  0  0  0  0  0  0
   42.6852   31.9357   38.4004 H   0  0  0  0  0  0  0  0  0  0  0  0
   44.1127   29.9285   37.3248 H   0  0  0  0  0  0  0  0  0  0  0  0
   41.1000   31.0430   34.6080 H   0  0  0  0  0  0  0  0  0  0  0  0
   37.7429   30.1075   29.2250 H   0  0  0  0  0  0  0  0  0  0  0  0
   36.2743   31.9491   30.3531 H   0  0  0  0  0  0  0  0  0  0  0  0
   39.5780   31.2020   32.8530 H   0  0  0  0  0  0  0  0  0  0  0  0
   42.1968   27.3521   30.5374 H   0  0  0  0  0  0  0  0  0  0  0  0
   43.6578   27.1351   32.7253 H   0  0  0  0  0  0  0  0  0  0  0  0
   38.9231   35.1955   36.5380 H   0  0  0  0  0  0  0  0  0  0  0  0
   36.8166   34.8220   34.9902 H   0  0  0  0  0  0  0  0  0  0  0  0
   36.6529   35.3256   34.1366 H   0  0  0  0  0  0  0  0  0  0  0  0
   34.4021   36.4882   34.2563 H   0  0  0  0  0  0  0  0  0  0  0  0
   31.8145   29.9892   27.4043 H   0  0  0  0  0  0  0  0  0  0  0  0
   31.7466   31.4842   26.4416 H   0  0  0  0  0  0  0  0  0  0  0  0
   34.8747   26.8438   25.5565 H   0  0  0  0  0  0  0  0  0  0  0  0
   34.8600   24.3424   25.1686 H   0  0  0  0  0  0  0  0  0  0  0  0
   33.9000   20.9845   25.5514 H   0  0  0  0  0  0  0  0  0  0  0  0
   34.1257   20.8585   23.6617 H   0  0  0  0  0  0  0  0  0  0  0  0
   37.0250   20.0424   24.3738 H   0  0  0  0  0  0  0  0  0  0  0  0
   39.1259   20.3805   25.6101 H   0  0  0  0  0  0  0  0  0  0  0  0
   38.1549   24.4419   26.3790 H   0  0  0  0  0  0  0  0  0  0  0  0
   35.9189   23.9683   25.5559 H   0  0  0  0  0  0  0  0  0  0  0  0
  1  2  1  0
  2  3  1  0
  3  4  2  0
  4  5  1  0
  5  6  1  0
  6  7  1  0
  7  8  1  0
  8  9  1  0
  9 10  2  0
  9 11  1  0
 11 12  1  0
 12 13  1  0
 13 14  1  0
 14 15  1  0
 15 16  1  0
 16 17  2  0
 16 18  1  0
 18 19  2  0
 19 20  1  0
 20 21  2  0
 21 22  1  0
 22 23  1  0
 23 24  2  0
 24 25  1  0
 25 26  2  0
 26 27  1  0
 27 28  2  0
 28 29  1  0
 28 30  1  0
 30 31  1  0
 30 32  2  0
 32 33  1  0
 32 34  1  0
 34 35  1  0
 34 36  2  0
 36 37  1  0
 26 38  1  0
 38 39  2  0
 39 40  1  0
 40 41  2  0
 41 42  1  0
 41 43  1  0
 43 44  1  0
 44 45  2  0
 45 46  1  0
 45 47  1  0
 47 48  1  0
 47 49  2  0
 49 50  1  0
 49 51  1  0
 51 52  1  0
 51 53  2  0
 53 54  1  0
 43 55  2  0
 55 56  1  0
 56 57  2  0
 57 58  1  0
 58 59  1  0
 59 60  2  0
 60 61  1  0
 60 62  1  0
 62 63  1  0
 62 64  2  0
 64 65  1  0
 64 66  1  0
 66 67  1  0
 66 68  2  0
 68 69  1  0
 58 70  2  0
 70 71  1  0
 71 72  2  0
 72 73  1  0
 73 74  1  0
 57 75  1  0
 75 76  2  0
 25 77  1  0
 77 78  2  0
 21 79  1  0
 79 80  2  0
  8 81  1  0
 81 82  1  0
  5 83  2  0
 83 84  1  0
 84 85  2  0
 85 86  1  0
 86 87  1  0
 87 88  1  0
 88 89  2  0
 89 90  1  0
 90 91  2  0
 91 92  1  0
 91 93  1  0
 93 94  2  0
 85  3  1  0
 94 88  1  0
 82  6  1  0
 80 18  1  0
 73 22  2  0
 78 23  1  0
 36 27  1  0
 42 38  1  0
 53 44  1  0
 76 55  1  0
 68 59  1  0
 74 70  1  0
  1 95  1  0
  1 96  1  0
  1 97  1  0
  4 98  1  0
  6 99  1  6
  7100  1  0
  7101  1  0
  8102  1  6
 11103  1  0
 12104  1  0
 12105  1  0
 13106  1  0
 13107  1  0
 14108  1  0
 14109  1  0
 15110  1  0
 19111  1  0
 20112  1  0
 39113  1  0
 40114  1  0
 42115  1  0
 71116  1  0
 72117  1  0
 74118  1  0
 75119  1  0
 76120  1  0
 77121  1  0
 78122  1  0
 79123  1  0
 80124  1  0
 81125  1  0
 81126  1  0
 83127  1  0
 84128  1  0
 87129  1  0
 87130  1  0
 89131  1  0
 90132  1  0
 93133  1  0
 94134  1  0
M  CHG  1   7   1
M  END
>  <meeko>  (3) 
{"free_energy": -16.2}

$$$$

