
     RDKit          3D

123134  0  0  0  0  0  0  0  0999 V2000
   45.4240   37.9950   29.4800 O   0  0  0  0  0  0  0  0  0  0  0  0
   45.8250   37.7240   28.3460 C   0  0  0  0  0  0  0  0  0  0  0  0
   46.3230   39.0060   27.4270 O   0  0  0  0  0  0  0  0  0  0  0  0
   45.7770   39.8250   25.8690 C   0  0  0  0  0  0  0  0  0  0  0  0
   46.8300   39.8670   24.2670 C   0  0  0  0  0  0  0  0  0  0  0  0
   47.1450   41.1850   23.0760 O   0  0  0  0  0  0  0  0  0  0  0  0
   46.8290   41.8560   21.7690 C   0  0  0  0  0  0  0  0  0  0  0  0
   47.3970   41.3590   20.7810 O   0  0  0  0  0  0  0  0  0  0  0  0
   45.7260   43.3420   21.4100 C   0  0  0  0  0  0  0  0  0  0  0  0
   43.9050   43.5860   21.6360 N   0  0  0  0  0  0  0  0  0  0  0  0
   42.3420   43.5620   20.4180 C   0  0  0  0  0  0  0  0  0  0  0  0
   41.1510   43.8810   20.6450 O   0  0  0  0  0  0  0  0  0  0  0  0
   42.3240   43.2210   18.7160 C   0  0  0  0  0  0  0  0  0  0  0  0
   43.0940   43.7930   17.7490 N   0  0  0  0  0  0  0  0  0  0  0  0
   42.3970   44.9770   17.5770 C   0  0  0  0  0  0  0  0  0  0  0  0
   42.9160   46.9390   17.9770 C   0  0  0  0  0  0  0  0  0  0  0  0
   43.6960   48.2290   17.4510 C   0  0  0  0  0  0  0  0  0  0  0  0
   42.2600   48.3590   17.3400 C   0  0  0  0  0  0  0  0  0  0  0  0
   41.1050   44.4500   17.4040 N   0  0  0  0  0  0  0  0  0  0  0  0
   41.1010   43.2820   18.1000 N   0  0  0  0  0  0  0  0  0  0  0  0
   46.4840   44.4100   22.3110 C   0  0  0  0  0  0  0  0  0  0  0  0
   45.9850   45.8570   22.2650 C   0  0  0  0  0  0  0  0  0  0  0  0
   46.0840   46.4430   20.8760 C   0  0  0  0  0  0  0  0  0  0  0  0
   45.5180   45.4940   19.8300 C   0  0  0  0  0  0  0  0  0  0  0  0
   45.9870   44.0150   19.9750 C   0  0  0  0  0  0  0  0  0  0  0  0
   45.8890   35.9290   27.9120 C   0  0  0  0  0  0  0  0  0  0  0  0
   45.2110   35.0300   26.3710 C   0  0  0  0  0  0  0  0  0  0  0  0
   44.8680   33.2510   26.3500 C   0  0  0  0  0  0  0  0  0  0  0  0
   45.3440   32.2590   27.7380 C   0  0  0  0  0  0  0  0  0  0  0  0
   44.9960   30.8110   27.5060 C   0  0  0  0  0  0  0  0  0  0  0  0
   46.0290   29.7630   27.2160 C   0  0  0  0  0  0  0  0  0  0  0  0
   45.8720   28.4620   27.1740 N   0  0  0  0  0  0  0  0  0  0  0  0
   47.1430   27.9250   27.0540 C   0  0  0  0  0  0  0  0  0  0  0  0
   47.5000   26.6210   26.9880 C   0  0  0  0  0  0  0  0  0  0  0  0
   48.9500   26.3300   26.7440 C   0  0  0  0  0  0  0  0  0  0  0  0
   49.8600   26.0860   27.7790 C   0  0  0  0  0  0  0  0  0  0  0  0
   49.4630   26.1250   29.0600 F   0  0  0  0  0  0  0  0  0  0  0  0
   51.2090   25.8320   27.5140 C   0  0  0  0  0  0  0  0  0  0  0  0
   51.6680   25.8010   26.1970 C   0  0  0  0  0  0  0  0  0  0  0  0
   50.7760   26.0320   25.1540 C   0  0  0  0  0  0  0  0  0  0  0  0
   49.4360   26.3000   25.4310 C   0  0  0  0  0  0  0  0  0  0  0  0
   48.6140   26.5330   24.3980 F   0  0  0  0  0  0  0  0  0  0  0  0
   46.5710   25.5210   27.0290 C   0  0  0  0  0  0  0  0  0  0  0  0
   46.8260   24.1720   26.8540 C   0  0  0  0  0  0  0  0  0  0  0  0
   45.6080   23.4860   26.9070 C   0  0  0  0  0  0  0  0  0  0  0  0
   44.5970   24.3990   27.1590 C   0  0  0  0  0  0  0  0  0  0  0  0
   45.2070   25.6410   27.2580 N   0  0  0  0  0  0  0  0  0  0  0  0
   43.1830   24.1510   27.2910 C   0  0  0  0  0  0  0  0  0  0  0  0
   42.6790   22.7620   27.0990 C   0  0  0  0  0  0  0  0  0  0  0  0
   42.3560   21.9490   28.1920 C   0  0  0  0  0  0  0  0  0  0  0  0
   42.5160   22.4010   29.4450 F   0  0  0  0  0  0  0  0  0  0  0  0
   41.9140   20.6410   28.0140 C   0  0  0  0  0  0  0  0  0  0  0  0
   41.7590   20.1310   26.7260 C   0  0  0  0  0  0  0  0  0  0  0  0
   42.0600   20.9300   25.6240 C   0  0  0  0  0  0  0  0  0  0  0  0
   42.5270   22.2280   25.8150 C   0  0  0  0  0  0  0  0  0  0  0  0
   42.8300   22.9590   24.7310 F   0  0  0  0  0  0  0  0  0  0  0  0
   42.2460   25.0770   27.5930 C   0  0  0  0  0  0  0  0  0  0  0  0
   42.4310   26.4210   27.8270 N   0  0  0  0  0  0  0  0  0  0  0  0
   41.2420   26.9000   28.0910 C   0  0  0  0  0  0  0  0  0  0  0  0
   40.9050   28.2820   28.5000 C   0  0  0  0  0  0  0  0  0  0  0  0
   39.5250   28.7280   28.8250 C   0  0  0  0  0  0  0  0  0  0  0  0
   38.9540   28.5780   30.0910 C   0  0  0  0  0  0  0  0  0  0  0  0
   39.6560   28.0190   31.0870 F   0  0  0  0  0  0  0  0  0  0  0  0
   37.6390   28.9790   30.3500 C   0  0  0  0  0  0  0  0  0  0  0  0
   36.8730   29.5690   29.3460 C   0  0  0  0  0  0  0  0  0  0  0  0
   37.4280   29.7570   28.0840 C   0  0  0  0  0  0  0  0  0  0  0  0
   38.7310   29.3310   27.8330 C   0  0  0  0  0  0  0  0  0  0  0  0
   39.2220   29.5250   26.5980 F   0  0  0  0  0  0  0  0  0  0  0  0
   41.9170   29.1630   28.5040 C   0  0  0  0  0  0  0  0  0  0  0  0
   41.8020   30.4700   29.0960 C   0  0  0  0  0  0  0  0  0  0  0  0
   42.9190   31.1220   28.7960 C   0  0  0  0  0  0  0  0  0  0  0  0
   43.8270   30.3340   27.9950 C   0  0  0  0  0  0  0  0  0  0  0  0
   43.1990   29.1130   27.9890 N   0  0  0  0  0  0  0  0  0  0  0  0
   40.1530   25.9280   28.0220 C   0  0  0  0  0  0  0  0  0  0  0  0
   40.8260   24.8180   27.7520 C   0  0  0  0  0  0  0  0  0  0  0  0
   48.0660   29.0370   27.0170 C   0  0  0  0  0  0  0  0  0  0  0  0
   47.4230   30.1960   27.0850 C   0  0  0  0  0  0  0  0  0  0  0  0
   46.1300   33.0280   29.1790 C   0  0  0  0  0  0  0  0  0  0  0  0
   46.3790   34.8380   29.2720 C   0  0  0  0  0  0  0  0  0  0  0  0
   44.8286   39.3414   25.5922 H   0  0  0  0  0  0  0  0  0  0  0  0
   45.7976   40.8840   26.1659 H   0  0  0  0  0  0  0  0  0  0  0  0
   47.8351   39.5785   24.6083 H   0  0  0  0  0  0  0  0  0  0  0  0
   46.1338   39.2906   23.6401 H   0  0  0  0  0  0  0  0  0  0  0  0
   43.6580   43.7690   22.5710 H   0  0  0  0  0  0  0  0  0  0  0  0
   43.0602   46.2693   18.8377 H   0  0  0  0  0  0  0  0  0  0  0  0
   44.2293   48.8580   18.1790 H   0  0  0  0  0  0  0  0  0  0  0  0
   44.5018   48.3473   16.7116 H   0  0  0  0  0  0  0  0  0  0  0  0
   41.7203   49.0566   17.9973 H   0  0  0  0  0  0  0  0  0  0  0  0
   41.5649   48.5904   16.5195 H   0  0  0  0  0  0  0  0  0  0  0  0
   40.3740   42.6200   18.1500 H   0  0  0  0  0  0  0  0  0  0  0  0
   46.4127   44.0701   23.3548 H   0  0  0  0  0  0  0  0  0  0  0  0
   47.5025   44.4521   21.8977 H   0  0  0  0  0  0  0  0  0  0  0  0
   44.9335   45.8810   22.5870 H   0  0  0  0  0  0  0  0  0  0  0  0
   46.6184   46.4576   22.9344 H   0  0  0  0  0  0  0  0  0  0  0  0
   45.5200   47.3869   20.8450 H   0  0  0  0  0  0  0  0  0  0  0  0
   47.1464   46.6146   20.6482 H   0  0  0  0  0  0  0  0  0  0  0  0
   44.4208   45.5150   19.9054 H   0  0  0  0  0  0  0  0  0  0  0  0
   45.8902   45.8452   18.8563 H   0  0  0  0  0  0  0  0  0  0  0  0
   45.4576   43.4164   19.2191 H   0  0  0  0  0  0  0  0  0  0  0  0
   47.0791   44.0313   19.8443 H   0  0  0  0  0  0  0  0  0  0  0  0
   45.0209   35.6152   25.4592 H   0  0  0  0  0  0  0  0  0  0  0  0
   44.3691   32.7916   25.4839 H   0  0  0  0  0  0  0  0  0  0  0  0
   51.9088   25.6565   28.3443 H   0  0  0  0  0  0  0  0  0  0  0  0
   52.7275   25.5954   25.9844 H   0  0  0  0  0  0  0  0  0  0  0  0
   51.1278   26.0032   24.1122 H   0  0  0  0  0  0  0  0  0  0  0  0
   47.8158   23.7176   26.6998 H   0  0  0  0  0  0  0  0  0  0  0  0
   45.4752   22.4025   26.7712 H   0  0  0  0  0  0  0  0  0  0  0  0
   44.7410   26.4850   27.4600 H   0  0  0  0  0  0  0  0  0  0  0  0
   41.6877   20.0116   28.8873 H   0  0  0  0  0  0  0  0  0  0  0  0
   41.4003   19.1015   26.5796 H   0  0  0  0  0  0  0  0  0  0  0  0
   41.9289   20.5359   24.6054 H   0  0  0  0  0  0  0  0  0  0  0  0
   37.2076   28.8280   31.3505 H   0  0  0  0  0  0  0  0  0  0  0  0
   35.8387   29.8833   29.5496 H   0  0  0  0  0  0  0  0  0  0  0  0
   36.8413   30.2394   27.2884 H   0  0  0  0  0  0  0  0  0  0  0  0
   40.9542   30.8537   29.6825 H   0  0  0  0  0  0  0  0  0  0  0  0
   43.1302   32.1511   29.1221 H   0  0  0  0  0  0  0  0  0  0  0  0
   43.6180   28.2880   27.6540 H   0  0  0  0  0  0  0  0  0  0  0  0
   39.0715   26.0765   28.1570 H   0  0  0  0  0  0  0  0  0  0  0  0
   40.3654   23.8233   27.6598 H   0  0  0  0  0  0  0  0  0  0  0  0
   49.1588   28.9357   26.9422 H   0  0  0  0  0  0  0  0  0  0  0  0
   47.8307   31.2171   27.0517 H   0  0  0  0  0  0  0  0  0  0  0  0
   46.4637   32.3941   30.0137 H   0  0  0  0  0  0  0  0  0  0  0  0
   46.8360   35.2729   30.1731 H   0  0  0  0  0  0  0  0  0  0  0  0
  1  2  2  0
  2  3  1  0
  3  4  1  0
  4  5  1  0
  5  6  1  0
  6  7  1  0
  7  8  2  0
  7  9  1  0
  9 10  1  0
 10 11  1  0
 11 12  2  0
 11 13  1  0
 13 14  2  0
 14 15  1  0
 15 16  1  0
 16 17  1  0
 17 18  1  0
 15 19  2  0
 19 20  1  0
  9 21  1  0
 21 22  1  0
 22 23  1  0
 23 24  1  0
 24 25  1  0
  2 26  1  0
 26 27  2  0
 27 28  1  0
 28 29  2  0
 29 30  1  0
 30 31  1  0
 31 32  2  0
 32 33  1  0
 33 34  2  0
 34 35  1  0
 35 36  2  0
 36 37  1  0
 36 38  1  0
 38 39  2  0
 39 40  1  0
 40 41  2  0
 41 42  1  0
 34 43  1  0
 43 44  2  0
 44 45  1  0
 45 46  2  0
 46 47  1  0
 46 48  1  0
 48 49  1  0
 49 50  2  0
 50 51  1  0
 50 52  1  0
 52 53  2  0
 53 54  1  0
 54 55  2  0
 55 56  1  0
 48 57  2  0
 57 58  1  0
 58 59  2  0
 59 60  1  0
 60 61  1  0
 61 62  2  0
 62 63  1  0
 62 64  1  0
 64 65  2  0
 65 66  1  0
 66 67  2  0
 67 68  1  0
 60 69  2  0
 69 70  1  0
 70 71  2  0
 71 72  1  0
 72 73  1  0
 59 74  1  0
 74 75  2  0
 33 76  1  0
 76 77  2  0
 29 78  1  0
 78 79  2  0
 25  9  1  0
 79 26  1  0
 20 13  1  0
 72 30  2  0
 18 16  1  0
 77 31  1  0
 41 35  1  0
 47 43  1  0
 55 49  1  0
 75 57  1  0
 67 61  1  0
 73 69  1  0
  4 80  1  0
  4 81  1  0
  5 82  1  0
  5 83  1  0
 10 84  1  0
 16 85  1  0
 17 86  1  0
 17 87  1  0
 18 88  1  0
 18 89  1  0
 20 90  1  0
 21 91  1  0
 21 92  1  0
 22 93  1  0
 22 94  1  0
 23 95  1  0
 23 96  1  0
 24 97  1  0
 24 98  1  0
 25 99  1  0
 25100  1  0
 27101  1  0
 28102  1  0
 38103  1  0
 39104  1  0
 40105  1  0
 44106  1  0
 45107  1  0
 47108  1  0
 52109  1  0
 53110  1  0
 54111  1  0
 64112  1  0
 65113  1  0
 66114  1  0
 70115  1  0
 71116  1  0
 73117  1  0
 74118  1  0
 75119  1  0
 76120  1  0
 77121  1  0
 78122  1  0
 79123  1  0
M  END
>  <meeko>  (1) 
{"free_energy": -17.0}

$$$$

     RDKit          3D

123134  0  0  0  0  0  0  0  0999 V2000
   45.4710   38.8350   30.1690 O   0  0  0  0  0  0  0  0  0  0  0  0
   45.1240   37.9180   30.9180 C   0  0  0  0  0  0  0  0  0  0  0  0
   44.4660   38.3750   32.3650 O   0  0  0  0  0  0  0  0  0  0  0  0
   43.2820   37.6560   33.5810 C   0  0  0  0  0  0  0  0  0  0  0  0
   43.3810   35.8490   34.2170 C   0  0  0  0  0  0  0  0  0  0  0  0
   42.5880   34.3340   33.6440 O   0  0  0  0  0  0  0  0  0  0  0  0
   41.3470   33.5030   33.4750 C   0  0  0  0  0  0  0  0  0  0  0  0
   41.3460   32.4370   34.1140 O   0  0  0  0  0  0  0  0  0  0  0  0
   39.8130   33.8240   32.4260 C   0  0  0  0  0  0  0  0  0  0  0  0
   38.4040   35.0000   32.6630 N   0  0  0  0  0  0  0  0  0  0  0  0
   36.4970   34.7950   33.1640 C   0  0  0  0  0  0  0  0  0  0  0  0
   35.5780   35.6470   33.1620 O   0  0  0  0  0  0  0  0  0  0  0  0
   35.6580   33.3350   33.5840 C   0  0  0  0  0  0  0  0  0  0  0  0
   35.5790   32.1870   32.8550 N   0  0  0  0  0  0  0  0  0  0  0  0
   34.5960   32.5600   31.9540 C   0  0  0  0  0  0  0  0  0  0  0  0
   34.6600   32.8650   29.9090 C   0  0  0  0  0  0  0  0  0  0  0  0
   33.9930   33.6150   28.6670 C   0  0  0  0  0  0  0  0  0  0  0  0
   35.2610   34.1930   29.0550 C   0  0  0  0  0  0  0  0  0  0  0  0
   33.6320   33.0340   32.8620 N   0  0  0  0  0  0  0  0  0  0  0  0
   34.3410   33.4740   33.9350 N   0  0  0  0  0  0  0  0  0  0  0  0
   40.5440   34.1950   31.0640 C   0  0  0  0  0  0  0  0  0  0  0  0
   39.6650   34.4530   29.8370 C   0  0  0  0  0  0  0  0  0  0  0  0
   38.8400   33.2410   29.4690 C   0  0  0  0  0  0  0  0  0  0  0  0
   38.1520   32.6470   30.6880 C   0  0  0  0  0  0  0  0  0  0  0  0
   39.0670   32.4870   31.9390 C   0  0  0  0  0  0  0  0  0  0  0  0
   45.3120   36.2050   30.2520 C   0  0  0  0  0  0  0  0  0  0  0  0
   44.8460   35.5150   28.5350 C   0  0  0  0  0  0  0  0  0  0  0  0
   44.5830   33.7480   28.2310 C   0  0  0  0  0  0  0  0  0  0  0  0
   44.9450   32.5830   29.5140 C   0  0  0  0  0  0  0  0  0  0  0  0
   44.6870   31.1740   29.0480 C   0  0  0  0  0  0  0  0  0  0  0  0
   45.7860   30.1780   28.8240 C   0  0  0  0  0  0  0  0  0  0  0  0
   45.6770   28.8910   28.5950 N   0  0  0  0  0  0  0  0  0  0  0  0
   46.9640   28.3810   28.6430 C   0  0  0  0  0  0  0  0  0  0  0  0
   47.3650   27.0990   28.4840 C   0  0  0  0  0  0  0  0  0  0  0  0
   48.8430   26.8500   28.4740 C   0  0  0  0  0  0  0  0  0  0  0  0
   49.6330   27.0080   27.3290 C   0  0  0  0  0  0  0  0  0  0  0  0
   49.0790   27.3760   26.1640 F   0  0  0  0  0  0  0  0  0  0  0  0
   51.0060   26.7520   27.3550 C   0  0  0  0  0  0  0  0  0  0  0  0
   51.6200   26.3480   28.5400 C   0  0  0  0  0  0  0  0  0  0  0  0
   50.8530   26.1950   29.6930 C   0  0  0  0  0  0  0  0  0  0  0  0
   49.4800   26.4380   29.6510 C   0  0  0  0  0  0  0  0  0  0  0  0
   48.7750   26.2620   30.7780 F   0  0  0  0  0  0  0  0  0  0  0  0
   46.4760   25.9960   28.2200 C   0  0  0  0  0  0  0  0  0  0  0  0
   46.7970   24.6810   27.9310 C   0  0  0  0  0  0  0  0  0  0  0  0
   45.6100   23.9860   27.6770 C   0  0  0  0  0  0  0  0  0  0  0  0
   44.5440   24.8540   27.8510 C   0  0  0  0  0  0  0  0  0  0  0  0
   45.0900   26.0780   28.2110 N   0  0  0  0  0  0  0  0  0  0  0  0
   43.1380   24.5820   27.6930 C   0  0  0  0  0  0  0  0  0  0  0  0
   42.7170   23.2250   27.2430 C   0  0  0  0  0  0  0  0  0  0  0  0
   42.3200   22.2470   28.1620 C   0  0  0  0  0  0  0  0  0  0  0  0
   42.3320   22.5070   29.4780 F   0  0  0  0  0  0  0  0  0  0  0  0
   41.9560   20.9690   27.7450 C   0  0  0  0  0  0  0  0  0  0  0  0
   41.9550   20.6570   26.3870 C   0  0  0  0  0  0  0  0  0  0  0  0
   42.3320   21.6230   25.4540 C   0  0  0  0  0  0  0  0  0  0  0  0
   42.7200   22.8890   25.8850 C   0  0  0  0  0  0  0  0  0  0  0  0
   43.1000   23.7850   24.9610 F   0  0  0  0  0  0  0  0  0  0  0  0
   42.1350   25.4570   27.9300 C   0  0  0  0  0  0  0  0  0  0  0  0
   42.2360   26.7620   28.3570 N   0  0  0  0  0  0  0  0  0  0  0  0
   41.0050   27.1960   28.4570 C   0  0  0  0  0  0  0  0  0  0  0  0
   40.5600   28.5140   28.9640 C   0  0  0  0  0  0  0  0  0  0  0  0
   39.1310   28.9060   29.0850 C   0  0  0  0  0  0  0  0  0  0  0  0
   38.4000   29.4580   28.0310 C   0  0  0  0  0  0  0  0  0  0  0  0
   38.9760   29.6490   26.8360 F   0  0  0  0  0  0  0  0  0  0  0  0
   37.0670   29.8470   28.1940 C   0  0  0  0  0  0  0  0  0  0  0  0
   36.4250   29.6630   29.4180 C   0  0  0  0  0  0  0  0  0  0  0  0
   37.1220   29.0880   30.4760 C   0  0  0  0  0  0  0  0  0  0  0  0
   38.4570   28.7270   30.3070 C   0  0  0  0  0  0  0  0  0  0  0  0
   39.0920   28.1840   31.3580 F   0  0  0  0  0  0  0  0  0  0  0  0
   41.5280   29.3930   29.2600 C   0  0  0  0  0  0  0  0  0  0  0  0
   41.2710   30.6140   29.9770 C   0  0  0  0  0  0  0  0  0  0  0  0
   42.4050   31.3070   29.9670 C   0  0  0  0  0  0  0  0  0  0  0  0
   43.4640   30.6310   29.2540 C   0  0  0  0  0  0  0  0  0  0  0  0
   42.8830   29.4170   28.9840 N   0  0  0  0  0  0  0  0  0  0  0  0
   39.9740   26.2330   28.0720 C   0  0  0  0  0  0  0  0  0  0  0  0
   40.7170   25.1700   27.7950 C   0  0  0  0  0  0  0  0  0  0  0  0
   47.8460   29.4950   28.9110 C   0  0  0  0  0  0  0  0  0  0  0  0
   47.1670   30.6320   29.0020 C   0  0  0  0  0  0  0  0  0  0  0  0
   45.5350   33.1620   31.1280 C   0  0  0  0  0  0  0  0  0  0  0  0
   45.6950   34.9470   31.4970 C   0  0  0  0  0  0  0  0  0  0  0  0
   43.3464   38.2930   34.4754 H   0  0  0  0  0  0  0  0  0  0  0  0
   42.3578   37.6226   32.9854 H   0  0  0  0  0  0  0  0  0  0  0  0
   44.4548   35.6148   34.1703 H   0  0  0  0  0  0  0  0  0  0  0  0
   42.7550   35.9923   35.1101 H   0  0  0  0  0  0  0  0  0  0  0  0
   38.6590   35.9370   32.5050 H   0  0  0  0  0  0  0  0  0  0  0  0
   34.7488   31.8054   30.1907 H   0  0  0  0  0  0  0  0  0  0  0  0
   33.9249   33.0867   27.7045 H   0  0  0  0  0  0  0  0  0  0  0  0
   32.9966   34.0600   28.5287 H   0  0  0  0  0  0  0  0  0  0  0  0
   36.1398   34.0742   28.4041 H   0  0  0  0  0  0  0  0  0  0  0  0
   35.5992   35.2025   29.3316 H   0  0  0  0  0  0  0  0  0  0  0  0
   33.9830   33.8190   34.7850 H   0  0  0  0  0  0  0  0  0  0  0  0
   41.1337   35.1059   31.2442 H   0  0  0  0  0  0  0  0  0  0  0  0
   41.1282   33.2992   30.8066 H   0  0  0  0  0  0  0  0  0  0  0  0
   38.9873   35.2915   30.0552 H   0  0  0  0  0  0  0  0  0  0  0  0
   40.3248   34.6864   28.9883 H   0  0  0  0  0  0  0  0  0  0  0  0
   38.0756   33.5376   28.7357 H   0  0  0  0  0  0  0  0  0  0  0  0
   39.5124   32.4801   29.0460 H   0  0  0  0  0  0  0  0  0  0  0  0
   37.3113   33.3021   30.9600 H   0  0  0  0  0  0  0  0  0  0  0  0
   37.8359   31.6328   30.4027 H   0  0  0  0  0  0  0  0  0  0  0  0
   38.4443   32.1245   32.7702 H   0  0  0  0  0  0  0  0  0  0  0  0
   39.8630   31.7877   31.6434 H   0  0  0  0  0  0  0  0  0  0  0  0
   44.7325   36.2178   27.6964 H   0  0  0  0  0  0  0  0  0  0  0  0
   44.2021   33.4026   27.2586 H   0  0  0  0  0  0  0  0  0  0  0  0
   51.6038   26.8693   26.4391 H   0  0  0  0  0  0  0  0  0  0  0  0
   52.7020   26.1515   28.5643 H   0  0  0  0  0  0  0  0  0  0  0  0
   51.3291   25.8833   30.6344 H   0  0  0  0  0  0  0  0  0  0  0  0
   47.8111   24.2557   27.9055 H   0  0  0  0  0  0  0  0  0  0  0  0
   45.5353   22.9274   27.3875 H   0  0  0  0  0  0  0  0  0  0  0  0
   44.5710   26.8860   28.4260 H   0  0  0  0  0  0  0  0  0  0  0  0
   41.6700   20.2078   28.4858 H   0  0  0  0  0  0  0  0  0  0  0  0
   41.6579   19.6523   26.0518 H   0  0  0  0  0  0  0  0  0  0  0  0
   42.3228   21.3852   24.3801 H   0  0  0  0  0  0  0  0  0  0  0  0
   36.5222   30.3003   27.3527 H   0  0  0  0  0  0  0  0  0  0  0  0
   35.3764   29.9698   29.5461 H   0  0  0  0  0  0  0  0  0  0  0  0
   36.6216   28.9193   31.4410 H   0  0  0  0  0  0  0  0  0  0  0  0
   40.3210   30.9151   30.4426 H   0  0  0  0  0  0  0  0  0  0  0  0
   42.5242   32.2885   30.4492 H   0  0  0  0  0  0  0  0  0  0  0  0
   43.3800   28.6440   28.6330 H   0  0  0  0  0  0  0  0  0  0  0  0
   38.8820   26.3565   28.0251 H   0  0  0  0  0  0  0  0  0  0  0  0
   40.3100   24.1917   27.4995 H   0  0  0  0  0  0  0  0  0  0  0  0
   48.9369   29.4112   29.0246 H   0  0  0  0  0  0  0  0  0  0  0  0
   47.5442   31.6519   29.1682 H   0  0  0  0  0  0  0  0  0  0  0  0
   45.8019   32.4257   31.9004 H   0  0  0  0  0  0  0  0  0  0  0  0
   46.0308   35.2625   32.4958 H   0  0  0  0  0  0  0  0  0  0  0  0
  1  2  2  0
  2  3  1  0
  3  4  1  0
  4  5  1  0
  5  6  1  0
  6  7  1  0
  7  8  2  0
  7  9  1  0
  9 10  1  0
 10 11  1  0
 11 12  2  0
 11 13  1  0
 13 14  2  0
 14 15  1  0
 15 16  1  0
 16 17  1  0
 17 18  1  0
 15 19  2  0
 19 20  1  0
  9 21  1  0
 21 22  1  0
 22 23  1  0
 23 24  1  0
 24 25  1  0
  2 26  1  0
 26 27  2  0
 27 28  1  0
 28 29  2  0
 29 30  1  0
 30 31  1  0
 31 32  2  0
 32 33  1  0
 33 34  2  0
 34 35  1  0
 35 36  2  0
 36 37  1  0
 36 38  1  0
 38 39  2  0
 39 40  1  0
 40 41  2  0
 41 42  1  0
 34 43  1  0
 43 44  2  0
 44 45  1  0
 45 46  2  0
 46 47  1  0
 46 48  1  0
 48 49  1  0
 49 50  2  0
 50 51  1  0
 50 52  1  0
 52 53  2  0
 53 54  1  0
 54 55  2  0
 55 56  1  0
 48 57  2  0
 57 58  1  0
 58 59  2  0
 59 60  1  0
 60 61  1  0
 61 62  2  0
 62 63  1  0
 62 64  1  0
 64 65  2  0
 65 66  1  0
 66 67  2  0
 67 68  1  0
 60 69  2  0
 69 70  1  0
 70 71  2  0
 71 72  1  0
 72 73  1  0
 59 74  1  0
 74 75  2  0
 33 76  1  0
 76 77  2  0
 29 78  1  0
 78 79  2  0
 25  9  1  0
 79 26  1  0
 20 13  1  0
 72 30  2  0
 18 16  1  0
 77 31  1  0
 41 35  1  0
 47 43  1  0
 55 49  1  0
 75 57  1  0
 67 61  1  0
 73 69  1  0
  4 80  1  0
  4 81  1  0
  5 82  1  0
  5 83  1  0
 10 84  1  0
 16 85  1  0
 17 86  1  0
 17 87  1  0
 18 88  1  0
 18 89  1  0
 20 90  1  0
 21 91  1  0
 21 92  1  0
 22 93  1  0
 22 94  1  0
 23 95  1  0
 23 96  1  0
 24 97  1  0
 24 98  1  0
 25 99  1  0
 25100  1  0
 27101  1  0
 28102  1  0
 38103  1  0
 39104  1  0
 40105  1  0
 44106  1  0
 45107  1  0
 47108  1  0
 52109  1  0
 53110  1  0
 54111  1  0
 64112  1  0
 65113  1  0
 66114  1  0
 70115  1  0
 71116  1  0
 73117  1  0
 74118  1  0
 75119  1  0
 76120  1  0
 77121  1  0
 78122  1  0
 79123  1  0
M  END
>  <meeko>  (2) 
{"free_energy": -17.0}

$$$$

     RDKit          3D

123134  0  0  0  0  0  0  0  0999 V2000
   45.9860   38.7370   29.1430 O   0  0  0  0  0  0  0  0  0  0  0  0
   44.9600   38.1890   28.7310 C   0  0  0  0  0  0  0  0  0  0  0  0
   43.6290   39.1600   28.5850 O   0  0  0  0  0  0  0  0  0  0  0  0
   42.0770   39.1580   27.5910 C   0  0  0  0  0  0  0  0  0  0  0  0
   41.6600   40.4870   26.2720 C   0  0  0  0  0  0  0  0  0  0  0  0
   42.6710   41.2630   24.9950 O   0  0  0  0  0  0  0  0  0  0  0  0
   42.8710   42.3610   23.9880 C   0  0  0  0  0  0  0  0  0  0  0  0
   41.8370   42.7170   23.3970 O   0  0  0  0  0  0  0  0  0  0  0  0
   44.4500   43.2560   23.4750 C   0  0  0  0  0  0  0  0  0  0  0  0
   44.9130   44.0860   21.8880 N   0  0  0  0  0  0  0  0  0  0  0  0
   44.1950   44.0450   20.0400 C   0  0  0  0  0  0  0  0  0  0  0  0
   44.6690   44.5400   18.9910 O   0  0  0  0  0  0  0  0  0  0  0  0
   42.8080   43.1800   19.4570 C   0  0  0  0  0  0  0  0  0  0  0  0
   42.1880   43.3240   18.2540 N   0  0  0  0  0  0  0  0  0  0  0  0
   41.4390   44.4590   18.5210 C   0  0  0  0  0  0  0  0  0  0  0  0
   41.5440   46.3770   17.7550 C   0  0  0  0  0  0  0  0  0  0  0  0
   42.4570   47.6740   17.5690 C   0  0  0  0  0  0  0  0  0  0  0  0
   42.3060   46.9160   16.3470 C   0  0  0  0  0  0  0  0  0  0  0  0
   40.8330   44.0460   19.7210 N   0  0  0  0  0  0  0  0  0  0  0  0
   41.7120   43.1720   20.2800 N   0  0  0  0  0  0  0  0  0  0  0  0
   44.4770   44.3470   24.6310 C   0  0  0  0  0  0  0  0  0  0  0  0
   45.6840   45.2880   24.6870 C   0  0  0  0  0  0  0  0  0  0  0  0
   46.9780   44.5330   24.8910 C   0  0  0  0  0  0  0  0  0  0  0  0
   47.0830   43.3450   23.9470 C   0  0  0  0  0  0  0  0  0  0  0  0
   45.7970   42.4700   23.8580 C   0  0  0  0  0  0  0  0  0  0  0  0
   45.1190   36.4090   28.2610 C   0  0  0  0  0  0  0  0  0  0  0  0
   44.4990   35.5100   26.6970 C   0  0  0  0  0  0  0  0  0  0  0  0
   44.2470   33.7160   26.6370 C   0  0  0  0  0  0  0  0  0  0  0  0
   44.7630   32.7200   28.0080 C   0  0  0  0  0  0  0  0  0  0  0  0
   44.4910   31.2630   27.7440 C   0  0  0  0  0  0  0  0  0  0  0  0
   45.5610   30.2990   27.3230 C   0  0  0  0  0  0  0  0  0  0  0  0
   45.4860   28.9930   27.2380 N   0  0  0  0  0  0  0  0  0  0  0  0
   46.7740   28.5490   26.9880 C   0  0  0  0  0  0  0  0  0  0  0  0
   47.2080   27.2760   26.8360 C   0  0  0  0  0  0  0  0  0  0  0  0
   48.6470   27.0940   26.4590 C   0  0  0  0  0  0  0  0  0  0  0  0
   49.6850   27.1020   27.3980 C   0  0  0  0  0  0  0  0  0  0  0  0
   49.4260   27.2980   28.6990 F   0  0  0  0  0  0  0  0  0  0  0  0
   51.0170   26.9430   27.0070 C   0  0  0  0  0  0  0  0  0  0  0  0
   51.3340   26.7550   25.6620 C   0  0  0  0  0  0  0  0  0  0  0  0
   50.3140   26.7350   24.7140 C   0  0  0  0  0  0  0  0  0  0  0  0
   48.9900   26.9100   25.1140 C   0  0  0  0  0  0  0  0  0  0  0  0
   48.0390   26.9010   24.1670 F   0  0  0  0  0  0  0  0  0  0  0  0
   46.3600   26.1140   26.9070 C   0  0  0  0  0  0  0  0  0  0  0  0
   46.6850   24.7930   26.6540 C   0  0  0  0  0  0  0  0  0  0  0  0
   45.5230   24.0240   26.7790 C   0  0  0  0  0  0  0  0  0  0  0  0
   44.4810   24.8550   27.1550 C   0  0  0  0  0  0  0  0  0  0  0  0
   45.0160   26.1320   27.2560 N   0  0  0  0  0  0  0  0  0  0  0  0
   43.1030   24.5070   27.3950 C   0  0  0  0  0  0  0  0  0  0  0  0
   42.6760   23.0940   27.1850 C   0  0  0  0  0  0  0  0  0  0  0  0
   42.4620   22.5840   25.8990 C   0  0  0  0  0  0  0  0  0  0  0  0
   42.6180   23.3690   24.8220 F   0  0  0  0  0  0  0  0  0  0  0  0
   42.0330   21.2740   25.7030 C   0  0  0  0  0  0  0  0  0  0  0  0
   41.8380   20.4370   26.8010 C   0  0  0  0  0  0  0  0  0  0  0  0
   42.0600   20.9220   28.0890 C   0  0  0  0  0  0  0  0  0  0  0  0
   42.4640   22.2430   28.2740 C   0  0  0  0  0  0  0  0  0  0  0  0
   42.6440   22.6810   29.5290 F   0  0  0  0  0  0  0  0  0  0  0  0
   42.1380   25.3540   27.8140 C   0  0  0  0  0  0  0  0  0  0  0  0
   42.2550   26.6980   28.0890 N   0  0  0  0  0  0  0  0  0  0  0  0
   41.0650   27.0840   28.4730 C   0  0  0  0  0  0  0  0  0  0  0  0
   40.6750   28.4230   28.9670 C   0  0  0  0  0  0  0  0  0  0  0  0
   39.3020   28.7610   29.4270 C   0  0  0  0  0  0  0  0  0  0  0  0
   38.8570   28.5330   30.7310 C   0  0  0  0  0  0  0  0  0  0  0  0
   39.6800   27.9960   31.6420 F   0  0  0  0  0  0  0  0  0  0  0  0
   37.5460   28.8330   31.1170 C   0  0  0  0  0  0  0  0  0  0  0  0
   36.6560   29.3980   30.2040 C   0  0  0  0  0  0  0  0  0  0  0  0
   37.0830   29.6620   28.9070 C   0  0  0  0  0  0  0  0  0  0  0  0
   38.3850   29.3370   28.5290 C   0  0  0  0  0  0  0  0  0  0  0  0
   38.7500   29.6030   27.2640 F   0  0  0  0  0  0  0  0  0  0  0  0
   41.6240   29.3710   28.9240 C   0  0  0  0  0  0  0  0  0  0  0  0
   41.4760   30.6430   29.5800 C   0  0  0  0  0  0  0  0  0  0  0  0
   42.5180   31.3820   29.2150 C   0  0  0  0  0  0  0  0  0  0  0  0
   43.4020   30.6880   28.3080 C   0  0  0  0  0  0  0  0  0  0  0  0
   42.8570   29.4290   28.3020 N   0  0  0  0  0  0  0  0  0  0  0  0
   40.0380   26.0430   28.4530 C   0  0  0  0  0  0  0  0  0  0  0  0
   40.7570   24.9920   28.0790 C   0  0  0  0  0  0  0  0  0  0  0  0
   47.6160   29.7220   26.9220 C   0  0  0  0  0  0  0  0  0  0  0  0
   46.9070   30.8310   27.0940 C   0  0  0  0  0  0  0  0  0  0  0  0
   45.4980   33.4990   29.4710 C   0  0  0  0  0  0  0  0  0  0  0  0
   45.6540   35.3170   29.6030 C   0  0  0  0  0  0  0  0  0  0  0  0
   42.0610   38.1940   27.0614 H   0  0  0  0  0  0  0  0  0  0  0  0
   41.3276   39.3821   28.3644 H   0  0  0  0  0  0  0  0  0  0  0  0
   40.8250   40.0434   25.7098 H   0  0  0  0  0  0  0  0  0  0  0  0
   41.6359   41.3467   26.9579 H   0  0  0  0  0  0  0  0  0  0  0  0
   45.6910   44.6820   21.9820 H   0  0  0  0  0  0  0  0  0  0  0  0
   40.6141   46.1821   18.3094 H   0  0  0  0  0  0  0  0  0  0  0  0
   41.9868   48.6661   17.6375 H   0  0  0  0  0  0  0  0  0  0  0  0
   43.3493   48.0253   18.1078 H   0  0  0  0  0  0  0  0  0  0  0  0
   41.7055   47.3230   15.5201 H   0  0  0  0  0  0  0  0  0  0  0  0
   43.0026   46.4671   15.6236 H   0  0  0  0  0  0  0  0  0  0  0  0
   41.5860   42.6430   21.1010 H   0  0  0  0  0  0  0  0  0  0  0  0
   43.5781   44.9706   24.5166 H   0  0  0  0  0  0  0  0  0  0  0  0
   44.5311   43.7660   25.5635 H   0  0  0  0  0  0  0  0  0  0  0  0
   45.7435   45.8468   23.7414 H   0  0  0  0  0  0  0  0  0  0  0  0
   45.5473   45.9676   25.5411 H   0  0  0  0  0  0  0  0  0  0  0  0
   47.8222   45.2133   24.7052 H   0  0  0  0  0  0  0  0  0  0  0  0
   46.9996   44.1566   25.9244 H   0  0  0  0  0  0  0  0  0  0  0  0
   47.3088   43.7261   22.9401 H   0  0  0  0  0  0  0  0  0  0  0  0
   47.8738   42.6957   24.3507 H   0  0  0  0  0  0  0  0  0  0  0  0
   45.9661   41.6960   23.0949 H   0  0  0  0  0  0  0  0  0  0  0  0
   45.6348   42.0686   24.8692 H   0  0  0  0  0  0  0  0  0  0  0  0
   44.2860   36.1038   25.7959 H   0  0  0  0  0  0  0  0  0  0  0  0
   43.7781   33.2502   25.7577 H   0  0  0  0  0  0  0  0  0  0  0  0
   51.8171   26.9662   27.7615 H   0  0  0  0  0  0  0  0  0  0  0  0
   52.3813   26.6236   25.3524 H   0  0  0  0  0  0  0  0  0  0  0  0
   50.5526   26.5814   23.6512 H   0  0  0  0  0  0  0  0  0  0  0  0
   47.6851   24.4128   26.3985 H   0  0  0  0  0  0  0  0  0  0  0  0
   45.4493   22.9400   26.6072 H   0  0  0  0  0  0  0  0  0  0  0  0
   44.5140   26.9330   27.5320 H   0  0  0  0  0  0  0  0  0  0  0  0
   41.8485   20.9005   24.6850 H   0  0  0  0  0  0  0  0  0  0  0  0
   41.5102   19.3977   26.6514 H   0  0  0  0  0  0  0  0  0  0  0  0
   41.9165   20.2631   28.9580 H   0  0  0  0  0  0  0  0  0  0  0  0
   37.2159   28.6223   32.1449 H   0  0  0  0  0  0  0  0  0  0  0  0
   35.6250   29.6329   30.5071 H   0  0  0  0  0  0  0  0  0  0  0  0
   36.3967   30.1251   28.1828 H   0  0  0  0  0  0  0  0  0  0  0  0
   40.6595   30.9447   30.2525 H   0  0  0  0  0  0  0  0  0  0  0  0
   42.6888   32.4106   29.5655 H   0  0  0  0  0  0  0  0  0  0  0  0
   43.2980   28.6470   27.8980 H   0  0  0  0  0  0  0  0  0  0  0  0
   38.9648   26.1121   28.6843 H   0  0  0  0  0  0  0  0  0  0  0  0
   40.3561   23.9723   27.9818 H   0  0  0  0  0  0  0  0  0  0  0  0
   48.7025   29.6987   26.7515 H   0  0  0  0  0  0  0  0  0  0  0  0
   47.2429   31.8782   27.0707 H   0  0  0  0  0  0  0  0  0  0  0  0
   45.8573   32.8659   30.2957 H   0  0  0  0  0  0  0  0  0  0  0  0
   46.0816   35.7559   30.5165 H   0  0  0  0  0  0  0  0  0  0  0  0
  1  2  2  0
  2  3  1  0
  3  4  1  0
  4  5  1  0
  5  6  1  0
  6  7  1  0
  7  8  2  0
  7  9  1  0
  9 10  1  0
 10 11  1  0
 11 12  2  0
 11 13  1  0
 13 14  2  0
 14 15  1  0
 15 16  1  0
 16 17  1  0
 17 18  1  0
 15 19  2  0
 19 20  1  0
  9 21  1  0
 21 22  1  0
 22 23  1  0
 23 24  1  0
 24 25  1  0
  2 26  1  0
 26 27  2  0
 27 28  1  0
 28 29  2  0
 29 30  1  0
 30 31  1  0
 31 32  2  0
 32 33  1  0
 33 34  2  0
 34 35  1  0
 35 36  2  0
 36 37  1  0
 36 38  1  0
 38 39  2  0
 39 40  1  0
 40 41  2  0
 41 42  1  0
 34 43  1  0
 43 44  2  0
 44 45  1  0
 45 46  2  0
 46 47  1  0
 46 48  1  0
 48 49  1  0
 49 50  2  0
 50 51  1  0
 50 52  1  0
 52 53  2  0
 53 54  1  0
 54 55  2  0
 55 56  1  0
 48 57  2  0
 57 58  1  0
 58 59  2  0
 59 60  1  0
 60 61  1  0
 61 62  2  0
 62 63  1  0
 62 64  1  0
 64 65  2  0
 65 66  1  0
 66 67  2  0
 67 68  1  0
 60 69  2  0
 69 70  1  0
 70 71  2  0
 71 72  1  0
 72 73  1  0
 59 74  1  0
 74 75  2  0
 33 76  1  0
 76 77  2  0
 29 78  1  0
 78 79  2  0
 25  9  1  0
 79 26  1  0
 20 13  1  0
 72 30  2  0
 18 16  1  0
 77 31  1  0
 41 35  1  0
 47 43  1  0
 55 49  1  0
 75 57  1  0
 67 61  1  0
 73 69  1  0
  4 80  1  0
  4 81  1  0
  5 82  1  0
  5 83  1  0
 10 84  1  0
 16 85  1  0
 17 86  1  0
 17 87  1  0
 18 88  1  0
 18 89  1  0
 20 90  1  0
 21 91  1  0
 21 92  1  0
 22 93  1  0
 22 94  1  0
 23 95  1  0
 23 96  1  0
 24 97  1  0
 24 98  1  0
 25 99  1  0
 25100  1  0
 27101  1  0
 28102  1  0
 38103  1  0
 39104  1  0
 40105  1  0
 44106  1  0
 45107  1  0
 47108  1  0
 52109  1  0
 53110  1  0
 54111  1  0
 64112  1  0
 65113  1  0
 66114  1  0
 70115  1  0
 71116  1  0
 73117  1  0
 74118  1  0
 75119  1  0
 76120  1  0
 77121  1  0
 78122  1  0
 79123  1  0
M  END
>  <meeko>  (3) 
{"free_energy": -16.8}

$$$$

