
     RDKit          3D

142155  0  0  0  0  0  0  0  0999 V2000
   41.4670   19.3180   25.9640 O   0  0  0  0  0  0  0  0  0  0  0  0
   40.4100   19.9570   26.0040 C   0  0  0  0  0  0  0  0  0  0  0  0
   39.2510   19.3800   25.3560 O   0  0  0  0  0  0  0  0  0  0  0  0
   37.6790   19.4580   24.5890 C   0  0  0  0  0  0  0  0  0  0  0  0
   36.0240   18.6930   24.9650 C   0  0  0  0  0  0  0  0  0  0  0  0
   35.2910   17.1530   24.5630 O   0  0  0  0  0  0  0  0  0  0  0  0
   33.5870   16.6610   24.5900 C   0  0  0  0  0  0  0  0  0  0  0  0
   32.1910   17.9090   24.3100 C   0  0  0  0  0  0  0  0  0  0  0  0
   32.7600   19.7200   23.5700 O   0  0  0  0  0  0  0  0  0  0  0  0
   32.3570   21.0560   23.1610 C   0  0  0  0  0  0  0  0  0  0  0  0
   31.7040   21.3270   22.1350 O   0  0  0  0  0  0  0  0  0  0  0  0
   32.9030   22.2920   23.7450 C   0  0  0  0  0  0  0  0  0  0  0  0
   33.4260   23.0500   22.6440 C   0  0  0  0  0  0  0  0  0  0  0  0
   34.7930   23.3280   22.5460 C   0  0  0  0  0  0  0  0  0  0  0  0
   35.6220   23.0510   23.6190 C   0  0  0  0  0  0  0  0  0  0  0  0
   35.0770   22.5230   24.7930 C   0  0  0  0  0  0  0  0  0  0  0  0
   33.7250   22.1080   24.8740 C   0  0  0  0  0  0  0  0  0  0  0  0
   33.2720   21.6850   26.2400 C   0  0  0  0  0  0  0  0  0  0  0  0
   33.5950   20.5500   26.6030 O   0  0  0  0  0  0  0  0  0  0  0  0
   32.6170   22.4760   27.1640 N   0  0  0  0  0  0  0  0  0  0  0  0
   32.1120   23.7640   26.9790 C   0  0  0  0  0  0  0  0  0  0  0  0
   33.3580   24.9110   26.5440 C   0  0  0  0  0  0  0  0  0  0  0  0
   33.0450   26.2470   25.4320 C   0  0  0  0  0  0  0  0  0  0  0  0
   31.4020   26.6070   24.7730 C   0  0  0  0  0  0  0  0  0  0  0  0
   31.0550   28.2410   24.0200 N   0  0  0  0  0  0  0  0  0  0  0  0
   30.9840   29.5710   24.6820 C   0  0  0  0  0  0  0  0  0  0  0  0
   31.7580   30.1590   25.4210 O   0  0  0  0  0  0  0  0  0  0  0  0
   29.7680   30.2730   24.0720 C   0  0  1  0  0  0  0  0  0  0  0  0
   28.9680   31.5760   23.9130 C   0  0  2  0  0  0  0  0  0  0  0  0
   27.5220   31.1310   23.5030 C   0  0  0  0  0  0  0  0  0  0  0  0
   27.7590   30.4390   22.1360 C   0  0  0  0  0  0  0  0  0  0  0  0
   29.2240   30.8030   21.8180 C   0  0  1  0  0  0  0  0  0  0  0  0
   29.3540   32.1440   22.5430 C   0  0  0  0  0  0  0  0  0  0  0  0
   30.2410   30.0610   22.6790 C   0  0  2  0  0  0  0  0  0  0  0  0
   30.3690   28.5940   22.7580 C   0  0  0  0  0  0  0  0  0  0  0  0
   29.8060   28.0380   21.8230 O   0  0  0  0  0  0  0  0  0  0  0  0
   30.0860   25.2840   25.2640 C   0  0  0  0  0  0  0  0  0  0  0  0
   30.4570   23.9340   26.4160 C   0  0  0  0  0  0  0  0  0  0  0  0
   40.5230   21.2850   26.8990 C   0  0  0  0  0  0  0  0  0  0  0  0
   39.6650   22.3700   26.8030 C   0  0  0  0  0  0  0  0  0  0  0  0
   40.0460   23.6790   27.1440 C   0  0  0  0  0  0  0  0  0  0  0  0
   41.1640   23.9930   27.8920 C   0  0  0  0  0  0  0  0  0  0  0  0
   41.7620   25.4390   27.8580 C   0  0  0  0  0  0  0  0  0  0  0  0
   41.0600   26.6140   28.5820 C   0  0  0  0  0  0  0  0  0  0  0  0
   41.5140   27.8270   28.8500 N   0  0  0  0  0  0  0  0  0  0  0  0
   40.5420   28.4600   29.6270 C   0  0  0  0  0  0  0  0  0  0  0  0
   40.5290   29.6740   30.2300 C   0  0  0  0  0  0  0  0  0  0  0  0
   39.3480   29.9950   31.1000 C   0  0  0  0  0  0  0  0  0  0  0  0
   39.3080   29.6410   32.4550 C   0  0  0  0  0  0  0  0  0  0  0  0
   40.3390   29.0000   33.0230 F   0  0  0  0  0  0  0  0  0  0  0  0
   38.1940   29.9300   33.2490 C   0  0  0  0  0  0  0  0  0  0  0  0
   37.1020   30.6000   32.6990 C   0  0  0  0  0  0  0  0  0  0  0  0
   37.1300   30.9760   31.3580 C   0  0  0  0  0  0  0  0  0  0  0  0
   38.2420   30.6710   30.5720 C   0  0  0  0  0  0  0  0  0  0  0  0
   38.2250   31.0360   29.2820 F   0  0  0  0  0  0  0  0  0  0  0  0
   41.4900   30.7150   30.0140 C   0  0  0  0  0  0  0  0  0  0  0  0
   41.4340   32.0360   30.4270 C   0  0  0  0  0  0  0  0  0  0  0  0
   42.4730   32.7290   29.7990 C   0  0  0  0  0  0  0  0  0  0  0  0
   43.2180   31.8210   29.0690 C   0  0  0  0  0  0  0  0  0  0  0  0
   42.6320   30.5790   29.2510 N   0  0  0  0  0  0  0  0  0  0  0  0
   44.3610   32.0490   28.2280 C   0  0  0  0  0  0  0  0  0  0  0  0
   44.7630   33.4620   27.9450 C   0  0  0  0  0  0  0  0  0  0  0  0
   44.3050   34.1410   26.8080 C   0  0  0  0  0  0  0  0  0  0  0  0
   43.5490   33.5100   25.8980 F   0  0  0  0  0  0  0  0  0  0  0  0
   44.6340   35.4760   26.5750 C   0  0  0  0  0  0  0  0  0  0  0  0
   45.4100   36.1740   27.5000 C   0  0  0  0  0  0  0  0  0  0  0  0
   45.8710   35.5200   28.6410 C   0  0  0  0  0  0  0  0  0  0  0  0
   45.5580   34.1770   28.8490 C   0  0  0  0  0  0  0  0  0  0  0  0
   46.0220   33.5880   29.9620 F   0  0  0  0  0  0  0  0  0  0  0  0
   45.0960   31.0540   27.6770 C   0  0  0  0  0  0  0  0  0  0  0  0
   44.8960   29.6840   27.7730 N   0  0  0  0  0  0  0  0  0  0  0  0
   45.8260   29.1340   27.0370 C   0  0  0  0  0  0  0  0  0  0  0  0
   46.0660   27.6770   26.7530 C   0  0  0  0  0  0  0  0  0  0  0  0
   47.2890   27.2730   25.9760 C   0  0  0  0  0  0  0  0  0  0  0  0
   47.3520   27.3150   24.5770 C   0  0  0  0  0  0  0  0  0  0  0  0
   46.3010   27.7460   23.8630 F   0  0  0  0  0  0  0  0  0  0  0  0
   48.4750   26.8570   23.8740 C   0  0  0  0  0  0  0  0  0  0  0  0
   49.5860   26.3750   24.5630 C   0  0  0  0  0  0  0  0  0  0  0  0
   49.5540   26.3260   25.9520 C   0  0  0  0  0  0  0  0  0  0  0  0
   48.4100   26.7390   26.6350 C   0  0  0  0  0  0  0  0  0  0  0  0
   48.4160   26.6110   27.9710 F   0  0  0  0  0  0  0  0  0  0  0  0
   45.0850   26.7810   27.0190 C   0  0  0  0  0  0  0  0  0  0  0  0
   45.1800   25.3760   26.6610 C   0  0  0  0  0  0  0  0  0  0  0  0
   43.9640   24.8230   26.7480 C   0  0  0  0  0  0  0  0  0  0  0  0
   43.0280   25.7340   27.4170 C   0  0  0  0  0  0  0  0  0  0  0  0
   43.7960   26.8980   27.5160 N   0  0  0  0  0  0  0  0  0  0  0  0
   46.7320   30.1040   26.3960 C   0  0  0  0  0  0  0  0  0  0  0  0
   46.2550   31.2590   26.8400 C   0  0  0  0  0  0  0  0  0  0  0  0
   39.4390   27.5440   29.7320 C   0  0  0  0  0  0  0  0  0  0  0  0
   39.7040   26.4070   29.1120 C   0  0  0  0  0  0  0  0  0  0  0  0
   41.7070   22.8220   28.4580 C   0  0  0  0  0  0  0  0  0  0  0  0
   41.4660   21.4950   27.9110 C   0  0  0  0  0  0  0  0  0  0  0  0
   37.4593   20.5358   24.5795 H   0  0  0  0  0  0  0  0  0  0  0  0
   37.9283   18.7735   23.7648 H   0  0  0  0  0  0  0  0  0  0  0  0
   35.9821   18.7120   26.0640 H   0  0  0  0  0  0  0  0  0  0  0  0
   35.4602   19.2802   24.2252 H   0  0  0  0  0  0  0  0  0  0  0  0
   33.4744   15.8904   23.8132 H   0  0  0  0  0  0  0  0  0  0  0  0
   33.4406   16.3754   25.6421 H   0  0  0  0  0  0  0  0  0  0  0  0
   31.4767   17.4638   23.6017 H   0  0  0  0  0  0  0  0  0  0  0  0
   31.7660   18.1115   25.3042 H   0  0  0  0  0  0  0  0  0  0  0  0
   32.7412   23.4177   21.8656 H   0  0  0  0  0  0  0  0  0  0  0  0
   35.2058   23.7631   21.6239 H   0  0  0  0  0  0  0  0  0  0  0  0
   36.7025   23.2450   23.5485 H   0  0  0  0  0  0  0  0  0  0  0  0
   35.7180   22.4268   25.6817 H   0  0  0  0  0  0  0  0  0  0  0  0
   32.4910   22.0830   28.0590 H   0  0  0  0  0  0  0  0  0  0  0  0
   34.3639   24.7974   26.9745 H   0  0  0  0  0  0  0  0  0  0  0  0
   33.8863   26.8871   25.1278 H   0  0  0  0  0  0  0  0  0  0  0  0
   29.0503   29.9743   24.8503 H   0  0  0  0  0  0  0  0  0  0  0  0
   29.0944   32.2163   24.7984 H   0  0  0  0  0  0  0  0  0  0  0  0
   27.0994   30.4284   24.2363 H   0  0  0  0  0  0  0  0  0  0  0  0
   26.8042   31.9631   23.4547 H   0  0  0  0  0  0  0  0  0  0  0  0
   27.6298   29.3495   22.2158 H   0  0  0  0  0  0  0  0  0  0  0  0
   27.0517   30.7598   21.3571 H   0  0  0  0  0  0  0  0  0  0  0  0
   29.3955   30.6695   20.7397 H   0  0  0  0  0  0  0  0  0  0  0  0
   30.3756   32.5511   22.5171 H   0  0  0  0  0  0  0  0  0  0  0  0
   28.7778   32.9978   22.1569 H   0  0  0  0  0  0  0  0  0  0  0  0
   31.1737   30.4407   22.2364 H   0  0  0  0  0  0  0  0  0  0  0  0
   29.0772   25.3511   24.8306 H   0  0  0  0  0  0  0  0  0  0  0  0
   29.6700   23.2428   26.7519 H   0  0  0  0  0  0  0  0  0  0  0  0
   38.6396   22.1984   26.4436 H   0  0  0  0  0  0  0  0  0  0  0  0
   39.4130   24.5071   26.7925 H   0  0  0  0  0  0  0  0  0  0  0  0
   38.1791   29.6290   34.3069 H   0  0  0  0  0  0  0  0  0  0  0  0
   36.2238   30.8303   33.3201 H   0  0  0  0  0  0  0  0  0  0  0  0
   36.2762   31.5129   30.9190 H   0  0  0  0  0  0  0  0  0  0  0  0
   40.7008   32.4644   31.1262 H   0  0  0  0  0  0  0  0  0  0  0  0
   42.6648   33.8096   29.8727 H   0  0  0  0  0  0  0  0  0  0  0  0
   42.9770   29.7310   28.8920 H   0  0  0  0  0  0  0  0  0  0  0  0
   44.2816   35.9783   25.6620 H   0  0  0  0  0  0  0  0  0  0  0  0
   45.6563   37.2326   27.3303 H   0  0  0  0  0  0  0  0  0  0  0  0
   46.4816   36.0630   29.3774 H   0  0  0  0  0  0  0  0  0  0  0  0
   48.4791   26.8782   22.7742 H   0  0  0  0  0  0  0  0  0  0  0  0
   50.4777   26.0373   24.0145 H   0  0  0  0  0  0  0  0  0  0  0  0
   50.4288   25.9624   26.5111 H   0  0  0  0  0  0  0  0  0  0  0  0
   46.1012   24.8520   26.3664 H   0  0  0  0  0  0  0  0  0  0  0  0
   43.7025   23.8236   26.3701 H   0  0  0  0  0  0  0  0  0  0  0  0
   43.4490   27.7320   27.9060 H   0  0  0  0  0  0  0  0  0  0  0  0
   47.5828   29.9181   25.7239 H   0  0  0  0  0  0  0  0  0  0  0  0
   46.6852   32.2431   26.6022 H   0  0  0  0  0  0  0  0  0  0  0  0
   38.4981   27.7608   30.2590 H   0  0  0  0  0  0  0  0  0  0  0  0
   39.0632   25.5182   29.0155 H   0  0  0  0  0  0  0  0  0  0  0  0
   42.3407   22.9151   29.3523 H   0  0  0  0  0  0  0  0  0  0  0  0
   42.0370   20.6396   28.3012 H   0  0  0  0  0  0  0  0  0  0  0  0
  1  2  2  0
  2  3  1  0
  3  4  1  0
  4  5  1  0
  5  6  1  0
  6  7  1  0
  7  8  1  0
  8  9  1  0
  9 10  1  0
 10 11  2  0
 10 12  1  0
 12 13  2  0
 13 14  1  0
 14 15  2  0
 15 16  1  0
 16 17  2  0
 17 18  1  0
 18 19  2  0
 18 20  1  0
 20 21  1  0
 21 22  2  0
 22 23  1  0
 23 24  2  0
 24 25  1  0
 25 26  1  0
 26 27  2  0
 26 28  1  0
 28 29  1  0
 29 30  1  0
 30 31  1  0
 31 32  1  0
 32 33  1  0
 32 34  1  0
 34 35  1  0
 35 36  2  0
 24 37  1  0
 37 38  2  0
  2 39  1  0
 39 40  2  0
 40 41  1  0
 41 42  2  0
 42 43  1  0
 43 44  1  0
 44 45  2  0
 45 46  1  0
 46 47  2  0
 47 48  1  0
 48 49  2  0
 49 50  1  0
 49 51  1  0
 51 52  2  0
 52 53  1  0
 53 54  2  0
 54 55  1  0
 47 56  1  0
 56 57  2  0
 57 58  1  0
 58 59  2  0
 59 60  1  0
 59 61  1  0
 61 62  1  0
 62 63  2  0
 63 64  1  0
 63 65  1  0
 65 66  2  0
 66 67  1  0
 67 68  2  0
 68 69  1  0
 61 70  2  0
 70 71  1  0
 71 72  2  0
 72 73  1  0
 73 74  1  0
 74 75  2  0
 75 76  1  0
 75 77  1  0
 77 78  2  0
 78 79  1  0
 79 80  2  0
 80 81  1  0
 73 82  2  0
 82 83  1  0
 83 84  2  0
 84 85  1  0
 85 86  1  0
 72 87  1  0
 87 88  2  0
 46 89  1  0
 89 90  2  0
 42 91  1  0
 91 92  2  0
 17 12  1  0
 38 21  1  0
 92 39  1  0
 35 25  1  0
 85 43  2  0
 34 28  1  0
 90 44  1  0
 33 29  1  0
 54 48  1  0
 60 56  1  0
 68 62  1  0
 88 70  1  0
 80 74  1  0
 86 82  1  0
  4 93  1  0
  4 94  1  0
  5 95  1  0
  5 96  1  0
  7 97  1  0
  7 98  1  0
  8 99  1  0
  8100  1  0
 13101  1  0
 14102  1  0
 15103  1  0
 16104  1  0
 20105  1  0
 22106  1  0
 23107  1  0
 28108  1  6
 29109  1  1
 30110  1  0
 30111  1  0
 31112  1  0
 31113  1  0
 32114  1  6
 33115  1  0
 33116  1  0
 34117  1  1
 37118  1  0
 38119  1  0
 40120  1  0
 41121  1  0
 51122  1  0
 52123  1  0
 53124  1  0
 57125  1  0
 58126  1  0
 60127  1  0
 65128  1  0
 66129  1  0
 67130  1  0
 77131  1  0
 78132  1  0
 79133  1  0
 83134  1  0
 84135  1  0
 86136  1  0
 87137  1  0
 88138  1  0
 89139  1  0
 90140  1  0
 91141  1  0
 92142  1  0
M  END
>  <meeko>  (1) 
{"free_energy": -17.7}

$$$$

     RDKit          3D

142155  0  0  0  0  0  0  0  0999 V2000
   41.2510   19.6160   26.3570 O   0  0  0  0  0  0  0  0  0  0  0  0
   40.3270   20.4290   26.2500 C   0  0  0  0  0  0  0  0  0  0  0  0
   39.1880   20.0480   25.4410 O   0  0  0  0  0  0  0  0  0  0  0  0
   37.6720   20.3550   24.6200 C   0  0  0  0  0  0  0  0  0  0  0  0
   36.9290   21.8570   23.8070 C   0  0  0  0  0  0  0  0  0  0  0  0
   36.7900   23.5370   24.2830 O   0  0  0  0  0  0  0  0  0  0  0  0
   36.0630   24.2530   25.7340 C   0  0  0  0  0  0  0  0  0  0  0  0
   34.3610   25.0820   25.6840 C   0  0  0  0  0  0  0  0  0  0  0  0
   34.1140   26.5040   24.2460 O   0  0  0  0  0  0  0  0  0  0  0  0
   33.6020   27.8210   23.9040 C   0  0  0  0  0  0  0  0  0  0  0  0
   33.7180   28.3710   22.7910 O   0  0  0  0  0  0  0  0  0  0  0  0
   33.1280   28.8010   24.8960 C   0  0  0  0  0  0  0  0  0  0  0  0
   34.0790   28.7630   25.9700 C   0  0  0  0  0  0  0  0  0  0  0  0
   33.7040   28.3400   27.2500 C   0  0  0  0  0  0  0  0  0  0  0  0
   32.3640   28.1520   27.5380 C   0  0  0  0  0  0  0  0  0  0  0  0
   31.4040   28.4130   26.5560 C   0  0  0  0  0  0  0  0  0  0  0  0
   31.7590   28.7120   25.2180 C   0  0  0  0  0  0  0  0  0  0  0  0
   30.6140   29.0890   24.3260 C   0  0  0  0  0  0  0  0  0  0  0  0
   30.3340   30.2910   24.2620 O   0  0  0  0  0  0  0  0  0  0  0  0
   29.9090   28.2370   23.4990 N   0  0  0  0  0  0  0  0  0  0  0  0
   30.0060   26.8470   23.4240 C   0  0  0  0  0  0  0  0  0  0  0  0
   31.0150   26.3210   22.0960 C   0  0  0  0  0  0  0  0  0  0  0  0
   32.0400   24.8870   22.2170 C   0  0  0  0  0  0  0  0  0  0  0  0
   32.0210   23.7900   23.6520 C   0  0  0  0  0  0  0  0  0  0  0  0
   32.7340   22.1070   23.5280 N   0  0  0  0  0  0  0  0  0  0  0  0
   32.2890   20.9720   22.6760 C   0  0  0  0  0  0  0  0  0  0  0  0
   32.0680   20.8860   21.4790 O   0  0  0  0  0  0  0  0  0  0  0  0
   32.3600   19.7310   23.5690 C   0  0  1  0  0  0  0  0  0  0  0  0
   32.3010   18.1970   23.6650 C   0  0  2  0  0  0  0  0  0  0  0  0
   31.9440   17.8860   25.1600 C   0  0  0  0  0  0  0  0  0  0  0  0
   33.1670   18.4570   25.9230 C   0  0  0  0  0  0  0  0  0  0  0  0
   34.1620   18.7690   24.7870 C   0  0  1  0  0  0  0  0  0  0  0  0
   33.7560   17.7240   23.7480 C   0  0  0  0  0  0  0  0  0  0  0  0
   33.7750   19.9830   23.9480 C   0  0  2  0  0  0  0  0  0  0  0  0
   33.5760   21.3450   24.4760 C   0  0  0  0  0  0  0  0  0  0  0  0
   34.0710   21.4770   25.5880 O   0  0  0  0  0  0  0  0  0  0  0  0
   30.9150   24.4480   25.0910 C   0  0  0  0  0  0  0  0  0  0  0  0
   29.8770   25.9230   24.9120 C   0  0  0  0  0  0  0  0  0  0  0  0
   40.5420   21.7350   27.1590 C   0  0  0  0  0  0  0  0  0  0  0  0
   39.6770   22.8170   27.1920 C   0  0  0  0  0  0  0  0  0  0  0  0
   40.0920   24.1190   27.5180 C   0  0  0  0  0  0  0  0  0  0  0  0
   41.2900   24.4200   28.1380 C   0  0  0  0  0  0  0  0  0  0  0  0
   41.8770   25.8690   28.0700 C   0  0  0  0  0  0  0  0  0  0  0  0
   41.1730   27.0540   28.7760 C   0  0  0  0  0  0  0  0  0  0  0  0
   41.6200   28.2750   29.0160 N   0  0  0  0  0  0  0  0  0  0  0  0
   40.6490   28.9160   29.7880 C   0  0  0  0  0  0  0  0  0  0  0  0
   40.6320   30.1420   30.3670 C   0  0  0  0  0  0  0  0  0  0  0  0
   39.4550   30.4720   31.2390 C   0  0  0  0  0  0  0  0  0  0  0  0
   39.4600   30.2180   32.6170 C   0  0  0  0  0  0  0  0  0  0  0  0
   40.5320   29.6690   33.2050 F   0  0  0  0  0  0  0  0  0  0  0  0
   38.3500   30.5140   33.4140 C   0  0  0  0  0  0  0  0  0  0  0  0
   37.2170   31.0900   32.8440 C   0  0  0  0  0  0  0  0  0  0  0  0
   37.1990   31.3650   31.4780 C   0  0  0  0  0  0  0  0  0  0  0  0
   38.3070   31.0550   30.6890 C   0  0  0  0  0  0  0  0  0  0  0  0
   38.2460   31.3210   29.3770 F   0  0  0  0  0  0  0  0  0  0  0  0
   41.5830   31.1860   30.1220 C   0  0  0  0  0  0  0  0  0  0  0  0
   41.5210   32.5140   30.5090 C   0  0  0  0  0  0  0  0  0  0  0  0
   42.5500   33.2020   29.8590 C   0  0  0  0  0  0  0  0  0  0  0  0
   43.2960   32.2840   29.1420 C   0  0  0  0  0  0  0  0  0  0  0  0
   42.7210   31.0420   29.3530 N   0  0  0  0  0  0  0  0  0  0  0  0
   44.4310   32.5040   28.2870 C   0  0  0  0  0  0  0  0  0  0  0  0
   44.8200   33.9140   27.9730 C   0  0  0  0  0  0  0  0  0  0  0  0
   44.3140   34.5810   26.8500 C   0  0  0  0  0  0  0  0  0  0  0  0
   43.5190   33.9420   25.9800 F   0  0  0  0  0  0  0  0  0  0  0  0
   44.6320   35.9150   26.5900 C   0  0  0  0  0  0  0  0  0  0  0  0
   45.4480   36.6210   27.4730 C   0  0  0  0  0  0  0  0  0  0  0  0
   45.9570   35.9790   28.6000 C   0  0  0  0  0  0  0  0  0  0  0  0
   45.6540   34.6370   28.8350 C   0  0  0  0  0  0  0  0  0  0  0  0
   46.1650   34.0590   29.9320 F   0  0  0  0  0  0  0  0  0  0  0  0
   45.1690   31.5040   27.7510 C   0  0  0  0  0  0  0  0  0  0  0  0
   44.9790   30.1340   27.8760 N   0  0  0  0  0  0  0  0  0  0  0  0
   45.9080   29.5760   27.1430 C   0  0  0  0  0  0  0  0  0  0  0  0
   46.1570   28.1160   26.8870 C   0  0  0  0  0  0  0  0  0  0  0  0
   47.3760   27.7050   26.1090 C   0  0  0  0  0  0  0  0  0  0  0  0
   48.6140   27.4450   26.7120 C   0  0  0  0  0  0  0  0  0  0  0  0
   48.7530   27.5390   28.0420 F   0  0  0  0  0  0  0  0  0  0  0  0
   49.7550   27.1420   25.9560 C   0  0  0  0  0  0  0  0  0  0  0  0
   49.6750   27.0560   24.5680 C   0  0  0  0  0  0  0  0  0  0  0  0
   48.4590   27.3040   23.9410 C   0  0  0  0  0  0  0  0  0  0  0  0
   47.3440   27.6530   24.7040 C   0  0  0  0  0  0  0  0  0  0  0  0
   46.2140   27.9400   24.0390 F   0  0  0  0  0  0  0  0  0  0  0  0
   45.1840   27.2180   27.1790 C   0  0  0  0  0  0  0  0  0  0  0  0
   45.2870   25.8070   26.8480 C   0  0  0  0  0  0  0  0  0  0  0  0
   44.0760   25.2470   26.9550 C   0  0  0  0  0  0  0  0  0  0  0  0
   43.1380   26.1650   27.6130 C   0  0  0  0  0  0  0  0  0  0  0  0
   43.8980   27.3350   27.6830 N   0  0  0  0  0  0  0  0  0  0  0  0
   46.8020   30.5400   26.4770 C   0  0  0  0  0  0  0  0  0  0  0  0
   46.3200   31.7000   26.9010 C   0  0  0  0  0  0  0  0  0  0  0  0
   39.5540   27.9940   29.9200 C   0  0  0  0  0  0  0  0  0  0  0  0
   39.8230   26.8470   29.3200 C   0  0  0  0  0  0  0  0  0  0  0  0
   41.8990   23.2380   28.6050 C   0  0  0  0  0  0  0  0  0  0  0  0
   41.5970   21.9240   28.0570 C   0  0  0  0  0  0  0  0  0  0  0  0
   37.6695   19.6076   23.8129 H   0  0  0  0  0  0  0  0  0  0  0  0
   37.0656   20.4181   25.5356 H   0  0  0  0  0  0  0  0  0  0  0  0
   37.4605   21.9112   22.8454 H   0  0  0  0  0  0  0  0  0  0  0  0
   35.8830   21.5938   24.0232 H   0  0  0  0  0  0  0  0  0  0  0  0
   35.9924   23.4445   26.4765 H   0  0  0  0  0  0  0  0  0  0  0  0
   36.7325   25.1014   25.9390 H   0  0  0  0  0  0  0  0  0  0  0  0
   33.6078   24.2979   25.5171 H   0  0  0  0  0  0  0  0  0  0  0  0
   34.2537   25.6055   26.6455 H   0  0  0  0  0  0  0  0  0  0  0  0
   35.1185   29.0711   25.7842 H   0  0  0  0  0  0  0  0  0  0  0  0
   34.4679   28.1586   28.0204 H   0  0  0  0  0  0  0  0  0  0  0  0
   32.0559   27.7994   28.5334 H   0  0  0  0  0  0  0  0  0  0  0  0
   30.3393   28.3853   26.8312 H   0  0  0  0  0  0  0  0  0  0  0  0
   29.2590   28.6610   22.8910 H   0  0  0  0  0  0  0  0  0  0  0  0
   31.0114   26.8987   21.1599 H   0  0  0  0  0  0  0  0  0  0  0  0
   32.7183   24.6524   21.3834 H   0  0  0  0  0  0  0  0  0  0  0  0
   31.3086   19.7516   23.8916 H   0  0  0  0  0  0  0  0  0  0  0  0
   31.6617   17.7848   22.8704 H   0  0  0  0  0  0  0  0  0  0  0  0
   31.0155   18.3934   25.4608 H   0  0  0  0  0  0  0  0  0  0  0  0
   31.7649   16.8183   25.3550 H   0  0  0  0  0  0  0  0  0  0  0  0
   32.8985   19.3690   26.4763 H   0  0  0  0  0  0  0  0  0  0  0  0
   33.5705   17.7667   26.6785 H   0  0  0  0  0  0  0  0  0  0  0  0
   35.1724   18.8473   25.2147 H   0  0  0  0  0  0  0  0  0  0  0  0
   34.2983   17.8284   22.7967 H   0  0  0  0  0  0  0  0  0  0  0  0
   33.9420   16.6652   23.9810 H   0  0  0  0  0  0  0  0  0  0  0  0
   34.6401   20.0260   23.2700 H   0  0  0  0  0  0  0  0  0  0  0  0
   30.9148   23.9103   26.0506 H   0  0  0  0  0  0  0  0  0  0  0  0
   29.1868   26.2303   25.7115 H   0  0  0  0  0  0  0  0  0  0  0  0
   38.6168   22.6488   26.9519 H   0  0  0  0  0  0  0  0  0  0  0  0
   39.4205   24.9522   27.2635 H   0  0  0  0  0  0  0  0  0  0  0  0
   38.3714   30.2920   34.4912 H   0  0  0  0  0  0  0  0  0  0  0  0
   36.3424   31.3262   33.4679 H   0  0  0  0  0  0  0  0  0  0  0  0
   36.3109   31.8266   31.0217 H   0  0  0  0  0  0  0  0  0  0  0  0
   40.7904   32.9510   31.2056 H   0  0  0  0  0  0  0  0  0  0  0  0
   42.7343   34.2853   29.9091 H   0  0  0  0  0  0  0  0  0  0  0  0
   43.0690   30.1900   29.0080 H   0  0  0  0  0  0  0  0  0  0  0  0
   44.2391   36.4090   25.6891 H   0  0  0  0  0  0  0  0  0  0  0  0
   45.6882   37.6772   27.2813 H   0  0  0  0  0  0  0  0  0  0  0  0
   46.5976   36.5298   29.3045 H   0  0  0  0  0  0  0  0  0  0  0  0
   50.7173   26.9715   26.4609 H   0  0  0  0  0  0  0  0  0  0  0  0
   50.5637   26.7949   23.9747 H   0  0  0  0  0  0  0  0  0  0  0  0
   48.3762   27.2253   22.8469 H   0  0  0  0  0  0  0  0  0  0  0  0
   46.2099   25.2841   26.5569 H   0  0  0  0  0  0  0  0  0  0  0  0
   43.8191   24.2384   26.5991 H   0  0  0  0  0  0  0  0  0  0  0  0
   43.5480   28.1750   28.0590 H   0  0  0  0  0  0  0  0  0  0  0  0
   47.6495   30.3471   25.8028 H   0  0  0  0  0  0  0  0  0  0  0  0
   46.7412   32.6821   26.6399 H   0  0  0  0  0  0  0  0  0  0  0  0
   38.6158   28.2139   30.4504 H   0  0  0  0  0  0  0  0  0  0  0  0
   39.1883   25.9517   29.2456 H   0  0  0  0  0  0  0  0  0  0  0  0
   42.6348   23.3118   29.4193 H   0  0  0  0  0  0  0  0  0  0  0  0
   42.2114   21.0617   28.3554 H   0  0  0  0  0  0  0  0  0  0  0  0
  1  2  2  0
  2  3  1  0
  3  4  1  0
  4  5  1  0
  5  6  1  0
  6  7  1  0
  7  8  1  0
  8  9  1  0
  9 10  1  0
 10 11  2  0
 10 12  1  0
 12 13  2  0
 13 14  1  0
 14 15  2  0
 15 16  1  0
 16 17  2  0
 17 18  1  0
 18 19  2  0
 18 20  1  0
 20 21  1  0
 21 22  2  0
 22 23  1  0
 23 24  2  0
 24 25  1  0
 25 26  1  0
 26 27  2  0
 26 28  1  0
 28 29  1  0
 29 30  1  0
 30 31  1  0
 31 32  1  0
 32 33  1  0
 32 34  1  0
 34 35  1  0
 35 36  2  0
 24 37  1  0
 37 38  2  0
  2 39  1  0
 39 40  2  0
 40 41  1  0
 41 42  2  0
 42 43  1  0
 43 44  1  0
 44 45  2  0
 45 46  1  0
 46 47  2  0
 47 48  1  0
 48 49  2  0
 49 50  1  0
 49 51  1  0
 51 52  2  0
 52 53  1  0
 53 54  2  0
 54 55  1  0
 47 56  1  0
 56 57  2  0
 57 58  1  0
 58 59  2  0
 59 60  1  0
 59 61  1  0
 61 62  1  0
 62 63  2  0
 63 64  1  0
 63 65  1  0
 65 66  2  0
 66 67  1  0
 67 68  2  0
 68 69  1  0
 61 70  2  0
 70 71  1  0
 71 72  2  0
 72 73  1  0
 73 74  1  0
 74 75  2  0
 75 76  1  0
 75 77  1  0
 77 78  2  0
 78 79  1  0
 79 80  2  0
 80 81  1  0
 73 82  2  0
 82 83  1  0
 83 84  2  0
 84 85  1  0
 85 86  1  0
 72 87  1  0
 87 88  2  0
 46 89  1  0
 89 90  2  0
 42 91  1  0
 91 92  2  0
 17 12  1  0
 38 21  1  0
 92 39  1  0
 35 25  1  0
 85 43  2  0
 34 28  1  0
 90 44  1  0
 33 29  1  0
 54 48  1  0
 60 56  1  0
 68 62  1  0
 88 70  1  0
 80 74  1  0
 86 82  1  0
  4 93  1  0
  4 94  1  0
  5 95  1  0
  5 96  1  0
  7 97  1  0
  7 98  1  0
  8 99  1  0
  8100  1  0
 13101  1  0
 14102  1  0
 15103  1  0
 16104  1  0
 20105  1  0
 22106  1  0
 23107  1  0
 28108  1  1
 29109  1  6
 30110  1  0
 30111  1  0
 31112  1  0
 31113  1  0
 32114  1  1
 33115  1  0
 33116  1  0
 34117  1  6
 37118  1  0
 38119  1  0
 40120  1  0
 41121  1  0
 51122  1  0
 52123  1  0
 53124  1  0
 57125  1  0
 58126  1  0
 60127  1  0
 65128  1  0
 66129  1  0
 67130  1  0
 77131  1  0
 78132  1  0
 79133  1  0
 83134  1  0
 84135  1  0
 86136  1  0
 87137  1  0
 88138  1  0
 89139  1  0
 90140  1  0
 91141  1  0
 92142  1  0
M  END
>  <meeko>  (2) 
{"free_energy": -17.1}

$$$$

     RDKit          3D

142155  0  0  0  0  0  0  0  0999 V2000
   32.1990   34.8620   28.0240 O   0  0  0  0  0  0  0  0  0  0  0  0
   32.9250   33.8620   28.0500 C   0  0  0  0  0  0  0  0  0  0  0  0
   32.5670   32.7500   27.1930 O   0  0  0  0  0  0  0  0  0  0  0  0
   32.1460   31.0790   26.8830 C   0  0  0  0  0  0  0  0  0  0  0  0
   31.5000   30.1710   25.3910 C   0  0  0  0  0  0  0  0  0  0  0  0
   31.0340   28.5070   25.1050 O   0  0  0  0  0  0  0  0  0  0  0  0
   30.1960   27.7810   23.7210 C   0  0  0  0  0  0  0  0  0  0  0  0
   29.8130   25.9280   23.6560 C   0  0  0  0  0  0  0  0  0  0  0  0
   30.3550   24.8550   25.3020 O   0  0  0  0  0  0  0  0  0  0  0  0
   31.4360   24.2830   26.0870 C   0  0  0  0  0  0  0  0  0  0  0  0
   31.3070   23.7470   27.2040 O   0  0  0  0  0  0  0  0  0  0  0  0
   32.8630   24.5080   25.8040 C   0  0  0  0  0  0  0  0  0  0  0  0
   33.1720   25.8020   26.3420 C   0  0  0  0  0  0  0  0  0  0  0  0
   33.5640   26.8550   25.5090 C   0  0  0  0  0  0  0  0  0  0  0  0
   33.8580   26.5970   24.1810 C   0  0  0  0  0  0  0  0  0  0  0  0
   33.7840   25.2870   23.7000 C   0  0  0  0  0  0  0  0  0  0  0  0
   33.2630   24.2270   24.4820 C   0  0  0  0  0  0  0  0  0  0  0  0
   33.3740   22.8660   23.8610 C   0  0  0  0  0  0  0  0  0  0  0  0
   32.5280   22.5750   23.0100 O   0  0  0  0  0  0  0  0  0  0  0  0
   34.3850   21.9500   24.0770 N   0  0  0  0  0  0  0  0  0  0  0  0
   35.4200   22.0270   25.0100 C   0  0  0  0  0  0  0  0  0  0  0  0
   36.4180   20.5910   25.0180 C   0  0  0  0  0  0  0  0  0  0  0  0
   38.1570   20.6680   25.3170 C   0  0  0  0  0  0  0  0  0  0  0  0
   39.0050   22.1980   25.7680 C   0  0  0  0  0  0  0  0  0  0  0  0
   40.6800   22.1320   26.5080 N   0  0  0  0  0  0  0  0  0  0  0  0
   41.0670   21.7580   27.8950 C   0  0  0  0  0  0  0  0  0  0  0  0
   40.8070   20.7820   28.5800 O   0  0  0  0  0  0  0  0  0  0  0  0
   42.1310   22.7740   28.3160 C   0  0  1  0  0  0  0  0  0  0  0  0
   43.2020   23.1800   29.3430 C   0  0  2  0  0  0  0  0  0  0  0  0
   43.3940   24.7250   29.1570 C   0  0  0  0  0  0  0  0  0  0  0  0
   43.9300   24.8250   27.7060 C   0  0  0  0  0  0  0  0  0  0  0  0
   44.2250   23.3540   27.3490 C   0  0  1  0  0  0  0  0  0  0  0  0
   44.5480   22.7780   28.7280 C   0  0  0  0  0  0  0  0  0  0  0  0
   42.9720   22.5160   27.1190 C   0  0  2  0  0  0  0  0  0  0  0  0
   41.9360   22.8050   26.1100 C   0  0  0  0  0  0  0  0  0  0  0  0
   42.3380   23.5890   25.2590 O   0  0  0  0  0  0  0  0  0  0  0  0
   37.8540   23.7460   25.7060 C   0  0  0  0  0  0  0  0  0  0  0  0
   36.0720   23.6110   25.4000 C   0  0  0  0  0  0  0  0  0  0  0  0
   34.2220   34.0620   28.9740 C   0  0  0  0  0  0  0  0  0  0  0  0
   35.4950   34.3240   28.4910 C   0  0  0  0  0  0  0  0  0  0  0  0
   36.6640   33.9670   29.1840 C   0  0  0  0  0  0  0  0  0  0  0  0
   36.7000   33.6220   30.5210 C   0  0  0  0  0  0  0  0  0  0  0  0
   37.9160   32.8270   31.1030 C   0  0  0  0  0  0  0  0  0  0  0  0
   38.4690   33.1300   32.5180 C   0  0  0  0  0  0  0  0  0  0  0  0
   39.3210   32.4360   33.2530 N   0  0  0  0  0  0  0  0  0  0  0  0
   39.3950   33.0710   34.4940 C   0  0  0  0  0  0  0  0  0  0  0  0
   40.0540   32.7390   35.6310 C   0  0  0  0  0  0  0  0  0  0  0  0
   39.8160   33.6020   36.8380 C   0  0  0  0  0  0  0  0  0  0  0  0
   40.5450   34.7770   37.0630 C   0  0  0  0  0  0  0  0  0  0  0  0
   41.4860   35.1730   36.1940 F   0  0  0  0  0  0  0  0  0  0  0  0
   40.3260   35.5620   38.1990 C   0  0  0  0  0  0  0  0  0  0  0  0
   39.3530   35.1890   39.1250 C   0  0  0  0  0  0  0  0  0  0  0  0
   38.6070   34.0320   38.9100 C   0  0  0  0  0  0  0  0  0  0  0  0
   38.8430   33.2500   37.7790 C   0  0  0  0  0  0  0  0  0  0  0  0
   38.1140   32.1370   37.6150 F   0  0  0  0  0  0  0  0  0  0  0  0
   41.0430   31.7080   35.7440 C   0  0  0  0  0  0  0  0  0  0  0  0
   41.8970   31.4470   36.8020 C   0  0  0  0  0  0  0  0  0  0  0  0
   42.8330   30.4990   36.3780 C   0  0  0  0  0  0  0  0  0  0  0  0
   42.5030   30.1120   35.0920 C   0  0  0  0  0  0  0  0  0  0  0  0
   41.3720   30.8260   34.7330 N   0  0  0  0  0  0  0  0  0  0  0  0
   43.1770   29.1920   34.2180 C   0  0  0  0  0  0  0  0  0  0  0  0
   44.5050   28.6510   34.6440 C   0  0  0  0  0  0  0  0  0  0  0  0
   44.6090   27.4700   35.3900 C   0  0  0  0  0  0  0  0  0  0  0  0
   43.5070   26.8290   35.8080 F   0  0  0  0  0  0  0  0  0  0  0  0
   45.8500   26.9350   35.7380 C   0  0  0  0  0  0  0  0  0  0  0  0
   47.0210   27.5630   35.3180 C   0  0  0  0  0  0  0  0  0  0  0  0
   46.9410   28.7360   34.5690 C   0  0  0  0  0  0  0  0  0  0  0  0
   45.6940   29.2750   34.2510 C   0  0  0  0  0  0  0  0  0  0  0  0
   45.6640   30.4050   33.5280 F   0  0  0  0  0  0  0  0  0  0  0  0
   42.6750   28.7850   33.0280 C   0  0  0  0  0  0  0  0  0  0  0  0
   41.4890   29.1730   32.4180 N   0  0  0  0  0  0  0  0  0  0  0  0
   41.4600   28.5540   31.2670 C   0  0  0  0  0  0  0  0  0  0  0  0
   40.4220   28.6280   30.1810 C   0  0  0  0  0  0  0  0  0  0  0  0
   40.5390   27.7170   28.9910 C   0  0  0  0  0  0  0  0  0  0  0  0
   41.2810   28.0450   27.8490 C   0  0  0  0  0  0  0  0  0  0  0  0
   41.9470   29.2070   27.7830 F   0  0  0  0  0  0  0  0  0  0  0  0
   41.3080   27.2130   26.7210 C   0  0  0  0  0  0  0  0  0  0  0  0
   40.6150   26.0040   26.7230 C   0  0  0  0  0  0  0  0  0  0  0  0
   39.8730   25.6500   27.8440 C   0  0  0  0  0  0  0  0  0  0  0  0
   39.8160   26.5120   28.9400 C   0  0  0  0  0  0  0  0  0  0  0  0
   39.0360   26.1430   29.9680 F   0  0  0  0  0  0  0  0  0  0  0  0
   39.5240   29.6440   30.1940 C   0  0  0  0  0  0  0  0  0  0  0  0
   38.5700   29.8660   29.1210 C   0  0  0  0  0  0  0  0  0  0  0  0
   38.0550   31.0960   29.2470 C   0  0  0  0  0  0  0  0  0  0  0  0
   38.4200   31.6790   30.5440 C   0  0  0  0  0  0  0  0  0  0  0  0
   39.3290   30.7340   31.0270 N   0  0  0  0  0  0  0  0  0  0  0  0
   42.6300   27.6910   31.0230 C   0  0  0  0  0  0  0  0  0  0  0  0
   43.3270   27.8520   32.1390 C   0  0  0  0  0  0  0  0  0  0  0  0
   38.5710   34.2460   34.4040 C   0  0  0  0  0  0  0  0  0  0  0  0
   37.9880   34.3280   33.2210 C   0  0  0  0  0  0  0  0  0  0  0  0
   35.4620   33.9170   31.1260 C   0  0  0  0  0  0  0  0  0  0  0  0
   34.2240   34.0420   30.3720 C   0  0  0  0  0  0  0  0  0  0  0  0
   33.0743   30.5392   27.1214 H   0  0  0  0  0  0  0  0  0  0  0  0
   31.1836   31.1103   27.4147 H   0  0  0  0  0  0  0  0  0  0  0  0
   30.5935   30.7351   25.1263 H   0  0  0  0  0  0  0  0  0  0  0  0
   32.4684   30.1054   24.8734 H   0  0  0  0  0  0  0  0  0  0  0  0
   29.2301   28.3005   23.6359 H   0  0  0  0  0  0  0  0  0  0  0  0
   30.9316   27.8985   22.9116 H   0  0  0  0  0  0  0  0  0  0  0  0
   28.7277   25.8118   23.5192 H   0  0  0  0  0  0  0  0  0  0  0  0
   30.4128   25.5269   22.8258 H   0  0  0  0  0  0  0  0  0  0  0  0
   33.0994   25.9684   27.4269 H   0  0  0  0  0  0  0  0  0  0  0  0
   33.6380   27.8785   25.9053 H   0  0  0  0  0  0  0  0  0  0  0  0
   34.1480   27.4179   23.5087 H   0  0  0  0  0  0  0  0  0  0  0  0
   34.1416   25.0722   22.6821 H   0  0  0  0  0  0  0  0  0  0  0  0
   34.3740   21.1480   23.5050 H   0  0  0  0  0  0  0  0  0  0  0  0
   35.9499   19.6131   24.8317 H   0  0  0  0  0  0  0  0  0  0  0  0
   38.7487   19.7453   25.2247 H   0  0  0  0  0  0  0  0  0  0  0  0
   41.4429   23.4703   28.8176 H   0  0  0  0  0  0  0  0  0  0  0  0
   42.9465   22.7940   30.3408 H   0  0  0  0  0  0  0  0  0  0  0  0
   42.4391   25.2600   29.2656 H   0  0  0  0  0  0  0  0  0  0  0  0
   44.0639   25.1764   29.9037 H   0  0  0  0  0  0  0  0  0  0  0  0
   43.1725   25.2521   27.0323 H   0  0  0  0  0  0  0  0  0  0  0  0
   44.8077   25.4810   27.6101 H   0  0  0  0  0  0  0  0  0  0  0  0
   44.9203   23.3301   26.4969 H   0  0  0  0  0  0  0  0  0  0  0  0
   44.7081   21.6898   28.7142 H   0  0  0  0  0  0  0  0  0  0  0  0
   45.4666   23.1191   29.2279 H   0  0  0  0  0  0  0  0  0  0  0  0
   43.4368   21.5601   26.8357 H   0  0  0  0  0  0  0  0  0  0  0  0
   38.2933   24.7424   25.8613 H   0  0  0  0  0  0  0  0  0  0  0  0
   35.4188   24.4943   25.4568 H   0  0  0  0  0  0  0  0  0  0  0  0
   35.5942   34.8343   27.5216 H   0  0  0  0  0  0  0  0  0  0  0  0
   37.6118   33.9619   28.6257 H   0  0  0  0  0  0  0  0  0  0  0  0
   40.9208   36.4729   38.3619 H   0  0  0  0  0  0  0  0  0  0  0  0
   39.1753   35.8040   40.0195 H   0  0  0  0  0  0  0  0  0  0  0  0
   37.8320   33.7352   39.6320 H   0  0  0  0  0  0  0  0  0  0  0  0
   41.8477   31.9051   37.8009 H   0  0  0  0  0  0  0  0  0  0  0  0
   43.6846   30.1256   36.9656 H   0  0  0  0  0  0  0  0  0  0  0  0
   40.8790   30.7210   33.8890 H   0  0  0  0  0  0  0  0  0  0  0  0
   45.9039   26.0182   36.3434 H   0  0  0  0  0  0  0  0  0  0  0  0
   48.0015   27.1361   35.5757 H   0  0  0  0  0  0  0  0  0  0  0  0
   47.8599   29.2360   34.2291 H   0  0  0  0  0  0  0  0  0  0  0  0
   41.8786   27.5158   25.8306 H   0  0  0  0  0  0  0  0  0  0  0  0
   40.6546   25.3380   25.8484 H   0  0  0  0  0  0  0  0  0  0  0  0
   39.3320   24.6925   27.8671 H   0  0  0  0  0  0  0  0  0  0  0  0
   38.3127   29.1422   28.3337 H   0  0  0  0  0  0  0  0  0  0  0  0
   37.4432   31.5997   28.4841 H   0  0  0  0  0  0  0  0  0  0  0  0
   39.7930   30.8350   31.8890 H   0  0  0  0  0  0  0  0  0  0  0  0
   42.8639   27.0736   30.1432 H   0  0  0  0  0  0  0  0  0  0  0  0
   44.2766   27.3423   32.3590 H   0  0  0  0  0  0  0  0  0  0  0  0
   38.4429   34.9799   35.2133 H   0  0  0  0  0  0  0  0  0  0  0  0
   37.3054   35.1070   32.8506 H   0  0  0  0  0  0  0  0  0  0  0  0
   35.4302   34.0590   32.2163 H   0  0  0  0  0  0  0  0  0  0  0  0
   33.2697   34.1224   30.9131 H   0  0  0  0  0  0  0  0  0  0  0  0
  1  2  2  0
  2  3  1  0
  3  4  1  0
  4  5  1  0
  5  6  1  0
  6  7  1  0
  7  8  1  0
  8  9  1  0
  9 10  1  0
 10 11  2  0
 10 12  1  0
 12 13  2  0
 13 14  1  0
 14 15  2  0
 15 16  1  0
 16 17  2  0
 17 18  1  0
 18 19  2  0
 18 20  1  0
 20 21  1  0
 21 22  2  0
 22 23  1  0
 23 24  2  0
 24 25  1  0
 25 26  1  0
 26 27  2  0
 26 28  1  0
 28 29  1  0
 29 30  1  0
 30 31  1  0
 31 32  1  0
 32 33  1  0
 32 34  1  0
 34 35  1  0
 35 36  2  0
 24 37  1  0
 37 38  2  0
  2 39  1  0
 39 40  2  0
 40 41  1  0
 41 42  2  0
 42 43  1  0
 43 44  1  0
 44 45  2  0
 45 46  1  0
 46 47  2  0
 47 48  1  0
 48 49  2  0
 49 50  1  0
 49 51  1  0
 51 52  2  0
 52 53  1  0
 53 54  2  0
 54 55  1  0
 47 56  1  0
 56 57  2  0
 57 58  1  0
 58 59  2  0
 59 60  1  0
 59 61  1  0
 61 62  1  0
 62 63  2  0
 63 64  1  0
 63 65  1  0
 65 66  2  0
 66 67  1  0
 67 68  2  0
 68 69  1  0
 61 70  2  0
 70 71  1  0
 71 72  2  0
 72 73  1  0
 73 74  1  0
 74 75  2  0
 75 76  1  0
 75 77  1  0
 77 78  2  0
 78 79  1  0
 79 80  2  0
 80 81  1  0
 73 82  2  0
 82 83  1  0
 83 84  2  0
 84 85  1  0
 85 86  1  0
 72 87  1  0
 87 88  2  0
 46 89  1  0
 89 90  2  0
 42 91  1  0
 91 92  2  0
 17 12  1  0
 38 21  1  0
 92 39  1  0
 35 25  1  0
 85 43  2  0
 34 28  1  0
 90 44  1  0
 33 29  1  0
 54 48  1  0
 60 56  1  0
 68 62  1  0
 88 70  1  0
 80 74  1  0
 86 82  1  0
  4 93  1  0
  4 94  1  0
  5 95  1  0
  5 96  1  0
  7 97  1  0
  7 98  1  0
  8 99  1  0
  8100  1  0
 13101  1  0
 14102  1  0
 15103  1  0
 16104  1  0
 20105  1  0
 22106  1  0
 23107  1  0
 28108  1  6
 29109  1  1
 30110  1  0
 30111  1  0
 31112  1  0
 31113  1  0
 32114  1  6
 33115  1  0
 33116  1  0
 34117  1  1
 37118  1  0
 38119  1  0
 40120  1  0
 41121  1  0
 51122  1  0
 52123  1  0
 53124  1  0
 57125  1  0
 58126  1  0
 60127  1  0
 65128  1  0
 66129  1  0
 67130  1  0
 77131  1  0
 78132  1  0
 79133  1  0
 83134  1  0
 84135  1  0
 86136  1  0
 87137  1  0
 88138  1  0
 89139  1  0
 90140  1  0
 91141  1  0
 92142  1  0
M  END
>  <meeko>  (3) 
{"free_energy": -16.5}

$$$$

