
     RDKit          3D

136147  0  0  0  0  0  0  0  0999 V2000
   39.4000   19.2000   25.3740 O   0  0  0  0  0  0  0  0  0  0  0  0
   38.6740   20.1920   25.4530 C   0  0  0  0  0  0  0  0  0  0  0  0
   37.2910   20.1710   24.5670 O   0  0  0  0  0  0  0  0  0  0  0  0
   35.7610   21.1450   24.3260 C   0  0  0  0  0  0  0  0  0  0  0  0
   35.6500   22.9440   23.6370 C   0  0  0  0  0  0  0  0  0  0  0  0
   34.1300   24.0150   23.3910 O   0  0  0  0  0  0  0  0  0  0  0  0
   33.5480   25.3390   22.5380 C   0  0  0  0  0  0  0  0  0  0  0  0
   33.6430   25.4430   21.3090 O   0  0  0  0  0  0  0  0  0  0  0  0
   32.6510   26.7680   23.1470 C   0  0  2  0  0  0  0  0  0  0  0  0
   33.6850   27.8870   23.2750 C   0  0  0  0  0  0  0  0  0  0  0  0
   33.1720   29.2570   23.6550 C   0  0  0  0  0  0  0  0  0  0  0  0
   32.2730   29.3300   24.8630 C   0  0  0  0  0  0  0  0  0  0  0  0
   31.0310   28.4420   24.8650 C   0  0  0  0  0  0  0  0  0  0  0  0
   31.1040   26.8730   24.2340 C   0  0  2  0  0  0  0  0  0  0  0  0
   30.1850   25.0160   24.9350 N   0  0  0  0  0  0  0  0  0  0  0  0
   31.4410   23.6670   26.1430 S   0  0  0  0  0  6  0  0  0  0  0  0
   32.5370   24.5790   26.4520 O   0  0  0  0  0  0  0  0  0  0  0  0
   30.5190   23.4780   27.2590 O   0  0  0  0  0  0  0  0  0  0  0  0
   32.1200   21.7350   24.8260 C   0  0  0  0  0  0  0  0  0  0  0  0
   32.0090   21.4470   23.3580 C   0  0  0  0  0  0  0  0  0  0  0  0
   32.1520   20.1280   22.6310 C   0  0  0  0  0  0  0  0  0  0  0  0
   32.6010   18.9210   23.2290 C   0  0  0  0  0  0  0  0  0  0  0  0
   33.0740   17.6920   22.6750 C   0  0  0  0  0  0  0  0  0  0  0  0
   33.8250   16.7730   23.4480 C   0  0  0  0  0  0  0  0  0  0  0  0
   34.0010   16.9800   24.8010 C   0  0  0  0  0  0  0  0  0  0  0  0
   33.2750   18.0020   25.3750 C   0  0  0  0  0  0  0  0  0  0  0  0
   32.6210   19.0000   24.5780 C   0  0  0  0  0  0  0  0  0  0  0  0
   32.1640   20.2210   25.1930 C   0  0  0  0  0  0  0  0  0  0  0  0
   39.1660   21.4660   26.5880 C   0  0  0  0  0  0  0  0  0  0  0  0
   38.7190   23.3030   26.4440 C   0  0  0  0  0  0  0  0  0  0  0  0
   39.8760   24.6180   26.3730 C   0  0  0  0  0  0  0  0  0  0  0  0
   41.4290   24.3830   26.6980 C   0  0  0  0  0  0  0  0  0  0  0  0
   41.9560   25.8230   26.9230 C   0  0  0  0  0  0  0  0  0  0  0  0
   41.2140   26.7210   27.8400 C   0  0  0  0  0  0  0  0  0  0  0  0
   41.5400   27.9180   28.2410 N   0  0  0  0  0  0  0  0  0  0  0  0
   40.5800   28.2640   29.1740 C   0  0  0  0  0  0  0  0  0  0  0  0
   40.5140   29.3930   29.9170 C   0  0  0  0  0  0  0  0  0  0  0  0
   39.2950   29.5120   30.7900 C   0  0  0  0  0  0  0  0  0  0  0  0
   38.1910   30.2930   30.4030 C   0  0  0  0  0  0  0  0  0  0  0  0
   37.2320   30.6540   31.3610 C   0  0  0  0  0  0  0  0  0  0  0  0
   36.0500   31.9700   30.9510 S   0  0  0  0  0  6  0  0  0  0  0  0
   35.4520   31.4480   29.7240 O   0  0  0  0  0  0  0  0  0  0  0  0
   35.1850   31.9990   32.1240 O   0  0  0  0  0  0  0  0  0  0  0  0
   36.8980   33.1480   30.7710 O   0  0  0  0  0  1  0  0  0  0  0  0
   37.2780   30.1460   32.6610 C   0  0  0  0  0  0  0  0  0  0  0  0
   38.3240   29.3020   33.0240 C   0  0  0  0  0  0  0  0  0  0  0  0
   39.3320   29.0160   32.1030 C   0  0  0  0  0  0  0  0  0  0  0  0
   40.3850   28.3020   32.5340 F   0  0  0  0  0  0  0  0  0  0  0  0
   41.4570   30.4780   29.7970 C   0  0  0  0  0  0  0  0  0  0  0  0
   41.3830   31.7510   30.3320 C   0  0  0  0  0  0  0  0  0  0  0  0
   42.4980   32.4750   29.8960 C   0  0  0  0  0  0  0  0  0  0  0  0
   43.3150   31.6380   29.1510 C   0  0  0  0  0  0  0  0  0  0  0  0
   42.6570   30.4180   29.0870 N   0  0  0  0  0  0  0  0  0  0  0  0
   44.6030   31.9460   28.5710 C   0  0  0  0  0  0  0  0  0  0  0  0
   45.2130   33.2850   28.8490 C   0  0  0  0  0  0  0  0  0  0  0  0
   44.9930   34.3750   27.9910 C   0  0  0  0  0  0  0  0  0  0  0  0
   45.6990   35.5630   28.1950 C   0  0  0  0  0  0  0  0  0  0  0  0
   45.6070   36.8420   26.9160 S   0  0  0  0  0  6  0  0  0  0  0  0
   46.4260   37.9020   27.4940 O   0  0  0  0  0  0  0  0  0  0  0  0
   46.1720   36.1640   25.7540 O   0  0  0  0  0  0  0  0  0  0  0  0
   44.1780   37.1360   26.8300 O   0  0  0  0  0  1  0  0  0  0  0  0
   46.5360   35.7250   29.3020 C   0  0  0  0  0  0  0  0  0  0  0  0
   46.7100   34.6640   30.1880 C   0  0  0  0  0  0  0  0  0  0  0  0
   46.0770   33.4500   29.9420 C   0  0  0  0  0  0  0  0  0  0  0  0
   46.3290   32.4270   30.7750 F   0  0  0  0  0  0  0  0  0  0  0  0
   45.3610   31.1180   27.8140 C   0  0  0  0  0  0  0  0  0  0  0  0
   45.0830   29.8280   27.4150 N   0  0  0  0  0  0  0  0  0  0  0  0
   46.1070   29.4600   26.6820 C   0  0  0  0  0  0  0  0  0  0  0  0
   46.3360   28.1280   26.0670 C   0  0  0  0  0  0  0  0  0  0  0  0
   47.5630   27.8170   25.2380 C   0  0  0  0  0  0  0  0  0  0  0  0
   47.5840   27.8940   23.8320 C   0  0  0  0  0  0  0  0  0  0  0  0
   48.7170   27.4590   23.1080 C   0  0  0  0  0  0  0  0  0  0  0  0
   48.6410   27.3860   21.2910 S   0  0  0  0  0  6  0  0  0  0  0  0
   47.3390   27.9830   21.0200 O   0  0  0  0  0  0  0  0  0  0  0  0
   49.8050   28.1790   20.9100 O   0  0  0  0  0  0  0  0  0  0  0  0
   48.7420   25.9560   21.0020 O   0  0  0  0  0  1  0  0  0  0  0  0
   49.8660   27.0020   23.7560 C   0  0  0  0  0  0  0  0  0  0  0  0
   49.8800   26.9650   25.1440 C   0  0  0  0  0  0  0  0  0  0  0  0
   48.7410   27.3450   25.8630 C   0  0  0  0  0  0  0  0  0  0  0  0
   48.8090   27.2460   27.2000 F   0  0  0  0  0  0  0  0  0  0  0  0
   45.3260   27.2500   26.2470 C   0  0  0  0  0  0  0  0  0  0  0  0
   45.4560   25.8910   25.8280 C   0  0  0  0  0  0  0  0  0  0  0  0
   44.2670   25.3240   25.9840 C   0  0  0  0  0  0  0  0  0  0  0  0
   43.2550   26.1980   26.5990 C   0  0  0  0  0  0  0  0  0  0  0  0
   44.0290   27.3360   26.7720 N   0  0  0  0  0  0  0  0  0  0  0  0
   47.1400   30.4760   26.4960 C   0  0  0  0  0  0  0  0  0  0  0  0
   46.6630   31.4500   27.2570 C   0  0  0  0  0  0  0  0  0  0  0  0
   39.6370   27.1620   29.2360 C   0  0  0  0  0  0  0  0  0  0  0  0
   40.0000   26.1680   28.4440 C   0  0  0  0  0  0  0  0  0  0  0  0
   42.0130   22.7000   26.9130 C   0  0  0  0  0  0  0  0  0  0  0  0
   40.9390   21.2420   26.8900 C   0  0  0  0  0  0  0  0  0  0  0  0
   35.1390   20.5399   23.6501 H   0  0  0  0  0  0  0  0  0  0  0  0
   35.4943   21.3328   25.3765 H   0  0  0  0  0  0  0  0  0  0  0  0
   36.2967   23.5338   24.3033 H   0  0  0  0  0  0  0  0  0  0  0  0
   35.8596   22.7218   22.5803 H   0  0  0  0  0  0  0  0  0  0  0  0
   31.8276   26.7894   22.4179 H   0  0  0  0  0  0  0  0  0  0  0  0
   34.4118   27.5807   24.0417 H   0  0  0  0  0  0  0  0  0  0  0  0
   34.1001   28.0085   22.2636 H   0  0  0  0  0  0  0  0  0  0  0  0
   34.0446   29.8981   23.8491 H   0  0  0  0  0  0  0  0  0  0  0  0
   32.5470   29.5777   22.8085 H   0  0  0  0  0  0  0  0  0  0  0  0
   32.8764   29.0565   25.7412 H   0  0  0  0  0  0  0  0  0  0  0  0
   31.8848   30.3592   24.8649 H   0  0  0  0  0  0  0  0  0  0  0  0
   30.7117   28.3469   25.9133 H   0  0  0  0  0  0  0  0  0  0  0  0
   30.3522   28.9595   24.1711 H   0  0  0  0  0  0  0  0  0  0  0  0
   30.0635   26.8068   23.8833 H   0  0  0  0  0  0  0  0  0  0  0  0
   29.8790   24.4960   24.1120 H   0  0  0  0  0  0  0  0  0  0  0  0
   31.7933   22.3171   22.7206 H   0  0  0  0  0  0  0  0  0  0  0  0
   31.8894   20.1022   21.5631 H   0  0  0  0  0  0  0  0  0  0  0  0
   32.8499   17.4541   21.6247 H   0  0  0  0  0  0  0  0  0  0  0  0
   34.2704   15.8895   22.9673 H   0  0  0  0  0  0  0  0  0  0  0  0
   34.6884   16.3587   25.3938 H   0  0  0  0  0  0  0  0  0  0  0  0
   33.1952   18.0536   26.4709 H   0  0  0  0  0  0  0  0  0  0  0  0
   31.7306   20.0343   26.1866 H   0  0  0  0  0  0  0  0  0  0  0  0
   37.6512   23.5637   26.4018 H   0  0  0  0  0  0  0  0  0  0  0  0
   39.5296   25.6257   26.0998 H   0  0  0  0  0  0  0  0  0  0  0  0
   38.0806   30.6179   29.3579 H   0  0  0  0  0  0  0  0  0  0  0  0
   36.4971   30.4096   33.3895 H   0  0  0  0  0  0  0  0  0  0  0  0
   38.3555   28.8628   34.0320 H   0  0  0  0  0  0  0  0  0  0  0  0
   40.5848   32.1293   30.9876 H   0  0  0  0  0  0  0  0  0  0  0  0
   42.6947   33.5360   30.1095 H   0  0  0  0  0  0  0  0  0  0  0  0
   42.9880   29.6230   28.6100 H   0  0  0  0  0  0  0  0  0  0  0  0
   44.2708   34.2939   27.1653 H   0  0  0  0  0  0  0  0  0  0  0  0
   47.0526   36.6811   29.4723 H   0  0  0  0  0  0  0  0  0  0  0  0
   47.3450   34.7857   31.0779 H   0  0  0  0  0  0  0  0  0  0  0  0
   46.7127   28.2954   23.2937 H   0  0  0  0  0  0  0  0  0  0  0  0
   50.7437   26.6773   23.1779 H   0  0  0  0  0  0  0  0  0  0  0  0
   50.7846   26.6376   25.6774 H   0  0  0  0  0  0  0  0  0  0  0  0
   46.3679   25.4069   25.4484 H   0  0  0  0  0  0  0  0  0  0  0  0
   44.0553   24.2884   25.6795 H   0  0  0  0  0  0  0  0  0  0  0  0
   43.6950   28.1420   27.2280 H   0  0  0  0  0  0  0  0  0  0  0  0
   48.0587   30.4419   25.8919 H   0  0  0  0  0  0  0  0  0  0  0  0
   47.1892   32.3974   27.4453 H   0  0  0  0  0  0  0  0  0  0  0  0
   38.7336   27.1551   29.8635 H   0  0  0  0  0  0  0  0  0  0  0  0
   39.5206   25.1912   28.2825 H   0  0  0  0  0  0  0  0  0  0  0  0
   43.0907   22.5441   27.0685 H   0  0  0  0  0  0  0  0  0  0  0  0
   41.3556   20.2376   27.0565 H   0  0  0  0  0  0  0  0  0  0  0  0
  1  2  2  0
  2  3  1  0
  3  4  1  0
  4  5  1  0
  5  6  1  0
  6  7  1  0
  7  8  2  0
  7  9  1  0
  9 10  1  0
 10 11  1  0
 11 12  1  0
 12 13  1  0
 13 14  1  0
 14 15  1  0
 15 16  1  0
 16 17  2  0
 16 18  2  0
 16 19  1  0
 19 20  2  0
 20 21  1  0
 21 22  2  0
 22 23  1  0
 23 24  2  0
 24 25  1  0
 25 26  2  0
 26 27  1  0
 27 28  2  0
  2 29  1  0
 29 30  2  0
 30 31  1  0
 31 32  2  0
 32 33  1  0
 33 34  1  0
 34 35  2  0
 35 36  1  0
 36 37  2  0
 37 38  1  0
 38 39  2  0
 39 40  1  0
 40 41  1  0
 41 42  2  0
 41 43  2  0
 41 44  1  0
 40 45  2  0
 45 46  1  0
 46 47  2  0
 47 48  1  0
 37 49  1  0
 49 50  2  0
 50 51  1  0
 51 52  2  0
 52 53  1  0
 52 54  1  0
 54 55  1  0
 55 56  2  0
 56 57  1  0
 57 58  1  0
 58 59  2  0
 58 60  2  0
 58 61  1  0
 57 62  2  0
 62 63  1  0
 63 64  2  0
 64 65  1  0
 54 66  2  0
 66 67  1  0
 67 68  2  0
 68 69  1  0
 69 70  1  0
 70 71  2  0
 71 72  1  0
 72 73  1  0
 73 74  2  0
 73 75  2  0
 73 76  1  0
 72 77  2  0
 77 78  1  0
 78 79  2  0
 79 80  1  0
 69 81  2  0
 81 82  1  0
 82 83  2  0
 83 84  1  0
 84 85  1  0
 68 86  1  0
 86 87  2  0
 36 88  1  0
 88 89  2  0
 32 90  1  0
 90 91  2  0
 14  9  1  0
 28 19  1  0
 91 29  1  0
 27 22  1  0
 84 33  2  0
 89 34  1  0
 47 38  1  0
 53 49  1  0
 64 55  1  0
 87 66  1  0
 79 70  1  0
 85 81  1  0
  4 92  1  0
  4 93  1  0
  5 94  1  0
  5 95  1  0
  9 96  1  6
 10 97  1  0
 10 98  1  0
 11 99  1  0
 11100  1  0
 12101  1  0
 12102  1  0
 13103  1  0
 13104  1  0
 14105  1  6
 15106  1  0
 20107  1  0
 21108  1  0
 23109  1  0
 24110  1  0
 25111  1  0
 26112  1  0
 28113  1  0
 30114  1  0
 31115  1  0
 39116  1  0
 45117  1  0
 46118  1  0
 50119  1  0
 51120  1  0
 53121  1  0
 56122  1  0
 62123  1  0
 63124  1  0
 71125  1  0
 77126  1  0
 78127  1  0
 82128  1  0
 83129  1  0
 85130  1  0
 86131  1  0
 87132  1  0
 88133  1  0
 89134  1  0
 90135  1  0
 91136  1  0
M  CHG  3  44  -1  61  -1  76  -1
M  END
>  <meeko>  (1) 
{"free_energy": -17.2}

$$$$

     RDKit          3D

136147  0  0  0  0  0  0  0  0999 V2000
   46.8280   38.4000   28.7550 O   0  0  0  0  0  0  0  0  0  0  0  0
   46.3170   37.4130   29.2870 C   0  0  0  0  0  0  0  0  0  0  0  0
   45.6070   37.6460   30.7500 O   0  0  0  0  0  0  0  0  0  0  0  0
   44.6400   36.7290   32.0050 C   0  0  0  0  0  0  0  0  0  0  0  0
   44.0440   34.8990   31.8730 C   0  0  0  0  0  0  0  0  0  0  0  0
   42.8030   33.9880   32.9450 O   0  0  0  0  0  0  0  0  0  0  0  0
   42.3550   32.4570   33.4690 C   0  0  0  0  0  0  0  0  0  0  0  0
   43.1640   31.5330   33.6190 O   0  0  0  0  0  0  0  0  0  0  0  0
   40.7390   31.8660   33.9740 C   0  0  2  0  0  0  0  0  0  0  0  0
   39.7560   32.9820   33.6150 C   0  0  0  0  0  0  0  0  0  0  0  0
   38.2860   32.6950   33.8210 C   0  0  0  0  0  0  0  0  0  0  0  0
   37.8870   32.1550   35.1700 C   0  0  0  0  0  0  0  0  0  0  0  0
   38.5940   30.8920   35.6560 C   0  0  0  0  0  0  0  0  0  0  0  0
   40.2460   30.6740   35.3590 C   0  0  2  0  0  0  0  0  0  0  0  0
   41.8170   29.8290   36.6260 N   0  0  0  0  0  0  0  0  0  0  0  0
   42.4210   27.7480   36.2250 S   0  0  0  0  0  6  0  0  0  0  0  0
   43.4330   27.5910   37.2630 O   0  0  0  0  0  0  0  0  0  0  0  0
   41.1530   27.1030   36.5570 O   0  0  0  0  0  0  0  0  0  0  0  0
   43.3000   27.5420   33.9640 C   0  0  0  0  0  0  0  0  0  0  0  0
   42.6870   27.8480   32.6300 C   0  0  0  0  0  0  0  0  0  0  0  0
   43.1380   27.4190   31.2510 C   0  0  0  0  0  0  0  0  0  0  0  0
   44.3670   26.7660   30.9710 C   0  0  0  0  0  0  0  0  0  0  0  0
   45.0880   26.5550   29.7550 C   0  0  0  0  0  0  0  0  0  0  0  0
   46.4650   26.2220   29.7610 C   0  0  0  0  0  0  0  0  0  0  0  0
   47.1130   25.9540   30.9500 C   0  0  0  0  0  0  0  0  0  0  0  0
   46.3280   25.8550   32.0790 C   0  0  0  0  0  0  0  0  0  0  0  0
   44.9690   26.3140   32.0930 C   0  0  0  0  0  0  0  0  0  0  0  0
   44.2910   26.5080   33.3510 C   0  0  0  0  0  0  0  0  0  0  0  0
   46.3260   35.8980   28.3620 C   0  0  0  0  0  0  0  0  0  0  0  0
   44.8540   35.1820   27.4060 C   0  0  0  0  0  0  0  0  0  0  0  0
   44.1630   33.5910   27.6640 C   0  0  0  0  0  0  0  0  0  0  0  0
   44.9060   32.4940   28.5690 C   0  0  0  0  0  0  0  0  0  0  0  0
   44.1860   31.1790   28.1760 C   0  0  0  0  0  0  0  0  0  0  0  0
   44.9340   30.1550   27.4090 C   0  0  0  0  0  0  0  0  0  0  0  0
   44.5520   28.9550   27.0730 N   0  0  0  0  0  0  0  0  0  0  0  0
   45.6560   28.3730   26.4780 C   0  0  0  0  0  0  0  0  0  0  0  0
   45.7770   27.1090   26.0100 C   0  0  0  0  0  0  0  0  0  0  0  0
   47.0870   26.8000   25.3410 C   0  0  0  0  0  0  0  0  0  0  0  0
   48.1150   26.1200   26.0210 C   0  0  0  0  0  0  0  0  0  0  0  0
   49.4180   26.1430   25.5030 C   0  0  0  0  0  0  0  0  0  0  0  0
   50.7860   25.6170   26.5730 S   0  0  0  0  0  6  0  0  0  0  0  0
   50.9820   26.8080   27.3970 O   0  0  0  0  0  0  0  0  0  0  0  0
   50.2300   24.4530   27.2530 O   0  0  0  0  0  0  0  0  0  0  0  0
   51.8680   25.3340   25.6320 O   0  0  0  0  0  1  0  0  0  0  0  0
   49.6930   26.7140   24.2570 C   0  0  0  0  0  0  0  0  0  0  0  0
   48.6600   27.3120   23.5400 C   0  0  0  0  0  0  0  0  0  0  0  0
   47.3820   27.3760   24.0940 C   0  0  0  0  0  0  0  0  0  0  0  0
   46.4480   28.0710   23.4260 F   0  0  0  0  0  0  0  0  0  0  0  0
   44.6960   26.1530   26.0170 C   0  0  0  0  0  0  0  0  0  0  0  0
   44.6250   24.9250   25.3880 C   0  0  0  0  0  0  0  0  0  0  0  0
   43.3570   24.3820   25.6280 C   0  0  0  0  0  0  0  0  0  0  0  0
   42.6570   25.2300   26.4730 C   0  0  0  0  0  0  0  0  0  0  0  0
   43.4860   26.3210   26.6930 N   0  0  0  0  0  0  0  0  0  0  0  0
   41.3430   25.0280   27.0380 C   0  0  0  0  0  0  0  0  0  0  0  0
   40.6450   23.7280   26.7830 C   0  0  0  0  0  0  0  0  0  0  0  0
   39.4360   23.6790   26.0720 C   0  0  0  0  0  0  0  0  0  0  0  0
   38.7360   22.4730   25.9860 C   0  0  0  0  0  0  0  0  0  0  0  0
   37.0560   22.5060   25.3110 S   0  0  0  0  0  6  0  0  0  0  0  0
   37.3000   22.8900   23.9240 O   0  0  0  0  0  0  0  0  0  0  0  0
   36.6070   21.1340   25.5210 O   0  0  0  0  0  0  0  0  0  0  0  0
   36.3810   23.5130   26.1260 O   0  0  0  0  0  1  0  0  0  0  0  0
   39.2710   21.2900   26.5010 C   0  0  0  0  0  0  0  0  0  0  0  0
   40.5010   21.3240   27.1570 C   0  0  0  0  0  0  0  0  0  0  0  0
   41.1610   22.5380   27.3210 C   0  0  0  0  0  0  0  0  0  0  0  0
   42.3040   22.5440   28.0250 F   0  0  0  0  0  0  0  0  0  0  0  0
   40.6670   25.8950   27.8300 C   0  0  0  0  0  0  0  0  0  0  0  0
   41.0570   27.1460   28.2570 N   0  0  0  0  0  0  0  0  0  0  0  0
   40.0580   27.5960   28.9780 C   0  0  0  0  0  0  0  0  0  0  0  0
   40.0010   28.8760   29.7290 C   0  0  0  0  0  0  0  0  0  0  0  0
   38.7880   29.2920   30.5330 C   0  0  0  0  0  0  0  0  0  0  0  0
   37.8670   30.2620   30.0940 C   0  0  0  0  0  0  0  0  0  0  0  0
   36.8320   30.7050   30.9480 C   0  0  0  0  0  0  0  0  0  0  0  0
   35.7800   32.0960   30.4290 S   0  0  0  0  0  6  0  0  0  0  0  0
   36.7580   33.1640   30.2560 O   0  0  0  0  0  0  0  0  0  0  0  0
   35.1730   31.5750   29.2090 O   0  0  0  0  0  0  0  0  0  0  0  0
   34.8620   32.2690   31.5540 O   0  0  0  0  0  1  0  0  0  0  0  0
   36.6520   30.1590   32.2200 C   0  0  0  0  0  0  0  0  0  0  0  0
   37.5220   29.1670   32.6510 C   0  0  0  0  0  0  0  0  0  0  0  0
   38.5800   28.7620   31.8280 C   0  0  0  0  0  0  0  0  0  0  0  0
   39.4080   27.8280   32.3230 F   0  0  0  0  0  0  0  0  0  0  0  0
   41.0850   29.6650   29.5710 C   0  0  0  0  0  0  0  0  0  0  0  0
   41.2330   30.8650   30.3300 C   0  0  0  0  0  0  0  0  0  0  0  0
   42.2960   31.4970   29.8480 C   0  0  0  0  0  0  0  0  0  0  0  0
   43.0140   30.7610   28.7960 C   0  0  0  0  0  0  0  0  0  0  0  0
   42.2180   29.6250   28.7460 N   0  0  0  0  0  0  0  0  0  0  0  0
   38.9030   26.7080   29.0700 C   0  0  0  0  0  0  0  0  0  0  0  0
   39.3500   25.6570   28.3990 C   0  0  0  0  0  0  0  0  0  0  0  0
   46.7030   29.3780   26.4620 C   0  0  0  0  0  0  0  0  0  0  0  0
   46.3130   30.4950   27.0510 C   0  0  0  0  0  0  0  0  0  0  0  0
   46.3520   32.9950   29.5050 C   0  0  0  0  0  0  0  0  0  0  0  0
   47.0960   34.6430   29.4200 C   0  0  0  0  0  0  0  0  0  0  0  0
   45.2485   36.7674   32.9206 H   0  0  0  0  0  0  0  0  0  0  0  0
   43.6737   37.2454   31.9070 H   0  0  0  0  0  0  0  0  0  0  0  0
   43.6403   34.8145   30.8532 H   0  0  0  0  0  0  0  0  0  0  0  0
   44.9583   34.4083   32.2379 H   0  0  0  0  0  0  0  0  0  0  0  0
   40.7432   30.8830   33.4804 H   0  0  0  0  0  0  0  0  0  0  0  0
   40.0118   33.8591   34.2276 H   0  0  0  0  0  0  0  0  0  0  0  0
   39.8697   33.1245   32.5302 H   0  0  0  0  0  0  0  0  0  0  0  0
   37.7369   33.6348   33.6619 H   0  0  0  0  0  0  0  0  0  0  0  0
   38.0432   31.8959   33.1051 H   0  0  0  0  0  0  0  0  0  0  0  0
   38.0760   32.9454   35.9113 H   0  0  0  0  0  0  0  0  0  0  0  0
   36.8328   31.8624   35.0563 H   0  0  0  0  0  0  0  0  0  0  0  0
   38.4607   30.8545   36.7473 H   0  0  0  0  0  0  0  0  0  0  0  0
   38.1246   30.0962   35.0591 H   0  0  0  0  0  0  0  0  0  0  0  0
   40.2387   29.5761   35.2919 H   0  0  0  0  0  0  0  0  0  0  0  0
   41.4890   29.8740   37.5910 H   0  0  0  0  0  0  0  0  0  0  0  0
   41.7818   28.4724   32.6581 H   0  0  0  0  0  0  0  0  0  0  0  0
   42.4660   27.6279   30.4055 H   0  0  0  0  0  0  0  0  0  0  0  0
   44.5623   26.6533   28.7937 H   0  0  0  0  0  0  0  0  0  0  0  0
   47.0209   26.1768   28.8129 H   0  0  0  0  0  0  0  0  0  0  0  0
   48.2046   25.8255   30.9946 H   0  0  0  0  0  0  0  0  0  0  0  0
   46.7543   25.4131   32.9917 H   0  0  0  0  0  0  0  0  0  0  0  0
   44.5402   25.7135   34.0698 H   0  0  0  0  0  0  0  0  0  0  0  0
   44.3979   35.8134   26.6292 H   0  0  0  0  0  0  0  0  0  0  0  0
   43.1999   33.3398   27.1956 H   0  0  0  0  0  0  0  0  0  0  0  0
   47.8979   25.5748   26.9514 H   0  0  0  0  0  0  0  0  0  0  0  0
   50.7138   26.6912   23.8477 H   0  0  0  0  0  0  0  0  0  0  0  0
   48.8512   27.7319   22.5414 H   0  0  0  0  0  0  0  0  0  0  0  0
   45.4268   24.4547   24.7998 H   0  0  0  0  0  0  0  0  0  0  0  0
   42.9776   23.4363   25.2136 H   0  0  0  0  0  0  0  0  0  0  0  0
   43.2550   27.1020   27.2460 H   0  0  0  0  0  0  0  0  0  0  0  0
   39.0423   24.5838   25.5858 H   0  0  0  0  0  0  0  0  0  0  0  0
   38.7271   20.3403   26.3901 H   0  0  0  0  0  0  0  0  0  0  0  0
   40.9474   20.3957   27.5430 H   0  0  0  0  0  0  0  0  0  0  0  0
   37.9536   30.6779   29.0793 H   0  0  0  0  0  0  0  0  0  0  0  0
   35.8355   30.5085   32.8690 H   0  0  0  0  0  0  0  0  0  0  0  0
   37.3806   28.7001   33.6369 H   0  0  0  0  0  0  0  0  0  0  0  0
   40.5893   31.2015   31.1561 H   0  0  0  0  0  0  0  0  0  0  0  0
   42.6134   32.4878   30.2052 H   0  0  0  0  0  0  0  0  0  0  0  0
   42.4330   28.8510   28.1770 H   0  0  0  0  0  0  0  0  0  0  0  0
   37.9313   26.8674   29.5604 H   0  0  0  0  0  0  0  0  0  0  0  0
   38.7915   24.7161   28.2857 H   0  0  0  0  0  0  0  0  0  0  0  0
   47.6971   29.2286   26.0154 H   0  0  0  0  0  0  0  0  0  0  0  0
   46.8718   31.4264   27.2250 H   0  0  0  0  0  0  0  0  0  0  0  0
   46.8158   32.2540   30.1727 H   0  0  0  0  0  0  0  0  0  0  0  0
   48.0001   34.8791   30.0005 H   0  0  0  0  0  0  0  0  0  0  0  0
  1  2  2  0
  2  3  1  0
  3  4  1  0
  4  5  1  0
  5  6  1  0
  6  7  1  0
  7  8  2  0
  7  9  1  0
  9 10  1  0
 10 11  1  0
 11 12  1  0
 12 13  1  0
 13 14  1  0
 14 15  1  0
 15 16  1  0
 16 17  2  0
 16 18  2  0
 16 19  1  0
 19 20  2  0
 20 21  1  0
 21 22  2  0
 22 23  1  0
 23 24  2  0
 24 25  1  0
 25 26  2  0
 26 27  1  0
 27 28  2  0
  2 29  1  0
 29 30  2  0
 30 31  1  0
 31 32  2  0
 32 33  1  0
 33 34  1  0
 34 35  2  0
 35 36  1  0
 36 37  2  0
 37 38  1  0
 38 39  2  0
 39 40  1  0
 40 41  1  0
 41 42  2  0
 41 43  2  0
 41 44  1  0
 40 45  2  0
 45 46  1  0
 46 47  2  0
 47 48  1  0
 37 49  1  0
 49 50  2  0
 50 51  1  0
 51 52  2  0
 52 53  1  0
 52 54  1  0
 54 55  1  0
 55 56  2  0
 56 57  1  0
 57 58  1  0
 58 59  2  0
 58 60  2  0
 58 61  1  0
 57 62  2  0
 62 63  1  0
 63 64  2  0
 64 65  1  0
 54 66  2  0
 66 67  1  0
 67 68  2  0
 68 69  1  0
 69 70  1  0
 70 71  2  0
 71 72  1  0
 72 73  1  0
 73 74  2  0
 73 75  2  0
 73 76  1  0
 72 77  2  0
 77 78  1  0
 78 79  2  0
 79 80  1  0
 69 81  2  0
 81 82  1  0
 82 83  2  0
 83 84  1  0
 84 85  1  0
 68 86  1  0
 86 87  2  0
 36 88  1  0
 88 89  2  0
 32 90  1  0
 90 91  2  0
 14  9  1  0
 28 19  1  0
 91 29  1  0
 27 22  1  0
 84 33  2  0
 89 34  1  0
 47 38  1  0
 53 49  1  0
 64 55  1  0
 87 66  1  0
 79 70  1  0
 85 81  1  0
  4 92  1  0
  4 93  1  0
  5 94  1  0
  5 95  1  0
  9 96  1  6
 10 97  1  0
 10 98  1  0
 11 99  1  0
 11100  1  0
 12101  1  0
 12102  1  0
 13103  1  0
 13104  1  0
 14105  1  6
 15106  1  0
 20107  1  0
 21108  1  0
 23109  1  0
 24110  1  0
 25111  1  0
 26112  1  0
 28113  1  0
 30114  1  0
 31115  1  0
 39116  1  0
 45117  1  0
 46118  1  0
 50119  1  0
 51120  1  0
 53121  1  0
 56122  1  0
 62123  1  0
 63124  1  0
 71125  1  0
 77126  1  0
 78127  1  0
 82128  1  0
 83129  1  0
 85130  1  0
 86131  1  0
 87132  1  0
 88133  1  0
 89134  1  0
 90135  1  0
 91136  1  0
M  CHG  3  44  -1  61  -1  76  -1
M  END
>  <meeko>  (2) 
{"free_energy": -16.9}

$$$$

     RDKit          3D

136147  0  0  0  0  0  0  0  0999 V2000
   39.9080   19.3720   25.5420 O   0  0  0  0  0  0  0  0  0  0  0  0
   39.2220   20.3890   25.6550 C   0  0  0  0  0  0  0  0  0  0  0  0
   37.9610   20.5510   24.6140 O   0  0  0  0  0  0  0  0  0  0  0  0
   36.3280   21.3690   24.5010 C   0  0  0  0  0  0  0  0  0  0  0  0
   35.8930   22.9040   23.4150 C   0  0  0  0  0  0  0  0  0  0  0  0
   34.2690   23.8340   23.2950 O   0  0  0  0  0  0  0  0  0  0  0  0
   33.4520   24.9920   22.3940 C   0  0  0  0  0  0  0  0  0  0  0  0
   33.2870   24.9000   21.1710 O   0  0  0  0  0  0  0  0  0  0  0  0
   32.6210   26.4780   22.9560 C   0  0  2  0  0  0  0  0  0  0  0  0
   33.6850   27.5770   22.9550 C   0  0  0  0  0  0  0  0  0  0  0  0
   33.2230   28.9800   23.2730 C   0  0  0  0  0  0  0  0  0  0  0  0
   32.3940   29.1530   24.5190 C   0  0  0  0  0  0  0  0  0  0  0  0
   31.1340   28.2990   24.6450 C   0  0  0  0  0  0  0  0  0  0  0  0
   31.1390   26.6920   24.1140 C   0  0  2  0  0  0  0  0  0  0  0  0
   30.2190   24.9060   24.9820 N   0  0  0  0  0  0  0  0  0  0  0  0
   31.5220   23.5800   26.1660 S   0  0  0  0  0  6  0  0  0  0  0  0
   32.6190   24.5030   26.4320 O   0  0  0  0  0  0  0  0  0  0  0  0
   30.6340   23.3970   27.3110 O   0  0  0  0  0  0  0  0  0  0  0  0
   32.1760   21.6390   24.8500 C   0  0  0  0  0  0  0  0  0  0  0  0
   32.0710   21.3570   23.3800 C   0  0  0  0  0  0  0  0  0  0  0  0
   32.1950   20.0370   22.6510 C   0  0  0  0  0  0  0  0  0  0  0  0
   32.6170   18.8210   23.2490 C   0  0  0  0  0  0  0  0  0  0  0  0
   33.0720   17.5840   22.6960 C   0  0  0  0  0  0  0  0  0  0  0  0
   33.8010   16.6510   23.4720 C   0  0  0  0  0  0  0  0  0  0  0  0
   33.9700   16.8510   24.8280 C   0  0  0  0  0  0  0  0  0  0  0  0
   33.2580   17.8850   25.3980 C   0  0  0  0  0  0  0  0  0  0  0  0
   32.6280   18.8960   24.5990 C   0  0  0  0  0  0  0  0  0  0  0  0
   32.1880   20.1240   25.2130 C   0  0  0  0  0  0  0  0  0  0  0  0
   39.6230   21.4920   26.9870 C   0  0  0  0  0  0  0  0  0  0  0  0
   39.1700   23.3320   27.0680 C   0  0  0  0  0  0  0  0  0  0  0  0
   40.3180   24.6430   27.2610 C   0  0  0  0  0  0  0  0  0  0  0  0
   41.8470   24.3640   27.6570 C   0  0  0  0  0  0  0  0  0  0  0  0
   42.3440   25.7590   28.1170 C   0  0  0  0  0  0  0  0  0  0  0  0
   43.6890   26.2150   27.6900 C   0  0  0  0  0  0  0  0  0  0  0  0
   44.2470   27.3780   27.8790 N   0  0  0  0  0  0  0  0  0  0  0  0
   45.4420   27.3260   27.1860 C   0  0  0  0  0  0  0  0  0  0  0  0
   46.3550   28.3130   27.0310 C   0  0  0  0  0  0  0  0  0  0  0  0
   47.5990   27.9180   26.2840 C   0  0  0  0  0  0  0  0  0  0  0  0
   47.7320   28.1600   24.9040 C   0  0  0  0  0  0  0  0  0  0  0  0
   48.7320   27.4950   24.1800 C   0  0  0  0  0  0  0  0  0  0  0  0
   48.6420   27.5040   22.3670 S   0  0  0  0  0  6  0  0  0  0  0  0
   49.8520   28.2470   22.0220 O   0  0  0  0  0  0  0  0  0  0  0  0
   48.6480   26.0830   22.0400 O   0  0  0  0  0  0  0  0  0  0  0  0
   47.3880   28.2030   22.0900 O   0  0  0  0  0  1  0  0  0  0  0  0
   49.6840   26.6980   24.8220 C   0  0  0  0  0  0  0  0  0  0  0  0
   49.6070   26.5260   26.2010 C   0  0  0  0  0  0  0  0  0  0  0  0
   48.5580   27.1080   26.9130 C   0  0  0  0  0  0  0  0  0  0  0  0
   48.4510   26.8120   28.2180 F   0  0  0  0  0  0  0  0  0  0  0  0
   46.2310   29.6120   27.6460 C   0  0  0  0  0  0  0  0  0  0  0  0
   47.1760   30.6160   27.7420 C   0  0  0  0  0  0  0  0  0  0  0  0
   46.6230   31.6700   28.4790 C   0  0  0  0  0  0  0  0  0  0  0  0
   45.3040   31.3640   28.7800 C   0  0  0  0  0  0  0  0  0  0  0  0
   45.0810   30.0910   28.2740 N   0  0  0  0  0  0  0  0  0  0  0  0
   44.3370   32.1950   29.4600 C   0  0  0  0  0  0  0  0  0  0  0  0
   44.7270   33.5940   29.8280 C   0  0  0  0  0  0  0  0  0  0  0  0
   44.5870   34.6500   28.9150 C   0  0  0  0  0  0  0  0  0  0  0  0
   45.1010   35.9090   29.2350 C   0  0  0  0  0  0  0  0  0  0  0  0
   45.1570   37.1670   27.9330 S   0  0  0  0  0  6  0  0  0  0  0  0
   45.5050   36.3680   26.7620 O   0  0  0  0  0  0  0  0  0  0  0  0
   43.8000   37.7030   27.9570 O   0  0  0  0  0  0  0  0  0  0  0  0
   46.1970   38.0850   28.3910 O   0  0  0  0  0  1  0  0  0  0  0  0
   45.6540   36.1640   30.4920 C   0  0  0  0  0  0  0  0  0  0  0  0
   45.7410   35.1310   31.4240 C   0  0  0  0  0  0  0  0  0  0  0  0
   45.3090   33.8550   31.0780 C   0  0  0  0  0  0  0  0  0  0  0  0
   45.4800   32.8670   31.9730 F   0  0  0  0  0  0  0  0  0  0  0  0
   43.0650   31.8540   29.7750 C   0  0  0  0  0  0  0  0  0  0  0  0
   42.4170   30.6600   29.5430 N   0  0  0  0  0  0  0  0  0  0  0  0
   41.2170   30.8090   30.0500 C   0  0  0  0  0  0  0  0  0  0  0  0
   40.0960   29.8360   30.0010 C   0  0  0  0  0  0  0  0  0  0  0  0
   38.7460   30.1200   30.6220 C   0  0  0  0  0  0  0  0  0  0  0  0
   37.7210   30.8180   29.9540 C   0  0  0  0  0  0  0  0  0  0  0  0
   36.5350   31.1720   30.6360 C   0  0  0  0  0  0  0  0  0  0  0  0
   35.3150   32.2410   29.8090 S   0  0  0  0  0  6  0  0  0  0  0  0
   34.8170   31.3680   28.7540 O   0  0  0  0  0  0  0  0  0  0  0  0
   34.3870   32.5330   30.8960 O   0  0  0  0  0  0  0  0  0  0  0  0
   36.1120   33.3780   29.3520 O   0  0  0  0  0  1  0  0  0  0  0  0
   36.3130   30.7930   31.9610 C   0  0  0  0  0  0  0  0  0  0  0  0
   37.2920   30.0620   32.6190 C   0  0  0  0  0  0  0  0  0  0  0  0
   38.4910   29.7550   31.9640 C   0  0  0  0  0  0  0  0  0  0  0  0
   39.4120   29.0820   32.6730 F   0  0  0  0  0  0  0  0  0  0  0  0
   40.4080   28.6550   29.4260 C   0  0  0  0  0  0  0  0  0  0  0  0
   39.4020   27.6690   29.1890 C   0  0  0  0  0  0  0  0  0  0  0  0
   40.0250   26.5750   28.7710 C   0  0  0  0  0  0  0  0  0  0  0  0
   41.4780   26.7330   28.5980 C   0  0  0  0  0  0  0  0  0  0  0  0
   41.5960   28.0650   28.9730 N   0  0  0  0  0  0  0  0  0  0  0  0
   40.9650   32.0960   30.6930 C   0  0  0  0  0  0  0  0  0  0  0  0
   42.1080   32.7190   30.4460 C   0  0  0  0  0  0  0  0  0  0  0  0
   45.5400   25.9950   26.6150 C   0  0  0  0  0  0  0  0  0  0  0  0
   44.4630   25.2730   26.8790 C   0  0  0  0  0  0  0  0  0  0  0  0
   42.4290   22.6670   27.6780 C   0  0  0  0  0  0  0  0  0  0  0  0
   41.3730   21.2280   27.3780 C   0  0  0  0  0  0  0  0  0  0  0  0
   35.6339   20.5805   24.1746 H   0  0  0  0  0  0  0  0  0  0  0  0
   36.2829   21.8299   25.4987 H   0  0  0  0  0  0  0  0  0  0  0  0
   36.6259   23.6682   23.7133 H   0  0  0  0  0  0  0  0  0  0  0  0
   35.8605   22.4018   22.4369 H   0  0  0  0  0  0  0  0  0  0  0  0
   31.7584   26.4718   22.2734 H   0  0  0  0  0  0  0  0  0  0  0  0
   34.4468   27.3019   23.6993 H   0  0  0  0  0  0  0  0  0  0  0  0
   34.0461   27.6238   21.9170 H   0  0  0  0  0  0  0  0  0  0  0  0
   34.1185   29.6100   23.3783 H   0  0  0  0  0  0  0  0  0  0  0  0
   32.5588   29.2610   22.4424 H   0  0  0  0  0  0  0  0  0  0  0  0
   33.0383   28.9206   25.3797 H   0  0  0  0  0  0  0  0  0  0  0  0
   32.0296   30.1899   24.4746 H   0  0  0  0  0  0  0  0  0  0  0  0
   30.8705   28.2789   25.7128 H   0  0  0  0  0  0  0  0  0  0  0  0
   30.4292   28.7885   23.9568 H   0  0  0  0  0  0  0  0  0  0  0  0
   30.0797   26.6320   23.8236 H   0  0  0  0  0  0  0  0  0  0  0  0
   29.8360   24.3560   24.2140 H   0  0  0  0  0  0  0  0  0  0  0  0
   31.8767   22.2326   22.7431 H   0  0  0  0  0  0  0  0  0  0  0  0
   31.9399   20.0185   21.5812 H   0  0  0  0  0  0  0  0  0  0  0  0
   32.8507   17.3518   21.6438 H   0  0  0  0  0  0  0  0  0  0  0  0
   34.2354   15.7616   22.9921 H   0  0  0  0  0  0  0  0  0  0  0  0
   34.6408   16.2156   25.4249 H   0  0  0  0  0  0  0  0  0  0  0  0
   33.1709   17.9359   26.4934 H   0  0  0  0  0  0  0  0  0  0  0  0
   31.7415   19.9429   26.2019 H   0  0  0  0  0  0  0  0  0  0  0  0
   38.1054   23.5969   26.9877 H   0  0  0  0  0  0  0  0  0  0  0  0
   39.9824   25.6792   27.1072 H   0  0  0  0  0  0  0  0  0  0  0  0
   47.0568   28.8653   24.3973 H   0  0  0  0  0  0  0  0  0  0  0  0
   50.4844   26.2126   24.2443 H   0  0  0  0  0  0  0  0  0  0  0  0
   50.3701   25.9337   26.7272 H   0  0  0  0  0  0  0  0  0  0  0  0
   48.1886   30.5912   27.3130 H   0  0  0  0  0  0  0  0  0  0  0  0
   47.1488   32.5908   28.7717 H   0  0  0  0  0  0  0  0  0  0  0  0
   44.2330   29.5970   28.3470 H   0  0  0  0  0  0  0  0  0  0  0  0
   44.0763   34.4878   27.9543 H   0  0  0  0  0  0  0  0  0  0  0  0
   46.0176   37.1710   30.7443 H   0  0  0  0  0  0  0  0  0  0  0  0
   46.1489   35.3239   32.4272 H   0  0  0  0  0  0  0  0  0  0  0  0
   37.8445   31.0892   28.8951 H   0  0  0  0  0  0  0  0  0  0  0  0
   35.3797   31.0686   32.4738 H   0  0  0  0  0  0  0  0  0  0  0  0
   37.1265   29.7245   33.6528 H   0  0  0  0  0  0  0  0  0  0  0  0
   38.3178   27.7932   29.3268 H   0  0  0  0  0  0  0  0  0  0  0  0
   39.4999   25.6294   28.5706 H   0  0  0  0  0  0  0  0  0  0  0  0
   42.4470   28.5570   28.9230 H   0  0  0  0  0  0  0  0  0  0  0  0
   40.0740   32.4497   31.2324 H   0  0  0  0  0  0  0  0  0  0  0  0
   42.3091   33.7661   30.7164 H   0  0  0  0  0  0  0  0  0  0  0  0
   46.4016   25.6321   26.0355 H   0  0  0  0  0  0  0  0  0  0  0  0
   44.2164   24.2456   26.5728 H   0  0  0  0  0  0  0  0  0  0  0  0
   43.4945   22.4900   27.8863 H   0  0  0  0  0  0  0  0  0  0  0  0
   41.7864   20.2101   27.4321 H   0  0  0  0  0  0  0  0  0  0  0  0
  1  2  2  0
  2  3  1  0
  3  4  1  0
  4  5  1  0
  5  6  1  0
  6  7  1  0
  7  8  2  0
  7  9  1  0
  9 10  1  0
 10 11  1  0
 11 12  1  0
 12 13  1  0
 13 14  1  0
 14 15  1  0
 15 16  1  0
 16 17  2  0
 16 18  2  0
 16 19  1  0
 19 20  2  0
 20 21  1  0
 21 22  2  0
 22 23  1  0
 23 24  2  0
 24 25  1  0
 25 26  2  0
 26 27  1  0
 27 28  2  0
  2 29  1  0
 29 30  2  0
 30 31  1  0
 31 32  2  0
 32 33  1  0
 33 34  1  0
 34 35  2  0
 35 36  1  0
 36 37  2  0
 37 38  1  0
 38 39  2  0
 39 40  1  0
 40 41  1  0
 41 42  2  0
 41 43  2  0
 41 44  1  0
 40 45  2  0
 45 46  1  0
 46 47  2  0
 47 48  1  0
 37 49  1  0
 49 50  2  0
 50 51  1  0
 51 52  2  0
 52 53  1  0
 52 54  1  0
 54 55  1  0
 55 56  2  0
 56 57  1  0
 57 58  1  0
 58 59  2  0
 58 60  2  0
 58 61  1  0
 57 62  2  0
 62 63  1  0
 63 64  2  0
 64 65  1  0
 54 66  2  0
 66 67  1  0
 67 68  2  0
 68 69  1  0
 69 70  1  0
 70 71  2  0
 71 72  1  0
 72 73  1  0
 73 74  2  0
 73 75  2  0
 73 76  1  0
 72 77  2  0
 77 78  1  0
 78 79  2  0
 79 80  1  0
 69 81  2  0
 81 82  1  0
 82 83  2  0
 83 84  1  0
 84 85  1  0
 68 86  1  0
 86 87  2  0
 36 88  1  0
 88 89  2  0
 32 90  1  0
 90 91  2  0
 14  9  1  0
 28 19  1  0
 91 29  1  0
 27 22  1  0
 84 33  2  0
 89 34  1  0
 47 38  1  0
 53 49  1  0
 64 55  1  0
 87 66  1  0
 79 70  1  0
 85 81  1  0
  4 92  1  0
  4 93  1  0
  5 94  1  0
  5 95  1  0
  9 96  1  6
 10 97  1  0
 10 98  1  0
 11 99  1  0
 11100  1  0
 12101  1  0
 12102  1  0
 13103  1  0
 13104  1  0
 14105  1  6
 15106  1  0
 20107  1  0
 21108  1  0
 23109  1  0
 24110  1  0
 25111  1  0
 26112  1  0
 28113  1  0
 30114  1  0
 31115  1  0
 39116  1  0
 45117  1  0
 46118  1  0
 50119  1  0
 51120  1  0
 53121  1  0
 56122  1  0
 62123  1  0
 63124  1  0
 71125  1  0
 77126  1  0
 78127  1  0
 82128  1  0
 83129  1  0
 85130  1  0
 86131  1  0
 87132  1  0
 88133  1  0
 89134  1  0
 90135  1  0
 91136  1  0
M  CHG  3  44  -1  61  -1  76  -1
M  END
>  <meeko>  (3) 
{"free_energy": -16.8}

$$$$

