
     RDKit          3D

136147  0  0  0  0  0  0  0  0999 V2000
   41.6620   18.8350   25.8600 O   0  0  0  0  0  0  0  0  0  0  0  0
   40.7770   19.6690   26.1270 C   0  0  0  0  0  0  0  0  0  0  0  0
   39.4660   18.8330   25.5410 O   0  0  0  0  0  0  0  0  0  0  0  0
   38.0150   19.4750   24.8020 C   0  0  0  0  0  0  0  0  0  0  0  0
   37.6630   21.2860   25.2530 C   0  0  0  0  0  0  0  0  0  0  0  0
   35.8300   21.5710   26.1480 O   0  0  0  0  0  0  0  0  0  0  0  0
   34.2050   21.0770   26.1760 C   0  0  0  0  0  0  0  0  0  0  0  0
   33.6790   21.2500   27.2910 O   0  0  0  0  0  0  0  0  0  0  0  0
   33.1610   20.0540   24.9440 C   0  0  2  0  0  0  0  0  0  0  0  0
   33.8770   18.6910   24.7920 C   0  0  0  0  0  0  0  0  0  0  0  0
   33.0670   17.6090   24.0940 C   0  0  0  0  0  0  0  0  0  0  0  0
   32.9640   17.8880   22.6040 C   0  0  0  0  0  0  0  0  0  0  0  0
   32.1280   19.1130   22.2780 C   0  0  0  0  0  0  0  0  0  0  0  0
   32.1780   20.2840   23.3010 C   0  0  2  0  0  0  0  0  0  0  0  0
   31.9840   21.9540   22.3540 N   0  0  0  0  0  0  0  0  0  0  0  0
   33.4750   23.5100   22.1290 S   0  0  0  0  0  6  0  0  0  0  0  0
   34.7810   22.9920   22.4830 O   0  0  0  0  0  0  0  0  0  0  0  0
   33.2760   24.1070   20.8220 O   0  0  0  0  0  0  0  0  0  0  0  0
   33.0040   25.0200   23.7270 C   0  0  0  0  0  0  0  0  0  0  0  0
   31.9510   24.4170   24.9300 C   0  0  0  0  0  0  0  0  0  0  0  0
   31.4750   25.5200   26.1680 C   0  0  0  0  0  0  0  0  0  0  0  0
   31.9820   27.1960   26.3090 C   0  0  0  0  0  0  0  0  0  0  0  0
   31.5030   28.0130   27.3170 C   0  0  0  0  0  0  0  0  0  0  0  0
   31.8780   29.3610   27.3740 C   0  0  0  0  0  0  0  0  0  0  0  0
   32.7600   29.9690   26.4490 C   0  0  0  0  0  0  0  0  0  0  0  0
   33.3520   29.2890   25.3730 C   0  0  0  0  0  0  0  0  0  0  0  0
   33.0610   27.9420   25.1570 C   0  0  0  0  0  0  0  0  0  0  0  0
   33.6230   26.8790   23.8140 C   0  0  0  0  0  0  0  0  0  0  0  0
   40.8500   21.5000   26.9530 C   0  0  0  0  0  0  0  0  0  0  0  0
   41.6660   22.0440   28.0240 C   0  0  0  0  0  0  0  0  0  0  0  0
   41.8300   23.3740   28.5160 C   0  0  0  0  0  0  0  0  0  0  0  0
   41.2810   24.4400   27.8630 C   0  0  0  0  0  0  0  0  0  0  0  0
   41.8140   25.8020   28.1130 C   0  0  0  0  0  0  0  0  0  0  0  0
   43.2310   26.1660   27.8110 C   0  0  0  0  0  0  0  0  0  0  0  0
   43.8090   27.3340   27.9320 N   0  0  0  0  0  0  0  0  0  0  0  0
   45.0780   27.1830   27.3990 C   0  0  0  0  0  0  0  0  0  0  0  0
   46.0200   28.1340   27.1930 C   0  0  0  0  0  0  0  0  0  0  0  0
   47.2360   27.7060   26.4270 C   0  0  0  0  0  0  0  0  0  0  0  0
   48.3530   27.2420   27.1520 C   0  0  0  0  0  0  0  0  0  0  0  0
   49.5250   26.8750   26.4910 C   0  0  0  0  0  0  0  0  0  0  0  0
   49.5860   26.9600   25.1020 C   0  0  0  0  0  0  0  0  0  0  0  0
   48.4750   27.4170   24.3750 C   0  0  0  0  0  0  0  0  0  0  0  0
   48.5960   27.5250   22.5870 S   0  0  0  0  0  6  0  0  0  0  0  0
   48.5790   26.1190   22.1960 O   0  0  0  0  0  0  0  0  0  0  0  0
   47.3890   28.2710   22.2200 O   0  0  0  0  0  0  0  0  0  0  0  0
   49.8380   28.2510   22.3480 O   0  0  0  0  0  1  0  0  0  0  0  0
   47.3020   27.7880   25.0270 C   0  0  0  0  0  0  0  0  0  0  0  0
   46.2480   28.2730   24.3560 F   0  0  0  0  0  0  0  0  0  0  0  0
   45.8890   29.5170   27.5690 C   0  0  0  0  0  0  0  0  0  0  0  0
   46.7940   30.5490   27.3900 C   0  0  0  0  0  0  0  0  0  0  0  0
   46.2410   31.7190   27.9300 C   0  0  0  0  0  0  0  0  0  0  0  0
   44.9970   31.4100   28.4590 C   0  0  0  0  0  0  0  0  0  0  0  0
   44.7880   30.0620   28.2160 N   0  0  0  0  0  0  0  0  0  0  0  0
   44.0810   32.2760   29.1590 C   0  0  0  0  0  0  0  0  0  0  0  0
   44.4970   33.6970   29.3980 C   0  0  0  0  0  0  0  0  0  0  0  0
   45.0440   34.0510   30.6470 C   0  0  0  0  0  0  0  0  0  0  0  0
   45.4720   35.3550   30.8830 C   0  0  0  0  0  0  0  0  0  0  0  0
   45.3870   36.3050   29.8670 C   0  0  0  0  0  0  0  0  0  0  0  0
   44.8490   35.9570   28.6180 C   0  0  0  0  0  0  0  0  0  0  0  0
   44.8250   37.2050   27.3250 S   0  0  0  0  0  6  0  0  0  0  0  0
   43.4050   37.2610   26.9850 O   0  0  0  0  0  0  0  0  0  0  0  0
   45.3350   38.3920   28.0130 O   0  0  0  0  0  0  0  0  0  0  0  0
   45.7120   36.6930   26.2870 O   0  0  0  0  0  1  0  0  0  0  0  0
   44.3930   34.6650   28.3830 C   0  0  0  0  0  0  0  0  0  0  0  0
   43.8350   34.3170   27.2140 F   0  0  0  0  0  0  0  0  0  0  0  0
   42.8770   31.8990   29.6490 C   0  0  0  0  0  0  0  0  0  0  0  0
   42.2510   30.6690   29.5390 N   0  0  0  0  0  0  0  0  0  0  0  0
   41.0960   30.8030   30.1410 C   0  0  0  0  0  0  0  0  0  0  0  0
   39.9700   29.8240   30.2050 C   0  0  0  0  0  0  0  0  0  0  0  0
   38.6620   30.1570   30.8290 C   0  0  0  0  0  0  0  0  0  0  0  0
   38.4210   29.8150   32.1730 C   0  0  0  0  0  0  0  0  0  0  0  0
   37.2370   30.2060   32.8000 C   0  0  0  0  0  0  0  0  0  0  0  0
   36.2980   30.9640   32.1020 C   0  0  0  0  0  0  0  0  0  0  0  0
   36.5330   31.3160   30.7650 C   0  0  0  0  0  0  0  0  0  0  0  0
   35.3470   32.3850   29.9390 S   0  0  0  0  0  6  0  0  0  0  0  0
   34.8670   31.5270   28.8600 O   0  0  0  0  0  0  0  0  0  0  0  0
   34.3660   32.6520   30.9920 O   0  0  0  0  0  0  0  0  0  0  0  0
   36.1190   33.5560   29.5400 O   0  0  0  0  0  1  0  0  0  0  0  0
   37.6970   30.9020   30.1240 C   0  0  0  0  0  0  0  0  0  0  0  0
   37.9340   31.2060   28.8400 F   0  0  0  0  0  0  0  0  0  0  0  0
   40.1210   28.6370   29.5920 C   0  0  0  0  0  0  0  0  0  0  0  0
   39.0440   27.6810   29.4030 C   0  0  0  0  0  0  0  0  0  0  0  0
   39.5390   26.6090   28.7770 C   0  0  0  0  0  0  0  0  0  0  0  0
   40.9790   26.7600   28.5800 C   0  0  0  0  0  0  0  0  0  0  0  0
   41.2140   28.0470   28.9970 N   0  0  0  0  0  0  0  0  0  0  0  0
   40.8800   32.1140   30.7630 C   0  0  0  0  0  0  0  0  0  0  0  0
   41.9820   32.7600   30.4000 C   0  0  0  0  0  0  0  0  0  0  0  0
   45.2090   25.7930   27.0090 C   0  0  0  0  0  0  0  0  0  0  0  0
   44.0880   25.1190   27.2380 C   0  0  0  0  0  0  0  0  0  0  0  0
   40.3490   24.0980   26.9090 C   0  0  0  0  0  0  0  0  0  0  0  0
   40.1270   22.7170   26.5360 C   0  0  0  0  0  0  0  0  0  0  0  0
   38.1215   19.4039   23.7095 H   0  0  0  0  0  0  0  0  0  0  0  0
   37.1714   18.8801   25.1820 H   0  0  0  0  0  0  0  0  0  0  0  0
   38.4454   21.6305   25.9452 H   0  0  0  0  0  0  0  0  0  0  0  0
   37.6554   21.8571   24.3129 H   0  0  0  0  0  0  0  0  0  0  0  0
   32.2862   20.4511   25.4798 H   0  0  0  0  0  0  0  0  0  0  0  0
   34.7984   18.8531   24.2134 H   0  0  0  0  0  0  0  0  0  0  0  0
   34.0586   18.3256   25.8135 H   0  0  0  0  0  0  0  0  0  0  0  0
   33.5583   16.6366   24.2456 H   0  0  0  0  0  0  0  0  0  0  0  0
   32.0534   17.5969   24.5211 H   0  0  0  0  0  0  0  0  0  0  0  0
   33.9782   18.0418   22.2068 H   0  0  0  0  0  0  0  0  0  0  0  0
   32.4654   17.0219   22.1444 H   0  0  0  0  0  0  0  0  0  0  0  0
   32.4711   19.5025   21.3082 H   0  0  0  0  0  0  0  0  0  0  0  0
   31.0852   18.7632   22.2890 H   0  0  0  0  0  0  0  0  0  0  0  0
   31.3132   20.2989   23.9806 H   0  0  0  0  0  0  0  0  0  0  0  0
   31.1890   22.4150   22.7960 H   0  0  0  0  0  0  0  0  0  0  0  0
   31.5942   23.3766   24.9157 H   0  0  0  0  0  0  0  0  0  0  0  0
   30.7909   25.1387   26.9404 H   0  0  0  0  0  0  0  0  0  0  0  0
   30.8237   27.6016   28.0781 H   0  0  0  0  0  0  0  0  0  0  0  0
   31.4642   29.9817   28.1824 H   0  0  0  0  0  0  0  0  0  0  0  0
   32.9951   31.0355   26.5808 H   0  0  0  0  0  0  0  0  0  0  0  0
   34.0443   29.8176   24.7012 H   0  0  0  0  0  0  0  0  0  0  0  0
   34.3087   27.2705   23.0482 H   0  0  0  0  0  0  0  0  0  0  0  0
   42.2692   21.2923   28.5541 H   0  0  0  0  0  0  0  0  0  0  0  0
   42.4082   23.5428   29.4364 H   0  0  0  0  0  0  0  0  0  0  0  0
   48.2995   27.1689   28.2483 H   0  0  0  0  0  0  0  0  0  0  0  0
   50.3954   26.5208   27.0628 H   0  0  0  0  0  0  0  0  0  0  0  0
   50.5059   26.6687   24.5738 H   0  0  0  0  0  0  0  0  0  0  0  0
   47.7786   30.4656   26.9068 H   0  0  0  0  0  0  0  0  0  0  0  0
   46.7134   32.7124   27.9334 H   0  0  0  0  0  0  0  0  0  0  0  0
   43.9780   29.5630   28.4660 H   0  0  0  0  0  0  0  0  0  0  0  0
   45.1335   33.2937   31.4397 H   0  0  0  0  0  0  0  0  0  0  0  0
   45.8756   35.6340   31.8675 H   0  0  0  0  0  0  0  0  0  0  0  0
   45.7426   37.3307   30.0443 H   0  0  0  0  0  0  0  0  0  0  0  0
   39.1705   29.2360   32.7326 H   0  0  0  0  0  0  0  0  0  0  0  0
   37.0450   29.9164   33.8437 H   0  0  0  0  0  0  0  0  0  0  0  0
   35.3719   31.2863   32.6004 H   0  0  0  0  0  0  0  0  0  0  0  0
   37.9996   27.8162   29.7207 H   0  0  0  0  0  0  0  0  0  0  0  0
   38.9477   25.7386   28.4563 H   0  0  0  0  0  0  0  0  0  0  0  0
   42.0800   28.5030   28.8820 H   0  0  0  0  0  0  0  0  0  0  0  0
   40.0321   32.4673   31.3681 H   0  0  0  0  0  0  0  0  0  0  0  0
   42.1900   33.8136   30.6382 H   0  0  0  0  0  0  0  0  0  0  0  0
   46.1205   25.3528   26.5784 H   0  0  0  0  0  0  0  0  0  0  0  0
   43.8614   24.0593   27.0491 H   0  0  0  0  0  0  0  0  0  0  0  0
   39.7616   24.8896   26.4207 H   0  0  0  0  0  0  0  0  0  0  0  0
   39.2944   22.5497   25.8368 H   0  0  0  0  0  0  0  0  0  0  0  0
  1  2  2  0
  2  3  1  0
  3  4  1  0
  4  5  1  0
  5  6  1  0
  6  7  1  0
  7  8  2  0
  7  9  1  0
  9 10  1  0
 10 11  1  0
 11 12  1  0
 12 13  1  0
 13 14  1  0
 14 15  1  0
 15 16  1  0
 16 17  2  0
 16 18  2  0
 16 19  1  0
 19 20  2  0
 20 21  1  0
 21 22  2  0
 22 23  1  0
 23 24  2  0
 24 25  1  0
 25 26  2  0
 26 27  1  0
 27 28  2  0
  2 29  1  0
 29 30  2  0
 30 31  1  0
 31 32  2  0
 32 33  1  0
 33 34  1  0
 34 35  2  0
 35 36  1  0
 36 37  2  0
 37 38  1  0
 38 39  2  0
 39 40  1  0
 40 41  2  0
 41 42  1  0
 42 43  1  0
 43 44  2  0
 43 45  2  0
 43 46  1  0
 42 47  2  0
 47 48  1  0
 37 49  1  0
 49 50  2  0
 50 51  1  0
 51 52  2  0
 52 53  1  0
 52 54  1  0
 54 55  1  0
 55 56  2  0
 56 57  1  0
 57 58  2  0
 58 59  1  0
 59 60  1  0
 60 61  2  0
 60 62  2  0
 60 63  1  0
 59 64  2  0
 64 65  1  0
 54 66  2  0
 66 67  1  0
 67 68  2  0
 68 69  1  0
 69 70  1  0
 70 71  2  0
 71 72  1  0
 72 73  2  0
 73 74  1  0
 74 75  1  0
 75 76  2  0
 75 77  2  0
 75 78  1  0
 74 79  2  0
 79 80  1  0
 69 81  2  0
 81 82  1  0
 82 83  2  0
 83 84  1  0
 84 85  1  0
 68 86  1  0
 86 87  2  0
 36 88  1  0
 88 89  2  0
 32 90  1  0
 90 91  2  0
 14  9  1  0
 28 19  1  0
 91 29  1  0
 27 22  1  0
 84 33  2  0
 89 34  1  0
 47 38  1  0
 53 49  1  0
 64 55  1  0
 87 66  1  0
 79 70  1  0
 85 81  1  0
  4 92  1  0
  4 93  1  0
  5 94  1  0
  5 95  1  0
  9 96  1  1
 10 97  1  0
 10 98  1  0
 11 99  1  0
 11100  1  0
 12101  1  0
 12102  1  0
 13103  1  0
 13104  1  0
 14105  1  1
 15106  1  0
 20107  1  0
 21108  1  0
 23109  1  0
 24110  1  0
 25111  1  0
 26112  1  0
 28113  1  0
 30114  1  0
 31115  1  0
 39116  1  0
 40117  1  0
 41118  1  0
 50119  1  0
 51120  1  0
 53121  1  0
 56122  1  0
 57123  1  0
 58124  1  0
 71125  1  0
 72126  1  0
 73127  1  0
 82128  1  0
 83129  1  0
 85130  1  0
 86131  1  0
 87132  1  0
 88133  1  0
 89134  1  0
 90135  1  0
 91136  1  0
M  CHG  3  46  -1  63  -1  78  -1
M  END
>  <meeko>  (1) 
{"free_energy": -19.2}

$$$$

     RDKit          3D

136147  0  0  0  0  0  0  0  0999 V2000
   41.7350   18.9450   25.9140 O   0  0  0  0  0  0  0  0  0  0  0  0
   40.8310   19.7640   26.1650 C   0  0  0  0  0  0  0  0  0  0  0  0
   39.5370   18.8770   25.6180 O   0  0  0  0  0  0  0  0  0  0  0  0
   38.0400   19.4610   24.9240 C   0  0  0  0  0  0  0  0  0  0  0  0
   37.7030   21.3000   25.2660 C   0  0  0  0  0  0  0  0  0  0  0  0
   35.8860   21.6500   26.1690 O   0  0  0  0  0  0  0  0  0  0  0  0
   34.2430   21.2210   26.1990 C   0  0  0  0  0  0  0  0  0  0  0  0
   33.7180   21.4410   27.3070 O   0  0  0  0  0  0  0  0  0  0  0  0
   33.1660   20.2090   24.9860 C   0  0  2  0  0  0  0  0  0  0  0  0
   33.8800   18.8500   24.7990 C   0  0  0  0  0  0  0  0  0  0  0  0
   33.0530   17.7740   24.1110 C   0  0  0  0  0  0  0  0  0  0  0  0
   32.9060   18.0700   22.6280 C   0  0  0  0  0  0  0  0  0  0  0  0
   32.0600   19.2960   22.3400 C   0  0  0  0  0  0  0  0  0  0  0  0
   32.1370   20.4550   23.3750 C   0  0  2  0  0  0  0  0  0  0  0  0
   31.9130   22.1360   22.4520 N   0  0  0  0  0  0  0  0  0  0  0  0
   33.4530   23.5880   21.9900 S   0  0  0  0  0  6  0  0  0  0  0  0
   34.7220   23.1450   22.5290 O   0  0  0  0  0  0  0  0  0  0  0  0
   33.3460   23.8880   20.5740 O   0  0  0  0  0  0  0  0  0  0  0  0
   32.9260   25.4150   23.1900 C   0  0  0  0  0  0  0  0  0  0  0  0
   31.6450   26.3190   22.5090 C   0  0  0  0  0  0  0  0  0  0  0  0
   31.2080   27.7770   23.3200 C   0  0  0  0  0  0  0  0  0  0  0  0
   31.9490   28.4090   24.7810 C   0  0  0  0  0  0  0  0  0  0  0  0
   31.5540   29.6170   25.3280 C   0  0  0  0  0  0  0  0  0  0  0  0
   32.2000   30.1260   26.4610 C   0  0  0  0  0  0  0  0  0  0  0  0
   33.2580   29.4600   27.1250 C   0  0  0  0  0  0  0  0  0  0  0  0
   33.7760   28.2200   26.7200 C   0  0  0  0  0  0  0  0  0  0  0  0
   33.2610   27.5880   25.5890 C   0  0  0  0  0  0  0  0  0  0  0  0
   33.8040   26.0470   24.8260 C   0  0  0  0  0  0  0  0  0  0  0  0
   40.8650   21.6200   26.9360 C   0  0  0  0  0  0  0  0  0  0  0  0
   41.6460   22.2050   28.0120 C   0  0  0  0  0  0  0  0  0  0  0  0
   41.7840   23.5510   28.4660 C   0  0  0  0  0  0  0  0  0  0  0  0
   41.2440   24.5910   27.7660 C   0  0  0  0  0  0  0  0  0  0  0  0
   41.7570   25.9650   27.9880 C   0  0  0  0  0  0  0  0  0  0  0  0
   40.9040   27.0450   28.5700 C   0  0  0  0  0  0  0  0  0  0  0  0
   41.2440   28.2740   28.8640 N   0  0  0  0  0  0  0  0  0  0  0  0
   40.1450   28.8280   29.4980 C   0  0  0  0  0  0  0  0  0  0  0  0
   40.0410   30.0410   30.0910 C   0  0  0  0  0  0  0  0  0  0  0  0
   38.7800   30.2950   30.8610 C   0  0  0  0  0  0  0  0  0  0  0  0
   38.6020   29.6270   32.0900 C   0  0  0  0  0  0  0  0  0  0  0  0
   37.4280   29.7920   32.8240 C   0  0  0  0  0  0  0  0  0  0  0  0
   36.4290   30.6320   32.3410 C   0  0  0  0  0  0  0  0  0  0  0  0
   36.6020   31.3050   31.1210 C   0  0  0  0  0  0  0  0  0  0  0  0
   35.2870   32.3710   30.5250 S   0  0  0  0  0  6  0  0  0  0  0  0
   34.3000   32.2630   31.5950 O   0  0  0  0  0  0  0  0  0  0  0  0
   35.9390   33.6790   30.4300 O   0  0  0  0  0  0  0  0  0  0  0  0
   34.9110   31.8010   29.2360 O   0  0  0  0  0  1  0  0  0  0  0  0
   37.7700   31.1440   30.3810 C   0  0  0  0  0  0  0  0  0  0  0  0
   37.9360   31.7380   29.1900 F   0  0  0  0  0  0  0  0  0  0  0  0
   41.0770   31.0390   30.1090 C   0  0  0  0  0  0  0  0  0  0  0  0
   41.0570   32.2940   30.6940 C   0  0  0  0  0  0  0  0  0  0  0  0
   42.2850   32.9190   30.4390 C   0  0  0  0  0  0  0  0  0  0  0  0
   43.0650   32.0580   29.6810 C   0  0  0  0  0  0  0  0  0  0  0  0
   42.3180   30.9050   29.5010 N   0  0  0  0  0  0  0  0  0  0  0  0
   44.3810   32.2850   29.1390 C   0  0  0  0  0  0  0  0  0  0  0  0
   45.0200   33.6220   29.3710 C   0  0  0  0  0  0  0  0  0  0  0  0
   45.7440   33.8390   30.5590 C   0  0  0  0  0  0  0  0  0  0  0  0
   46.3780   35.0590   30.7830 C   0  0  0  0  0  0  0  0  0  0  0  0
   46.3190   36.0570   29.8120 C   0  0  0  0  0  0  0  0  0  0  0  0
   45.6040   35.8440   28.6230 C   0  0  0  0  0  0  0  0  0  0  0  0
   45.6190   37.1400   27.3780 S   0  0  0  0  0  6  0  0  0  0  0  0
   46.4210   38.1740   28.0280 O   0  0  0  0  0  0  0  0  0  0  0  0
   46.2710   36.4890   26.2410 O   0  0  0  0  0  0  0  0  0  0  0  0
   44.2160   37.4670   27.1530 O   0  0  0  0  0  1  0  0  0  0  0  0
   44.9450   34.6400   28.4030 C   0  0  0  0  0  0  0  0  0  0  0  0
   44.2190   34.4270   27.2960 F   0  0  0  0  0  0  0  0  0  0  0  0
   45.0830   31.3900   28.4040 C   0  0  0  0  0  0  0  0  0  0  0  0
   44.7390   30.0910   28.0750 N   0  0  0  0  0  0  0  0  0  0  0  0
   45.7470   29.6190   27.3850 C   0  0  0  0  0  0  0  0  0  0  0  0
   45.9580   28.2250   26.8940 C   0  0  0  0  0  0  0  0  0  0  0  0
   47.2140   27.8010   26.2200 C   0  0  0  0  0  0  0  0  0  0  0  0
   48.2160   27.1430   26.9570 C   0  0  0  0  0  0  0  0  0  0  0  0
   49.3570   26.6540   26.3190 C   0  0  0  0  0  0  0  0  0  0  0  0
   49.4940   26.7920   24.9380 C   0  0  0  0  0  0  0  0  0  0  0  0
   48.4970   27.4380   24.1950 C   0  0  0  0  0  0  0  0  0  0  0  0
   48.6640   27.4950   22.4050 S   0  0  0  0  0  6  0  0  0  0  0  0
   47.4810   28.2560   22.0150 O   0  0  0  0  0  0  0  0  0  0  0  0
   49.9340   28.1990   22.2230 O   0  0  0  0  0  0  0  0  0  0  0  0
   48.7000   26.0970   21.9920 O   0  0  0  0  0  1  0  0  0  0  0  0
   47.3720   27.9570   24.8280 C   0  0  0  0  0  0  0  0  0  0  0  0
   46.4160   28.6000   24.1430 F   0  0  0  0  0  0  0  0  0  0  0  0
   45.0140   27.3050   27.1610 C   0  0  0  0  0  0  0  0  0  0  0  0
   45.1810   25.8820   26.9230 C   0  0  0  0  0  0  0  0  0  0  0  0
   44.0530   25.2610   27.2800 C   0  0  0  0  0  0  0  0  0  0  0  0
   43.0520   26.2380   27.7040 C   0  0  0  0  0  0  0  0  0  0  0  0
   43.7540   27.4180   27.7050 N   0  0  0  0  0  0  0  0  0  0  0  0
   46.8220   30.5860   27.1380 C   0  0  0  0  0  0  0  0  0  0  0  0
   46.3850   31.6420   27.8150 C   0  0  0  0  0  0  0  0  0  0  0  0
   39.1030   27.8200   29.4920 C   0  0  0  0  0  0  0  0  0  0  0  0
   39.5240   26.6920   28.9320 C   0  0  0  0  0  0  0  0  0  0  0  0
   40.3420   24.2100   26.7970 C   0  0  0  0  0  0  0  0  0  0  0  0
   40.1430   22.8160   26.4610 C   0  0  0  0  0  0  0  0  0  0  0  0
   38.0814   19.3126   23.8348 H   0  0  0  0  0  0  0  0  0  0  0  0
   37.2247   18.8925   25.3954 H   0  0  0  0  0  0  0  0  0  0  0  0
   38.4976   21.6829   25.9232 H   0  0  0  0  0  0  0  0  0  0  0  0
   37.6834   21.8112   24.2922 H   0  0  0  0  0  0  0  0  0  0  0  0
   32.3057   20.5976   25.5507 H   0  0  0  0  0  0  0  0  0  0  0  0
   34.7849   19.0207   24.1973 H   0  0  0  0  0  0  0  0  0  0  0  0
   34.0904   18.4735   25.8109 H   0  0  0  0  0  0  0  0  0  0  0  0
   33.5511   16.8013   24.2367 H   0  0  0  0  0  0  0  0  0  0  0  0
   32.0521   17.7543   24.5668 H   0  0  0  0  0  0  0  0  0  0  0  0
   33.9080   18.2300   22.2032 H   0  0  0  0  0  0  0  0  0  0  0  0
   32.3949   17.2084   22.1737 H   0  0  0  0  0  0  0  0  0  0  0  0
   32.3752   19.6974   21.3656 H   0  0  0  0  0  0  0  0  0  0  0  0
   31.0184   18.9442   22.3758 H   0  0  0  0  0  0  0  0  0  0  0  0
   31.2925   20.4595   24.0798 H   0  0  0  0  0  0  0  0  0  0  0  0
   31.2270   22.6490   23.0050 H   0  0  0  0  0  0  0  0  0  0  0  0
   31.1250   25.9871   21.5983 H   0  0  0  0  0  0  0  0  0  0  0  0
   30.3889   28.3657   22.8812 H   0  0  0  0  0  0  0  0  0  0  0  0
   30.7278   30.1806   24.8701 H   0  0  0  0  0  0  0  0  0  0  0  0
   31.8671   31.0968   26.8570 H   0  0  0  0  0  0  0  0  0  0  0  0
   33.6997   29.9422   28.0095 H   0  0  0  0  0  0  0  0  0  0  0  0
   34.5869   27.7476   27.2939 H   0  0  0  0  0  0  0  0  0  0  0  0
   34.6224   25.4652   25.2752 H   0  0  0  0  0  0  0  0  0  0  0  0
   42.2408   21.4761   28.5821 H   0  0  0  0  0  0  0  0  0  0  0  0
   42.3351   23.7538   29.3961 H   0  0  0  0  0  0  0  0  0  0  0  0
   39.3965   28.9698   32.4732 H   0  0  0  0  0  0  0  0  0  0  0  0
   37.2924   29.2619   33.7782 H   0  0  0  0  0  0  0  0  0  0  0  0
   35.5016   30.7690   32.9165 H   0  0  0  0  0  0  0  0  0  0  0  0
   40.2201   32.7264   31.2619 H   0  0  0  0  0  0  0  0  0  0  0  0
   42.5802   33.9217   30.7816 H   0  0  0  0  0  0  0  0  0  0  0  0
   42.6230   30.1070   29.0120 H   0  0  0  0  0  0  0  0  0  0  0  0
   45.8093   33.0414   31.3137 H   0  0  0  0  0  0  0  0  0  0  0  0
   46.9229   35.2339   31.7224 H   0  0  0  0  0  0  0  0  0  0  0  0
   46.8343   37.0146   29.9779 H   0  0  0  0  0  0  0  0  0  0  0  0
   48.0993   27.0132   28.0431 H   0  0  0  0  0  0  0  0  0  0  0  0
   50.1468   26.1606   26.9044 H   0  0  0  0  0  0  0  0  0  0  0  0
   50.3855   26.3934   24.4316 H   0  0  0  0  0  0  0  0  0  0  0  0
   46.0821   25.3982   26.5181 H   0  0  0  0  0  0  0  0  0  0  0  0
   43.8999   24.1719   27.2580 H   0  0  0  0  0  0  0  0  0  0  0  0
   43.3920   28.2630   28.0610 H   0  0  0  0  0  0  0  0  0  0  0  0
   47.7438   30.4681   26.5494 H   0  0  0  0  0  0  0  0  0  0  0  0
   46.9393   32.5868   27.9162 H   0  0  0  0  0  0  0  0  0  0  0  0
   38.0924   27.9705   29.8994 H   0  0  0  0  0  0  0  0  0  0  0  0
   38.9840   25.7459   28.7797 H   0  0  0  0  0  0  0  0  0  0  0  0
   39.7615   24.9802   26.2681 H   0  0  0  0  0  0  0  0  0  0  0  0
   39.3322   22.6188   25.7443 H   0  0  0  0  0  0  0  0  0  0  0  0
  1  2  2  0
  2  3  1  0
  3  4  1  0
  4  5  1  0
  5  6  1  0
  6  7  1  0
  7  8  2  0
  7  9  1  0
  9 10  1  0
 10 11  1  0
 11 12  1  0
 12 13  1  0
 13 14  1  0
 14 15  1  0
 15 16  1  0
 16 17  2  0
 16 18  2  0
 16 19  1  0
 19 20  2  0
 20 21  1  0
 21 22  2  0
 22 23  1  0
 23 24  2  0
 24 25  1  0
 25 26  2  0
 26 27  1  0
 27 28  2  0
  2 29  1  0
 29 30  2  0
 30 31  1  0
 31 32  2  0
 32 33  1  0
 33 34  1  0
 34 35  2  0
 35 36  1  0
 36 37  2  0
 37 38  1  0
 38 39  2  0
 39 40  1  0
 40 41  2  0
 41 42  1  0
 42 43  1  0
 43 44  2  0
 43 45  2  0
 43 46  1  0
 42 47  2  0
 47 48  1  0
 37 49  1  0
 49 50  2  0
 50 51  1  0
 51 52  2  0
 52 53  1  0
 52 54  1  0
 54 55  1  0
 55 56  2  0
 56 57  1  0
 57 58  2  0
 58 59  1  0
 59 60  1  0
 60 61  2  0
 60 62  2  0
 60 63  1  0
 59 64  2  0
 64 65  1  0
 54 66  2  0
 66 67  1  0
 67 68  2  0
 68 69  1  0
 69 70  1  0
 70 71  2  0
 71 72  1  0
 72 73  2  0
 73 74  1  0
 74 75  1  0
 75 76  2  0
 75 77  2  0
 75 78  1  0
 74 79  2  0
 79 80  1  0
 69 81  2  0
 81 82  1  0
 82 83  2  0
 83 84  1  0
 84 85  1  0
 68 86  1  0
 86 87  2  0
 36 88  1  0
 88 89  2  0
 32 90  1  0
 90 91  2  0
 14  9  1  0
 28 19  1  0
 91 29  1  0
 27 22  1  0
 84 33  2  0
 89 34  1  0
 47 38  1  0
 53 49  1  0
 64 55  1  0
 87 66  1  0
 79 70  1  0
 85 81  1  0
  4 92  1  0
  4 93  1  0
  5 94  1  0
  5 95  1  0
  9 96  1  1
 10 97  1  0
 10 98  1  0
 11 99  1  0
 11100  1  0
 12101  1  0
 12102  1  0
 13103  1  0
 13104  1  0
 14105  1  1
 15106  1  0
 20107  1  0
 21108  1  0
 23109  1  0
 24110  1  0
 25111  1  0
 26112  1  0
 28113  1  0
 30114  1  0
 31115  1  0
 39116  1  0
 40117  1  0
 41118  1  0
 50119  1  0
 51120  1  0
 53121  1  0
 56122  1  0
 57123  1  0
 58124  1  0
 71125  1  0
 72126  1  0
 73127  1  0
 82128  1  0
 83129  1  0
 85130  1  0
 86131  1  0
 87132  1  0
 88133  1  0
 89134  1  0
 90135  1  0
 91136  1  0
M  CHG  3  46  -1  63  -1  78  -1
M  END
>  <meeko>  (2) 
{"free_energy": -18.7}

$$$$

     RDKit          3D

136147  0  0  0  0  0  0  0  0999 V2000
   41.5470   18.8790   25.8380 O   0  0  0  0  0  0  0  0  0  0  0  0
   40.6580   19.6900   26.1580 C   0  0  0  0  0  0  0  0  0  0  0  0
   39.3350   18.8060   25.6790 O   0  0  0  0  0  0  0  0  0  0  0  0
   38.1300   19.2250   24.4800 C   0  0  0  0  0  0  0  0  0  0  0  0
   36.9320   20.5880   25.0420 C   0  0  0  0  0  0  0  0  0  0  0  0
   34.9490   20.0420   24.9240 O   0  0  0  0  0  0  0  0  0  0  0  0
   33.3580   20.6110   24.7560 C   0  0  0  0  0  0  0  0  0  0  0  0
   32.6700   19.8780   24.0220 O   0  0  0  0  0  0  0  0  0  0  0  0
   32.5450   22.2790   25.2180 C   0  0  2  0  0  0  0  0  0  0  0  0
   31.5700   21.9820   26.3810 C   0  0  0  0  0  0  0  0  0  0  0  0
   31.0360   23.2080   27.1070 C   0  0  0  0  0  0  0  0  0  0  0  0
   30.0220   23.9450   26.2480 C   0  0  0  0  0  0  0  0  0  0  0  0
   30.6330   24.5950   25.0200 C   0  0  0  0  0  0  0  0  0  0  0  0
   31.8360   23.8570   24.3660 C   0  0  2  0  0  0  0  0  0  0  0  0
   31.7990   24.1620   22.4610 N   0  0  0  0  0  0  0  0  0  0  0  0
   32.3660   25.9740   21.4170 S   0  0  0  0  0  6  0  0  0  0  0  0
   33.8060   26.0280   21.2750 O   0  0  0  0  0  0  0  0  0  0  0  0
   31.5300   26.0660   20.2350 O   0  0  0  0  0  0  0  0  0  0  0  0
   31.8650   27.6540   22.8260 C   0  0  0  0  0  0  0  0  0  0  0  0
   30.4440   28.4960   22.3880 C   0  0  0  0  0  0  0  0  0  0  0  0
   30.0090   29.8460   23.3710 C   0  0  0  0  0  0  0  0  0  0  0  0
   30.8840   30.4240   24.7790 C   0  0  0  0  0  0  0  0  0  0  0  0
   30.4760   31.5490   25.4730 C   0  0  0  0  0  0  0  0  0  0  0  0
   31.2240   32.0210   26.5580 C   0  0  0  0  0  0  0  0  0  0  0  0
   32.4040   31.3980   27.0270 C   0  0  0  0  0  0  0  0  0  0  0  0
   32.9550   30.2410   26.4550 C   0  0  0  0  0  0  0  0  0  0  0  0
   32.3470   29.6560   25.3460 C   0  0  0  0  0  0  0  0  0  0  0  0
   32.8990   28.2300   24.3910 C   0  0  0  0  0  0  0  0  0  0  0  0
   40.7340   21.5350   26.9540 C   0  0  0  0  0  0  0  0  0  0  0  0
   41.5240   22.0860   28.0410 C   0  0  0  0  0  0  0  0  0  0  0  0
   41.6920   23.4220   28.5140 C   0  0  0  0  0  0  0  0  0  0  0  0
   41.1810   24.4840   27.8260 C   0  0  0  0  0  0  0  0  0  0  0  0
   41.7270   25.8420   28.0680 C   0  0  0  0  0  0  0  0  0  0  0  0
   43.1250   26.2130   27.6930 C   0  0  0  0  0  0  0  0  0  0  0  0
   43.7090   27.3790   27.8010 N   0  0  0  0  0  0  0  0  0  0  0  0
   44.9450   27.2390   27.1950 C   0  0  0  0  0  0  0  0  0  0  0  0
   45.8740   28.1950   26.9530 C   0  0  0  0  0  0  0  0  0  0  0  0
   47.0450   27.7810   26.1110 C   0  0  0  0  0  0  0  0  0  0  0  0
   46.9110   27.8360   24.7080 C   0  0  0  0  0  0  0  0  0  0  0  0
   47.9520   27.4200   23.8800 C   0  0  0  0  0  0  0  0  0  0  0  0
   49.1370   26.9550   24.4460 C   0  0  0  0  0  0  0  0  0  0  0  0
   49.2780   26.9040   25.8420 C   0  0  0  0  0  0  0  0  0  0  0  0
   50.8140   26.2870   26.5350 S   0  0  0  0  0  6  0  0  0  0  0  0
   50.4460   24.9300   26.9280 O   0  0  0  0  0  0  0  0  0  0  0  0
   51.7410   26.3600   25.4030 O   0  0  0  0  0  0  0  0  0  0  0  0
   51.1250   27.2140   27.6170 O   0  0  0  0  0  1  0  0  0  0  0  0
   48.2420   27.3150   26.6760 C   0  0  0  0  0  0  0  0  0  0  0  0
   48.3370   27.2270   28.0110 F   0  0  0  0  0  0  0  0  0  0  0  0
   45.7640   29.5710   27.3590 C   0  0  0  0  0  0  0  0  0  0  0  0
   46.6570   30.6070   27.1470 C   0  0  0  0  0  0  0  0  0  0  0  0
   46.1350   31.7660   27.7360 C   0  0  0  0  0  0  0  0  0  0  0  0
   44.9230   31.4480   28.3300 C   0  0  0  0  0  0  0  0  0  0  0  0
   44.7020   30.1030   28.0760 N   0  0  0  0  0  0  0  0  0  0  0  0
   44.0480   32.3000   29.0950 C   0  0  0  0  0  0  0  0  0  0  0  0
   44.4760   33.7170   29.3340 C   0  0  0  0  0  0  0  0  0  0  0  0
   45.2690   34.0130   30.4600 C   0  0  0  0  0  0  0  0  0  0  0  0
   45.7120   35.3150   30.6870 C   0  0  0  0  0  0  0  0  0  0  0  0
   45.3930   36.3210   29.7770 C   0  0  0  0  0  0  0  0  0  0  0  0
   44.6090   36.0310   28.6490 C   0  0  0  0  0  0  0  0  0  0  0  0
   44.2850   37.3530   27.4760 S   0  0  0  0  0  6  0  0  0  0  0  0
   44.2770   38.5300   28.3420 O   0  0  0  0  0  0  0  0  0  0  0  0
   45.4330   37.2710   26.5710 O   0  0  0  0  0  0  0  0  0  0  0  0
   43.0130   37.0070   26.8540 O   0  0  0  0  0  1  0  0  0  0  0  0
   44.1390   34.7400   28.4300 C   0  0  0  0  0  0  0  0  0  0  0  0
   43.3520   34.4460   27.3860 F   0  0  0  0  0  0  0  0  0  0  0  0
   42.8740   31.9140   29.6460 C   0  0  0  0  0  0  0  0  0  0  0  0
   42.2430   30.6850   29.5500 N   0  0  0  0  0  0  0  0  0  0  0  0
   41.1230   30.8070   30.2180 C   0  0  0  0  0  0  0  0  0  0  0  0
   40.0030   29.8260   30.3290 C   0  0  0  0  0  0  0  0  0  0  0  0
   38.7320   30.1460   31.0320 C   0  0  0  0  0  0  0  0  0  0  0  0
   38.5560   29.7560   32.3720 C   0  0  0  0  0  0  0  0  0  0  0  0
   37.4100   30.1330   33.0730 C   0  0  0  0  0  0  0  0  0  0  0  0
   36.4450   30.9260   32.4530 C   0  0  0  0  0  0  0  0  0  0  0  0
   36.6160   31.3260   31.1200 C   0  0  0  0  0  0  0  0  0  0  0  0
   35.4010   32.4360   30.3970 S   0  0  0  0  0  6  0  0  0  0  0  0
   36.2230   33.5830   30.0240 O   0  0  0  0  0  0  0  0  0  0  0  0
   34.8840   31.6590   29.2700 O   0  0  0  0  0  0  0  0  0  0  0  0
   34.4250   32.6590   31.4580 O   0  0  0  0  0  1  0  0  0  0  0  0
   37.7400   30.9270   30.4050 C   0  0  0  0  0  0  0  0  0  0  0  0
   37.9160   31.2770   29.1230 F   0  0  0  0  0  0  0  0  0  0  0  0
   40.1190   28.6500   29.6880 C   0  0  0  0  0  0  0  0  0  0  0  0
   39.0340   27.6960   29.5440 C   0  0  0  0  0  0  0  0  0  0  0  0
   39.4930   26.6350   28.8730 C   0  0  0  0  0  0  0  0  0  0  0  0
   40.9200   26.7910   28.5970 C   0  0  0  0  0  0  0  0  0  0  0  0
   41.1770   28.0710   29.0220 N   0  0  0  0  0  0  0  0  0  0  0  0
   40.9430   32.1070   30.8740 C   0  0  0  0  0  0  0  0  0  0  0  0
   42.0220   32.7600   30.4600 C   0  0  0  0  0  0  0  0  0  0  0  0
   45.0540   25.8560   26.7740 C   0  0  0  0  0  0  0  0  0  0  0  0
   43.9480   25.1770   27.0550 C   0  0  0  0  0  0  0  0  0  0  0  0
   40.2740   24.1380   26.8480 C   0  0  0  0  0  0  0  0  0  0  0  0
   40.0430   22.7540   26.4930 C   0  0  0  0  0  0  0  0  0  0  0  0
   38.6482   19.5708   23.5734 H   0  0  0  0  0  0  0  0  0  0  0  0
   37.5276   18.3221   24.3017 H   0  0  0  0  0  0  0  0  0  0  0  0
   37.1610   20.8431   26.0872 H   0  0  0  0  0  0  0  0  0  0  0  0
   37.0728   21.4418   24.3628 H   0  0  0  0  0  0  0  0  0  0  0  0
   33.5497   22.7104   25.0976 H   0  0  0  0  0  0  0  0  0  0  0  0
   30.7121   21.4275   25.9728 H   0  0  0  0  0  0  0  0  0  0  0  0
   32.1465   21.4131   27.1253 H   0  0  0  0  0  0  0  0  0  0  0  0
   30.5530   22.8909   28.0430 H   0  0  0  0  0  0  0  0  0  0  0  0
   31.8762   23.8853   27.3200 H   0  0  0  0  0  0  0  0  0  0  0  0
   29.2566   23.2270   25.9184 H   0  0  0  0  0  0  0  0  0  0  0  0
   29.5974   24.7505   26.8651 H   0  0  0  0  0  0  0  0  0  0  0  0
   29.8422   24.6821   24.2604 H   0  0  0  0  0  0  0  0  0  0  0  0
   31.0387   25.5549   25.3720 H   0  0  0  0  0  0  0  0  0  0  0  0
   32.8091   24.2825   24.6522 H   0  0  0  0  0  0  0  0  0  0  0  0
   30.8310   23.9950   22.1870 H   0  0  0  0  0  0  0  0  0  0  0  0
   29.8367   28.1926   21.5225 H   0  0  0  0  0  0  0  0  0  0  0  0
   29.0987   30.3955   23.0892 H   0  0  0  0  0  0  0  0  0  0  0  0
   29.5588   32.0755   25.1706 H   0  0  0  0  0  0  0  0  0  0  0  0
   30.8746   32.9270   27.0747 H   0  0  0  0  0  0  0  0  0  0  0  0
   32.9193   31.8460   27.8894 H   0  0  0  0  0  0  0  0  0  0  0  0
   33.8661   29.7963   26.8817 H   0  0  0  0  0  0  0  0  0  0  0  0
   33.8094   27.6864   24.6837 H   0  0  0  0  0  0  0  0  0  0  0  0
   42.0987   21.3353   28.6033 H   0  0  0  0  0  0  0  0  0  0  0  0
   42.2430   23.5988   29.4495 H   0  0  0  0  0  0  0  0  0  0  0  0
   45.9770   28.2104   24.2636 H   0  0  0  0  0  0  0  0  0  0  0  0
   47.8387   27.4586   22.7865 H   0  0  0  0  0  0  0  0  0  0  0  0
   49.9634   26.6273   23.7982 H   0  0  0  0  0  0  0  0  0  0  0  0
   47.6131   30.5330   26.6082 H   0  0  0  0  0  0  0  0  0  0  0  0
   46.6066   32.7598   27.7285 H   0  0  0  0  0  0  0  0  0  0  0  0
   43.9070   29.5990   28.3630 H   0  0  0  0  0  0  0  0  0  0  0  0
   45.5401   33.2124   31.1639 H   0  0  0  0  0  0  0  0  0  0  0  0
   46.3105   35.5473   31.5802 H   0  0  0  0  0  0  0  0  0  0  0  0
   45.7567   37.3458   29.9430 H   0  0  0  0  0  0  0  0  0  0  0  0
   39.3268   29.1499   32.8705 H   0  0  0  0  0  0  0  0  0  0  0  0
   37.2680   29.8051   34.1133 H   0  0  0  0  0  0  0  0  0  0  0  0
   35.5492   31.2379   33.0099 H   0  0  0  0  0  0  0  0  0  0  0  0
   38.0092   27.8245   29.9225 H   0  0  0  0  0  0  0  0  0  0  0  0
   38.8847   25.7694   28.5719 H   0  0  0  0  0  0  0  0  0  0  0  0
   42.0350   28.5300   28.8660 H   0  0  0  0  0  0  0  0  0  0  0  0
   40.1311   32.4490   31.5327 H   0  0  0  0  0  0  0  0  0  0  0  0
   42.2422   33.8099   30.7034 H   0  0  0  0  0  0  0  0  0  0  0  0
   45.9395   25.4244   26.2845 H   0  0  0  0  0  0  0  0  0  0  0  0
   43.7112   24.1203   26.8616 H   0  0  0  0  0  0  0  0  0  0  0  0
   39.7147   24.9290   26.3270 H   0  0  0  0  0  0  0  0  0  0  0  0
   39.2302   22.5859   25.7711 H   0  0  0  0  0  0  0  0  0  0  0  0
  1  2  2  0
  2  3  1  0
  3  4  1  0
  4  5  1  0
  5  6  1  0
  6  7  1  0
  7  8  2  0
  7  9  1  0
  9 10  1  0
 10 11  1  0
 11 12  1  0
 12 13  1  0
 13 14  1  0
 14 15  1  0
 15 16  1  0
 16 17  2  0
 16 18  2  0
 16 19  1  0
 19 20  2  0
 20 21  1  0
 21 22  2  0
 22 23  1  0
 23 24  2  0
 24 25  1  0
 25 26  2  0
 26 27  1  0
 27 28  2  0
  2 29  1  0
 29 30  2  0
 30 31  1  0
 31 32  2  0
 32 33  1  0
 33 34  1  0
 34 35  2  0
 35 36  1  0
 36 37  2  0
 37 38  1  0
 38 39  2  0
 39 40  1  0
 40 41  2  0
 41 42  1  0
 42 43  1  0
 43 44  2  0
 43 45  2  0
 43 46  1  0
 42 47  2  0
 47 48  1  0
 37 49  1  0
 49 50  2  0
 50 51  1  0
 51 52  2  0
 52 53  1  0
 52 54  1  0
 54 55  1  0
 55 56  2  0
 56 57  1  0
 57 58  2  0
 58 59  1  0
 59 60  1  0
 60 61  2  0
 60 62  2  0
 60 63  1  0
 59 64  2  0
 64 65  1  0
 54 66  2  0
 66 67  1  0
 67 68  2  0
 68 69  1  0
 69 70  1  0
 70 71  2  0
 71 72  1  0
 72 73  2  0
 73 74  1  0
 74 75  1  0
 75 76  2  0
 75 77  2  0
 75 78  1  0
 74 79  2  0
 79 80  1  0
 69 81  2  0
 81 82  1  0
 82 83  2  0
 83 84  1  0
 84 85  1  0
 68 86  1  0
 86 87  2  0
 36 88  1  0
 88 89  2  0
 32 90  1  0
 90 91  2  0
 14  9  1  0
 28 19  1  0
 91 29  1  0
 27 22  1  0
 84 33  2  0
 89 34  1  0
 47 38  1  0
 53 49  1  0
 64 55  1  0
 87 66  1  0
 79 70  1  0
 85 81  1  0
  4 92  1  0
  4 93  1  0
  5 94  1  0
  5 95  1  0
  9 96  1  1
 10 97  1  0
 10 98  1  0
 11 99  1  0
 11100  1  0
 12101  1  0
 12102  1  0
 13103  1  0
 13104  1  0
 14105  1  1
 15106  1  0
 20107  1  0
 21108  1  0
 23109  1  0
 24110  1  0
 25111  1  0
 26112  1  0
 28113  1  0
 30114  1  0
 31115  1  0
 39116  1  0
 40117  1  0
 41118  1  0
 50119  1  0
 51120  1  0
 53121  1  0
 56122  1  0
 57123  1  0
 58124  1  0
 71125  1  0
 72126  1  0
 73127  1  0
 82128  1  0
 83129  1  0
 85130  1  0
 86131  1  0
 87132  1  0
 88133  1  0
 89134  1  0
 90135  1  0
 91136  1  0
M  CHG  3  46  -1  63  -1  78  -1
M  END
>  <meeko>  (3) 
{"free_energy": -17.1}

$$$$

