ligands/1-CHEMBL1077
 OpenBabel10182222423D

131141  0  0  0  0  0  0  0  0999 V2000
    2.4013   -0.1832   -0.1490 N   0  0  0  0  0  0  0  0  0  0  0  0
    1.0171   -0.0532   -0.1749 C   0  0  0  0  0  0  0  0  0  0  0  0
    0.2278   -1.2376   -0.1602 C   0  0  0  0  0  0  0  0  0  0  0  0
    0.8342   -2.6294   -0.0813 C   0  0  0  0  0  0  0  0  0  0  0  0
    0.4424   -3.4379    1.1453 C   0  0  0  0  0  0  0  0  0  0  0  0
   -0.2279   -4.4677    1.0410 O   0  0  0  0  0  0  0  0  0  0  0  0
    0.8891   -3.0843    2.3849 N   0  0  0  0  0  0  0  0  0  0  0  0
    1.5679   -1.8745    2.7993 C   0  0  0  0  0  0  0  0  0  0  0  0
    0.6076   -0.9183    3.5072 C   0  0  0  0  0  0  0  0  0  0  0  0
    0.2483   -1.3677    4.9290 C   0  0  0  0  0  0  0  0  0  0  0  0
    1.4414   -1.4907    5.8844 C   0  0  0  0  0  0  0  0  0  0  0  0
    2.2739   -0.2160    6.0433 C   0  0  0  0  0  0  0  0  0  0  0  0
    1.5018    0.9713    6.6093 C   0  0  0  0  0  0  0  0  0  0  0  0
    1.0226    0.7120    7.9590 N   0  0  0  0  0  0  0  0  0  0  0  0
    1.2272    1.4280    9.1077 C   0  0  0  0  0  0  0  0  0  0  0  0
    0.9261    0.9446   10.2006 O   0  0  0  0  0  0  0  0  0  0  0  0
    1.8230    2.7768    9.0438 C   0  0  0  0  0  0  0  0  0  0  0  0
    2.8071    3.1278    9.9714 C   0  0  0  0  0  0  0  0  0  0  0  0
    3.4063    4.3866    9.9015 C   0  0  0  0  0  0  0  0  0  0  0  0
    3.0528    5.2843    8.8808 C   0  0  0  0  0  0  0  0  0  0  0  0
    3.7181    6.6050    8.7543 C   0  0  0  0  0  0  0  0  0  0  0  0
    2.9259    7.8693    8.9358 C   0  0  0  0  0  0  0  0  0  0  0  0
    3.3078    9.1139    8.7957 N   0  0  0  0  0  0  0  0  0  0  0  0
    2.1784    9.8847    9.0376 C   0  0  0  0  0  0  0  0  0  0  0  0
    2.0691   11.2342    9.0783 C   0  0  0  0  0  0  0  0  0  0  0  0
    0.7149   11.8124    9.3743 C   0  0  0  0  0  0  0  0  0  0  0  0
    0.1238   11.6918   10.6417 C   0  0  0  0  0  0  0  0  0  0  0  0
    0.7474   11.0115   11.6155 F   0  0  0  0  0  0  0  0  0  0  0  0
   -1.1316   12.2348   10.9026 C   0  0  0  0  0  0  0  0  0  0  0  0
   -1.6978   12.0613   12.1050 F   0  0  0  0  0  0  0  0  0  0  0  0
   -1.8028   12.9417    9.9167 C   0  0  0  0  0  0  0  0  0  0  0  0
   -3.0075   13.4704   10.1717 F   0  0  0  0  0  0  0  0  0  0  0  0
   -1.2276   13.0947    8.6643 C   0  0  0  0  0  0  0  0  0  0  0  0
   -1.8685   13.7903    7.7148 F   0  0  0  0  0  0  0  0  0  0  0  0
    0.0133   12.5251    8.3902 C   0  0  0  0  0  0  0  0  0  0  0  0
    0.5345   12.6770    7.1635 F   0  0  0  0  0  0  0  0  0  0  0  0
    3.1651   12.1412    8.8581 C   0  0  0  0  0  0  0  0  0  0  0  0
    3.1707   13.5229    8.9328 C   0  0  0  0  0  0  0  0  0  0  0  0
    4.4486   13.9746    8.5871 C   0  0  0  0  0  0  0  0  0  0  0  0
    5.2547   12.8726    8.3510 C   0  0  0  0  0  0  0  0  0  0  0  0
    4.4527   11.7542    8.5150 N   0  0  0  0  0  0  0  0  0  0  0  0
    6.6520   12.8416    8.0004 C   0  0  0  0  0  0  0  0  0  0  0  0
    7.3705   14.1542    7.8766 C   0  0  0  0  0  0  0  0  0  0  0  0
    7.7883   14.6523    6.6339 C   0  0  0  0  0  0  0  0  0  0  0  0
    7.5983   13.9308    5.5188 F   0  0  0  0  0  0  0  0  0  0  0  0
    8.4419   15.8781    6.5376 C   0  0  0  0  0  0  0  0  0  0  0  0
    8.8769   16.3112    5.3462 F   0  0  0  0  0  0  0  0  0  0  0  0
    8.6566   16.6445    7.6735 C   0  0  0  0  0  0  0  0  0  0  0  0
    9.2786   17.8275    7.5774 F   0  0  0  0  0  0  0  0  0  0  0  0
    8.2336   16.1809    8.9097 C   0  0  0  0  0  0  0  0  0  0  0  0
    8.4271   16.9263   10.0066 F   0  0  0  0  0  0  0  0  0  0  0  0
    7.6089   14.9415    9.0138 C   0  0  0  0  0  0  0  0  0  0  0  0
    7.2235   14.5140   10.2256 F   0  0  0  0  0  0  0  0  0  0  0  0
    7.3771   11.7144    7.7962 C   0  0  0  0  0  0  0  0  0  0  0  0
    6.9729   10.3888    7.8780 N   0  0  0  0  0  0  0  0  0  0  0  0
    8.0285    9.6707    7.5810 C   0  0  0  0  0  0  0  0  0  0  0  0
    8.1803    8.1738    7.5428 C   0  0  0  0  0  0  0  0  0  0  0  0
    9.4829    7.5490    7.1934 C   0  0  0  0  0  0  0  0  0  0  0  0
   10.5859    7.6582    8.0519 C   0  0  0  0  0  0  0  0  0  0  0  0
   10.4757    8.3453    9.1984 F   0  0  0  0  0  0  0  0  0  0  0  0
   11.8175    7.0995    7.7170 C   0  0  0  0  0  0  0  0  0  0  0  0
   12.8674    7.2601    8.5338 F   0  0  0  0  0  0  0  0  0  0  0  0
   11.9619    6.3929    6.5328 C   0  0  0  0  0  0  0  0  0  0  0  0
   13.1453    5.8523    6.2128 F   0  0  0  0  0  0  0  0  0  0  0  0
   10.8795    6.2538    5.6772 C   0  0  0  0  0  0  0  0  0  0  0  0
   11.0103    5.5579    4.5396 F   0  0  0  0  0  0  0  0  0  0  0  0
    9.6555    6.8376    5.9971 C   0  0  0  0  0  0  0  0  0  0  0  0
    8.6301    6.6977    5.1441 F   0  0  0  0  0  0  0  0  0  0  0  0
    7.1231    7.3989    7.8505 C   0  0  0  0  0  0  0  0  0  0  0  0
    7.1176    5.9392    7.8638 C   0  0  0  0  0  0  0  0  0  0  0  0
    5.8834    5.5087    8.1699 C   0  0  0  0  0  0  0  0  0  0  0  0
    5.0198    6.6647    8.4139 C   0  0  0  0  0  0  0  0  0  0  0  0
    5.8413    7.7437    8.2031 N   0  0  0  0  0  0  0  0  0  0  0  0
    9.2188   10.4648    7.2467 C   0  0  0  0  0  0  0  0  0  0  0  0
    8.7797   11.7009    7.4363 C   0  0  0  0  0  0  0  0  0  0  0  0
    1.0847    8.9689    9.2791 C   0  0  0  0  0  0  0  0  0  0  0  0
    1.5083    7.7140    9.2974 C   0  0  0  0  0  0  0  0  0  0  0  0
    2.0478    4.9265    7.9694 C   0  0  0  0  0  0  0  0  0  0  0  0
    1.3999    3.7004    8.0834 C   0  0  0  0  0  0  0  0  0  0  0  0
   -1.1763   -1.1490   -0.1769 C   0  0  0  0  0  0  0  0  0  0  0  0
   -1.8099    0.0853   -0.1804 C   0  0  0  0  0  0  0  0  0  0  0  0
   -1.0479    1.2491   -0.1699 C   0  0  0  0  0  0  0  0  0  0  0  0
    0.3610    1.2055   -0.1674 C   0  0  0  0  0  0  0  0  0  0  0  0
    1.0257    2.5532   -0.1020 C   0  0  0  0  0  0  0  0  0  0  0  0
    0.3684    3.5542    0.1841 O   0  0  0  0  0  0  0  0  0  0  0  0
    2.4745    2.7590   -0.2819 C   0  0  0  0  0  0  0  0  0  0  0  0
    3.1867    3.3372    0.7770 C   0  0  0  0  0  0  0  0  0  0  0  0
    4.5760    3.4412    0.7053 C   0  0  0  0  0  0  0  0  0  0  0  0
    5.2428    2.9787   -0.4291 C   0  0  0  0  0  0  0  0  0  0  0  0
    7.1307    3.0474   -0.4935 Br  0  0  0  0  0  0  0  0  0  0  0  0
    4.5314    2.4496   -1.5084 C   0  0  0  0  0  0  0  0  0  0  0  0
    3.1382    2.3560   -1.4450 C   0  0  0  0  0  0  0  0  0  0  0  0
    2.8119   -1.0780   -0.1555 H   0  0  0  0  0  0  0  0  0  0  0  0
    2.9707    0.6195   -0.1242 H   0  0  0  0  0  0  0  0  0  0  0  0
    1.8993   -2.5270   -0.0839 H   0  0  0  0  0  0  0  0  0  0  0  0
    0.4543   -3.1669   -0.9249 H   0  0  0  0  0  0  0  0  0  0  0  0
    0.7272   -3.7442    3.0974 H   0  0  0  0  0  0  0  0  0  0  0  0
    1.9724   -1.3879    1.9365 H   0  0  0  0  0  0  0  0  0  0  0  0
    2.3477   -2.1398    3.4823 H   0  0  0  0  0  0  0  0  0  0  0  0
   -0.2929   -0.8535    2.9330 H   0  0  0  0  0  0  0  0  0  0  0  0
    1.1014    0.0276    3.5873 H   0  0  0  0  0  0  0  0  0  0  0  0
   -0.2276   -2.3239    4.8657 H   0  0  0  0  0  0  0  0  0  0  0  0
   -0.3857   -0.6071    5.3346 H   0  0  0  0  0  0  0  0  0  0  0  0
    2.0836   -2.2634    5.5164 H   0  0  0  0  0  0  0  0  0  0  0  0
    1.0321   -1.7041    6.8497 H   0  0  0  0  0  0  0  0  0  0  0  0
    2.6531    0.0587    5.0812 H   0  0  0  0  0  0  0  0  0  0  0  0
    3.0482   -0.4414    6.7465 H   0  0  0  0  0  0  0  0  0  0  0  0
    0.6625    1.1718    5.9766 H   0  0  0  0  0  0  0  0  0  0  0  0
    2.1644    1.8106    6.6476 H   0  0  0  0  0  0  0  0  0  0  0  0
    0.4705   -0.0967    8.0607 H   0  0  0  0  0  0  0  0  0  0  0  0
    3.0898    2.4593   10.7051 H   0  0  0  0  0  0  0  0  0  0  0  0
    4.1124    4.6589   10.6031 H   0  0  0  0  0  0  0  0  0  0  0  0
    2.3700   14.1176    9.1979 H   0  0  0  0  0  0  0  0  0  0  0  0
    4.7415   14.9618    8.5193 H   0  0  0  0  0  0  0  0  0  0  0  0
    4.7523   10.8229    8.4044 H   0  0  0  0  0  0  0  0  0  0  0  0
    7.9315    5.3353    7.6692 H   0  0  0  0  0  0  0  0  0  0  0  0
    5.5905    4.5206    8.2244 H   0  0  0  0  0  0  0  0  0  0  0  0
    5.5403    8.6765    8.2958 H   0  0  0  0  0  0  0  0  0  0  0  0
   10.1518   10.1442    6.9438 H   0  0  0  0  0  0  0  0  0  0  0  0
    9.3634   12.5465    7.3397 H   0  0  0  0  0  0  0  0  0  0  0  0
    0.1033    9.2557    9.4188 H   0  0  0  0  0  0  0  0  0  0  0  0
    0.9815    6.8524    9.5098 H   0  0  0  0  0  0  0  0  0  0  0  0
    1.7878    5.5760    7.2107 H   0  0  0  0  0  0  0  0  0  0  0  0
    0.6090    3.4734    7.4605 H   0  0  0  0  0  0  0  0  0  0  0  0
   -1.7416   -2.0123   -0.1867 H   0  0  0  0  0  0  0  0  0  0  0  0
   -2.8404    0.1397   -0.1907 H   0  0  0  0  0  0  0  0  0  0  0  0
   -1.5245    2.1644   -0.1638 H   0  0  0  0  0  0  0  0  0  0  0  0
    2.6845    3.6855    1.6085 H   0  0  0  0  0  0  0  0  0  0  0  0
    5.1068    3.8575    1.4863 H   0  0  0  0  0  0  0  0  0  0  0  0
    5.0334    2.1284   -2.3509 H   0  0  0  0  0  0  0  0  0  0  0  0
    2.6039    1.9926   -2.2497 H   0  0  0  0  0  0  0  0  0  0  0  0
  1  2  1  0  0  0  0
  1 93  1  0  0  0  0
  1 94  1  0  0  0  0
  2  3  1  0  0  0  0
  2 83  2  0  0  0  0
  3  4  1  0  0  0  0
  3 80  2  0  0  0  0
  4  5  1  0  0  0  0
  4 95  1  0  0  0  0
  4 96  1  0  0  0  0
  5  6  2  0  0  0  0
  5  7  1  0  0  0  0
  7  8  1  0  0  0  0
  7 97  1  0  0  0  0
  8  9  1  0  0  0  0
  8 98  1  0  0  0  0
  8 99  1  0  0  0  0
  9 10  1  0  0  0  0
  9100  1  0  0  0  0
  9101  1  0  0  0  0
 10 11  1  0  0  0  0
 10102  1  0  0  0  0
 10103  1  0  0  0  0
 11 12  1  0  0  0  0
 11104  1  0  0  0  0
 11105  1  0  0  0  0
 12 13  1  0  0  0  0
 12106  1  0  0  0  0
 12107  1  0  0  0  0
 13 14  1  0  0  0  0
 13108  1  0  0  0  0
 13109  1  0  0  0  0
 14 15  1  0  0  0  0
 14110  1  0  0  0  0
 15 16  2  0  0  0  0
 15 17  1  0  0  0  0
 17 18  1  0  0  0  0
 17 79  2  0  0  0  0
 18 19  2  0  0  0  0
 18111  1  0  0  0  0
 19 20  1  0  0  0  0
 19112  1  0  0  0  0
 20 21  1  0  0  0  0
 20 78  2  0  0  0  0
 21 22  1  0  0  0  0
 21 72  2  0  0  0  0
 22 23  2  0  0  0  0
 22 77  1  0  0  0  0
 23 24  1  0  0  0  0
 24 25  2  0  0  0  0
 24 76  1  0  0  0  0
 25 26  1  0  0  0  0
 25 37  1  0  0  0  0
 26 27  1  0  0  0  0
 26 35  2  0  0  0  0
 27 28  1  0  0  0  0
 27 29  2  0  0  0  0
 29 30  1  0  0  0  0
 29 31  1  0  0  0  0
 31 32  1  0  0  0  0
 31 33  2  0  0  0  0
 33 34  1  0  0  0  0
 33 35  1  0  0  0  0
 35 36  1  0  0  0  0
 37 38  2  0  0  0  0
 37 41  1  0  0  0  0
 38 39  1  0  0  0  0
 38113  1  0  0  0  0
 39 40  2  0  0  0  0
 39114  1  0  0  0  0
 40 41  1  0  0  0  0
 40 42  1  0  0  0  0
 41115  1  0  0  0  0
 42 43  1  0  0  0  0
 42 54  2  0  0  0  0
 43 44  1  0  0  0  0
 43 52  2  0  0  0  0
 44 45  1  0  0  0  0
 44 46  2  0  0  0  0
 46 47  1  0  0  0  0
 46 48  1  0  0  0  0
 48 49  1  0  0  0  0
 48 50  2  0  0  0  0
 50 51  1  0  0  0  0
 50 52  1  0  0  0  0
 52 53  1  0  0  0  0
 54 55  1  0  0  0  0
 54 75  1  0  0  0  0
 55 56  2  0  0  0  0
 56 57  1  0  0  0  0
 56 74  1  0  0  0  0
 57 58  1  0  0  0  0
 57 69  2  0  0  0  0
 58 59  1  0  0  0  0
 58 67  2  0  0  0  0
 59 60  1  0  0  0  0
 59 61  2  0  0  0  0
 61 62  1  0  0  0  0
 61 63  1  0  0  0  0
 63 64  1  0  0  0  0
 63 65  2  0  0  0  0
 65 66  1  0  0  0  0
 65 67  1  0  0  0  0
 67 68  1  0  0  0  0
 69 70  1  0  0  0  0
 69 73  1  0  0  0  0
 70 71  2  0  0  0  0
 70116  1  0  0  0  0
 71 72  1  0  0  0  0
 71117  1  0  0  0  0
 72 73  1  0  0  0  0
 73118  1  0  0  0  0
 74 75  2  0  0  0  0
 74119  1  0  0  0  0
 75120  1  0  0  0  0
 76 77  2  0  0  0  0
 76121  1  0  0  0  0
 77122  1  0  0  0  0
 78 79  1  0  0  0  0
 78123  1  0  0  0  0
 79124  1  0  0  0  0
 80 81  1  0  0  0  0
 80125  1  0  0  0  0
 81 82  2  0  0  0  0
 81126  1  0  0  0  0
 82 83  1  0  0  0  0
 82127  1  0  0  0  0
 83 84  1  0  0  0  0
 84 85  2  0  0  0  0
 84 86  1  0  0  0  0
 86 87  1  0  0  0  0
 86 92  2  0  0  0  0
 87 88  2  0  0  0  0
 87128  1  0  0  0  0
 88 89  1  0  0  0  0
 88129  1  0  0  0  0
 89 90  1  0  0  0  0
 89 91  2  0  0  0  0
 91 92  1  0  0  0  0
 91130  1  0  0  0  0
 92131  1  0  0  0  0
M  END
$$$$
