ligands/11-CHEMBL1071
 OpenBabel10182222423D

136147  0  0  0  0  0  0  0  0999 V2000
    0.8439    0.7357    0.0321 O   0  0  0  0  0  0  0  0  0  0  0  0
    2.0021    0.3320    0.0117 C   0  0  0  0  0  0  0  0  0  0  0  0
    3.0767    1.0213   -0.8043 C   0  0  0  0  0  0  0  0  0  0  0  0
    4.0152    1.8555    0.0622 C   0  0  0  0  0  0  0  0  0  0  0  0
    5.0558    1.0496    0.7645 C   0  0  0  0  0  0  0  0  0  0  0  0
    5.2519   -0.2587    0.7466 N   0  0  0  0  0  0  0  0  0  0  0  0
    6.3233   -0.4374    1.5949 C   0  0  0  0  0  0  0  0  0  0  0  0
    6.8877   -1.7254    1.9587 C   0  0  0  0  0  0  0  0  0  0  0  0
    7.2410   -2.0054    3.2922 C   0  0  0  0  0  0  0  0  0  0  0  0
    7.7988   -3.2346    3.6416 C   0  0  0  0  0  0  0  0  0  0  0  0
    7.9970   -4.2044    2.6638 C   0  0  0  0  0  0  0  0  0  0  0  0
    7.6310   -3.9486    1.3419 C   0  0  0  0  0  0  0  0  0  0  0  0
    7.0768   -2.7139    0.9886 C   0  0  0  0  0  0  0  0  0  0  0  0
    6.7541    0.7851    2.0717 C   0  0  0  0  0  0  0  0  0  0  0  0
    7.8215    1.1887    2.9693 C   0  0  0  0  0  0  0  0  0  0  0  0
    7.5443    1.9179    4.1296 C   0  0  0  0  0  0  0  0  0  0  0  0
    8.5253    2.0638    5.1146 C   0  0  0  0  0  0  0  0  0  0  0  0
    9.7875    1.4941    4.9405 C   0  0  0  0  0  0  0  0  0  0  0  0
   10.0868    0.8075    3.7674 C   0  0  0  0  0  0  0  0  0  0  0  0
    9.1119    0.6668    2.7814 C   0  0  0  0  0  0  0  0  0  0  0  0
    5.9281    1.7483    1.5616 O   0  0  0  0  0  0  0  0  0  0  0  0
    2.4403   -0.7685    0.7011 N   0  0  0  0  0  0  0  0  0  0  0  0
    1.5814   -1.5766    1.5402 C   0  0  0  0  0  0  0  0  0  0  0  0
    1.8994   -3.0671    1.4142 C   0  0  0  0  0  0  0  0  0  0  0  0
    3.3541   -3.4366    1.7136 C   0  0  0  0  0  0  0  0  0  0  0  0
    3.8471   -3.0127    3.0958 C   0  0  0  0  0  0  0  0  0  0  0  0
    3.2562   -3.7765    4.2728 C   0  0  0  0  0  0  0  0  0  0  0  0
    3.5983   -5.2617    4.2811 C   0  0  0  0  0  0  0  0  0  0  0  0
    5.0318   -5.5275    4.3350 N   0  0  0  0  0  0  0  0  0  0  0  0
    5.7196   -6.4602    5.0749 C   0  0  0  0  0  0  0  0  0  0  0  0
    6.9426   -6.4718    5.0985 O   0  0  0  0  0  0  0  0  0  0  0  0
    4.9561   -7.4409    5.8730 C   0  0  0  0  0  0  0  0  0  0  0  0
    5.3389   -7.6932    7.1924 C   0  0  0  0  0  0  0  0  0  0  0  0
    4.5562   -8.5338    7.9855 C   0  0  0  0  0  0  0  0  0  0  0  0
    3.3667   -9.0786    7.4755 C   0  0  0  0  0  0  0  0  0  0  0  0
    2.4860   -9.9412    8.2993 C   0  0  0  0  0  0  0  0  0  0  0  0
    2.2426  -11.3635    7.8748 C   0  0  0  0  0  0  0  0  0  0  0  0
    1.4096  -12.2455    8.3647 N   0  0  0  0  0  0  0  0  0  0  0  0
    1.5445  -13.3730    7.5653 C   0  0  0  0  0  0  0  0  0  0  0  0
    0.9639  -14.5870    7.7133 C   0  0  0  0  0  0  0  0  0  0  0  0
    1.3218  -15.6519    6.7178 C   0  0  0  0  0  0  0  0  0  0  0  0
    2.6049  -16.2211    6.6886 C   0  0  0  0  0  0  0  0  0  0  0  0
    3.5560  -15.7850    7.5286 F   0  0  0  0  0  0  0  0  0  0  0  0
    2.9301  -17.2119    5.7667 C   0  0  0  0  0  0  0  0  0  0  0  0
    4.1764  -17.7029    5.7255 F   0  0  0  0  0  0  0  0  0  0  0  0
    1.9709  -17.6802    4.8823 C   0  0  0  0  0  0  0  0  0  0  0  0
    2.2824  -18.6412    4.0017 F   0  0  0  0  0  0  0  0  0  0  0  0
    0.6907  -17.1471    4.9061 C   0  0  0  0  0  0  0  0  0  0  0  0
   -0.2405  -17.6077    4.0593 F   0  0  0  0  0  0  0  0  0  0  0  0
    0.3712  -16.1330    5.8058 C   0  0  0  0  0  0  0  0  0  0  0  0
   -0.8707  -15.6259    5.7914 F   0  0  0  0  0  0  0  0  0  0  0  0
    0.0539  -14.9168    8.7766 C   0  0  0  0  0  0  0  0  0  0  0  0
   -0.5806  -16.1190    9.0320 C   0  0  0  0  0  0  0  0  0  0  0  0
   -1.3749  -15.9594   10.1722 C   0  0  0  0  0  0  0  0  0  0  0  0
   -1.1990  -14.6715   10.6525 C   0  0  0  0  0  0  0  0  0  0  0  0
   -0.3385  -14.0356    9.7740 N   0  0  0  0  0  0  0  0  0  0  0  0
   -1.7682  -14.0700   11.8300 C   0  0  0  0  0  0  0  0  0  0  0  0
   -2.5919  -14.9460   12.7271 C   0  0  0  0  0  0  0  0  0  0  0  0
   -3.9830  -14.8040   12.8273 C   0  0  0  0  0  0  0  0  0  0  0  0
   -4.6140  -13.8369   12.1443 F   0  0  0  0  0  0  0  0  0  0  0  0
   -4.7257  -15.6288   13.6674 C   0  0  0  0  0  0  0  0  0  0  0  0
   -6.0469  -15.4408   13.7898 F   0  0  0  0  0  0  0  0  0  0  0  0
   -4.0987  -16.6328   14.3906 C   0  0  0  0  0  0  0  0  0  0  0  0
   -4.8165  -17.4283   15.1954 F   0  0  0  0  0  0  0  0  0  0  0  0
   -2.7271  -16.8070   14.2866 C   0  0  0  0  0  0  0  0  0  0  0  0
   -2.1216  -17.7856   14.9733 F   0  0  0  0  0  0  0  0  0  0  0  0
   -1.9774  -15.9640   13.4724 C   0  0  0  0  0  0  0  0  0  0  0  0
   -0.6500  -16.1461   13.4037 F   0  0  0  0  0  0  0  0  0  0  0  0
   -1.5982  -12.7799   12.2095 C   0  0  0  0  0  0  0  0  0  0  0  0
   -0.8480  -11.7803   11.6056 N   0  0  0  0  0  0  0  0  0  0  0  0
   -1.0152  -10.7085   12.3424 C   0  0  0  0  0  0  0  0  0  0  0  0
   -0.4028   -9.3411   12.1869 C   0  0  0  0  0  0  0  0  0  0  0  0
   -0.7533   -8.2397   13.1227 C   0  0  0  0  0  0  0  0  0  0  0  0
   -0.3777   -8.2940   14.4729 C   0  0  0  0  0  0  0  0  0  0  0  0
    0.3190   -9.3444   14.9317 F   0  0  0  0  0  0  0  0  0  0  0  0
   -0.7637   -7.3002   15.3700 C   0  0  0  0  0  0  0  0  0  0  0  0
   -0.4449   -7.4112   16.6668 F   0  0  0  0  0  0  0  0  0  0  0  0
   -1.4991   -6.2116   14.9274 C   0  0  0  0  0  0  0  0  0  0  0  0
   -1.8754   -5.2589   15.7912 F   0  0  0  0  0  0  0  0  0  0  0  0
   -1.8535   -6.1182   13.5900 C   0  0  0  0  0  0  0  0  0  0  0  0
   -2.5507   -5.0598   13.1552 F   0  0  0  0  0  0  0  0  0  0  0  0
   -1.4954   -7.1281   12.6985 C   0  0  0  0  0  0  0  0  0  0  0  0
   -1.8716   -7.0208   11.4159 F   0  0  0  0  0  0  0  0  0  0  0  0
    0.4905   -9.1387   11.2001 C   0  0  0  0  0  0  0  0  0  0  0  0
    1.1832   -7.8847   10.9233 C   0  0  0  0  0  0  0  0  0  0  0  0
    1.9602   -8.0446    9.8394 C   0  0  0  0  0  0  0  0  0  0  0  0
    1.8469   -9.4258    9.3668 C   0  0  0  0  0  0  0  0  0  0  0  0
    0.9574  -10.0017   10.2384 N   0  0  0  0  0  0  0  0  0  0  0  0
   -1.9274  -10.8997   13.4781 C   0  0  0  0  0  0  0  0  0  0  0  0
   -2.2114  -12.1901   13.3810 C   0  0  0  0  0  0  0  0  0  0  0  0
    2.4836  -13.0436    6.5170 C   0  0  0  0  0  0  0  0  0  0  0  0
    3.0121  -11.8463    6.7153 C   0  0  0  0  0  0  0  0  0  0  0  0
    3.0129   -8.8343    6.1404 C   0  0  0  0  0  0  0  0  0  0  0  0
    3.8423   -8.0793    5.3246 C   0  0  0  0  0  0  0  0  0  0  0  0
    2.6069    1.6635   -1.5197 H   0  0  0  0  0  0  0  0  0  0  0  0
    3.6605    0.2636   -1.2838 H   0  0  0  0  0  0  0  0  0  0  0  0
    3.4306    2.3674    0.7978 H   0  0  0  0  0  0  0  0  0  0  0  0
    4.5289    2.5293   -0.5913 H   0  0  0  0  0  0  0  0  0  0  0  0
    7.0851   -1.2914    4.0209 H   0  0  0  0  0  0  0  0  0  0  0  0
    8.0634   -3.4242    4.6209 H   0  0  0  0  0  0  0  0  0  0  0  0
    8.4150   -5.1135    2.9164 H   0  0  0  0  0  0  0  0  0  0  0  0
    7.7699   -4.6741    0.6212 H   0  0  0  0  0  0  0  0  0  0  0  0
    6.8068   -2.5322    0.0092 H   0  0  0  0  0  0  0  0  0  0  0  0
    6.6153    2.3484    4.2588 H   0  0  0  0  0  0  0  0  0  0  0  0
    8.3154    2.5950    5.9741 H   0  0  0  0  0  0  0  0  0  0  0  0
   10.4995    1.5820    5.6823 H   0  0  0  0  0  0  0  0  0  0  0  0
   11.0265    0.4043    3.6283 H   0  0  0  0  0  0  0  0  0  0  0  0
    9.3405    0.1740    1.9040 H   0  0  0  0  0  0  0  0  0  0  0  0
    3.3881   -1.0224    0.6214 H   0  0  0  0  0  0  0  0  0  0  0  0
    0.5639   -1.4144    1.2515 H   0  0  0  0  0  0  0  0  0  0  0  0
    1.7446   -1.2876    2.5574 H   0  0  0  0  0  0  0  0  0  0  0  0
    1.6770   -3.3722    0.4130 H   0  0  0  0  0  0  0  0  0  0  0  0
    1.3027   -3.5672    2.1482 H   0  0  0  0  0  0  0  0  0  0  0  0
    3.9753   -2.9675    0.9795 H   0  0  0  0  0  0  0  0  0  0  0  0
    3.4067   -4.5050    1.6877 H   0  0  0  0  0  0  0  0  0  0  0  0
    3.6116   -1.9770    3.2250 H   0  0  0  0  0  0  0  0  0  0  0  0
    4.8957   -3.2253    3.1082 H   0  0  0  0  0  0  0  0  0  0  0  0
    2.1914   -3.6765    4.2387 H   0  0  0  0  0  0  0  0  0  0  0  0
    3.6808   -3.3556    5.1602 H   0  0  0  0  0  0  0  0  0  0  0  0
    3.2047   -5.7051    3.3904 H   0  0  0  0  0  0  0  0  0  0  0  0
    3.1668   -5.6795    5.1666 H   0  0  0  0  0  0  0  0  0  0  0  0
    5.5876   -4.9558    3.7575 H   0  0  0  0  0  0  0  0  0  0  0  0
    6.1935   -7.2616    7.5777 H   0  0  0  0  0  0  0  0  0  0  0  0
    4.8524   -8.7554    8.9489 H   0  0  0  0  0  0  0  0  0  0  0  0
   -0.4846  -16.9840    8.4773 H   0  0  0  0  0  0  0  0  0  0  0  0
   -1.9882  -16.6790   10.5858 H   0  0  0  0  0  0  0  0  0  0  0  0
   -0.0482  -13.0977    9.8462 H   0  0  0  0  0  0  0  0  0  0  0  0
    1.0910   -7.0153   11.4717 H   0  0  0  0  0  0  0  0  0  0  0  0
    2.5440   -7.3109    9.4084 H   0  0  0  0  0  0  0  0  0  0  0  0
    0.6799  -10.9445   10.1802 H   0  0  0  0  0  0  0  0  0  0  0  0
   -2.2597  -10.2098   14.1700 H   0  0  0  0  0  0  0  0  0  0  0  0
   -2.7957  -12.7091   14.0550 H   0  0  0  0  0  0  0  0  0  0  0  0
    2.7115  -13.6593    5.7208 H   0  0  0  0  0  0  0  0  0  0  0  0
    3.7668  -11.3740    6.1934 H   0  0  0  0  0  0  0  0  0  0  0  0
    2.1320   -9.2178    5.7637 H   0  0  0  0  0  0  0  0  0  0  0  0
    3.6371   -7.9899    4.3172 H   0  0  0  0  0  0  0  0  0  0  0  0
  1  2  2  0  0  0  0
  2  3  1  0  0  0  0
  2 22  1  0  0  0  0
  3  4  1  0  0  0  0
  3 95  1  0  0  0  0
  3 96  1  0  0  0  0
  4  5  1  0  0  0  0
  4 97  1  0  0  0  0
  4 98  1  0  0  0  0
  5  6  2  0  0  0  0
  5 21  1  0  0  0  0
  6  7  1  0  0  0  0
  7  8  1  0  0  0  0
  7 14  2  0  0  0  0
  8  9  1  0  0  0  0
  8 13  2  0  0  0  0
  9 10  2  0  0  0  0
  9 99  1  0  0  0  0
 10 11  1  0  0  0  0
 10100  1  0  0  0  0
 11 12  2  0  0  0  0
 11101  1  0  0  0  0
 12 13  1  0  0  0  0
 12102  1  0  0  0  0
 13103  1  0  0  0  0
 14 15  1  0  0  0  0
 14 21  1  0  0  0  0
 15 16  1  0  0  0  0
 15 20  2  0  0  0  0
 16 17  2  0  0  0  0
 16104  1  0  0  0  0
 17 18  1  0  0  0  0
 17105  1  0  0  0  0
 18 19  2  0  0  0  0
 18106  1  0  0  0  0
 19 20  1  0  0  0  0
 19107  1  0  0  0  0
 20108  1  0  0  0  0
 22 23  1  0  0  0  0
 22109  1  0  0  0  0
 23 24  1  0  0  0  0
 23110  1  0  0  0  0
 23111  1  0  0  0  0
 24 25  1  0  0  0  0
 24112  1  0  0  0  0
 24113  1  0  0  0  0
 25 26  1  0  0  0  0
 25114  1  0  0  0  0
 25115  1  0  0  0  0
 26 27  1  0  0  0  0
 26116  1  0  0  0  0
 26117  1  0  0  0  0
 27 28  1  0  0  0  0
 27118  1  0  0  0  0
 27119  1  0  0  0  0
 28 29  1  0  0  0  0
 28120  1  0  0  0  0
 28121  1  0  0  0  0
 29 30  1  0  0  0  0
 29122  1  0  0  0  0
 30 31  2  0  0  0  0
 30 32  1  0  0  0  0
 32 33  1  0  0  0  0
 32 94  2  0  0  0  0
 33 34  2  0  0  0  0
 33123  1  0  0  0  0
 34 35  1  0  0  0  0
 34124  1  0  0  0  0
 35 36  1  0  0  0  0
 35 93  2  0  0  0  0
 36 37  1  0  0  0  0
 36 87  2  0  0  0  0
 37 38  2  0  0  0  0
 37 92  1  0  0  0  0
 38 39  1  0  0  0  0
 39 40  2  0  0  0  0
 39 91  1  0  0  0  0
 40 41  1  0  0  0  0
 40 52  1  0  0  0  0
 41 42  1  0  0  0  0
 41 50  2  0  0  0  0
 42 43  1  0  0  0  0
 42 44  2  0  0  0  0
 44 45  1  0  0  0  0
 44 46  1  0  0  0  0
 46 47  1  0  0  0  0
 46 48  2  0  0  0  0
 48 49  1  0  0  0  0
 48 50  1  0  0  0  0
 50 51  1  0  0  0  0
 52 53  2  0  0  0  0
 52 56  1  0  0  0  0
 53 54  1  0  0  0  0
 53125  1  0  0  0  0
 54 55  2  0  0  0  0
 54126  1  0  0  0  0
 55 56  1  0  0  0  0
 55 57  1  0  0  0  0
 56127  1  0  0  0  0
 57 58  1  0  0  0  0
 57 69  2  0  0  0  0
 58 59  1  0  0  0  0
 58 67  2  0  0  0  0
 59 60  1  0  0  0  0
 59 61  2  0  0  0  0
 61 62  1  0  0  0  0
 61 63  1  0  0  0  0
 63 64  1  0  0  0  0
 63 65  2  0  0  0  0
 65 66  1  0  0  0  0
 65 67  1  0  0  0  0
 67 68  1  0  0  0  0
 69 70  1  0  0  0  0
 69 90  1  0  0  0  0
 70 71  2  0  0  0  0
 71 72  1  0  0  0  0
 71 89  1  0  0  0  0
 72 73  1  0  0  0  0
 72 84  2  0  0  0  0
 73 74  1  0  0  0  0
 73 82  2  0  0  0  0
 74 75  1  0  0  0  0
 74 76  2  0  0  0  0
 76 77  1  0  0  0  0
 76 78  1  0  0  0  0
 78 79  1  0  0  0  0
 78 80  2  0  0  0  0
 80 81  1  0  0  0  0
 80 82  1  0  0  0  0
 82 83  1  0  0  0  0
 84 85  1  0  0  0  0
 84 88  1  0  0  0  0
 85 86  2  0  0  0  0
 85128  1  0  0  0  0
 86 87  1  0  0  0  0
 86129  1  0  0  0  0
 87 88  1  0  0  0  0
 88130  1  0  0  0  0
 89 90  2  0  0  0  0
 89131  1  0  0  0  0
 90132  1  0  0  0  0
 91 92  2  0  0  0  0
 91133  1  0  0  0  0
 92134  1  0  0  0  0
 93 94  1  0  0  0  0
 93135  1  0  0  0  0
 94136  1  0  0  0  0
M  END
$$$$
