ligands/13-CHEMBL469
 OpenBabel10182222423D

131142  0  0  0  0  0  0  0  0999 V2000
    1.1363    0.3969   -0.0718 O   0  0  0  0  0  0  0  0  0  0  0  0
    2.3534    0.2613    0.0100 C   0  0  0  0  0  0  0  0  0  0  0  0
    3.0347   -0.4880   -0.9177 N   0  0  0  0  0  0  0  0  0  0  0  0
    4.4208   -0.9301   -0.9059 C   0  0  0  0  0  0  0  0  0  0  0  0
    4.5483   -2.4430   -1.0297 C   0  0  0  0  0  0  0  0  0  0  0  0
    4.0871   -3.0113   -2.3718 C   0  0  0  0  0  0  0  0  0  0  0  0
    4.7972   -2.4352   -3.6027 C   0  0  0  0  0  0  0  0  0  0  0  0
    6.3300   -2.4650   -3.5492 C   0  0  0  0  0  0  0  0  0  0  0  0
    6.9156   -3.8654   -3.3798 C   0  0  0  0  0  0  0  0  0  0  0  0
    6.7809   -4.6405   -4.5982 N   0  0  0  0  0  0  0  0  0  0  0  0
    7.7140   -5.0606   -5.4978 C   0  0  0  0  0  0  0  0  0  0  0  0
    7.2953   -5.6289   -6.5124 O   0  0  0  0  0  0  0  0  0  0  0  0
    9.2150   -4.9469   -5.2514 C   0  0  2  0  0  0  0  0  0  0  0  0
    9.6704   -5.7643   -4.0203 C   0  0  0  0  0  0  0  0  0  0  0  0
   10.6645   -4.8796   -3.2511 C   0  0  0  0  0  0  0  0  0  0  0  0
   10.4859   -3.5572   -3.8262 N   0  0  0  0  0  0  0  0  0  0  0  0
   10.7890   -2.2808   -3.4529 C   0  0  0  0  0  0  0  0  0  0  0  0
   11.4475   -1.7818   -2.2540 C   0  0  0  0  0  0  0  0  0  0  0  0
   11.3461   -0.6093   -1.8929 O   0  0  0  0  0  0  0  0  0  0  0  0
   12.2422   -2.6707   -1.3748 C   0  0  0  0  0  0  0  0  0  0  0  0
   12.0271   -2.6033    0.0082 C   0  0  0  0  0  0  0  0  0  0  0  0
   12.7567   -3.4228    0.8692 C   0  0  0  0  0  0  0  0  0  0  0  0
   13.7060   -4.3037    0.3517 C   0  0  0  0  0  0  0  0  0  0  0  0
   13.9453   -4.3495   -1.0230 C   0  0  0  0  0  0  0  0  0  0  0  0
   13.2270   -3.5205   -1.8876 C   0  0  0  0  0  0  0  0  0  0  0  0
   10.2477   -1.4808   -4.4645 C   0  0  0  0  0  0  0  0  0  0  0  0
    9.5720   -2.2975   -5.4111 C   0  0  0  0  0  0  0  0  0  0  0  0
    9.6886   -3.5745   -4.9386 C   0  0  0  0  0  0  0  0  0  0  0  0
    3.0905    0.8848    1.1297 C   0  0  0  0  0  0  0  0  0  0  0  0
    4.3000    1.5443    0.9031 C   0  0  0  0  0  0  0  0  0  0  0  0
    5.0603    1.9784    1.9819 C   0  0  0  0  0  0  0  0  0  0  0  0
    4.5626    1.8799    3.2919 C   0  0  0  0  0  0  0  0  0  0  0  0
    5.3790    2.4063    4.4154 C   0  0  0  0  0  0  0  0  0  0  0  0
    5.9214    1.4937    5.4795 C   0  0  0  0  0  0  0  0  0  0  0  0
    6.6955    1.7810    6.4973 N   0  0  0  0  0  0  0  0  0  0  0  0
    6.8724    0.5914    7.1914 C   0  0  0  0  0  0  0  0  0  0  0  0
    7.6122    0.3654    8.3043 C   0  0  0  0  0  0  0  0  0  0  0  0
    7.5979   -1.0210    8.8828 C   0  0  0  0  0  0  0  0  0  0  0  0
    8.2453   -2.0941    8.2527 C   0  0  0  0  0  0  0  0  0  0  0  0
    8.8578   -1.9150    7.0725 F   0  0  0  0  0  0  0  0  0  0  0  0
    8.2370   -3.3679    8.8172 C   0  0  0  0  0  0  0  0  0  0  0  0
    8.8253   -4.3871    8.1754 F   0  0  0  0  0  0  0  0  0  0  0  0
    7.6115   -3.5867   10.0356 C   0  0  0  0  0  0  0  0  0  0  0  0
    7.6111   -4.8114   10.5801 F   0  0  0  0  0  0  0  0  0  0  0  0
    6.9814   -2.5369   10.6857 C   0  0  0  0  0  0  0  0  0  0  0  0
    6.3876   -2.7432   11.8694 F   0  0  0  0  0  0  0  0  0  0  0  0
    6.9641   -1.2687   10.1107 C   0  0  0  0  0  0  0  0  0  0  0  0
    6.3363   -0.2767   10.7598 F   0  0  0  0  0  0  0  0  0  0  0  0
    8.3944    1.3711    8.9781 C   0  0  0  0  0  0  0  0  0  0  0  0
    9.2172    1.2292   10.0826 C   0  0  0  0  0  0  0  0  0  0  0  0
    9.7305    2.4886   10.4126 C   0  0  0  0  0  0  0  0  0  0  0  0
    9.2694    3.4068    9.4834 C   0  0  0  0  0  0  0  0  0  0  0  0
    8.4477    2.7085    8.6116 N   0  0  0  0  0  0  0  0  0  0  0  0
    9.5558    4.8162    9.3970 C   0  0  0  0  0  0  0  0  0  0  0  0
   10.4812    5.4117   10.4171 C   0  0  0  0  0  0  0  0  0  0  0  0
   10.0154    6.2781   11.4171 C   0  0  0  0  0  0  0  0  0  0  0  0
    8.7190    6.6202   11.4638 F   0  0  0  0  0  0  0  0  0  0  0  0
   10.8914    6.8361   12.3442 C   0  0  0  0  0  0  0  0  0  0  0  0
   10.4341    7.7047   13.2566 F   0  0  0  0  0  0  0  0  0  0  0  0
   12.2393    6.5106   12.3123 C   0  0  0  0  0  0  0  0  0  0  0  0
   13.0809    7.0483   13.2059 F   0  0  0  0  0  0  0  0  0  0  0  0
   12.7166    5.6360   11.3479 C   0  0  0  0  0  0  0  0  0  0  0  0
   14.0166    5.3114   11.3230 F   0  0  0  0  0  0  0  0  0  0  0  0
   11.8490    5.0999   10.4009 C   0  0  0  0  0  0  0  0  0  0  0  0
   12.3433    4.2717    9.4686 F   0  0  0  0  0  0  0  0  0  0  0  0
    9.0732    5.6515    8.4447 C   0  0  0  0  0  0  0  0  0  0  0  0
    8.2317    5.3652    7.3799 N   0  0  0  0  0  0  0  0  0  0  0  0
    8.0381    6.5029    6.7592 C   0  0  0  0  0  0  0  0  0  0  0  0
    7.2301    6.7843    5.5255 C   0  0  0  0  0  0  0  0  0  0  0  0
    7.1817    8.1445    4.9317 C   0  0  0  0  0  0  0  0  0  0  0  0
    8.3150    8.7074    4.3297 C   0  0  0  0  0  0  0  0  0  0  0  0
    9.4717    8.0287    4.3140 F   0  0  0  0  0  0  0  0  0  0  0  0
    8.2733    9.9830    3.7714 C   0  0  0  0  0  0  0  0  0  0  0  0
    9.3815   10.5146    3.2379 F   0  0  0  0  0  0  0  0  0  0  0  0
    7.0906   10.7074    3.7781 C   0  0  0  0  0  0  0  0  0  0  0  0
    7.0490   11.9309    3.2336 F   0  0  0  0  0  0  0  0  0  0  0  0
    5.9529   10.1649    4.3558 C   0  0  0  0  0  0  0  0  0  0  0  0
    4.8041   10.8544    4.3503 F   0  0  0  0  0  0  0  0  0  0  0  0
    6.0015    8.9023    4.9409 C   0  0  0  0  0  0  0  0  0  0  0  0
    4.8886    8.4056    5.5009 F   0  0  0  0  0  0  0  0  0  0  0  0
    6.5531    5.7774    4.9446 C   0  0  0  0  0  0  0  0  0  0  0  0
    5.7311    5.8990    3.7461 C   0  0  0  0  0  0  0  0  0  0  0  0
    5.1838    4.7066    3.4719 C   0  0  0  0  0  0  0  0  0  0  0  0
    5.6663    3.7220    4.4427 C   0  0  0  0  0  0  0  0  0  0  0  0
    6.4512    4.4538    5.2959 N   0  0  0  0  0  0  0  0  0  0  0  0
    8.7195    7.6490    7.3744 C   0  0  0  0  0  0  0  0  0  0  0  0
    9.3682    7.0683    8.3736 C   0  0  0  0  0  0  0  0  0  0  0  0
    6.1069   -0.4197    6.4937 C   0  0  0  0  0  0  0  0  0  0  0  0
    5.5406    0.0755    5.4015 C   0  0  0  0  0  0  0  0  0  0  0  0
    3.2919    1.3219    3.4996 C   0  0  0  0  0  0  0  0  0  0  0  0
    2.5675    0.8013    2.4233 C   0  0  0  0  0  0  0  0  0  0  0  0
    2.5101   -0.7657   -1.7031 H   0  0  0  0  0  0  0  0  0  0  0  0
    4.8723   -0.6212    0.0137 H   0  0  0  0  0  0  0  0  0  0  0  0
    4.9107   -0.4911   -1.7498 H   0  0  0  0  0  0  0  0  0  0  0  0
    3.9601   -2.8921   -0.2569 H   0  0  0  0  0  0  0  0  0  0  0  0
    5.5911   -2.6679   -0.9467 H   0  0  0  0  0  0  0  0  0  0  0  0
    3.0399   -2.8158   -2.4719 H   0  0  0  0  0  0  0  0  0  0  0  0
    4.3269   -4.0539   -2.3512 H   0  0  0  0  0  0  0  0  0  0  0  0
    4.4901   -1.4164   -3.7148 H   0  0  0  0  0  0  0  0  0  0  0  0
    4.5177   -3.0602   -4.4250 H   0  0  0  0  0  0  0  0  0  0  0  0
    6.6502   -1.8637   -2.7240 H   0  0  0  0  0  0  0  0  0  0  0  0
    6.6811   -2.0928   -4.4889 H   0  0  0  0  0  0  0  0  0  0  0  0
    6.3987   -4.3666   -2.5883 H   0  0  0  0  0  0  0  0  0  0  0  0
    7.9566   -3.7722   -3.1506 H   0  0  0  0  0  0  0  0  0  0  0  0
    5.8580   -4.9088   -4.8116 H   0  0  0  0  0  0  0  0  0  0  0  0
    9.6209   -5.2983   -6.1770 H   0  0  0  0  0  0  0  0  0  0  0  0
   10.1472   -6.6695   -4.3336 H   0  0  0  0  0  0  0  0  0  0  0  0
    8.8371   -6.0340   -3.4056 H   0  0  0  0  0  0  0  0  0  0  0  0
   11.6676   -5.2232   -3.3945 H   0  0  0  0  0  0  0  0  0  0  0  0
   10.4925   -4.8933   -2.1951 H   0  0  0  0  0  0  0  0  0  0  0  0
   11.3283   -1.9468    0.3900 H   0  0  0  0  0  0  0  0  0  0  0  0
   12.5944   -3.3774    1.8873 H   0  0  0  0  0  0  0  0  0  0  0  0
   14.2330   -4.9234    0.9867 H   0  0  0  0  0  0  0  0  0  0  0  0
   14.6543   -4.9971   -1.4010 H   0  0  0  0  0  0  0  0  0  0  0  0
   13.4223   -3.5351   -2.9008 H   0  0  0  0  0  0  0  0  0  0  0  0
   10.3270   -0.4531   -4.5157 H   0  0  0  0  0  0  0  0  0  0  0  0
    9.0943   -1.9910   -6.2730 H   0  0  0  0  0  0  0  0  0  0  0  0
    4.6279    1.7086   -0.0615 H   0  0  0  0  0  0  0  0  0  0  0  0
    5.9985    2.3765    1.8195 H   0  0  0  0  0  0  0  0  0  0  0  0
    9.4176    0.3461   10.5776 H   0  0  0  0  0  0  0  0  0  0  0  0
   10.3479    2.6979   11.2126 H   0  0  0  0  0  0  0  0  0  0  0  0
    7.9721    3.1034    7.8454 H   0  0  0  0  0  0  0  0  0  0  0  0
    5.5932    6.7626    3.1982 H   0  0  0  0  0  0  0  0  0  0  0  0
    4.5270    4.5132    2.6997 H   0  0  0  0  0  0  0  0  0  0  0  0
    6.8982    4.0680    6.0837 H   0  0  0  0  0  0  0  0  0  0  0  0
    8.6987    8.6439    7.1009 H   0  0  0  0  0  0  0  0  0  0  0  0
   10.0033    7.5628    9.0195 H   0  0  0  0  0  0  0  0  0  0  0  0
    6.0138   -1.3990    6.8057 H   0  0  0  0  0  0  0  0  0  0  0  0
    4.9789   -0.4085    4.6837 H   0  0  0  0  0  0  0  0  0  0  0  0
    2.8908    1.2958    4.4501 H   0  0  0  0  0  0  0  0  0  0  0  0
    1.6499    0.3569    2.5832 H   0  0  0  0  0  0  0  0  0  0  0  0
  1  2  2  0  0  0  0
  2  3  1  0  0  0  0
  2 29  1  0  0  0  0
  3  4  1  0  0  0  0
  3 92  1  0  0  0  0
  4  5  1  0  0  0  0
  4 93  1  0  0  0  0
  4 94  1  0  0  0  0
  5  6  1  0  0  0  0
  5 95  1  0  0  0  0
  5 96  1  0  0  0  0
  6  7  1  0  0  0  0
  6 97  1  0  0  0  0
  6 98  1  0  0  0  0
  7  8  1  0  0  0  0
  7 99  1  0  0  0  0
  7100  1  0  0  0  0
  8  9  1  0  0  0  0
  8101  1  0  0  0  0
  8102  1  0  0  0  0
  9 10  1  0  0  0  0
  9103  1  0  0  0  0
  9104  1  0  0  0  0
 10 11  1  0  0  0  0
 10105  1  0  0  0  0
 11 12  2  0  0  0  0
 11 13  1  0  0  0  0
 13 14  1  0  0  0  0
 13 28  1  0  0  0  0
 13106  1  6  0  0  0
 14 15  1  0  0  0  0
 14107  1  0  0  0  0
 14108  1  0  0  0  0
 15 16  1  0  0  0  0
 15109  1  0  0  0  0
 15110  1  0  0  0  0
 16 17  1  0  0  0  0
 16 28  1  0  0  0  0
 17 18  1  0  0  0  0
 17 26  2  0  0  0  0
 18 19  2  0  0  0  0
 18 20  1  0  0  0  0
 20 21  1  0  0  0  0
 20 25  2  0  0  0  0
 21 22  2  0  0  0  0
 21111  1  0  0  0  0
 22 23  1  0  0  0  0
 22112  1  0  0  0  0
 23 24  2  0  0  0  0
 23113  1  0  0  0  0
 24 25  1  0  0  0  0
 24114  1  0  0  0  0
 25115  1  0  0  0  0
 26 27  1  0  0  0  0
 26116  1  0  0  0  0
 27 28  2  0  0  0  0
 27117  1  0  0  0  0
 29 30  1  0  0  0  0
 29 91  2  0  0  0  0
 30 31  2  0  0  0  0
 30118  1  0  0  0  0
 31 32  1  0  0  0  0
 31119  1  0  0  0  0
 32 33  1  0  0  0  0
 32 90  2  0  0  0  0
 33 34  1  0  0  0  0
 33 84  2  0  0  0  0
 34 35  2  0  0  0  0
 34 89  1  0  0  0  0
 35 36  1  0  0  0  0
 36 37  2  0  0  0  0
 36 88  1  0  0  0  0
 37 38  1  0  0  0  0
 37 49  1  0  0  0  0
 38 39  1  0  0  0  0
 38 47  2  0  0  0  0
 39 40  1  0  0  0  0
 39 41  2  0  0  0  0
 41 42  1  0  0  0  0
 41 43  1  0  0  0  0
 43 44  1  0  0  0  0
 43 45  2  0  0  0  0
 45 46  1  0  0  0  0
 45 47  1  0  0  0  0
 47 48  1  0  0  0  0
 49 50  2  0  0  0  0
 49 53  1  0  0  0  0
 50 51  1  0  0  0  0
 50120  1  0  0  0  0
 51 52  2  0  0  0  0
 51121  1  0  0  0  0
 52 53  1  0  0  0  0
 52 54  1  0  0  0  0
 53122  1  0  0  0  0
 54 55  1  0  0  0  0
 54 66  2  0  0  0  0
 55 56  1  0  0  0  0
 55 64  2  0  0  0  0
 56 57  1  0  0  0  0
 56 58  2  0  0  0  0
 58 59  1  0  0  0  0
 58 60  1  0  0  0  0
 60 61  1  0  0  0  0
 60 62  2  0  0  0  0
 62 63  1  0  0  0  0
 62 64  1  0  0  0  0
 64 65  1  0  0  0  0
 66 67  1  0  0  0  0
 66 87  1  0  0  0  0
 67 68  2  0  0  0  0
 68 69  1  0  0  0  0
 68 86  1  0  0  0  0
 69 70  1  0  0  0  0
 69 81  2  0  0  0  0
 70 71  1  0  0  0  0
 70 79  2  0  0  0  0
 71 72  1  0  0  0  0
 71 73  2  0  0  0  0
 73 74  1  0  0  0  0
 73 75  1  0  0  0  0
 75 76  1  0  0  0  0
 75 77  2  0  0  0  0
 77 78  1  0  0  0  0
 77 79  1  0  0  0  0
 79 80  1  0  0  0  0
 81 82  1  0  0  0  0
 81 85  1  0  0  0  0
 82 83  2  0  0  0  0
 82123  1  0  0  0  0
 83 84  1  0  0  0  0
 83124  1  0  0  0  0
 84 85  1  0  0  0  0
 85125  1  0  0  0  0
 86 87  2  0  0  0  0
 86126  1  0  0  0  0
 87127  1  0  0  0  0
 88 89  2  0  0  0  0
 88128  1  0  0  0  0
 89129  1  0  0  0  0
 90 91  1  0  0  0  0
 90130  1  0  0  0  0
 91131  1  0  0  0  0
M  END
$$$$
