ligands/14-CHEMBL622
 OpenBabel10182222423D

141152  0  0  0  0  0  0  0  0999 V2000
    0.7005   -0.1622    0.5525 C   0  0  0  0  0  0  0  0  0  0  0  0
    0.3278    1.2982    0.7278 C   0  0  0  0  0  0  0  0  0  0  0  0
    0.7572    2.2838   -0.3385 C   0  0  0  0  0  0  0  0  0  0  0  0
    0.3293    3.6246   -0.1493 C   0  0  0  0  0  0  0  0  0  0  0  0
    0.5683    4.6360   -1.0735 C   0  0  0  0  0  0  0  0  0  0  0  0
    1.2183    4.3419   -2.2626 C   0  0  0  0  0  0  0  0  0  0  0  0
    1.6591    3.0278   -2.4957 C   0  0  0  0  0  0  0  0  0  0  0  0
    2.1970    2.3973   -3.6364 C   0  0  0  0  0  0  0  0  0  0  0  0
    2.4932    1.0884   -3.3338 C   0  0  0  0  0  0  0  0  0  0  0  0
    2.0851    0.8940   -2.0351 N   0  0  0  0  0  0  0  0  0  0  0  0
    1.4752    2.0345   -1.5295 C   0  0  0  0  0  0  0  0  0  0  0  0
    3.0105    0.0475   -4.3067 C   0  0  2  0  0  0  0  0  0  0  0  0
    2.2428   -1.2986   -4.0822 C   0  0  0  0  0  0  0  0  0  0  0  0
    2.6307   -2.4491   -5.0152 C   0  0  0  0  0  0  0  0  0  0  0  0
    4.5270   -0.2348   -4.1949 C   0  0  0  0  0  0  0  0  0  0  0  0
    5.5081    0.7877   -4.7127 C   0  0  0  0  0  0  0  0  0  0  0  0
    5.9450    1.6836   -3.9889 O   0  0  0  0  0  0  0  0  0  0  0  0
    5.9898    0.7076   -5.9885 N   0  0  0  0  0  0  0  0  0  0  0  0
    5.6293   -0.1378   -7.1188 C   0  0  0  0  0  0  0  0  0  0  0  0
    4.7227    0.5341   -8.1605 C   0  0  0  0  0  0  0  0  0  0  0  0
    4.9947    2.0267   -8.4240 C   0  0  0  0  0  0  0  0  0  0  0  0
    5.6983    2.3210   -9.7399 C   0  0  0  0  0  0  0  0  0  0  0  0
    4.9116    1.8999  -10.9794 C   0  0  0  0  0  0  0  0  0  0  0  0
    3.5165    2.5262  -11.1009 C   0  0  0  0  0  0  0  0  0  0  0  0
    3.5242    3.8936  -11.5790 N   0  0  0  0  0  0  0  0  0  0  0  0
    3.7359    4.4452  -12.8149 C   0  0  0  0  0  0  0  0  0  0  0  0
    3.5658    5.6627  -12.9270 O   0  0  0  0  0  0  0  0  0  0  0  0
    4.2454    3.6820  -13.9870 C   0  0  0  0  0  0  0  0  0  0  0  0
    4.2645    2.2922  -14.0865 C   0  0  0  0  0  0  0  0  0  0  0  0
    5.0025    1.6688  -15.0767 C   0  0  0  0  0  0  0  0  0  0  0  0
    5.6438    2.4299  -16.0537 C   0  0  0  0  0  0  0  0  0  0  0  0
    6.4064    1.6926  -17.0532 C   0  0  0  0  0  0  0  0  0  0  0  0
    5.6678    0.5906  -17.7381 C   0  0  0  0  0  0  0  0  0  0  0  0
    5.9402   -0.6753  -17.7278 N   0  0  0  0  0  0  0  0  0  0  0  0
    4.9613   -1.2941  -18.5028 C   0  0  0  0  0  0  0  0  0  0  0  0
    5.0862   -2.5796  -18.9357 C   0  0  0  0  0  0  0  0  0  0  0  0
    4.5371   -3.1091  -20.2340 C   0  0  0  0  0  0  0  0  0  0  0  0
    4.5824   -4.4939  -20.4981 C   0  0  0  0  0  0  0  0  0  0  0  0
    4.8578   -5.3697  -19.5197 F   0  0  0  0  0  0  0  0  0  0  0  0
    4.4350   -5.0036  -21.7908 C   0  0  0  0  0  0  0  0  0  0  0  0
    4.6093   -6.3135  -22.0138 F   0  0  0  0  0  0  0  0  0  0  0  0
    4.1804   -4.1562  -22.8529 C   0  0  0  0  0  0  0  0  0  0  0  0
    4.1038   -4.6339  -24.1017 F   0  0  0  0  0  0  0  0  0  0  0  0
    4.0557   -2.8021  -22.6219 C   0  0  0  0  0  0  0  0  0  0  0  0
    3.8255   -1.9635  -23.6419 F   0  0  0  0  0  0  0  0  0  0  0  0
    4.2521   -2.2854  -21.3423 C   0  0  0  0  0  0  0  0  0  0  0  0
    4.2633   -0.9500  -21.2524 F   0  0  0  0  0  0  0  0  0  0  0  0
    6.0569   -3.3073  -18.1661 C   0  0  0  0  0  0  0  0  0  0  0  0
    6.1452   -3.6918  -16.8420 C   0  0  0  0  0  0  0  0  0  0  0  0
    7.5281   -3.5808  -16.5188 C   0  0  0  0  0  0  0  0  0  0  0  0
    8.1956   -3.1814  -17.6767 C   0  0  0  0  0  0  0  0  0  0  0  0
    7.3158   -3.4811  -18.6846 N   0  0  0  0  0  0  0  0  0  0  0  0
    9.4509   -2.5043  -17.8880 C   0  0  0  0  0  0  0  0  0  0  0  0
   10.3732   -2.4250  -16.7058 C   0  0  0  0  0  0  0  0  0  0  0  0
   10.5435   -1.2607  -15.9367 C   0  0  0  0  0  0  0  0  0  0  0  0
    9.9351   -0.1174  -16.2730 F   0  0  0  0  0  0  0  0  0  0  0  0
   11.2849   -1.2751  -14.7573 C   0  0  0  0  0  0  0  0  0  0  0  0
   11.4273   -0.1511  -14.0390 F   0  0  0  0  0  0  0  0  0  0  0  0
   11.8332   -2.4603  -14.2976 C   0  0  0  0  0  0  0  0  0  0  0  0
   12.4980   -2.4866  -13.1339 F   0  0  0  0  0  0  0  0  0  0  0  0
   11.6592   -3.6266  -15.0257 C   0  0  0  0  0  0  0  0  0  0  0  0
   12.1405   -4.7856  -14.5553 F   0  0  0  0  0  0  0  0  0  0  0  0
   10.9487   -3.6074  -16.2229 C   0  0  0  0  0  0  0  0  0  0  0  0
   10.7646   -4.7625  -16.8817 F   0  0  0  0  0  0  0  0  0  0  0  0
    9.7320   -1.7321  -18.9775 C   0  0  0  0  0  0  0  0  0  0  0  0
   10.7174   -0.7575  -18.9345 N   0  0  0  0  0  0  0  0  0  0  0  0
   10.3337    0.1398  -19.8009 C   0  0  0  0  0  0  0  0  0  0  0  0
   10.4851    1.6027  -19.5900 C   0  0  0  0  0  0  0  0  0  0  0  0
   11.1784    2.4962  -20.5462 C   0  0  0  0  0  0  0  0  0  0  0  0
   12.2260    2.0259  -21.3533 C   0  0  0  0  0  0  0  0  0  0  0  0
   12.7484    0.8094  -21.1401 F   0  0  0  0  0  0  0  0  0  0  0  0
   12.7073    2.7696  -22.4365 C   0  0  0  0  0  0  0  0  0  0  0  0
   13.6674    2.2615  -23.2219 F   0  0  0  0  0  0  0  0  0  0  0  0
   12.1602    4.0060  -22.7386 C   0  0  0  0  0  0  0  0  0  0  0  0
   12.5818    4.6926  -23.8093 F   0  0  0  0  0  0  0  0  0  0  0  0
   11.1432    4.5082  -21.9505 C   0  0  0  0  0  0  0  0  0  0  0  0
   10.5788    5.6864  -22.2515 F   0  0  0  0  0  0  0  0  0  0  0  0
   10.6556    3.7632  -20.8774 C   0  0  0  0  0  0  0  0  0  0  0  0
    9.5972    4.2661  -20.2263 F   0  0  0  0  0  0  0  0  0  0  0  0
    9.6347    1.9594  -18.5980 C   0  0  0  0  0  0  0  0  0  0  0  0
    9.6155    3.1438  -17.7566 C   0  0  0  0  0  0  0  0  0  0  0  0
    8.5120    3.1073  -16.9759 C   0  0  0  0  0  0  0  0  0  0  0  0
    7.6848    1.9672  -17.3701 C   0  0  0  0  0  0  0  0  0  0  0  0
    8.4974    1.2724  -18.2121 N   0  0  0  0  0  0  0  0  0  0  0  0
    9.3483   -0.3128  -20.7736 C   0  0  0  0  0  0  0  0  0  0  0  0
    8.9652   -1.4509  -20.1883 C   0  0  0  0  0  0  0  0  0  0  0  0
    3.9974   -0.2740  -18.8301 C   0  0  0  0  0  0  0  0  0  0  0  0
    4.4115    0.9269  -18.4222 C   0  0  0  0  0  0  0  0  0  0  0  0
    5.4887    3.8117  -16.0737 C   0  0  0  0  0  0  0  0  0  0  0  0
    4.8144    4.4346  -15.0285 C   0  0  0  0  0  0  0  0  0  0  0  0
    2.5932    0.4986   -5.6179 O   0  0  0  0  0  0  0  0  0  0  0  0
    2.8298    1.8804   -5.9466 C   0  0  0  0  0  0  0  0  0  0  0  0
    2.2921    2.9366   -4.9976 C   0  0  0  0  0  0  0  0  0  0  0  0
    0.3290   -0.7271    1.3818 H   0  0  0  0  0  0  0  0  0  0  0  0
    1.7654   -0.2554    0.5059 H   0  0  0  0  0  0  0  0  0  0  0  0
    0.2699   -0.5339   -0.3538 H   0  0  0  0  0  0  0  0  0  0  0  0
    0.7564    1.6253    1.6520 H   0  0  0  0  0  0  0  0  0  0  0  0
   -0.7410    1.3049    0.6772 H   0  0  0  0  0  0  0  0  0  0  0  0
   -0.1833    3.8596    0.7150 H   0  0  0  0  0  0  0  0  0  0  0  0
    0.2631    5.6017   -0.8751 H   0  0  0  0  0  0  0  0  0  0  0  0
    1.3764    5.0788   -2.9676 H   0  0  0  0  0  0  0  0  0  0  0  0
    2.2089    0.0575   -1.5309 H   0  0  0  0  0  0  0  0  0  0  0  0
    1.1983   -1.1070   -4.2136 H   0  0  0  0  0  0  0  0  0  0  0  0
    2.5046   -1.6222   -3.0965 H   0  0  0  0  0  0  0  0  0  0  0  0
    2.3923   -2.1857   -6.0245 H   0  0  0  0  0  0  0  0  0  0  0  0
    2.0897   -3.3300   -4.7392 H   0  0  0  0  0  0  0  0  0  0  0  0
    3.6812   -2.6355   -4.9339 H   0  0  0  0  0  0  0  0  0  0  0  0
    4.7152   -1.1447   -4.7255 H   0  0  0  0  0  0  0  0  0  0  0  0
    4.7057   -0.2462   -3.1400 H   0  0  0  0  0  0  0  0  0  0  0  0
    6.7185    1.3411   -6.1804 H   0  0  0  0  0  0  0  0  0  0  0  0
    5.1205   -1.0000   -6.7410 H   0  0  0  0  0  0  0  0  0  0  0  0
    6.5433   -0.3747   -7.6221 H   0  0  0  0  0  0  0  0  0  0  0  0
    3.7111    0.4392   -7.8250 H   0  0  0  0  0  0  0  0  0  0  0  0
    4.9238    0.0349   -9.0853 H   0  0  0  0  0  0  0  0  0  0  0  0
    5.6054    2.3998   -7.6286 H   0  0  0  0  0  0  0  0  0  0  0  0
    4.0383    2.5034   -8.4790 H   0  0  0  0  0  0  0  0  0  0  0  0
    6.6336    1.8013   -9.7437 H   0  0  0  0  0  0  0  0  0  0  0  0
    5.8136    3.3833   -9.7956 H   0  0  0  0  0  0  0  0  0  0  0  0
    4.7978    0.8362  -10.9557 H   0  0  0  0  0  0  0  0  0  0  0  0
    5.4713    2.2465  -11.8229 H   0  0  0  0  0  0  0  0  0  0  0  0
    3.0551    2.5098  -10.1356 H   0  0  0  0  0  0  0  0  0  0  0  0
    2.9797    1.9484  -11.8240 H   0  0  0  0  0  0  0  0  0  0  0  0
    3.3409    4.5584  -10.8763 H   0  0  0  0  0  0  0  0  0  0  0  0
    3.7238    1.7235  -13.4162 H   0  0  0  0  0  0  0  0  0  0  0  0
    5.0786    0.6397  -15.0924 H   0  0  0  0  0  0  0  0  0  0  0  0
    5.3770   -3.9935  -16.2224 H   0  0  0  0  0  0  0  0  0  0  0  0
    7.9570   -3.7624  -15.5979 H   0  0  0  0  0  0  0  0  0  0  0  0
    7.5423   -3.7650  -19.5997 H   0  0  0  0  0  0  0  0  0  0  0  0
   10.3276    3.8908  -17.7550 H   0  0  0  0  0  0  0  0  0  0  0  0
    8.2892    3.7766  -16.2226 H   0  0  0  0  0  0  0  0  0  0  0  0
    8.2936    0.3598  -18.5200 H   0  0  0  0  0  0  0  0  0  0  0  0
    9.0369    0.1197  -21.6573 H   0  0  0  0  0  0  0  0  0  0  0  0
    8.2149   -2.0604  -20.5496 H   0  0  0  0  0  0  0  0  0  0  0  0
    3.1041   -0.4494  -19.3162 H   0  0  0  0  0  0  0  0  0  0  0  0
    3.9668    1.8490  -18.5527 H   0  0  0  0  0  0  0  0  0  0  0  0
    5.8694    4.3685  -16.8548 H   0  0  0  0  0  0  0  0  0  0  0  0
    4.7309    5.4632  -15.0178 H   0  0  0  0  0  0  0  0  0  0  0  0
    2.3906    2.0599   -6.9056 H   0  0  0  0  0  0  0  0  0  0  0  0
    3.8930    1.9905   -5.8974 H   0  0  0  0  0  0  0  0  0  0  0  0
    2.9509    3.7797   -4.9980 H   0  0  0  0  0  0  0  0  0  0  0  0
    1.3170    3.2331   -5.3234 H   0  0  0  0  0  0  0  0  0  0  0  0
  1  2  1  0  0  0  0
  1 94  1  0  0  0  0
  1 95  1  0  0  0  0
  1 96  1  0  0  0  0
  2  3  1  0  0  0  0
  2 97  1  0  0  0  0
  2 98  1  0  0  0  0
  3  4  1  0  0  0  0
  3 11  2  0  0  0  0
  4  5  2  0  0  0  0
  4 99  1  0  0  0  0
  5  6  1  0  0  0  0
  5100  1  0  0  0  0
  6  7  2  0  0  0  0
  6101  1  0  0  0  0
  7  8  1  0  0  0  0
  7 11  1  0  0  0  0
  8  9  2  0  0  0  0
  8 93  1  0  0  0  0
  9 10  1  0  0  0  0
  9 12  1  0  0  0  0
 10 11  1  0  0  0  0
 10102  1  0  0  0  0
 12 13  1  1  0  0  0
 12 15  1  0  0  0  0
 12 91  1  0  0  0  0
 13 14  1  0  0  0  0
 13103  1  0  0  0  0
 13104  1  0  0  0  0
 14105  1  0  0  0  0
 14106  1  0  0  0  0
 14107  1  0  0  0  0
 15 16  1  0  0  0  0
 15108  1  0  0  0  0
 15109  1  0  0  0  0
 16 17  2  0  0  0  0
 16 18  1  0  0  0  0
 18 19  1  0  0  0  0
 18110  1  0  0  0  0
 19 20  1  0  0  0  0
 19111  1  0  0  0  0
 19112  1  0  0  0  0
 20 21  1  0  0  0  0
 20113  1  0  0  0  0
 20114  1  0  0  0  0
 21 22  1  0  0  0  0
 21115  1  0  0  0  0
 21116  1  0  0  0  0
 22 23  1  0  0  0  0
 22117  1  0  0  0  0
 22118  1  0  0  0  0
 23 24  1  0  0  0  0
 23119  1  0  0  0  0
 23120  1  0  0  0  0
 24 25  1  0  0  0  0
 24121  1  0  0  0  0
 24122  1  0  0  0  0
 25 26  1  0  0  0  0
 25123  1  0  0  0  0
 26 27  2  0  0  0  0
 26 28  1  0  0  0  0
 28 29  1  0  0  0  0
 28 90  2  0  0  0  0
 29 30  2  0  0  0  0
 29124  1  0  0  0  0
 30 31  1  0  0  0  0
 30125  1  0  0  0  0
 31 32  1  0  0  0  0
 31 89  2  0  0  0  0
 32 33  1  0  0  0  0
 32 83  2  0  0  0  0
 33 34  2  0  0  0  0
 33 88  1  0  0  0  0
 34 35  1  0  0  0  0
 35 36  2  0  0  0  0
 35 87  1  0  0  0  0
 36 37  1  0  0  0  0
 36 48  1  0  0  0  0
 37 38  1  0  0  0  0
 37 46  2  0  0  0  0
 38 39  1  0  0  0  0
 38 40  2  0  0  0  0
 40 41  1  0  0  0  0
 40 42  1  0  0  0  0
 42 43  1  0  0  0  0
 42 44  2  0  0  0  0
 44 45  1  0  0  0  0
 44 46  1  0  0  0  0
 46 47  1  0  0  0  0
 48 49  2  0  0  0  0
 48 52  1  0  0  0  0
 49 50  1  0  0  0  0
 49126  1  0  0  0  0
 50 51  2  0  0  0  0
 50127  1  0  0  0  0
 51 52  1  0  0  0  0
 51 53  1  0  0  0  0
 52128  1  0  0  0  0
 53 54  1  0  0  0  0
 53 65  2  0  0  0  0
 54 55  1  0  0  0  0
 54 63  2  0  0  0  0
 55 56  1  0  0  0  0
 55 57  2  0  0  0  0
 57 58  1  0  0  0  0
 57 59  1  0  0  0  0
 59 60  1  0  0  0  0
 59 61  2  0  0  0  0
 61 62  1  0  0  0  0
 61 63  1  0  0  0  0
 63 64  1  0  0  0  0
 65 66  1  0  0  0  0
 65 86  1  0  0  0  0
 66 67  2  0  0  0  0
 67 68  1  0  0  0  0
 67 85  1  0  0  0  0
 68 69  1  0  0  0  0
 68 80  2  0  0  0  0
 69 70  1  0  0  0  0
 69 78  2  0  0  0  0
 70 71  1  0  0  0  0
 70 72  2  0  0  0  0
 72 73  1  0  0  0  0
 72 74  1  0  0  0  0
 74 75  1  0  0  0  0
 74 76  2  0  0  0  0
 76 77  1  0  0  0  0
 76 78  1  0  0  0  0
 78 79  1  0  0  0  0
 80 81  1  0  0  0  0
 80 84  1  0  0  0  0
 81 82  2  0  0  0  0
 81129  1  0  0  0  0
 82 83  1  0  0  0  0
 82130  1  0  0  0  0
 83 84  1  0  0  0  0
 84131  1  0  0  0  0
 85 86  2  0  0  0  0
 85132  1  0  0  0  0
 86133  1  0  0  0  0
 87 88  2  0  0  0  0
 87134  1  0  0  0  0
 88135  1  0  0  0  0
 89 90  1  0  0  0  0
 89136  1  0  0  0  0
 90137  1  0  0  0  0
 91 92  1  0  0  0  0
 92 93  1  0  0  0  0
 92138  1  0  0  0  0
 92139  1  0  0  0  0
 93140  1  0  0  0  0
 93141  1  0  0  0  0
M  END
$$$$
