ligands/17-CHEMBL435298
 OpenBabel10182222423D

130140  0  0  1  0  0  0  0  0999 V2000
    1.1317   -2.4119    0.2042 C   0  0  0  0  0  0  0  0  0  0  0  0
    0.4739   -1.4095   -0.7604 C   0  0  2  0  0  0  0  0  0  0  0  0
    0.9867   -0.0150   -0.3384 C   0  0  0  0  0  0  0  0  0  0  0  0
    2.1389    0.3175   -0.6516 O   0  0  0  0  0  0  0  0  0  0  0  0
    0.3229    0.8641    0.4660 N   0  0  0  0  0  0  0  0  0  0  0  0
   -1.0860    0.9680    0.7832 C   0  0  0  0  0  0  0  0  0  0  0  0
   -1.4219    1.8637    1.9711 C   0  0  0  0  0  0  0  0  0  0  0  0
   -0.9949    3.3317    1.8787 C   0  0  0  0  0  0  0  0  0  0  0  0
   -1.4131    4.1146    0.6308 C   0  0  0  0  0  0  0  0  0  0  0  0
   -2.8977    4.1023    0.2665 C   0  0  0  0  0  0  0  0  0  0  0  0
   -3.8711    4.4659    1.3811 C   0  0  0  0  0  0  0  0  0  0  0  0
   -3.6777    5.8048    1.9119 N   0  0  0  0  0  0  0  0  0  0  0  0
   -4.6097    6.7885    2.1603 C   0  0  0  0  0  0  0  0  0  0  0  0
   -4.2590    7.8979    2.5305 O   0  0  0  0  0  0  0  0  0  0  0  0
   -6.0473    6.5060    1.9427 C   0  0  0  0  0  0  0  0  0  0  0  0
   -6.8159    7.4260    1.2223 C   0  0  0  0  0  0  0  0  0  0  0  0
   -8.1522    7.1378    0.9297 C   0  0  0  0  0  0  0  0  0  0  0  0
   -8.7117    5.9139    1.3255 C   0  0  0  0  0  0  0  0  0  0  0  0
  -10.1090    5.5385    0.9909 C   0  0  0  0  0  0  0  0  0  0  0  0
  -11.0997    5.3170    2.0975 C   0  0  0  0  0  0  0  0  0  0  0  0
  -12.3033    4.8058    2.0480 N   0  0  0  0  0  0  0  0  0  0  0  0
  -12.7459    4.7614    3.3632 C   0  0  0  0  0  0  0  0  0  0  0  0
  -13.9499    4.3589    3.8359 C   0  0  0  0  0  0  0  0  0  0  0  0
  -14.1498    4.3854    5.3248 C   0  0  0  0  0  0  0  0  0  0  0  0
  -14.1954    5.5887    6.0462 C   0  0  0  0  0  0  0  0  0  0  0  0
  -14.0530    6.7623    5.4116 F   0  0  0  0  0  0  0  0  0  0  0  0
  -14.3262    5.5900    7.4326 C   0  0  0  0  0  0  0  0  0  0  0  0
  -14.2921    6.7485    8.1055 F   0  0  0  0  0  0  0  0  0  0  0  0
  -14.4643    4.3939    8.1198 C   0  0  0  0  0  0  0  0  0  0  0  0
  -14.5862    4.3963    9.4543 F   0  0  0  0  0  0  0  0  0  0  0  0
  -14.4634    3.1946    7.4243 C   0  0  0  0  0  0  0  0  0  0  0  0
  -14.6123    2.0381    8.0850 F   0  0  0  0  0  0  0  0  0  0  0  0
  -14.2944    3.1879    6.0422 C   0  0  0  0  0  0  0  0  0  0  0  0
  -14.2681    2.0083    5.4038 F   0  0  0  0  0  0  0  0  0  0  0  0
  -15.0275    3.8948    3.0027 C   0  0  0  0  0  0  0  0  0  0  0  0
  -16.3072    3.5234    3.3741 C   0  0  0  0  0  0  0  0  0  0  0  0
  -16.9838    3.0869    2.2306 C   0  0  0  0  0  0  0  0  0  0  0  0
  -16.1475    3.2460    1.1366 C   0  0  0  0  0  0  0  0  0  0  0  0
  -14.9470    3.7341    1.6263 N   0  0  0  0  0  0  0  0  0  0  0  0
  -16.4262    2.9731   -0.2517 C   0  0  0  0  0  0  0  0  0  0  0  0
  -17.8075    2.4933   -0.5912 C   0  0  0  0  0  0  0  0  0  0  0  0
  -18.0618    1.1635   -0.9534 C   0  0  0  0  0  0  0  0  0  0  0  0
  -17.0476    0.2982   -1.1021 F   0  0  0  0  0  0  0  0  0  0  0  0
  -19.3630    0.7222   -1.1828 C   0  0  0  0  0  0  0  0  0  0  0  0
  -19.5824   -0.5465   -1.5547 F   0  0  0  0  0  0  0  0  0  0  0  0
  -20.4326    1.5922   -1.0275 C   0  0  0  0  0  0  0  0  0  0  0  0
  -21.6851    1.1593   -1.2270 F   0  0  0  0  0  0  0  0  0  0  0  0
  -20.2037    2.9108   -0.6663 C   0  0  0  0  0  0  0  0  0  0  0  0
  -21.2360    3.7493   -0.5001 F   0  0  0  0  0  0  0  0  0  0  0  0
  -18.9031    3.3621   -0.4640 C   0  0  0  0  0  0  0  0  0  0  0  0
  -18.7125    4.6432   -0.1141 F   0  0  0  0  0  0  0  0  0  0  0  0
  -15.5489    3.1450   -1.2707 C   0  0  0  0  0  0  0  0  0  0  0  0
  -14.2472    3.6263   -1.2273 N   0  0  0  0  0  0  0  0  0  0  0  0
  -13.8163    3.6182   -2.4654 C   0  0  0  0  0  0  0  0  0  0  0  0
  -12.4853    4.0637   -3.0079 C   0  0  0  0  0  0  0  0  0  0  0  0
  -12.1616    3.9395   -4.4527 C   0  0  0  0  0  0  0  0  0  0  0  0
  -12.7754    4.7688   -5.4010 C   0  0  0  0  0  0  0  0  0  0  0  0
  -13.7092    5.6501   -5.0141 F   0  0  0  0  0  0  0  0  0  0  0  0
  -12.4501    4.6797   -6.7531 C   0  0  0  0  0  0  0  0  0  0  0  0
  -13.0722    5.4653   -7.6426 F   0  0  0  0  0  0  0  0  0  0  0  0
  -11.4873    3.7772   -7.1795 C   0  0  0  0  0  0  0  0  0  0  0  0
  -11.1626    3.7037   -8.4774 F   0  0  0  0  0  0  0  0  0  0  0  0
  -10.8621    2.9503   -6.2585 C   0  0  0  0  0  0  0  0  0  0  0  0
   -9.9185    2.0892   -6.6632 F   0  0  0  0  0  0  0  0  0  0  0  0
  -11.2056    3.0203   -4.9100 C   0  0  0  0  0  0  0  0  0  0  0  0
  -10.5839    2.2089   -4.0413 F   0  0  0  0  0  0  0  0  0  0  0  0
  -11.5754    4.5975   -2.1699 C   0  0  0  0  0  0  0  0  0  0  0  0
  -10.2423    5.0588   -2.5492 C   0  0  0  0  0  0  0  0  0  0  0  0
   -9.5770    5.4335   -1.4449 C   0  0  0  0  0  0  0  0  0  0  0  0
  -10.4548    5.2840   -0.2850 C   0  0  0  0  0  0  0  0  0  0  0  0
  -11.6312    4.8126   -0.8147 N   0  0  0  0  0  0  0  0  0  0  0  0
  -14.7892    3.0935   -3.4341 C   0  0  0  0  0  0  0  0  0  0  0  0
  -15.8376    2.8491   -2.6588 C   0  0  0  0  0  0  0  0  0  0  0  0
  -11.6653    5.2537    4.1904 C   0  0  0  0  0  0  0  0  0  0  0  0
  -10.6570    5.6874    3.4503 C   0  0  0  0  0  0  0  0  0  0  0  0
   -7.9372    5.0173    2.0805 C   0  0  0  0  0  0  0  0  0  0  0  0
   -6.6306    5.3367    2.4342 C   0  0  0  0  0  0  0  0  0  0  0  0
   -1.0252   -1.5995   -0.9507 C   0  0  0  0  0  0  0  0  0  0  0  0
   -1.7665   -0.6853   -1.7087 C   0  0  0  0  0  0  0  0  0  0  0  0
   -3.1713   -0.6898   -1.6672 C   0  0  0  0  0  0  0  0  0  0  0  0
   -3.8908   -1.6637   -0.9492 C   0  0  0  0  0  0  0  0  0  0  0  0
   -5.3576   -1.5500   -0.7239 C   0  0  0  0  0  0  0  0  0  0  0  0
   -6.2027   -0.8561   -1.6094 C   0  0  0  0  0  0  0  0  0  0  0  0
   -7.5686   -0.6899   -1.3446 C   0  0  0  0  0  0  0  0  0  0  0  0
   -8.1315   -1.2302   -0.1934 C   0  0  0  0  0  0  0  0  0  0  0  0
   -7.3285   -1.9298    0.6968 C   0  0  0  0  0  0  0  0  0  0  0  0
   -5.9616   -2.0754    0.4380 C   0  0  0  0  0  0  0  0  0  0  0  0
   -3.1242   -2.6980   -0.3928 C   0  0  0  0  0  0  0  0  0  0  0  0
   -3.7110   -3.7509    0.1983 F   0  0  0  0  0  0  0  0  0  0  0  0
   -1.7282   -2.6648   -0.3763 C   0  0  0  0  0  0  0  0  0  0  0  0
    0.8125   -3.4036   -0.0397 H   0  0  0  0  0  0  0  0  0  0  0  0
    0.8440   -2.1816    1.2087 H   0  0  0  0  0  0  0  0  0  0  0  0
    2.1960   -2.3475    0.1143 H   0  0  0  0  0  0  0  0  0  0  0  0
    0.7684   -1.5754   -1.7756 H   0  0  0  0  0  0  0  0  0  0  0  0
    0.8944    1.5371    0.9015 H   0  0  0  0  0  0  0  0  0  0  0  0
   -1.4502   -0.0151    0.9970 H   0  0  0  0  0  0  0  0  0  0  0  0
   -1.5487    1.4204   -0.0689 H   0  0  0  0  0  0  0  0  0  0  0  0
   -0.9501    1.4442    2.8350 H   0  0  0  0  0  0  0  0  0  0  0  0
   -2.4910    1.8874    2.0072 H   0  0  0  0  0  0  0  0  0  0  0  0
    0.0735    3.3581    1.9300 H   0  0  0  0  0  0  0  0  0  0  0  0
   -1.5052    3.8144    2.6859 H   0  0  0  0  0  0  0  0  0  0  0  0
   -0.8740    3.7093   -0.1998 H   0  0  0  0  0  0  0  0  0  0  0  0
   -1.1921    5.1366    0.8580 H   0  0  0  0  0  0  0  0  0  0  0  0
   -3.1421    3.1167   -0.0707 H   0  0  0  0  0  0  0  0  0  0  0  0
   -3.0153    4.8655   -0.4742 H   0  0  0  0  0  0  0  0  0  0  0  0
   -3.7473    3.7647    2.1798 H   0  0  0  0  0  0  0  0  0  0  0  0
   -4.8542    4.4355    0.9599 H   0  0  0  0  0  0  0  0  0  0  0  0
   -2.7465    6.0433    2.1246 H   0  0  0  0  0  0  0  0  0  0  0  0
   -6.3976    8.3154    0.9075 H   0  0  0  0  0  0  0  0  0  0  0  0
   -8.7282    7.8269    0.4214 H   0  0  0  0  0  0  0  0  0  0  0  0
  -16.6954    3.5618    4.3295 H   0  0  0  0  0  0  0  0  0  0  0  0
  -17.9441    2.7098    2.2055 H   0  0  0  0  0  0  0  0  0  0  0  0
  -14.1541    3.9370    1.0791 H   0  0  0  0  0  0  0  0  0  0  0  0
   -9.8714    5.0914   -3.5117 H   0  0  0  0  0  0  0  0  0  0  0  0
   -8.6026    5.7726   -1.4188 H   0  0  0  0  0  0  0  0  0  0  0  0
  -12.4371    4.6450   -0.2746 H   0  0  0  0  0  0  0  0  0  0  0  0
  -14.6843    2.9522   -4.4510 H   0  0  0  0  0  0  0  0  0  0  0  0
  -16.7438    2.4933   -3.0013 H   0  0  0  0  0  0  0  0  0  0  0  0
  -11.6790    5.2652    5.2222 H   0  0  0  0  0  0  0  0  0  0  0  0
   -9.7887    6.1609    3.7450 H   0  0  0  0  0  0  0  0  0  0  0  0
   -8.3410    4.1144    2.3750 H   0  0  0  0  0  0  0  0  0  0  0  0
   -6.0948    4.7123    3.0571 H   0  0  0  0  0  0  0  0  0  0  0  0
   -1.2759   -0.0004   -2.3047 H   0  0  0  0  0  0  0  0  0  0  0  0
   -3.6902    0.0418   -2.1777 H   0  0  0  0  0  0  0  0  0  0  0  0
   -5.8065   -0.4595   -2.4759 H   0  0  0  0  0  0  0  0  0  0  0  0
   -8.1598   -0.1640   -2.0071 H   0  0  0  0  0  0  0  0  0  0  0  0
   -9.1387   -1.1119   -0.0024 H   0  0  0  0  0  0  0  0  0  0  0  0
   -7.7396   -2.3422    1.5488 H   0  0  0  0  0  0  0  0  0  0  0  0
   -5.3759   -2.5836    1.1190 H   0  0  0  0  0  0  0  0  0  0  0  0
   -1.2068   -3.4377    0.0663 H   0  0  0  0  0  0  0  0  0  0  0  0
  1 91  1  0  0  0  0
  1 92  1  0  0  0  0
  1 93  1  0  0  0  0
  2 78  1  0  0  0  0
  2  3  1  0  0  0  0
  2  1  1  0  0  0  0
  2 94  1  6  0  0  0
  3  4  2  0  0  0  0
  3  5  1  0  0  0  0
  5  6  1  0  0  0  0
  5 95  1  0  0  0  0
  6  7  1  0  0  0  0
  6 96  1  0  0  0  0
  6 97  1  0  0  0  0
  7  8  1  0  0  0  0
  7 98  1  0  0  0  0
  7 99  1  0  0  0  0
  8  9  1  0  0  0  0
  8100  1  0  0  0  0
  8101  1  0  0  0  0
  9 10  1  0  0  0  0
  9102  1  0  0  0  0
  9103  1  0  0  0  0
 10 11  1  0  0  0  0
 10104  1  0  0  0  0
 10105  1  0  0  0  0
 11 12  1  0  0  0  0
 11106  1  0  0  0  0
 11107  1  0  0  0  0
 12 13  1  0  0  0  0
 12108  1  0  0  0  0
 13 14  2  0  0  0  0
 13 15  1  0  0  0  0
 15 16  1  0  0  0  0
 15 77  2  0  0  0  0
 16 17  2  0  0  0  0
 16109  1  0  0  0  0
 17 18  1  0  0  0  0
 17110  1  0  0  0  0
 18 19  1  0  0  0  0
 18 76  2  0  0  0  0
 19 20  1  0  0  0  0
 19 70  2  0  0  0  0
 20 21  2  0  0  0  0
 20 75  1  0  0  0  0
 21 22  1  0  0  0  0
 22 23  2  0  0  0  0
 22 74  1  0  0  0  0
 23 24  1  0  0  0  0
 23 35  1  0  0  0  0
 24 25  1  0  0  0  0
 24 33  2  0  0  0  0
 25 26  1  0  0  0  0
 25 27  2  0  0  0  0
 27 28  1  0  0  0  0
 27 29  1  0  0  0  0
 29 30  1  0  0  0  0
 29 31  2  0  0  0  0
 31 32  1  0  0  0  0
 31 33  1  0  0  0  0
 33 34  1  0  0  0  0
 35 36  2  0  0  0  0
 35 39  1  0  0  0  0
 36 37  1  0  0  0  0
 36111  1  0  0  0  0
 37 38  2  0  0  0  0
 37112  1  0  0  0  0
 38 39  1  0  0  0  0
 38 40  1  0  0  0  0
 39113  1  0  0  0  0
 40 41  1  0  0  0  0
 40 52  2  0  0  0  0
 41 42  1  0  0  0  0
 41 50  2  0  0  0  0
 42 43  1  0  0  0  0
 42 44  2  0  0  0  0
 44 45  1  0  0  0  0
 44 46  1  0  0  0  0
 46 47  1  0  0  0  0
 46 48  2  0  0  0  0
 48 49  1  0  0  0  0
 48 50  1  0  0  0  0
 50 51  1  0  0  0  0
 52 53  1  0  0  0  0
 52 73  1  0  0  0  0
 53 54  2  0  0  0  0
 54 55  1  0  0  0  0
 54 72  1  0  0  0  0
 55 56  1  0  0  0  0
 55 67  2  0  0  0  0
 56 57  1  0  0  0  0
 56 65  2  0  0  0  0
 57 58  1  0  0  0  0
 57 59  2  0  0  0  0
 59 60  1  0  0  0  0
 59 61  1  0  0  0  0
 61 62  1  0  0  0  0
 61 63  2  0  0  0  0
 63 64  1  0  0  0  0
 63 65  1  0  0  0  0
 65 66  1  0  0  0  0
 67 68  1  0  0  0  0
 67 71  1  0  0  0  0
 68 69  2  0  0  0  0
 68114  1  0  0  0  0
 69 70  1  0  0  0  0
 69115  1  0  0  0  0
 70 71  1  0  0  0  0
 71116  1  0  0  0  0
 72 73  2  0  0  0  0
 72117  1  0  0  0  0
 73118  1  0  0  0  0
 74 75  2  0  0  0  0
 74119  1  0  0  0  0
 75120  1  0  0  0  0
 76 77  1  0  0  0  0
 76121  1  0  0  0  0
 77122  1  0  0  0  0
 78 79  1  0  0  0  0
 78 90  2  0  0  0  0
 79 80  2  0  0  0  0
 79123  1  0  0  0  0
 80 81  1  0  0  0  0
 80124  1  0  0  0  0
 81 82  1  0  0  0  0
 81 88  2  0  0  0  0
 82 83  1  0  0  0  0
 82 87  2  0  0  0  0
 83 84  2  0  0  0  0
 83125  1  0  0  0  0
 84 85  1  0  0  0  0
 84126  1  0  0  0  0
 85 86  2  0  0  0  0
 85127  1  0  0  0  0
 86 87  1  0  0  0  0
 86128  1  0  0  0  0
 87129  1  0  0  0  0
 88 89  1  0  0  0  0
 88 90  1  0  0  0  0
 90130  1  0  0  0  0
M  END
$$$$
