ligands/18-CHEMBL25
 OpenBabel10182222433D

120129  0  0  0  0  0  0  0  0999 V2000
    2.7006    0.2200    1.8063 C   0  0  0  0  0  0  0  0  0  0  0  0
    1.7446   -0.4044    2.7819 C   0  0  0  0  0  0  0  0  0  0  0  0
    1.3825    0.1186    3.8315 O   0  0  0  0  0  0  0  0  0  0  0  0
    1.3584   -1.6445    2.2963 O   0  0  0  0  0  0  0  0  0  0  0  0
    0.4969   -2.3771    3.1157 C   0  0  0  0  0  0  0  0  0  0  0  0
    1.1344   -3.3604    3.8919 C   0  0  0  0  0  0  0  0  0  0  0  0
    0.3948   -4.1714    4.7469 C   0  0  0  0  0  0  0  0  0  0  0  0
   -0.9818   -4.0026    4.8273 C   0  0  0  0  0  0  0  0  0  0  0  0
   -1.6158   -3.0417    4.0297 C   0  0  0  0  0  0  0  0  0  0  0  0
   -0.8951   -2.2247    3.1315 C   0  0  0  0  0  0  0  0  0  0  0  0
   -1.7329   -1.2664    2.3435 C   0  0  0  0  0  0  0  0  0  0  0  0
   -2.7727   -0.8410    2.8543 O   0  0  0  0  0  0  0  0  0  0  0  0
   -1.4816   -0.8732    1.0491 N   0  0  0  0  0  0  0  0  0  0  0  0
   -0.3675   -1.1497    0.1776 C   0  0  0  0  0  0  0  0  0  0  0  0
   -0.6477   -1.0204   -1.3154 C   0  0  0  0  0  0  0  0  0  0  0  0
   -0.9604    0.3836   -1.8468 C   0  0  0  0  0  0  0  0  0  0  0  0
    0.0019    1.5206   -1.4842 C   0  0  0  0  0  0  0  0  0  0  0  0
    1.4927    1.2946   -1.7433 C   0  0  0  0  0  0  0  0  0  0  0  0
    1.8945    0.8703   -3.1514 C   0  0  0  0  0  0  0  0  0  0  0  0
    1.5872    1.8622   -4.1643 N   0  0  0  0  0  0  0  0  0  0  0  0
    2.3923    2.4557   -5.1067 C   0  0  0  0  0  0  0  0  0  0  0  0
    1.9383    3.3614   -5.8020 O   0  0  0  0  0  0  0  0  0  0  0  0
    3.8083    2.0479   -5.2859 C   0  0  0  0  0  0  0  0  0  0  0  0
    4.7614    3.0440   -5.5287 C   0  0  0  0  0  0  0  0  0  0  0  0
    6.1086    2.7056   -5.6955 C   0  0  0  0  0  0  0  0  0  0  0  0
    6.5272    1.3707   -5.5822 C   0  0  0  0  0  0  0  0  0  0  0  0
    7.9645    1.0000   -5.7037 C   0  0  0  0  0  0  0  0  0  0  0  0
    8.4286    0.1127   -6.8294 C   0  0  0  0  0  0  0  0  0  0  0  0
    9.6220   -0.3761   -7.0620 N   0  0  0  0  0  0  0  0  0  0  0  0
    9.4950   -1.1671   -8.1972 C   0  0  0  0  0  0  0  0  0  0  0  0
   10.4563   -1.8476   -8.8662 C   0  0  0  0  0  0  0  0  0  0  0  0
   10.0485   -2.6506  -10.0677 C   0  0  0  0  0  0  0  0  0  0  0  0
    9.6757   -2.0369  -11.2723 C   0  0  0  0  0  0  0  0  0  0  0  0
    9.5870   -0.7007  -11.3502 F   0  0  0  0  0  0  0  0  0  0  0  0
    9.3729   -2.7969  -12.3995 C   0  0  0  0  0  0  0  0  0  0  0  0
    8.9893   -2.1901  -13.5312 F   0  0  0  0  0  0  0  0  0  0  0  0
    9.4664   -4.1799  -12.3534 C   0  0  0  0  0  0  0  0  0  0  0  0
    9.1946   -4.9084  -13.4450 F   0  0  0  0  0  0  0  0  0  0  0  0
    9.8410   -4.8077  -11.1753 C   0  0  0  0  0  0  0  0  0  0  0  0
    9.9471   -6.1431  -11.1328 F   0  0  0  0  0  0  0  0  0  0  0  0
   10.1167   -4.0523  -10.0387 C   0  0  0  0  0  0  0  0  0  0  0  0
   10.4752   -4.6890   -8.9134 F   0  0  0  0  0  0  0  0  0  0  0  0
   11.8507   -1.8491   -8.5077 C   0  0  0  0  0  0  0  0  0  0  0  0
   12.9099   -2.4427   -9.1730 C   0  0  0  0  0  0  0  0  0  0  0  0
   14.0724   -2.2249   -8.4281 C   0  0  0  0  0  0  0  0  0  0  0  0
   13.7469   -1.4478   -7.3289 C   0  0  0  0  0  0  0  0  0  0  0  0
   12.3800   -1.2276   -7.3876 N   0  0  0  0  0  0  0  0  0  0  0  0
   14.6168   -0.9461   -6.2977 C   0  0  0  0  0  0  0  0  0  0  0  0
   16.0792   -1.2718   -6.3958 C   0  0  0  0  0  0  0  0  0  0  0  0
   16.6980   -2.1649   -5.5091 C   0  0  0  0  0  0  0  0  0  0  0  0
   15.9967   -2.7154   -4.5066 F   0  0  0  0  0  0  0  0  0  0  0  0
   18.0529   -2.4641   -5.6248 C   0  0  0  0  0  0  0  0  0  0  0  0
   18.6345   -3.2809   -4.7355 F   0  0  0  0  0  0  0  0  0  0  0  0
   18.8046   -1.9080   -6.6492 C   0  0  0  0  0  0  0  0  0  0  0  0
   20.1064   -2.2043   -6.7638 F   0  0  0  0  0  0  0  0  0  0  0  0
   18.2084   -1.0392   -7.5503 C   0  0  0  0  0  0  0  0  0  0  0  0
   18.9289   -0.5132   -8.5504 F   0  0  0  0  0  0  0  0  0  0  0  0
   16.8621   -0.7123   -7.4177 C   0  0  0  0  0  0  0  0  0  0  0  0
   16.3169    0.1413   -8.2974 F   0  0  0  0  0  0  0  0  0  0  0  0
   14.2157   -0.1811   -5.2535 C   0  0  0  0  0  0  0  0  0  0  0  0
   12.9444    0.2909   -4.9537 N   0  0  0  0  0  0  0  0  0  0  0  0
   13.0653    0.9673   -3.8378 C   0  0  0  0  0  0  0  0  0  0  0  0
   12.0192    1.7320   -3.0685 C   0  0  0  0  0  0  0  0  0  0  0  0
   12.3815    2.4405   -1.8106 C   0  0  0  0  0  0  0  0  0  0  0  0
   13.2560    3.5370   -1.8254 C   0  0  0  0  0  0  0  0  0  0  0  0
   13.7591    3.9759   -2.9888 F   0  0  0  0  0  0  0  0  0  0  0  0
   13.6681    4.1472   -0.6422 C   0  0  0  0  0  0  0  0  0  0  0  0
   14.5582    5.1481   -0.6824 F   0  0  0  0  0  0  0  0  0  0  0  0
   13.1824    3.7001    0.5768 C   0  0  0  0  0  0  0  0  0  0  0  0
   13.5851    4.2811    1.7150 F   0  0  0  0  0  0  0  0  0  0  0  0
   12.2896    2.6399    0.6149 C   0  0  0  0  0  0  0  0  0  0  0  0
   11.8067    2.2131    1.7897 F   0  0  0  0  0  0  0  0  0  0  0  0
   11.9037    2.0071   -0.5653 C   0  0  0  0  0  0  0  0  0  0  0  0
   11.0618    0.9656   -0.4933 F   0  0  0  0  0  0  0  0  0  0  0  0
   10.7552    1.7693   -3.5341 C   0  0  0  0  0  0  0  0  0  0  0  0
    9.6412    2.4694   -2.9021 C   0  0  0  0  0  0  0  0  0  0  0  0
    8.5224    2.2452   -3.6104 C   0  0  0  0  0  0  0  0  0  0  0  0
    8.8466    1.4158   -4.7723 C   0  0  0  0  0  0  0  0  0  0  0  0
   10.1963    1.1878   -4.6476 N   0  0  0  0  0  0  0  0  0  0  0  0
   14.4278    0.9673   -3.2844 C   0  0  0  0  0  0  0  0  0  0  0  0
   15.0973    0.2983   -4.2114 C   0  0  0  0  0  0  0  0  0  0  0  0
    8.1022   -1.1282   -8.5855 C   0  0  0  0  0  0  0  0  0  0  0  0
    7.4138   -0.3008   -7.8117 C   0  0  0  0  0  0  0  0  0  0  0  0
    5.5600    0.3773   -5.3619 C   0  0  0  0  0  0  0  0  0  0  0  0
    4.2059    0.7088   -5.2694 C   0  0  0  0  0  0  0  0  0  0  0  0
    3.0063    1.1786    2.1703 H   0  0  0  0  0  0  0  0  0  0  0  0
    2.2180    0.3357    0.8584 H   0  0  0  0  0  0  0  0  0  0  0  0
    3.5587   -0.4095    1.6952 H   0  0  0  0  0  0  0  0  0  0  0  0
    2.1572   -3.4815    3.8272 H   0  0  0  0  0  0  0  0  0  0  0  0
    0.8648   -4.8922    5.3165 H   0  0  0  0  0  0  0  0  0  0  0  0
   -1.5367   -4.5847    5.4741 H   0  0  0  0  0  0  0  0  0  0  0  0
   -2.6390   -2.9275    4.1005 H   0  0  0  0  0  0  0  0  0  0  0  0
   -2.1815   -0.3070    0.6507 H   0  0  0  0  0  0  0  0  0  0  0  0
   -0.0439   -2.1521    0.3657 H   0  0  0  0  0  0  0  0  0  0  0  0
    0.3691   -0.4066    0.4014 H   0  0  0  0  0  0  0  0  0  0  0  0
   -1.4864   -1.6452   -1.5416 H   0  0  0  0  0  0  0  0  0  0  0  0
    0.2668   -1.3012   -1.7947 H   0  0  0  0  0  0  0  0  0  0  0  0
   -1.9274    0.6554   -1.4782 H   0  0  0  0  0  0  0  0  0  0  0  0
   -0.8777    0.2919   -2.9097 H   0  0  0  0  0  0  0  0  0  0  0  0
   -0.1153    1.7185   -0.4392 H   0  0  0  0  0  0  0  0  0  0  0  0
   -0.2689    2.3249   -2.1359 H   0  0  0  0  0  0  0  0  0  0  0  0
    1.8255    0.5330   -1.0695 H   0  0  0  0  0  0  0  0  0  0  0  0
    1.9475    2.2527   -1.6017 H   0  0  0  0  0  0  0  0  0  0  0  0
    1.3755   -0.0334   -3.3939 H   0  0  0  0  0  0  0  0  0  0  0  0
    2.9566    0.7404   -3.1500 H   0  0  0  0  0  0  0  0  0  0  0  0
    0.6485    2.1586   -4.1790 H   0  0  0  0  0  0  0  0  0  0  0  0
    4.4691    4.0321   -5.5849 H   0  0  0  0  0  0  0  0  0  0  0  0
    6.7999    3.4431   -5.9034 H   0  0  0  0  0  0  0  0  0  0  0  0
   12.8512   -2.9575  -10.0655 H   0  0  0  0  0  0  0  0  0  0  0  0
   15.0129   -2.5822   -8.6580 H   0  0  0  0  0  0  0  0  0  0  0  0
   11.8621   -0.7073   -6.7316 H   0  0  0  0  0  0  0  0  0  0  0  0
    9.7034    3.0447   -2.0476 H   0  0  0  0  0  0  0  0  0  0  0  0
    7.5832    2.6011   -3.3732 H   0  0  0  0  0  0  0  0  0  0  0  0
   10.7146    0.6575   -5.2953 H   0  0  0  0  0  0  0  0  0  0  0  0
   14.7724    1.3806   -2.4038 H   0  0  0  0  0  0  0  0  0  0  0  0
   16.1168    0.1395   -4.1926 H   0  0  0  0  0  0  0  0  0  0  0  0
    7.6975   -1.6731   -9.3629 H   0  0  0  0  0  0  0  0  0  0  0  0
    6.4232   -0.0196   -7.8803 H   0  0  0  0  0  0  0  0  0  0  0  0
    5.8522   -0.6079   -5.2673 H   0  0  0  0  0  0  0  0  0  0  0  0
    3.4976   -0.0375   -5.1887 H   0  0  0  0  0  0  0  0  0  0  0  0
  1  2  1  0  0  0  0
  1 86  1  0  0  0  0
  1 87  1  0  0  0  0
  1 88  1  0  0  0  0
  2  3  2  0  0  0  0
  2  4  1  0  0  0  0
  4  5  1  0  0  0  0
  5  6  1  0  0  0  0
  5 10  2  0  0  0  0
  6  7  2  0  0  0  0
  6 89  1  0  0  0  0
  7  8  1  0  0  0  0
  7 90  1  0  0  0  0
  8  9  2  0  0  0  0
  8 91  1  0  0  0  0
  9 10  1  0  0  0  0
  9 92  1  0  0  0  0
 10 11  1  0  0  0  0
 11 12  2  0  0  0  0
 11 13  1  0  0  0  0
 13 14  1  0  0  0  0
 13 93  1  0  0  0  0
 14 15  1  0  0  0  0
 14 94  1  0  0  0  0
 14 95  1  0  0  0  0
 15 16  1  0  0  0  0
 15 96  1  0  0  0  0
 15 97  1  0  0  0  0
 16 17  1  0  0  0  0
 16 98  1  0  0  0  0
 16 99  1  0  0  0  0
 17 18  1  0  0  0  0
 17100  1  0  0  0  0
 17101  1  0  0  0  0
 18 19  1  0  0  0  0
 18102  1  0  0  0  0
 18103  1  0  0  0  0
 19 20  1  0  0  0  0
 19104  1  0  0  0  0
 19105  1  0  0  0  0
 20 21  1  0  0  0  0
 20106  1  0  0  0  0
 21 22  2  0  0  0  0
 21 23  1  0  0  0  0
 23 24  1  0  0  0  0
 23 85  2  0  0  0  0
 24 25  2  0  0  0  0
 24107  1  0  0  0  0
 25 26  1  0  0  0  0
 25108  1  0  0  0  0
 26 27  1  0  0  0  0
 26 84  2  0  0  0  0
 27 28  1  0  0  0  0
 27 78  2  0  0  0  0
 28 29  2  0  0  0  0
 28 83  1  0  0  0  0
 29 30  1  0  0  0  0
 30 31  2  0  0  0  0
 30 82  1  0  0  0  0
 31 32  1  0  0  0  0
 31 43  1  0  0  0  0
 32 33  1  0  0  0  0
 32 41  2  0  0  0  0
 33 34  1  0  0  0  0
 33 35  2  0  0  0  0
 35 36  1  0  0  0  0
 35 37  1  0  0  0  0
 37 38  1  0  0  0  0
 37 39  2  0  0  0  0
 39 40  1  0  0  0  0
 39 41  1  0  0  0  0
 41 42  1  0  0  0  0
 43 44  2  0  0  0  0
 43 47  1  0  0  0  0
 44 45  1  0  0  0  0
 44109  1  0  0  0  0
 45 46  2  0  0  0  0
 45110  1  0  0  0  0
 46 47  1  0  0  0  0
 46 48  1  0  0  0  0
 47111  1  0  0  0  0
 48 49  1  0  0  0  0
 48 60  2  0  0  0  0
 49 50  1  0  0  0  0
 49 58  2  0  0  0  0
 50 51  1  0  0  0  0
 50 52  2  0  0  0  0
 52 53  1  0  0  0  0
 52 54  1  0  0  0  0
 54 55  1  0  0  0  0
 54 56  2  0  0  0  0
 56 57  1  0  0  0  0
 56 58  1  0  0  0  0
 58 59  1  0  0  0  0
 60 61  1  0  0  0  0
 60 81  1  0  0  0  0
 61 62  2  0  0  0  0
 62 63  1  0  0  0  0
 62 80  1  0  0  0  0
 63 64  1  0  0  0  0
 63 75  2  0  0  0  0
 64 65  1  0  0  0  0
 64 73  2  0  0  0  0
 65 66  1  0  0  0  0
 65 67  2  0  0  0  0
 67 68  1  0  0  0  0
 67 69  1  0  0  0  0
 69 70  1  0  0  0  0
 69 71  2  0  0  0  0
 71 72  1  0  0  0  0
 71 73  1  0  0  0  0
 73 74  1  0  0  0  0
 75 76  1  0  0  0  0
 75 79  1  0  0  0  0
 76 77  2  0  0  0  0
 76112  1  0  0  0  0
 77 78  1  0  0  0  0
 77113  1  0  0  0  0
 78 79  1  0  0  0  0
 79114  1  0  0  0  0
 80 81  2  0  0  0  0
 80115  1  0  0  0  0
 81116  1  0  0  0  0
 82 83  2  0  0  0  0
 82117  1  0  0  0  0
 83118  1  0  0  0  0
 84 85  1  0  0  0  0
 84119  1  0  0  0  0
 85120  1  0  0  0  0
M  END
$$$$
