ligands/19-CHEMBL956
 OpenBabel10182222433D

129139  0  0  0  0  0  0  0  0999 V2000
    0.6444    0.2550   -0.2141 C   0  0  0  0  0  0  0  0  0  0  0  0
    0.3124    0.1589    1.2770 C   0  0  1  0  0  0  0  0  0  0  0  0
    0.9918    1.2467    2.1312 C   0  0  0  0  0  0  0  0  0  0  0  0
    0.3865    2.1494    2.7121 O   0  0  0  0  0  0  0  0  0  0  0  0
    2.3388    1.2205    2.3294 N   0  0  0  0  0  0  0  0  0  0  0  0
    3.3672    0.4036    1.7255 C   0  0  0  0  0  0  0  0  0  0  0  0
    4.1633    1.2173    0.7026 C   0  0  0  0  0  0  0  0  0  0  0  0
    4.9074    2.4206    1.2995 C   0  0  0  0  0  0  0  0  0  0  0  0
    5.8749    2.0843    2.4379 C   0  0  0  0  0  0  0  0  0  0  0  0
    6.9255    1.0274    2.0934 C   0  0  0  0  0  0  0  0  0  0  0  0
    7.8136    1.3853    0.9064 C   0  0  0  0  0  0  0  0  0  0  0  0
    8.6287    2.5608    1.1692 N   0  0  0  0  0  0  0  0  0  0  0  0
    9.9928    2.6990    1.1370 C   0  0  0  0  0  0  0  0  0  0  0  0
   10.5243    3.7100    1.5901 O   0  0  0  0  0  0  0  0  0  0  0  0
   10.8294    1.6158    0.5806 C   0  0  0  0  0  0  0  0  0  0  0  0
   11.9653    1.2122    1.2856 C   0  0  0  0  0  0  0  0  0  0  0  0
   12.7185    0.1325    0.8216 C   0  0  0  0  0  0  0  0  0  0  0  0
   12.3153   -0.5766   -0.3227 C   0  0  0  0  0  0  0  0  0  0  0  0
   13.0194   -1.8168   -0.7396 C   0  0  0  0  0  0  0  0  0  0  0  0
   13.7343   -1.8851   -2.0600 C   0  0  0  0  0  0  0  0  0  0  0  0
   14.3494   -2.9002   -2.6137 N   0  0  0  0  0  0  0  0  0  0  0  0
   14.8075   -2.4425   -3.8419 C   0  0  0  0  0  0  0  0  0  0  0  0
   15.5453   -3.1040   -4.7648 C   0  0  0  0  0  0  0  0  0  0  0  0
   15.9134   -2.3820   -6.0285 C   0  0  0  0  0  0  0  0  0  0  0  0
   16.8634   -1.3503   -6.0377 C   0  0  0  0  0  0  0  0  0  0  0  0
   17.3963   -0.9125   -4.8871 F   0  0  0  0  0  0  0  0  0  0  0  0
   17.2604   -0.7532   -7.2318 C   0  0  0  0  0  0  0  0  0  0  0  0
   18.1505    0.2486   -7.2144 F   0  0  0  0  0  0  0  0  0  0  0  0
   16.7390   -1.1946   -8.4389 C   0  0  0  0  0  0  0  0  0  0  0  0
   17.1409   -0.6357   -9.5887 F   0  0  0  0  0  0  0  0  0  0  0  0
   15.8018   -2.2161   -8.4539 C   0  0  0  0  0  0  0  0  0  0  0  0
   15.3091   -2.6557   -9.6202 F   0  0  0  0  0  0  0  0  0  0  0  0
   15.3814   -2.7954   -7.2599 C   0  0  0  0  0  0  0  0  0  0  0  0
   14.4739   -3.7825   -7.3073 F   0  0  0  0  0  0  0  0  0  0  0  0
   16.0059   -4.4605   -4.6160 C   0  0  0  0  0  0  0  0  0  0  0  0
   16.8267   -5.1875   -5.4611 C   0  0  0  0  0  0  0  0  0  0  0  0
   16.9430   -6.4833   -4.9506 C   0  0  0  0  0  0  0  0  0  0  0  0
   16.2487   -6.5457   -3.7538 C   0  0  0  0  0  0  0  0  0  0  0  0
   15.6790   -5.2969   -3.5597 N   0  0  0  0  0  0  0  0  0  0  0  0
   16.1092   -7.6628   -2.8563 C   0  0  0  0  0  0  0  0  0  0  0  0
   16.7677   -8.9579   -3.2375 C   0  0  0  0  0  0  0  0  0  0  0  0
   16.0175  -10.0850   -3.6049 C   0  0  0  0  0  0  0  0  0  0  0  0
   14.6767  -10.0422   -3.5771 F   0  0  0  0  0  0  0  0  0  0  0  0
   16.6432  -11.2773   -3.9589 C   0  0  0  0  0  0  0  0  0  0  0  0
   15.9053  -12.3572   -4.2513 F   0  0  0  0  0  0  0  0  0  0  0  0
   18.0274  -11.3540   -3.9934 C   0  0  0  0  0  0  0  0  0  0  0  0
   18.6277  -12.5001   -4.3426 F   0  0  0  0  0  0  0  0  0  0  0  0
   18.7892  -10.2453   -3.6579 C   0  0  0  0  0  0  0  0  0  0  0  0
   20.1267  -10.3120   -3.7072 F   0  0  0  0  0  0  0  0  0  0  0  0
   18.1669   -9.0628   -3.2684 C   0  0  0  0  0  0  0  0  0  0  0  0
   18.9319   -8.0127   -2.9340 F   0  0  0  0  0  0  0  0  0  0  0  0
   15.4407   -7.6285   -1.6778 C   0  0  0  0  0  0  0  0  0  0  0  0
   14.7646   -6.5696   -1.0866 N   0  0  0  0  0  0  0  0  0  0  0  0
   14.2590   -7.0419    0.0266 C   0  0  0  0  0  0  0  0  0  0  0  0
   13.4525   -6.3325    1.0823 C   0  0  0  0  0  0  0  0  0  0  0  0
   12.9654   -7.0676    2.2814 C   0  0  0  0  0  0  0  0  0  0  0  0
   13.8617   -7.5900    3.2250 C   0  0  0  0  0  0  0  0  0  0  0  0
   15.1812   -7.4070    3.0677 F   0  0  0  0  0  0  0  0  0  0  0  0
   13.4129   -8.3567    4.2987 C   0  0  0  0  0  0  0  0  0  0  0  0
   14.2974   -8.9044    5.1433 F   0  0  0  0  0  0  0  0  0  0  0  0
   12.0560   -8.5790    4.4762 C   0  0  0  0  0  0  0  0  0  0  0  0
   11.6250   -9.3225    5.5041 F   0  0  0  0  0  0  0  0  0  0  0  0
   11.1474   -8.0412    3.5780 C   0  0  0  0  0  0  0  0  0  0  0  0
    9.8338   -8.2383    3.7544 F   0  0  0  0  0  0  0  0  0  0  0  0
   11.5977   -7.3067    2.4831 C   0  0  0  0  0  0  0  0  0  0  0  0
   10.6952   -6.8257    1.6154 F   0  0  0  0  0  0  0  0  0  0  0  0
   13.1666   -5.0264    0.9192 C   0  0  0  0  0  0  0  0  0  0  0  0
   12.3970   -4.2085    1.8505 C   0  0  0  0  0  0  0  0  0  0  0  0
   12.2486   -2.9788    1.3334 C   0  0  0  0  0  0  0  0  0  0  0  0
   12.9546   -2.9064    0.0522 C   0  0  0  0  0  0  0  0  0  0  0  0
   13.4773   -4.1663   -0.1071 N   0  0  0  0  0  0  0  0  0  0  0  0
   14.5378   -8.4675    0.2520 C   0  0  0  0  0  0  0  0  0  0  0  0
   15.3042   -8.7610   -0.7876 C   0  0  0  0  0  0  0  0  0  0  0  0
   14.3648   -1.0716   -3.9748 C   0  0  0  0  0  0  0  0  0  0  0  0
   13.7436   -0.6616   -2.8773 C   0  0  0  0  0  0  0  0  0  0  0  0
   11.2016   -0.1274   -1.0485 C   0  0  0  0  0  0  0  0  0  0  0  0
   10.4917    0.9939   -0.6252 C   0  0  0  0  0  0  0  0  0  0  0  0
   -1.2084    0.1099    1.4178 C   0  0  0  0  0  0  0  0  0  0  0  0
   -1.9952    1.2694    1.3669 C   0  0  0  0  0  0  0  0  0  0  0  0
   -3.3853    1.1995    1.4681 C   0  0  0  0  0  0  0  0  0  0  0  0
   -4.0308   -0.0375    1.5752 C   0  0  0  0  0  0  0  0  0  0  0  0
   -5.5299   -0.0435    1.6264 C   0  0  0  0  0  0  0  0  0  0  0  0
   -6.1177    1.0369    1.6424 O   0  0  0  0  0  0  0  0  0  0  0  0
   -6.2350   -1.3097    1.6110 C   0  0  0  0  0  0  0  0  0  0  0  0
   -6.2140   -2.3447    2.5255 C   0  0  0  0  0  0  0  0  0  0  0  0
   -7.0321   -3.4380    2.1154 C   0  0  0  0  0  0  0  0  0  0  0  0
   -7.6717   -3.1848    0.9223 C   0  0  0  0  0  0  0  0  0  0  0  0
   -7.2941   -1.6356    0.3066 S   0  0  0  0  0  0  0  0  0  0  0  0
   -3.2533   -1.2036    1.5770 C   0  0  0  0  0  0  0  0  0  0  0  0
   -1.8572   -1.1291    1.5120 C   0  0  0  0  0  0  0  0  0  0  0  0
    1.7062    0.2909   -0.3415 H   0  0  0  0  0  0  0  0  0  0  0  0
    0.2062    1.1425   -0.6206 H   0  0  0  0  0  0  0  0  0  0  0  0
    0.2529   -0.6012   -0.7226 H   0  0  0  0  0  0  0  0  0  0  0  0
    0.7255   -0.7429    1.6782 H   0  0  0  0  0  0  0  0  0  0  0  0
    2.6674    1.8663    2.9959 H   0  0  0  0  0  0  0  0  0  0  0  0
    2.9116   -0.4308    1.2345 H   0  0  0  0  0  0  0  0  0  0  0  0
    4.0326    0.0618    2.4905 H   0  0  0  0  0  0  0  0  0  0  0  0
    3.4842    1.5778   -0.0416 H   0  0  0  0  0  0  0  0  0  0  0  0
    4.9083    0.5628    0.3007 H   0  0  0  0  0  0  0  0  0  0  0  0
    4.1788    3.1081    1.6755 H   0  0  0  0  0  0  0  0  0  0  0  0
    5.5049    2.8244    0.5091 H   0  0  0  0  0  0  0  0  0  0  0  0
    5.3017    1.7263    3.2675 H   0  0  0  0  0  0  0  0  0  0  0  0
    6.4116    2.9844    2.6538 H   0  0  0  0  0  0  0  0  0  0  0  0
    6.4184    0.1125    1.8681 H   0  0  0  0  0  0  0  0  0  0  0  0
    7.5698    0.9487    2.9440 H   0  0  0  0  0  0  0  0  0  0  0  0
    7.1928    1.5786    0.0566 H   0  0  0  0  0  0  0  0  0  0  0  0
    8.4716    0.5610    0.7262 H   0  0  0  0  0  0  0  0  0  0  0  0
    8.1286    3.3756    1.4043 H   0  0  0  0  0  0  0  0  0  0  0  0
   12.2464    1.7096    2.1451 H   0  0  0  0  0  0  0  0  0  0  0  0
   13.5768   -0.1468    1.3220 H   0  0  0  0  0  0  0  0  0  0  0  0
   17.2755   -4.8335   -6.3203 H   0  0  0  0  0  0  0  0  0  0  0  0
   17.4586   -7.2615   -5.3906 H   0  0  0  0  0  0  0  0  0  0  0  0
   15.1249   -5.0419   -2.7869 H   0  0  0  0  0  0  0  0  0  0  0  0
   12.0264   -4.5245    2.7603 H   0  0  0  0  0  0  0  0  0  0  0  0
   11.7207   -2.2067    1.7695 H   0  0  0  0  0  0  0  0  0  0  0  0
   14.0231   -4.4288   -0.8832 H   0  0  0  0  0  0  0  0  0  0  0  0
   14.2196   -9.0796    1.0195 H   0  0  0  0  0  0  0  0  0  0  0  0
   15.7474   -9.6800   -0.9429 H   0  0  0  0  0  0  0  0  0  0  0  0
   14.5130   -0.4891   -4.8137 H   0  0  0  0  0  0  0  0  0  0  0  0
   13.3652    0.2723   -2.6545 H   0  0  0  0  0  0  0  0  0  0  0  0
   10.9070   -0.6303   -1.9002 H   0  0  0  0  0  0  0  0  0  0  0  0
    9.7188    1.3645   -1.1999 H   0  0  0  0  0  0  0  0  0  0  0  0
   -1.5395    2.1883    1.2529 H   0  0  0  0  0  0  0  0  0  0  0  0
   -3.9425    2.0682    1.4639 H   0  0  0  0  0  0  0  0  0  0  0  0
   -5.6701   -2.3285    3.4024 H   0  0  0  0  0  0  0  0  0  0  0  0
   -7.1330   -4.3153    2.6494 H   0  0  0  0  0  0  0  0  0  0  0  0
   -8.3048   -3.8523    0.4547 H   0  0  0  0  0  0  0  0  0  0  0  0
   -3.7144   -2.1255    1.6267 H   0  0  0  0  0  0  0  0  0  0  0  0
   -1.2988   -1.9967    1.5337 H   0  0  0  0  0  0  0  0  0  0  0  0
  1  2  1  0  0  0  0
  1 91  1  0  0  0  0
  1 92  1  0  0  0  0
  1 93  1  0  0  0  0
  2  3  1  0  0  0  0
  2 78  1  0  0  0  0
  2 94  1  1  0  0  0
  3  4  2  0  0  0  0
  3  5  1  0  0  0  0
  5  6  1  0  0  0  0
  5 95  1  0  0  0  0
  6  7  1  0  0  0  0
  6 96  1  0  0  0  0
  6 97  1  0  0  0  0
  7  8  1  0  0  0  0
  7 98  1  0  0  0  0
  7 99  1  0  0  0  0
  8  9  1  0  0  0  0
  8100  1  0  0  0  0
  8101  1  0  0  0  0
  9 10  1  0  0  0  0
  9102  1  0  0  0  0
  9103  1  0  0  0  0
 10 11  1  0  0  0  0
 10104  1  0  0  0  0
 10105  1  0  0  0  0
 11 12  1  0  0  0  0
 11106  1  0  0  0  0
 11107  1  0  0  0  0
 12 13  1  0  0  0  0
 12108  1  0  0  0  0
 13 14  2  0  0  0  0
 13 15  1  0  0  0  0
 15 16  1  0  0  0  0
 15 77  2  0  0  0  0
 16 17  2  0  0  0  0
 16109  1  0  0  0  0
 17 18  1  0  0  0  0
 17110  1  0  0  0  0
 18 19  1  0  0  0  0
 18 76  2  0  0  0  0
 19 20  1  0  0  0  0
 19 70  2  0  0  0  0
 20 21  2  0  0  0  0
 20 75  1  0  0  0  0
 21 22  1  0  0  0  0
 22 23  2  0  0  0  0
 22 74  1  0  0  0  0
 23 24  1  0  0  0  0
 23 35  1  0  0  0  0
 24 25  1  0  0  0  0
 24 33  2  0  0  0  0
 25 26  1  0  0  0  0
 25 27  2  0  0  0  0
 27 28  1  0  0  0  0
 27 29  1  0  0  0  0
 29 30  1  0  0  0  0
 29 31  2  0  0  0  0
 31 32  1  0  0  0  0
 31 33  1  0  0  0  0
 33 34  1  0  0  0  0
 35 36  2  0  0  0  0
 35 39  1  0  0  0  0
 36 37  1  0  0  0  0
 36111  1  0  0  0  0
 37 38  2  0  0  0  0
 37112  1  0  0  0  0
 38 39  1  0  0  0  0
 38 40  1  0  0  0  0
 39113  1  0  0  0  0
 40 41  1  0  0  0  0
 40 52  2  0  0  0  0
 41 42  1  0  0  0  0
 41 50  2  0  0  0  0
 42 43  1  0  0  0  0
 42 44  2  0  0  0  0
 44 45  1  0  0  0  0
 44 46  1  0  0  0  0
 46 47  1  0  0  0  0
 46 48  2  0  0  0  0
 48 49  1  0  0  0  0
 48 50  1  0  0  0  0
 50 51  1  0  0  0  0
 52 53  1  0  0  0  0
 52 73  1  0  0  0  0
 53 54  2  0  0  0  0
 54 55  1  0  0  0  0
 54 72  1  0  0  0  0
 55 56  1  0  0  0  0
 55 67  2  0  0  0  0
 56 57  1  0  0  0  0
 56 65  2  0  0  0  0
 57 58  1  0  0  0  0
 57 59  2  0  0  0  0
 59 60  1  0  0  0  0
 59 61  1  0  0  0  0
 61 62  1  0  0  0  0
 61 63  2  0  0  0  0
 63 64  1  0  0  0  0
 63 65  1  0  0  0  0
 65 66  1  0  0  0  0
 67 68  1  0  0  0  0
 67 71  1  0  0  0  0
 68 69  2  0  0  0  0
 68114  1  0  0  0  0
 69 70  1  0  0  0  0
 69115  1  0  0  0  0
 70 71  1  0  0  0  0
 71116  1  0  0  0  0
 72 73  2  0  0  0  0
 72117  1  0  0  0  0
 73118  1  0  0  0  0
 74 75  2  0  0  0  0
 74119  1  0  0  0  0
 75120  1  0  0  0  0
 76 77  1  0  0  0  0
 76121  1  0  0  0  0
 77122  1  0  0  0  0
 78 79  1  0  0  0  0
 78 90  2  0  0  0  0
 79 80  2  0  0  0  0
 79123  1  0  0  0  0
 80 81  1  0  0  0  0
 80124  1  0  0  0  0
 81 82  1  0  0  0  0
 81 89  2  0  0  0  0
 82 83  2  0  0  0  0
 82 84  1  0  0  0  0
 84 85  2  0  0  0  0
 84 88  1  0  0  0  0
 85 86  1  0  0  0  0
 85125  1  0  0  0  0
 86 87  2  0  0  0  0
 86126  1  0  0  0  0
 87 88  1  0  0  0  0
 87127  1  0  0  0  0
 89 90  1  0  0  0  0
 89128  1  0  0  0  0
 90129  1  0  0  0  0
M  END
$$$$
