ligands/2-CHEMBL139
 OpenBabel10182222423D

129139  0  0  0  0  0  0  0  0999 V2000
    0.8601    0.1081    0.0205 O   0  0  0  0  0  0  0  0  0  0  0  0
    2.0839    0.0485   -0.0427 C   0  0  0  0  0  0  0  0  0  0  0  0
    2.9907    0.9487    0.7759 C   0  0  0  0  0  0  0  0  0  0  0  0
    3.6931    0.3056    1.9625 C   0  0  0  0  0  0  0  0  0  0  0  0
    3.6053   -1.0813    2.2049 C   0  0  0  0  0  0  0  0  0  0  0  0
    4.2770   -1.6773    3.2710 C   0  0  0  0  0  0  0  0  0  0  0  0
    5.0277   -0.8959    4.1340 C   0  0  0  0  0  0  0  0  0  0  0  0
    5.1151    0.4792    3.9220 C   0  0  0  0  0  0  0  0  0  0  0  0
    4.4698    1.1028    2.8396 C   0  0  0  0  0  0  0  0  0  0  0  0
    4.6279    2.4887    2.5962 N   0  0  0  0  0  0  0  0  0  0  0  0
    5.4883    3.4328    3.2140 C   0  0  0  0  0  0  0  0  0  0  0  0
    4.9228    4.5806    3.8127 C   0  0  0  0  0  0  0  0  0  0  0  0
    3.2274    4.9096    3.6617 Cl  0  0  0  0  0  0  0  0  0  0  0  0
    5.6972    5.4844    4.5468 C   0  0  0  0  0  0  0  0  0  0  0  0
    7.0623    5.2644    4.6994 C   0  0  0  0  0  0  0  0  0  0  0  0
    7.6542    4.1601    4.0903 C   0  0  0  0  0  0  0  0  0  0  0  0
    6.8806    3.2581    3.3459 C   0  0  0  0  0  0  0  0  0  0  0  0
    7.7388    1.9963    2.5238 Cl  0  0  0  0  0  0  0  0  0  0  0  0
    2.7640   -0.8292   -0.8588 N   0  0  0  0  0  0  0  0  0  0  0  0
    2.0971   -1.8247   -1.6692 C   0  0  0  0  0  0  0  0  0  0  0  0
    2.6684   -1.8706   -3.0835 C   0  0  0  0  0  0  0  0  0  0  0  0
    4.1711   -2.1726   -3.1566 C   0  0  0  0  0  0  0  0  0  0  0  0
    4.6044   -3.5034   -2.5341 C   0  0  0  0  0  0  0  0  0  0  0  0
    3.9267   -4.7435   -3.1177 C   0  0  0  0  0  0  0  0  0  0  0  0
    4.0731   -4.9027   -4.6266 C   0  0  0  0  0  0  0  0  0  0  0  0
    5.4541   -5.1012   -5.0395 N   0  0  0  0  0  0  0  0  0  0  0  0
    5.9701   -6.0460   -5.8927 C   0  0  0  0  0  0  0  0  0  0  0  0
    7.1835   -6.1757   -6.0222 O   0  0  0  0  0  0  0  0  0  0  0  0
    5.0505   -6.9316   -6.6378 C   0  0  0  0  0  0  0  0  0  0  0  0
    5.2930   -8.3074   -6.6502 C   0  0  0  0  0  0  0  0  0  0  0  0
    4.3837   -9.1644   -7.2752 C   0  0  0  0  0  0  0  0  0  0  0  0
    3.2106   -8.6534   -7.8541 C   0  0  0  0  0  0  0  0  0  0  0  0
    2.1934   -9.5439   -8.4711 C   0  0  0  0  0  0  0  0  0  0  0  0
    1.8901   -9.4247   -9.9399 C   0  0  0  0  0  0  0  0  0  0  0  0
    0.9567  -10.0131  -10.6443 N   0  0  0  0  0  0  0  0  0  0  0  0
    1.0822   -9.5101  -11.9327 C   0  0  0  0  0  0  0  0  0  0  0  0
    0.3792   -9.8443  -13.0402 C   0  0  0  0  0  0  0  0  0  0  0  0
    0.7022   -9.1341  -14.3223 C   0  0  0  0  0  0  0  0  0  0  0  0
    1.8972   -9.3731  -15.0165 C   0  0  0  0  0  0  0  0  0  0  0  0
    2.8278  -10.1889  -14.4986 F   0  0  0  0  0  0  0  0  0  0  0  0
    2.1512   -8.7553  -16.2383 C   0  0  0  0  0  0  0  0  0  0  0  0
    3.3144   -8.9722  -16.8675 F   0  0  0  0  0  0  0  0  0  0  0  0
    1.2043   -7.9147  -16.8042 C   0  0  0  0  0  0  0  0  0  0  0  0
    1.4417   -7.3377  -17.9902 F   0  0  0  0  0  0  0  0  0  0  0  0
    0.0117   -7.6716  -16.1401 C   0  0  0  0  0  0  0  0  0  0  0  0
   -0.9115   -6.8725  -16.6928 F   0  0  0  0  0  0  0  0  0  0  0  0
   -0.2323   -8.2635  -14.9041 C   0  0  0  0  0  0  0  0  0  0  0  0
   -1.3938   -8.0053  -14.2842 F   0  0  0  0  0  0  0  0  0  0  0  0
   -0.6571  -10.8420  -13.0702 C   0  0  0  0  0  0  0  0  0  0  0  0
   -1.3779  -11.3012  -14.1586 C   0  0  0  0  0  0  0  0  0  0  0  0
   -2.3140  -12.2320  -13.7010 C   0  0  0  0  0  0  0  0  0  0  0  0
   -2.1337  -12.3993  -12.3377 C   0  0  0  0  0  0  0  0  0  0  0  0
   -1.1197  -11.5339  -11.9615 N   0  0  0  0  0  0  0  0  0  0  0  0
   -2.8390  -13.2807  -11.4443 C   0  0  0  0  0  0  0  0  0  0  0  0
   -3.8870  -14.1760  -12.0392 C   0  0  0  0  0  0  0  0  0  0  0  0
   -5.2546  -13.9728  -11.8079 C   0  0  0  0  0  0  0  0  0  0  0  0
   -5.6621  -13.0006  -10.9780 F   0  0  0  0  0  0  0  0  0  0  0  0
   -6.2096  -14.7922  -12.4042 C   0  0  0  0  0  0  0  0  0  0  0  0
   -7.5094  -14.6080  -12.1346 F   0  0  0  0  0  0  0  0  0  0  0  0
   -5.8186  -15.8036  -13.2695 C   0  0  0  0  0  0  0  0  0  0  0  0
   -6.7405  -16.5807  -13.8542 F   0  0  0  0  0  0  0  0  0  0  0  0
   -4.4722  -16.0120  -13.5251 C   0  0  0  0  0  0  0  0  0  0  0  0
   -4.0926  -16.9767  -14.3744 F   0  0  0  0  0  0  0  0  0  0  0  0
   -3.5139  -15.2167  -12.9047 C   0  0  0  0  0  0  0  0  0  0  0  0
   -2.2183  -15.4476  -13.1660 F   0  0  0  0  0  0  0  0  0  0  0  0
   -2.6087  -13.3802  -10.1128 C   0  0  0  0  0  0  0  0  0  0  0  0
   -1.6658  -12.7179   -9.3372 N   0  0  0  0  0  0  0  0  0  0  0  0
   -1.8417  -13.1468   -8.1112 C   0  0  0  0  0  0  0  0  0  0  0  0
   -1.0722  -12.8032   -6.8612 C   0  0  0  0  0  0  0  0  0  0  0  0
   -1.4465  -13.4142   -5.5566 C   0  0  0  0  0  0  0  0  0  0  0  0
   -1.3055  -14.7927   -5.3394 C   0  0  0  0  0  0  0  0  0  0  0  0
   -0.8024  -15.5744   -6.3064 F   0  0  0  0  0  0  0  0  0  0  0  0
   -1.7390  -15.3849   -4.1547 C   0  0  0  0  0  0  0  0  0  0  0  0
   -1.6567  -16.7138   -4.0038 F   0  0  0  0  0  0  0  0  0  0  0  0
   -2.2832  -14.6051   -3.1460 C   0  0  0  0  0  0  0  0  0  0  0  0
   -2.7083  -15.1756   -2.0106 F   0  0  0  0  0  0  0  0  0  0  0  0
   -2.3995  -13.2348   -3.3223 C   0  0  0  0  0  0  0  0  0  0  0  0
   -2.9113  -12.4753   -2.3442 F   0  0  0  0  0  0  0  0  0  0  0  0
   -1.9987  -12.6467   -4.5206 C   0  0  0  0  0  0  0  0  0  0  0  0
   -2.1517  -11.3230   -4.6721 F   0  0  0  0  0  0  0  0  0  0  0  0
   -0.0423  -11.9382   -6.9417 C   0  0  0  0  0  0  0  0  0  0  0  0
    0.7869  -11.5001   -5.8230 C   0  0  0  0  0  0  0  0  0  0  0  0
    1.6626  -10.5799   -6.2596 C   0  0  0  0  0  0  0  0  0  0  0  0
    1.4879  -10.3962   -7.7013 C   0  0  0  0  0  0  0  0  0  0  0  0
    0.4649  -11.2555   -8.0218 N   0  0  0  0  0  0  0  0  0  0  0  0
   -2.9519  -14.1002   -7.9667 C   0  0  0  0  0  0  0  0  0  0  0  0
   -3.3505  -14.2456   -9.2219 C   0  0  0  0  0  0  0  0  0  0  0  0
    2.1525   -8.5381  -11.9076 C   0  0  0  0  0  0  0  0  0  0  0  0
    2.7308   -8.4981  -10.7161 C   0  0  0  0  0  0  0  0  0  0  0  0
    2.9988   -7.2653   -7.8605 C   0  0  0  0  0  0  0  0  0  0  0  0
    3.9405   -6.4057   -7.3037 C   0  0  0  0  0  0  0  0  0  0  0  0
    2.3964    1.7566    1.1486 H   0  0  0  0  0  0  0  0  0  0  0  0
    3.7737    1.2441    0.1091 H   0  0  0  0  0  0  0  0  0  0  0  0
    3.0311   -1.6676    1.5791 H   0  0  0  0  0  0  0  0  0  0  0  0
    4.2153   -2.6971    3.4169 H   0  0  0  0  0  0  0  0  0  0  0  0
    5.5201   -1.3298    4.9304 H   0  0  0  0  0  0  0  0  0  0  0  0
    5.6679    1.0545    4.5766 H   0  0  0  0  0  0  0  0  0  0  0  0
    4.0506    2.8544    1.8875 H   0  0  0  0  0  0  0  0  0  0  0  0
    5.2565    6.3136    4.9748 H   0  0  0  0  0  0  0  0  0  0  0  0
    7.6333    5.9155    5.2606 H   0  0  0  0  0  0  0  0  0  0  0  0
    8.6698    4.0047    4.1877 H   0  0  0  0  0  0  0  0  0  0  0  0
    3.7465   -0.7764   -0.8917 H   0  0  0  0  0  0  0  0  0  0  0  0
    1.0550   -1.5878   -1.7229 H   0  0  0  0  0  0  0  0  0  0  0  0
    2.2478   -2.7820   -1.2156 H   0  0  0  0  0  0  0  0  0  0  0  0
    2.4963   -0.9201   -3.5438 H   0  0  0  0  0  0  0  0  0  0  0  0
    2.1728   -2.6758   -3.5845 H   0  0  0  0  0  0  0  0  0  0  0  0
    4.6909   -1.3864   -2.6501 H   0  0  0  0  0  0  0  0  0  0  0  0
    4.4075   -2.2431   -4.1978 H   0  0  0  0  0  0  0  0  0  0  0  0
    4.3845   -3.4670   -1.4876 H   0  0  0  0  0  0  0  0  0  0  0  0
    5.6480   -3.6062   -2.7469 H   0  0  0  0  0  0  0  0  0  0  0  0
    2.8829   -4.6911   -2.8884 H   0  0  0  0  0  0  0  0  0  0  0  0
    4.4143   -5.5880   -2.6774 H   0  0  0  0  0  0  0  0  0  0  0  0
    3.6972   -4.0208   -5.1018 H   0  0  0  0  0  0  0  0  0  0  0  0
    3.5217   -5.7733   -4.9145 H   0  0  0  0  0  0  0  0  0  0  0  0
    6.1075   -4.4730   -4.6552 H   0  0  0  0  0  0  0  0  0  0  0  0
    6.1396   -8.6888   -6.1999 H   0  0  0  0  0  0  0  0  0  0  0  0
    4.5750  -10.1779   -7.3117 H   0  0  0  0  0  0  0  0  0  0  0  0
   -1.2467  -11.0069  -15.1390 H   0  0  0  0  0  0  0  0  0  0  0  0
   -3.0198  -12.7131  -14.2802 H   0  0  0  0  0  0  0  0  0  0  0  0
   -0.7786  -11.4263  -11.0443 H   0  0  0  0  0  0  0  0  0  0  0  0
    0.7123  -11.8425   -4.8523 H   0  0  0  0  0  0  0  0  0  0  0  0
    2.3493  -10.0817   -5.6721 H   0  0  0  0  0  0  0  0  0  0  0  0
    0.1267  -11.3715   -8.9391 H   0  0  0  0  0  0  0  0  0  0  0  0
   -3.3236  -14.5411   -7.1108 H   0  0  0  0  0  0  0  0  0  0  0  0
   -4.0947  -14.8931   -9.5251 H   0  0  0  0  0  0  0  0  0  0  0  0
    2.4293   -7.9530  -12.7113 H   0  0  0  0  0  0  0  0  0  0  0  0
    3.5558   -7.9580  -10.4114 H   0  0  0  0  0  0  0  0  0  0  0  0
    2.1387   -6.8801   -8.2811 H   0  0  0  0  0  0  0  0  0  0  0  0
    3.8196   -5.3838   -7.3822 H   0  0  0  0  0  0  0  0  0  0  0  0
  1  2  2  0  0  0  0
  2  3  1  0  0  0  0
  2 19  1  0  0  0  0
  3  4  1  0  0  0  0
  3 92  1  0  0  0  0
  3 93  1  0  0  0  0
  4  5  1  0  0  0  0
  4  9  2  0  0  0  0
  5  6  2  0  0  0  0
  5 94  1  0  0  0  0
  6  7  1  0  0  0  0
  6 95  1  0  0  0  0
  7  8  2  0  0  0  0
  7 96  1  0  0  0  0
  8  9  1  0  0  0  0
  8 97  1  0  0  0  0
  9 10  1  0  0  0  0
 10 11  1  0  0  0  0
 10 98  1  0  0  0  0
 11 12  1  0  0  0  0
 11 17  2  0  0  0  0
 12 13  1  0  0  0  0
 12 14  2  0  0  0  0
 14 15  1  0  0  0  0
 14 99  1  0  0  0  0
 15 16  2  0  0  0  0
 15100  1  0  0  0  0
 16 17  1  0  0  0  0
 16101  1  0  0  0  0
 17 18  1  0  0  0  0
 19 20  1  0  0  0  0
 19102  1  0  0  0  0
 20 21  1  0  0  0  0
 20103  1  0  0  0  0
 20104  1  0  0  0  0
 21 22  1  0  0  0  0
 21105  1  0  0  0  0
 21106  1  0  0  0  0
 22 23  1  0  0  0  0
 22107  1  0  0  0  0
 22108  1  0  0  0  0
 23 24  1  0  0  0  0
 23109  1  0  0  0  0
 23110  1  0  0  0  0
 24 25  1  0  0  0  0
 24111  1  0  0  0  0
 24112  1  0  0  0  0
 25 26  1  0  0  0  0
 25113  1  0  0  0  0
 25114  1  0  0  0  0
 26 27  1  0  0  0  0
 26115  1  0  0  0  0
 27 28  2  0  0  0  0
 27 29  1  0  0  0  0
 29 30  1  0  0  0  0
 29 91  2  0  0  0  0
 30 31  2  0  0  0  0
 30116  1  0  0  0  0
 31 32  1  0  0  0  0
 31117  1  0  0  0  0
 32 33  1  0  0  0  0
 32 90  2  0  0  0  0
 33 34  1  0  0  0  0
 33 84  2  0  0  0  0
 34 35  2  0  0  0  0
 34 89  1  0  0  0  0
 35 36  1  0  0  0  0
 36 37  2  0  0  0  0
 36 88  1  0  0  0  0
 37 38  1  0  0  0  0
 37 49  1  0  0  0  0
 38 39  1  0  0  0  0
 38 47  2  0  0  0  0
 39 40  1  0  0  0  0
 39 41  2  0  0  0  0
 41 42  1  0  0  0  0
 41 43  1  0  0  0  0
 43 44  1  0  0  0  0
 43 45  2  0  0  0  0
 45 46  1  0  0  0  0
 45 47  1  0  0  0  0
 47 48  1  0  0  0  0
 49 50  2  0  0  0  0
 49 53  1  0  0  0  0
 50 51  1  0  0  0  0
 50118  1  0  0  0  0
 51 52  2  0  0  0  0
 51119  1  0  0  0  0
 52 53  1  0  0  0  0
 52 54  1  0  0  0  0
 53120  1  0  0  0  0
 54 55  1  0  0  0  0
 54 66  2  0  0  0  0
 55 56  1  0  0  0  0
 55 64  2  0  0  0  0
 56 57  1  0  0  0  0
 56 58  2  0  0  0  0
 58 59  1  0  0  0  0
 58 60  1  0  0  0  0
 60 61  1  0  0  0  0
 60 62  2  0  0  0  0
 62 63  1  0  0  0  0
 62 64  1  0  0  0  0
 64 65  1  0  0  0  0
 66 67  1  0  0  0  0
 66 87  1  0  0  0  0
 67 68  2  0  0  0  0
 68 69  1  0  0  0  0
 68 86  1  0  0  0  0
 69 70  1  0  0  0  0
 69 81  2  0  0  0  0
 70 71  1  0  0  0  0
 70 79  2  0  0  0  0
 71 72  1  0  0  0  0
 71 73  2  0  0  0  0
 73 74  1  0  0  0  0
 73 75  1  0  0  0  0
 75 76  1  0  0  0  0
 75 77  2  0  0  0  0
 77 78  1  0  0  0  0
 77 79  1  0  0  0  0
 79 80  1  0  0  0  0
 81 82  1  0  0  0  0
 81 85  1  0  0  0  0
 82 83  2  0  0  0  0
 82121  1  0  0  0  0
 83 84  1  0  0  0  0
 83122  1  0  0  0  0
 84 85  1  0  0  0  0
 85123  1  0  0  0  0
 86 87  2  0  0  0  0
 86124  1  0  0  0  0
 87125  1  0  0  0  0
 88 89  2  0  0  0  0
 88126  1  0  0  0  0
 89127  1  0  0  0  0
 90 91  1  0  0  0  0
 90128  1  0  0  0  0
 91129  1  0  0  0  0
M  END
$$$$
