ligands/20-CHEMBL704
 OpenBabel10182222433D

117126  0  0  0  0  0  0  0  0999 V2000
   -2.7847    0.5344   -0.3881 N   0  0  0  0  0  0  0  0  0  0  0  0
   -1.4152    0.4247   -0.1916 C   0  0  0  0  0  0  0  0  0  0  0  0
   -0.6426    1.5684    0.0065 C   0  0  0  0  0  0  0  0  0  0  0  0
    0.7387    1.4702    0.1485 C   0  0  0  0  0  0  0  0  0  0  0  0
    1.3513    0.2207    0.1058 C   0  0  0  0  0  0  0  0  0  0  0  0
    2.7143    0.2335    0.2635 O   0  0  0  0  0  0  0  0  0  0  0  0
    0.6023   -0.9536   -0.1011 C   0  0  0  0  0  0  0  0  0  0  0  0
    1.3271   -2.2572   -0.0877 C   0  0  0  0  0  0  0  0  0  0  0  0
    2.5524   -2.2410   -0.2491 O   0  0  0  0  0  0  0  0  0  0  0  0
    0.7631   -3.4796    0.1561 N   0  0  0  0  0  0  0  0  0  0  0  0
   -0.5939   -3.9411    0.3697 C   0  0  0  0  0  0  0  0  0  0  0  0
   -1.1109   -4.6327   -0.8941 C   0  0  0  0  0  0  0  0  0  0  0  0
   -0.6106   -6.0789   -1.0383 C   0  0  0  0  0  0  0  0  0  0  0  0
   -1.0765   -7.0376    0.0660 C   0  0  0  0  0  0  0  0  0  0  0  0
   -2.5907   -7.0830    0.2867 C   0  0  0  0  0  0  0  0  0  0  0  0
   -3.3887   -7.5378   -0.9310 C   0  0  0  0  0  0  0  0  0  0  0  0
   -3.1068   -8.9227   -1.2730 N   0  0  0  0  0  0  0  0  0  0  0  0
   -3.9706   -9.9813   -1.3977 C   0  0  0  0  0  0  0  0  0  0  0  0
   -3.5396  -11.1267   -1.4703 O   0  0  0  0  0  0  0  0  0  0  0  0
   -5.4287   -9.7412   -1.4335 C   0  0  0  0  0  0  0  0  0  0  0  0
   -6.2695  -10.5728   -0.6896 C   0  0  0  0  0  0  0  0  0  0  0  0
   -7.6469  -10.3440   -0.6911 C   0  0  0  0  0  0  0  0  0  0  0  0
   -8.1854   -9.2622   -1.4067 C   0  0  0  0  0  0  0  0  0  0  0  0
   -9.6407   -8.9714   -1.3803 C   0  0  0  0  0  0  0  0  0  0  0  0
  -10.4556   -9.0856   -2.6385 C   0  0  0  0  0  0  0  0  0  0  0  0
  -11.7192   -8.8046   -2.8354 N   0  0  0  0  0  0  0  0  0  0  0  0
  -11.9540   -9.0435   -4.1831 C   0  0  0  0  0  0  0  0  0  0  0  0
  -13.1208   -8.9554   -4.8649 C   0  0  0  0  0  0  0  0  0  0  0  0
  -13.0972   -9.2680   -6.3331 C   0  0  0  0  0  0  0  0  0  0  0  0
  -12.9106  -10.5763   -6.8045 C   0  0  0  0  0  0  0  0  0  0  0  0
  -12.6874  -11.5792   -5.9418 F   0  0  0  0  0  0  0  0  0  0  0  0
  -12.9189  -10.8547   -8.1688 C   0  0  0  0  0  0  0  0  0  0  0  0
  -12.6953  -12.1049   -8.5970 F   0  0  0  0  0  0  0  0  0  0  0  0
  -13.1483   -9.8397   -9.0853 C   0  0  0  0  0  0  0  0  0  0  0  0
  -13.1676  -10.1114  -10.3975 F   0  0  0  0  0  0  0  0  0  0  0  0
  -13.3526   -8.5420   -8.6415 C   0  0  0  0  0  0  0  0  0  0  0  0
  -13.5877   -7.5621   -9.5251 F   0  0  0  0  0  0  0  0  0  0  0  0
  -13.3151   -8.2551   -7.2794 C   0  0  0  0  0  0  0  0  0  0  0  0
  -13.5046   -6.9877   -6.8825 F   0  0  0  0  0  0  0  0  0  0  0  0
  -14.3790   -8.5862   -4.2713 C   0  0  0  0  0  0  0  0  0  0  0  0
  -15.6293   -8.5332   -4.8623 C   0  0  0  0  0  0  0  0  0  0  0  0
  -16.5447   -8.0763   -3.9089 C   0  0  0  0  0  0  0  0  0  0  0  0
  -15.8747   -7.8944   -2.7099 C   0  0  0  0  0  0  0  0  0  0  0  0
  -14.5457   -8.2060   -2.9478 N   0  0  0  0  0  0  0  0  0  0  0  0
  -16.4066   -7.4659   -1.4419 C   0  0  0  0  0  0  0  0  0  0  0  0
  -17.8785   -7.1837   -1.3621 C   0  0  0  0  0  0  0  0  0  0  0  0
  -18.3726   -5.8777   -1.2325 C   0  0  0  0  0  0  0  0  0  0  0  0
  -17.5254   -4.8433   -1.1224 F   0  0  0  0  0  0  0  0  0  0  0  0
  -19.7422   -5.6341   -1.1749 C   0  0  0  0  0  0  0  0  0  0  0  0
  -20.1912   -4.3833   -1.0022 F   0  0  0  0  0  0  0  0  0  0  0  0
  -20.6419   -6.6845   -1.2815 C   0  0  0  0  0  0  0  0  0  0  0  0
  -21.9598   -6.4467   -1.2337 F   0  0  0  0  0  0  0  0  0  0  0  0
  -20.1754   -7.9817   -1.4300 C   0  0  0  0  0  0  0  0  0  0  0  0
  -21.0431   -8.9962   -1.5473 F   0  0  0  0  0  0  0  0  0  0  0  0
  -18.8067   -8.2320   -1.4568 C   0  0  0  0  0  0  0  0  0  0  0  0
  -18.3853   -9.4988   -1.5889 F   0  0  0  0  0  0  0  0  0  0  0  0
  -15.6830   -7.3184   -0.3053 C   0  0  0  0  0  0  0  0  0  0  0  0
  -14.3294   -7.5443   -0.0961 N   0  0  0  0  0  0  0  0  0  0  0  0
  -14.1047   -7.2485    1.1608 C   0  0  0  0  0  0  0  0  0  0  0  0
  -12.8227   -7.3382    1.9445 C   0  0  0  0  0  0  0  0  0  0  0  0
  -12.7849   -6.9659    3.3830 C   0  0  0  0  0  0  0  0  0  0  0  0
  -13.4551   -7.7376    4.3427 C   0  0  0  0  0  0  0  0  0  0  0  0
  -14.1445   -8.8243    3.9647 F   0  0  0  0  0  0  0  0  0  0  0  0
  -13.4601   -7.3708    5.6868 C   0  0  0  0  0  0  0  0  0  0  0  0
  -14.1521   -8.0977    6.5745 F   0  0  0  0  0  0  0  0  0  0  0  0
  -12.7675   -6.2439    6.1027 C   0  0  0  0  0  0  0  0  0  0  0  0
  -12.7724   -5.8911    7.3952 F   0  0  0  0  0  0  0  0  0  0  0  0
  -12.0776   -5.4780    5.1751 C   0  0  0  0  0  0  0  0  0  0  0  0
  -11.3951   -4.3963    5.5749 F   0  0  0  0  0  0  0  0  0  0  0  0
  -12.0967   -5.8275    3.8264 C   0  0  0  0  0  0  0  0  0  0  0  0
  -11.4348   -5.0580    2.9498 F   0  0  0  0  0  0  0  0  0  0  0  0
  -11.7088   -7.7813    1.3313 C   0  0  0  0  0  0  0  0  0  0  0  0
  -10.3981   -7.9283    1.9568 C   0  0  0  0  0  0  0  0  0  0  0  0
   -9.5183   -8.3526    1.0355 C   0  0  0  0  0  0  0  0  0  0  0  0
  -10.2132   -8.5440   -0.2385 C   0  0  0  0  0  0  0  0  0  0  0  0
  -11.5090   -8.1818    0.0326 N   0  0  0  0  0  0  0  0  0  0  0  0
  -15.2902   -6.7681    1.8845 C   0  0  0  0  0  0  0  0  0  0  0  0
  -16.2321   -6.8731    0.9582 C   0  0  0  0  0  0  0  0  0  0  0  0
  -10.6936   -9.4460   -4.7680 C   0  0  0  0  0  0  0  0  0  0  0  0
   -9.7509   -9.5525   -3.8430 C   0  0  0  0  0  0  0  0  0  0  0  0
   -7.3311   -8.4472   -2.1650 C   0  0  0  0  0  0  0  0  0  0  0  0
   -5.9664   -8.7163   -2.2174 C   0  0  0  0  0  0  0  0  0  0  0  0
   -0.7738   -0.8152   -0.3241 C   0  0  0  0  0  0  0  0  0  0  0  0
   -3.2271    1.4087   -0.2931 H   0  0  0  0  0  0  0  0  0  0  0  0
   -3.3137   -0.2621   -0.6225 H   0  0  0  0  0  0  0  0  0  0  0  0
   -1.0978    2.4937    0.0481 H   0  0  0  0  0  0  0  0  0  0  0  0
    1.3068    2.3209    0.2850 H   0  0  0  0  0  0  0  0  0  0  0  0
    3.1627    1.0451    0.3985 H   0  0  0  0  0  0  0  0  0  0  0  0
    1.4258   -4.2066    0.1950 H   0  0  0  0  0  0  0  0  0  0  0  0
   -1.2214   -3.1054    0.5994 H   0  0  0  0  0  0  0  0  0  0  0  0
   -0.6070   -4.6359    1.1833 H   0  0  0  0  0  0  0  0  0  0  0  0
   -0.7850   -4.0732   -1.7459 H   0  0  0  0  0  0  0  0  0  0  0  0
   -2.1779   -4.6700   -0.8233 H   0  0  0  0  0  0  0  0  0  0  0  0
    0.4593   -6.0623   -1.0344 H   0  0  0  0  0  0  0  0  0  0  0  0
   -1.0254   -6.4500   -1.9522 H   0  0  0  0  0  0  0  0  0  0  0  0
   -0.6162   -6.7358    0.9836 H   0  0  0  0  0  0  0  0  0  0  0  0
   -0.7907   -8.0192   -0.2498 H   0  0  0  0  0  0  0  0  0  0  0  0
   -2.9198   -6.1010    0.5555 H   0  0  0  0  0  0  0  0  0  0  0  0
   -2.7669   -7.8055    1.0560 H   0  0  0  0  0  0  0  0  0  0  0  0
   -3.1343   -6.9163   -1.7640 H   0  0  0  0  0  0  0  0  0  0  0  0
   -4.4295   -7.4577   -0.6962 H   0  0  0  0  0  0  0  0  0  0  0  0
   -2.1590   -9.1308   -1.4391 H   0  0  0  0  0  0  0  0  0  0  0  0
   -5.8743  -11.3527   -0.1414 H   0  0  0  0  0  0  0  0  0  0  0  0
   -8.2724  -10.9730   -0.1637 H   0  0  0  0  0  0  0  0  0  0  0  0
  -15.8483   -8.7871   -5.8383 H   0  0  0  0  0  0  0  0  0  0  0  0
  -17.5492   -7.9038   -4.0710 H   0  0  0  0  0  0  0  0  0  0  0  0
  -13.8264   -8.1638   -2.2769 H   0  0  0  0  0  0  0  0  0  0  0  0
  -10.1824   -7.7369    2.9477 H   0  0  0  0  0  0  0  0  0  0  0  0
   -8.5128   -8.5174    1.1994 H   0  0  0  0  0  0  0  0  0  0  0  0
  -12.2274   -8.2067   -0.6401 H   0  0  0  0  0  0  0  0  0  0  0  0
  -15.3686   -6.4361    2.8585 H   0  0  0  0  0  0  0  0  0  0  0  0
  -17.2301   -6.6640    1.1172 H   0  0  0  0  0  0  0  0  0  0  0  0
  -10.5478   -9.6265   -5.7736 H   0  0  0  0  0  0  0  0  0  0  0  0
   -8.7766   -9.8780   -3.9416 H   0  0  0  0  0  0  0  0  0  0  0  0
   -7.7165   -7.6443   -2.6864 H   0  0  0  0  0  0  0  0  0  0  0  0
   -5.3530   -8.1604   -2.8336 H   0  0  0  0  0  0  0  0  0  0  0  0
   -1.3276   -1.6439   -0.5917 H   0  0  0  0  0  0  0  0  0  0  0  0
  1  2  1  0  0  0  0
  1 84  1  0  0  0  0
  1 85  1  0  0  0  0
  2  3  1  0  0  0  0
  2 83  2  0  0  0  0
  3  4  2  0  0  0  0
  3 86  1  0  0  0  0
  4  5  1  0  0  0  0
  4 87  1  0  0  0  0
  5  6  1  0  0  0  0
  5  7  2  0  0  0  0
  6 88  1  0  0  0  0
  7  8  1  0  0  0  0
  7 83  1  0  0  0  0
  8  9  2  0  0  0  0
  8 10  1  0  0  0  0
 10 11  1  0  0  0  0
 10 89  1  0  0  0  0
 11 12  1  0  0  0  0
 11 90  1  0  0  0  0
 11 91  1  0  0  0  0
 12 13  1  0  0  0  0
 12 92  1  0  0  0  0
 12 93  1  0  0  0  0
 13 14  1  0  0  0  0
 13 94  1  0  0  0  0
 13 95  1  0  0  0  0
 14 15  1  0  0  0  0
 14 96  1  0  0  0  0
 14 97  1  0  0  0  0
 15 16  1  0  0  0  0
 15 98  1  0  0  0  0
 15 99  1  0  0  0  0
 16 17  1  0  0  0  0
 16100  1  0  0  0  0
 16101  1  0  0  0  0
 17 18  1  0  0  0  0
 17102  1  0  0  0  0
 18 19  2  0  0  0  0
 18 20  1  0  0  0  0
 20 21  1  0  0  0  0
 20 82  2  0  0  0  0
 21 22  2  0  0  0  0
 21103  1  0  0  0  0
 22 23  1  0  0  0  0
 22104  1  0  0  0  0
 23 24  1  0  0  0  0
 23 81  2  0  0  0  0
 24 25  1  0  0  0  0
 24 75  2  0  0  0  0
 25 26  2  0  0  0  0
 25 80  1  0  0  0  0
 26 27  1  0  0  0  0
 27 28  2  0  0  0  0
 27 79  1  0  0  0  0
 28 29  1  0  0  0  0
 28 40  1  0  0  0  0
 29 30  1  0  0  0  0
 29 38  2  0  0  0  0
 30 31  1  0  0  0  0
 30 32  2  0  0  0  0
 32 33  1  0  0  0  0
 32 34  1  0  0  0  0
 34 35  1  0  0  0  0
 34 36  2  0  0  0  0
 36 37  1  0  0  0  0
 36 38  1  0  0  0  0
 38 39  1  0  0  0  0
 40 41  2  0  0  0  0
 40 44  1  0  0  0  0
 41 42  1  0  0  0  0
 41105  1  0  0  0  0
 42 43  2  0  0  0  0
 42106  1  0  0  0  0
 43 44  1  0  0  0  0
 43 45  1  0  0  0  0
 44107  1  0  0  0  0
 45 46  1  0  0  0  0
 45 57  2  0  0  0  0
 46 47  1  0  0  0  0
 46 55  2  0  0  0  0
 47 48  1  0  0  0  0
 47 49  2  0  0  0  0
 49 50  1  0  0  0  0
 49 51  1  0  0  0  0
 51 52  1  0  0  0  0
 51 53  2  0  0  0  0
 53 54  1  0  0  0  0
 53 55  1  0  0  0  0
 55 56  1  0  0  0  0
 57 58  1  0  0  0  0
 57 78  1  0  0  0  0
 58 59  2  0  0  0  0
 59 60  1  0  0  0  0
 59 77  1  0  0  0  0
 60 61  1  0  0  0  0
 60 72  2  0  0  0  0
 61 62  1  0  0  0  0
 61 70  2  0  0  0  0
 62 63  1  0  0  0  0
 62 64  2  0  0  0  0
 64 65  1  0  0  0  0
 64 66  1  0  0  0  0
 66 67  1  0  0  0  0
 66 68  2  0  0  0  0
 68 69  1  0  0  0  0
 68 70  1  0  0  0  0
 70 71  1  0  0  0  0
 72 73  1  0  0  0  0
 72 76  1  0  0  0  0
 73 74  2  0  0  0  0
 73108  1  0  0  0  0
 74 75  1  0  0  0  0
 74109  1  0  0  0  0
 75 76  1  0  0  0  0
 76110  1  0  0  0  0
 77 78  2  0  0  0  0
 77111  1  0  0  0  0
 78112  1  0  0  0  0
 79 80  2  0  0  0  0
 79113  1  0  0  0  0
 80114  1  0  0  0  0
 81 82  1  0  0  0  0
 81115  1  0  0  0  0
 82116  1  0  0  0  0
 83117  1  0  0  0  0
M  END
$$$$
