ligands/23-CHEMBL190083
 OpenBabel10182222433D

130140  0  0  1  0  0  0  0  0999 V2000
    0.9963    0.1778    0.0775 C   0  0  0  0  0  0  0  0  0  0  0  0
    0.4579   -1.2442    0.2885 C   0  0  1  0  0  0  0  0  0  0  0  0
    1.0326   -1.8831    1.5677 C   0  0  0  0  0  0  0  0  0  0  0  0
    0.3551   -2.1114    2.5718 O   0  0  0  0  0  0  0  0  0  0  0  0
    2.3361   -2.2804    1.6084 N   0  0  0  0  0  0  0  0  0  0  0  0
    3.4391   -1.9251    0.7429 C   0  0  0  0  0  0  0  0  0  0  0  0
    4.2552   -0.7963    1.3806 C   0  0  0  0  0  0  0  0  0  0  0  0
    4.9989   -1.2209    2.6551 C   0  0  0  0  0  0  0  0  0  0  0  0
    5.9788   -2.3831    2.4672 C   0  0  0  0  0  0  0  0  0  0  0  0
    7.0218   -2.1614    1.3713 C   0  0  0  0  0  0  0  0  0  0  0  0
    7.9138   -0.9482    1.6024 C   0  0  0  0  0  0  0  0  0  0  0  0
    8.7580   -1.1121    2.7764 N   0  0  0  0  0  0  0  0  0  0  0  0
   10.1246   -1.0386    2.8702 C   0  0  0  0  0  0  0  0  0  0  0  0
   10.7049   -1.4098    3.8860 O   0  0  0  0  0  0  0  0  0  0  0  0
   10.8979   -0.5242    1.7233 C   0  0  0  0  0  0  0  0  0  0  0  0
   12.0209   -1.2295    1.2860 C   0  0  0  0  0  0  0  0  0  0  0  0
   12.7040   -0.7981    0.1479 C   0  0  0  0  0  0  0  0  0  0  0  0
   12.2391    0.3102   -0.5783 C   0  0  0  0  0  0  0  0  0  0  0  0
   12.8989    0.7509   -1.8322 C   0  0  0  0  0  0  0  0  0  0  0  0
   13.5216    2.1152   -1.9095 C   0  0  0  0  0  0  0  0  0  0  0  0
   14.0331    2.7371   -2.9413 N   0  0  0  0  0  0  0  0  0  0  0  0
   14.4098    3.9896   -2.4759 C   0  0  0  0  0  0  0  0  0  0  0  0
   15.0444    4.9826   -3.1438 C   0  0  0  0  0  0  0  0  0  0  0  0
   15.3216    6.2543   -2.3921 C   0  0  0  0  0  0  0  0  0  0  0  0
   16.2220    6.3001   -1.3158 C   0  0  0  0  0  0  0  0  0  0  0  0
   16.8589    5.1874   -0.9199 F   0  0  0  0  0  0  0  0  0  0  0  0
   16.4287    7.4778   -0.6018 C   0  0  0  0  0  0  0  0  0  0  0  0
   17.2368    7.4775    0.4675 F   0  0  0  0  0  0  0  0  0  0  0  0
   15.7805    8.6435   -0.9794 C   0  0  0  0  0  0  0  0  0  0  0  0
   15.9787    9.7757   -0.2904 F   0  0  0  0  0  0  0  0  0  0  0  0
   14.9175    8.6323   -2.0642 C   0  0  0  0  0  0  0  0  0  0  0  0
   14.3025    9.7618   -2.4414 F   0  0  0  0  0  0  0  0  0  0  0  0
   14.6785    7.4475   -2.7557 C   0  0  0  0  0  0  0  0  0  0  0  0
   13.8147    7.4661   -3.7820 F   0  0  0  0  0  0  0  0  0  0  0  0
   15.4471    4.8947   -4.5229 C   0  0  0  0  0  0  0  0  0  0  0  0
   16.1609    5.8119   -5.2728 C   0  0  0  0  0  0  0  0  0  0  0  0
   16.2459    5.3316   -6.5835 C   0  0  0  0  0  0  0  0  0  0  0  0
   15.6471    4.0825   -6.6350 C   0  0  0  0  0  0  0  0  0  0  0  0
   15.1576    3.8286   -5.3637 N   0  0  0  0  0  0  0  0  0  0  0  0
   15.5307    3.1889   -7.7613 C   0  0  0  0  0  0  0  0  0  0  0  0
   16.1370    3.6352   -9.0610 C   0  0  0  0  0  0  0  0  0  0  0  0
   15.3457    4.0186  -10.1531 C   0  0  0  0  0  0  0  0  0  0  0  0
   14.0099    3.9109  -10.0904 F   0  0  0  0  0  0  0  0  0  0  0  0
   15.9277    4.4920  -11.3267 C   0  0  0  0  0  0  0  0  0  0  0  0
   15.1541    4.8201  -12.3708 F   0  0  0  0  0  0  0  0  0  0  0  0
   17.3057    4.6216  -11.4189 C   0  0  0  0  0  0  0  0  0  0  0  0
   17.8621    5.0968  -12.5416 F   0  0  0  0  0  0  0  0  0  0  0  0
   18.1068    4.2563  -10.3482 C   0  0  0  0  0  0  0  0  0  0  0  0
   19.4372    4.3966  -10.4282 F   0  0  0  0  0  0  0  0  0  0  0  0
   17.5304    3.7529   -9.1859 C   0  0  0  0  0  0  0  0  0  0  0  0
   18.3322    3.4047   -8.1682 F   0  0  0  0  0  0  0  0  0  0  0  0
   14.9405    1.9687   -7.7287 C   0  0  0  0  0  0  0  0  0  0  0  0
   14.3454    1.3166   -6.6571 N   0  0  0  0  0  0  0  0  0  0  0  0
   13.9205    0.1671   -7.1229 C   0  0  0  0  0  0  0  0  0  0  0  0
   13.2216   -0.9493   -6.3960 C   0  0  0  0  0  0  0  0  0  0  0  0
   12.7653   -2.1703   -7.1098 C   0  0  0  0  0  0  0  0  0  0  0  0
   13.6829   -3.1093   -7.5989 C   0  0  0  0  0  0  0  0  0  0  0  0
   14.9994   -2.8877   -7.4713 F   0  0  0  0  0  0  0  0  0  0  0  0
   13.2528   -4.2669   -8.2449 C   0  0  0  0  0  0  0  0  0  0  0  0
   14.1518   -5.1327   -8.7324 F   0  0  0  0  0  0  0  0  0  0  0  0
   11.8970   -4.5216   -8.3891 C   0  0  0  0  0  0  0  0  0  0  0  0
   11.4840   -5.6426   -8.9957 F   0  0  0  0  0  0  0  0  0  0  0  0
   10.9700   -3.6115   -7.9048 C   0  0  0  0  0  0  0  0  0  0  0  0
    9.6591   -3.8620   -8.0241 F   0  0  0  0  0  0  0  0  0  0  0  0
   11.3994   -2.4401   -7.2853 C   0  0  0  0  0  0  0  0  0  0  0  0
   10.4800   -1.5772   -6.8278 F   0  0  0  0  0  0  0  0  0  0  0  0
   13.0091   -0.8398   -5.0704 C   0  0  0  0  0  0  0  0  0  0  0  0
   12.3475   -1.8382   -4.2349 C   0  0  0  0  0  0  0  0  0  0  0  0
   12.2302   -1.3572   -2.9876 C   0  0  0  0  0  0  0  0  0  0  0  0
   12.8504   -0.0337   -2.9253 C   0  0  0  0  0  0  0  0  0  0  0  0
   13.3076    0.1810   -4.2018 N   0  0  0  0  0  0  0  0  0  0  0  0
   14.1758   -0.0292   -8.5565 C   0  0  0  0  0  0  0  0  0  0  0  0
   14.8282    1.0826   -8.8690 C   0  0  0  0  0  0  0  0  0  0  0  0
   14.0160    4.0605   -1.0856 C   0  0  0  0  0  0  0  0  0  0  0  0
   13.5381    2.8996   -0.6654 C   0  0  0  0  0  0  0  0  0  0  0  0
   11.1253    1.0240   -0.1082 C   0  0  0  0  0  0  0  0  0  0  0  0
   10.4936    0.6426    1.0689 C   0  0  0  0  0  0  0  0  0  0  0  0
   -1.0723   -1.3063    0.2853 C   0  0  0  0  0  0  0  0  0  0  0  0
   -1.8725   -0.1586    0.3662 C   0  0  0  0  0  0  0  0  0  0  0  0
   -3.2643   -0.2527    0.4045 C   0  0  0  0  0  0  0  0  0  0  0  0
   -3.9120   -1.4957    0.3773 C   0  0  0  0  0  0  0  0  0  0  0  0
   -5.3772   -1.5446    0.4472 C   0  0  0  0  0  0  0  0  0  0  0  0
   -6.1565   -0.8532   -0.4966 C   0  0  0  0  0  0  0  0  0  0  0  0
   -7.5468   -0.8083   -0.3879 C   0  0  0  0  0  0  0  0  0  0  0  0
   -8.1812   -1.4586    0.6668 C   0  0  0  0  0  0  0  0  0  0  0  0
   -7.4276   -2.1642    1.6029 C   0  0  0  0  0  0  0  0  0  0  0  0
   -6.0354   -2.2104    1.4918 C   0  0  0  0  0  0  0  0  0  0  0  0
   -3.1114   -2.6406    0.3045 C   0  0  0  0  0  0  0  0  0  0  0  0
   -3.6721   -3.8602    0.2865 F   0  0  0  0  0  0  0  0  0  0  0  0
   -1.7175   -2.5546    0.2472 C   0  0  0  0  0  0  0  0  0  0  0  0
    2.0661    0.1595    0.0891 H   0  0  0  0  0  0  0  0  0  0  0  0
    0.6419    0.8134    0.8619 H   0  0  0  0  0  0  0  0  0  0  0  0
    0.6562    0.5517   -0.8656 H   0  0  0  0  0  0  0  0  0  0  0  0
    0.7928   -1.8170   -0.5509 H   0  0  0  0  0  0  0  0  0  0  0  0
    2.5605   -2.9033    2.3370 H   0  0  0  0  0  0  0  0  0  0  0  0
    3.0583   -1.5982   -0.2021 H   0  0  0  0  0  0  0  0  0  0  0  0
    4.0674   -2.7796    0.6019 H   0  0  0  0  0  0  0  0  0  0  0  0
    3.5898    0.0044    1.6279 H   0  0  0  0  0  0  0  0  0  0  0  0
    4.9967   -0.5030    0.6671 H   0  0  0  0  0  0  0  0  0  0  0  0
    4.2717   -1.5126    3.3838 H   0  0  0  0  0  0  0  0  0  0  0  0
    5.5842   -0.3781    2.9584 H   0  0  0  0  0  0  0  0  0  0  0  0
    5.4155   -3.2587    2.2204 H   0  0  0  0  0  0  0  0  0  0  0  0
    6.5183   -2.4783    3.3863 H   0  0  0  0  0  0  0  0  0  0  0  0
    6.5099   -2.0305    0.4409 H   0  0  0  0  0  0  0  0  0  0  0  0
    7.6601   -3.0202    1.3726 H   0  0  0  0  0  0  0  0  0  0  0  0
    7.2960   -0.0852    1.7382 H   0  0  0  0  0  0  0  0  0  0  0  0
    8.5498   -0.8364    0.7492 H   0  0  0  0  0  0  0  0  0  0  0  0
    8.2837   -1.3016    3.6180 H   0  0  0  0  0  0  0  0  0  0  0  0
   12.3435   -2.0638    1.8007 H   0  0  0  0  0  0  0  0  0  0  0  0
   13.5538   -1.2954   -0.1610 H   0  0  0  0  0  0  0  0  0  0  0  0
   16.5614    6.6973   -4.9253 H   0  0  0  0  0  0  0  0  0  0  0  0
   16.6813    5.8244   -7.3788 H   0  0  0  0  0  0  0  0  0  0  0  0
   14.6758    3.0128   -5.0963 H   0  0  0  0  0  0  0  0  0  0  0  0
   12.0224   -2.7647   -4.5526 H   0  0  0  0  0  0  0  0  0  0  0  0
   11.7754   -1.8430   -2.1988 H   0  0  0  0  0  0  0  0  0  0  0  0
   13.8021    0.9893   -4.4689 H   0  0  0  0  0  0  0  0  0  0  0  0
   13.9157   -0.8237   -9.1616 H   0  0  0  0  0  0  0  0  0  0  0  0
   15.2077    1.2900   -9.8060 H   0  0  0  0  0  0  0  0  0  0  0  0
   14.0970    4.9053   -0.4984 H   0  0  0  0  0  0  0  0  0  0  0  0
   13.2522    2.6187    0.2856 H   0  0  0  0  0  0  0  0  0  0  0  0
   10.7741    1.8360   -0.6396 H   0  0  0  0  0  0  0  0  0  0  0  0
    9.7301    1.2177    1.4579 H   0  0  0  0  0  0  0  0  0  0  0  0
   -1.4254    0.7710    0.3980 H   0  0  0  0  0  0  0  0  0  0  0  0
   -3.8282    0.6102    0.4538 H   0  0  0  0  0  0  0  0  0  0  0  0
   -5.6928   -0.3711   -1.2825 H   0  0  0  0  0  0  0  0  0  0  0  0
   -8.1038   -0.2940   -1.0881 H   0  0  0  0  0  0  0  0  0  0  0  0
   -9.2086   -1.4182    0.7554 H   0  0  0  0  0  0  0  0  0  0  0  0
   -7.8987   -2.6536    2.3798 H   0  0  0  0  0  0  0  0  0  0  0  0
   -5.4854   -2.7402    2.1859 H   0  0  0  0  0  0  0  0  0  0  0  0
   -1.1556   -3.4173    0.1761 H   0  0  0  0  0  0  0  0  0  0  0  0
  1  2  1  0  0  0  0
  1 91  1  0  0  0  0
  1 92  1  0  0  0  0
  1 93  1  0  0  0  0
  2  3  1  0  0  0  0
  2 78  1  0  0  0  0
  2 94  1  6  0  0  0
  3  4  2  0  0  0  0
  3  5  1  0  0  0  0
  5  6  1  0  0  0  0
  5 95  1  0  0  0  0
  6  7  1  0  0  0  0
  6 96  1  0  0  0  0
  6 97  1  0  0  0  0
  7  8  1  0  0  0  0
  7 98  1  0  0  0  0
  7 99  1  0  0  0  0
  8  9  1  0  0  0  0
  8100  1  0  0  0  0
  8101  1  0  0  0  0
  9 10  1  0  0  0  0
  9102  1  0  0  0  0
  9103  1  0  0  0  0
 10 11  1  0  0  0  0
 10104  1  0  0  0  0
 10105  1  0  0  0  0
 11 12  1  0  0  0  0
 11106  1  0  0  0  0
 11107  1  0  0  0  0
 12 13  1  0  0  0  0
 12108  1  0  0  0  0
 13 14  2  0  0  0  0
 13 15  1  0  0  0  0
 15 16  1  0  0  0  0
 15 77  2  0  0  0  0
 16 17  2  0  0  0  0
 16109  1  0  0  0  0
 17 18  1  0  0  0  0
 17110  1  0  0  0  0
 18 19  1  0  0  0  0
 18 76  2  0  0  0  0
 19 20  1  0  0  0  0
 19 70  2  0  0  0  0
 20 21  2  0  0  0  0
 20 75  1  0  0  0  0
 21 22  1  0  0  0  0
 22 23  2  0  0  0  0
 22 74  1  0  0  0  0
 23 24  1  0  0  0  0
 23 35  1  0  0  0  0
 24 25  1  0  0  0  0
 24 33  2  0  0  0  0
 25 26  1  0  0  0  0
 25 27  2  0  0  0  0
 27 28  1  0  0  0  0
 27 29  1  0  0  0  0
 29 30  1  0  0  0  0
 29 31  2  0  0  0  0
 31 32  1  0  0  0  0
 31 33  1  0  0  0  0
 33 34  1  0  0  0  0
 35 36  2  0  0  0  0
 35 39  1  0  0  0  0
 36 37  1  0  0  0  0
 36111  1  0  0  0  0
 37 38  2  0  0  0  0
 37112  1  0  0  0  0
 38 39  1  0  0  0  0
 38 40  1  0  0  0  0
 39113  1  0  0  0  0
 40 41  1  0  0  0  0
 40 52  2  0  0  0  0
 41 42  1  0  0  0  0
 41 50  2  0  0  0  0
 42 43  1  0  0  0  0
 42 44  2  0  0  0  0
 44 45  1  0  0  0  0
 44 46  1  0  0  0  0
 46 47  1  0  0  0  0
 46 48  2  0  0  0  0
 48 49  1  0  0  0  0
 48 50  1  0  0  0  0
 50 51  1  0  0  0  0
 52 53  1  0  0  0  0
 52 73  1  0  0  0  0
 53 54  2  0  0  0  0
 54 55  1  0  0  0  0
 54 72  1  0  0  0  0
 55 56  1  0  0  0  0
 55 67  2  0  0  0  0
 56 57  1  0  0  0  0
 56 65  2  0  0  0  0
 57 58  1  0  0  0  0
 57 59  2  0  0  0  0
 59 60  1  0  0  0  0
 59 61  1  0  0  0  0
 61 62  1  0  0  0  0
 61 63  2  0  0  0  0
 63 64  1  0  0  0  0
 63 65  1  0  0  0  0
 65 66  1  0  0  0  0
 67 68  1  0  0  0  0
 67 71  1  0  0  0  0
 68 69  2  0  0  0  0
 68114  1  0  0  0  0
 69 70  1  0  0  0  0
 69115  1  0  0  0  0
 70 71  1  0  0  0  0
 71116  1  0  0  0  0
 72 73  2  0  0  0  0
 72117  1  0  0  0  0
 73118  1  0  0  0  0
 74 75  2  0  0  0  0
 74119  1  0  0  0  0
 75120  1  0  0  0  0
 76 77  1  0  0  0  0
 76121  1  0  0  0  0
 77122  1  0  0  0  0
 78 79  1  0  0  0  0
 78 90  2  0  0  0  0
 79 80  2  0  0  0  0
 79123  1  0  0  0  0
 80 81  1  0  0  0  0
 80124  1  0  0  0  0
 81 82  1  0  0  0  0
 81 88  2  0  0  0  0
 82 83  1  0  0  0  0
 82 87  2  0  0  0  0
 83 84  2  0  0  0  0
 83125  1  0  0  0  0
 84 85  1  0  0  0  0
 84126  1  0  0  0  0
 85 86  2  0  0  0  0
 85127  1  0  0  0  0
 86 87  1  0  0  0  0
 86128  1  0  0  0  0
 87129  1  0  0  0  0
 88 89  1  0  0  0  0
 88 90  1  0  0  0  0
 90130  1  0  0  0  0
M  END
$$$$
