ligands/25-ref
 OpenBabel10182222433D

100108  0  0  0  0  0  0  0  0999 V2000
    1.1316    0.1500    0.2454 C   0  0  0  0  0  0  0  0  0  0  0  0
    0.7661    0.7018   -1.1236 C   0  0  0  0  0  0  0  0  0  0  0  0
    1.2963   -0.1422   -2.2856 C   0  0  0  0  0  0  0  0  0  0  0  0
    0.8135   -1.5956   -2.3273 C   0  0  0  0  0  0  0  0  0  0  0  0
   -0.7040   -1.7914   -2.3223 C   0  0  0  0  0  0  0  0  0  0  0  0
   -1.4560   -1.1046   -3.4585 C   0  0  0  0  0  0  0  0  0  0  0  0
   -1.1235   -1.6496   -4.7660 N   0  0  0  0  0  0  0  0  0  0  0  0
   -1.9500   -2.1027   -5.7630 C   0  0  0  0  0  0  0  0  0  0  0  0
   -1.4729   -2.6649   -6.7498 O   0  0  0  0  0  0  0  0  0  0  0  0
   -3.4179   -1.9496   -5.6540 C   0  0  0  0  0  0  0  0  0  0  0  0
   -4.2352   -3.0288   -6.0051 C   0  0  0  0  0  0  0  0  0  0  0  0
   -5.6219   -2.9296   -5.8625 C   0  0  0  0  0  0  0  0  0  0  0  0
   -6.1997   -1.7639   -5.3345 C   0  0  0  0  0  0  0  0  0  0  0  0
   -5.3718   -0.6744   -5.0219 C   0  0  0  0  0  0  0  0  0  0  0  0
   -3.9947   -0.7502   -5.2272 C   0  0  0  0  0  0  0  0  0  0  0  0
   -7.6637   -1.6704   -5.0941 C   0  0  0  0  0  0  0  0  0  0  0  0
   -8.4973   -0.6783   -5.8567 C   0  0  0  0  0  0  0  0  0  0  0  0
   -7.8043    0.1120   -6.8856 C   0  0  0  0  0  0  0  0  0  0  0  0
   -8.7664    0.9287   -7.2944 C   0  0  0  0  0  0  0  0  0  0  0  0
  -10.0258    0.6163   -6.6481 C   0  0  0  0  0  0  0  0  0  0  0  0
   -9.7687   -0.3903   -5.7268 N   0  0  0  0  0  0  0  0  0  0  0  0
  -11.2074    1.2096   -6.9459 C   0  0  0  0  0  0  0  0  0  0  0  0
  -11.2017    2.2648   -8.0139 C   0  0  0  0  0  0  0  0  0  0  0  0
  -11.0034    1.9378   -9.3643 C   0  0  0  0  0  0  0  0  0  0  0  0
  -10.7623    0.6677   -9.7228 F   0  0  0  0  0  0  0  0  0  0  0  0
  -11.0156    2.9214  -10.3496 C   0  0  0  0  0  0  0  0  0  0  0  0
  -10.7778    2.5911  -11.6265 F   0  0  0  0  0  0  0  0  0  0  0  0
  -11.2613    4.2432  -10.0104 C   0  0  0  0  0  0  0  0  0  0  0  0
  -11.2815    5.1876  -10.9610 F   0  0  0  0  0  0  0  0  0  0  0  0
  -11.4802    4.5866   -8.6848 C   0  0  0  0  0  0  0  0  0  0  0  0
  -11.7314    5.8618   -8.3573 F   0  0  0  0  0  0  0  0  0  0  0  0
  -11.4390    3.6097   -7.6931 C   0  0  0  0  0  0  0  0  0  0  0  0
  -11.6421    3.9760   -6.4186 F   0  0  0  0  0  0  0  0  0  0  0  0
  -12.4611    0.8885   -6.3152 C   0  0  0  0  0  0  0  0  0  0  0  0
  -13.7173    1.4084   -6.5759 C   0  0  0  0  0  0  0  0  0  0  0  0
  -14.6271    0.8239   -5.6886 C   0  0  0  0  0  0  0  0  0  0  0  0
  -13.9467   -0.0957   -4.9073 C   0  0  0  0  0  0  0  0  0  0  0  0
  -12.6172   -0.0391   -5.2957 N   0  0  0  0  0  0  0  0  0  0  0  0
  -14.4692   -0.9624   -3.8825 C   0  0  0  0  0  0  0  0  0  0  0  0
  -15.9438   -0.9107   -3.6069 C   0  0  0  0  0  0  0  0  0  0  0  0
  -16.4534   -0.3421   -2.4305 C   0  0  0  0  0  0  0  0  0  0  0  0
  -15.6186    0.1271   -1.4909 F   0  0  0  0  0  0  0  0  0  0  0  0
  -17.8253   -0.2894   -2.1977 C   0  0  0  0  0  0  0  0  0  0  0  0
  -18.2884    0.2165   -1.0462 F   0  0  0  0  0  0  0  0  0  0  0  0
  -18.7125   -0.7717   -3.1485 C   0  0  0  0  0  0  0  0  0  0  0  0
  -20.0326   -0.7135   -2.9254 F   0  0  0  0  0  0  0  0  0  0  0  0
  -18.2309   -1.3210   -4.3270 C   0  0  0  0  0  0  0  0  0  0  0  0
  -19.0870   -1.7760   -5.2524 F   0  0  0  0  0  0  0  0  0  0  0  0
  -16.8594   -1.4018   -4.5502 C   0  0  0  0  0  0  0  0  0  0  0  0
  -16.4234   -1.9498   -5.6944 F   0  0  0  0  0  0  0  0  0  0  0  0
  -13.7318   -1.8398   -3.1590 C   0  0  0  0  0  0  0  0  0  0  0  0
  -14.2695   -2.6989   -2.1252 C   0  0  0  0  0  0  0  0  0  0  0  0
  -13.3149   -3.4131   -1.5461 C   0  0  0  0  0  0  0  0  0  0  0  0
  -12.1309   -3.0145   -2.3206 C   0  0  0  0  0  0  0  0  0  0  0  0
  -12.3709   -2.1039   -3.2320 N   0  0  0  0  0  0  0  0  0  0  0  0
  -10.8330   -3.6927   -1.9740 C   0  0  0  0  0  0  0  0  0  0  0  0
  -10.7683   -4.6940   -0.8775 C   0  0  0  0  0  0  0  0  0  0  0  0
  -11.3901   -5.9439   -1.0035 C   0  0  0  0  0  0  0  0  0  0  0  0
  -12.0666   -6.2449   -2.1218 F   0  0  0  0  0  0  0  0  0  0  0  0
  -11.3589   -6.8715    0.0357 C   0  0  0  0  0  0  0  0  0  0  0  0
  -12.0038   -8.0391   -0.0923 F   0  0  0  0  0  0  0  0  0  0  0  0
  -10.6782   -6.5804    1.2082 C   0  0  0  0  0  0  0  0  0  0  0  0
  -10.6468   -7.4735    2.2065 F   0  0  0  0  0  0  0  0  0  0  0  0
  -10.0377   -5.3585    1.3478 C   0  0  0  0  0  0  0  0  0  0  0  0
   -9.3672   -5.0786    2.4737 F   0  0  0  0  0  0  0  0  0  0  0  0
  -10.0932   -4.4188    0.3207 C   0  0  0  0  0  0  0  0  0  0  0  0
   -9.4780   -3.2392    0.4897 F   0  0  0  0  0  0  0  0  0  0  0  0
   -9.7235   -3.3922   -2.6760 C   0  0  0  0  0  0  0  0  0  0  0  0
   -8.4028   -3.9756   -2.4600 C   0  0  0  0  0  0  0  0  0  0  0  0
   -7.5272   -3.4020   -3.3006 C   0  0  0  0  0  0  0  0  0  0  0  0
   -8.2331   -2.4342   -4.1413 C   0  0  0  0  0  0  0  0  0  0  0  0
   -9.5343   -2.5046   -3.7072 N   0  0  0  0  0  0  0  0  0  0  0  0
    0.7303    0.7872    1.0055 H   0  0  0  0  0  0  0  0  0  0  0  0
    2.1966    0.1084    0.3405 H   0  0  0  0  0  0  0  0  0  0  0  0
    0.7252   -0.8339    0.3535 H   0  0  0  0  0  0  0  0  0  0  0  0
    1.1709    1.6885   -1.2098 H   0  0  0  0  0  0  0  0  0  0  0  0
   -0.3018    0.6930   -1.1908 H   0  0  0  0  0  0  0  0  0  0  0  0
    2.3644   -0.1525   -2.2235 H   0  0  0  0  0  0  0  0  0  0  0  0
    0.9170    0.3161   -3.1750 H   0  0  0  0  0  0  0  0  0  0  0  0
    1.2127   -2.0992   -1.4718 H   0  0  0  0  0  0  0  0  0  0  0  0
    1.1552   -1.9896   -3.2616 H   0  0  0  0  0  0  0  0  0  0  0  0
   -1.0831   -1.4098   -1.3973 H   0  0  0  0  0  0  0  0  0  0  0  0
   -0.8664   -2.8409   -2.4531 H   0  0  0  0  0  0  0  0  0  0  0  0
   -1.2110   -0.0631   -3.4500 H   0  0  0  0  0  0  0  0  0  0  0  0
   -2.5012   -1.2682   -3.2979 H   0  0  0  0  0  0  0  0  0  0  0  0
   -0.1607   -1.7009   -4.9652 H   0  0  0  0  0  0  0  0  0  0  0  0
   -3.8145   -3.8979   -6.3693 H   0  0  0  0  0  0  0  0  0  0  0  0
   -6.2246   -3.7176   -6.1469 H   0  0  0  0  0  0  0  0  0  0  0  0
   -5.7854    0.1893   -4.6372 H   0  0  0  0  0  0  0  0  0  0  0  0
   -3.4019    0.0786   -5.0641 H   0  0  0  0  0  0  0  0  0  0  0  0
   -6.8253    0.0479   -7.2058 H   0  0  0  0  0  0  0  0  0  0  0  0
   -8.6355    1.6869   -7.9822 H   0  0  0  0  0  0  0  0  0  0  0  0
  -13.9437    2.1074   -7.3006 H   0  0  0  0  0  0  0  0  0  0  0  0
  -15.6341    1.0409   -5.6266 H   0  0  0  0  0  0  0  0  0  0  0  0
  -11.8912   -0.5776   -4.9057 H   0  0  0  0  0  0  0  0  0  0  0  0
  -15.2686   -2.7488   -1.8715 H   0  0  0  0  0  0  0  0  0  0  0  0
  -13.3846   -4.0756   -0.7579 H   0  0  0  0  0  0  0  0  0  0  0  0
   -8.1783   -4.7109   -1.7716 H   0  0  0  0  0  0  0  0  0  0  0  0
   -6.5175   -3.6103   -3.3466 H   0  0  0  0  0  0  0  0  0  0  0  0
  -10.2624   -1.9696   -4.0981 H   0  0  0  0  0  0  0  0  0  0  0  0
  1  2  1  0  0  0  0
  1 73  1  0  0  0  0
  1 74  1  0  0  0  0
  1 75  1  0  0  0  0
  2  3  1  0  0  0  0
  2 76  1  0  0  0  0
  2 77  1  0  0  0  0
  3  4  1  0  0  0  0
  3 78  1  0  0  0  0
  3 79  1  0  0  0  0
  4  5  1  0  0  0  0
  4 80  1  0  0  0  0
  4 81  1  0  0  0  0
  5  6  1  0  0  0  0
  5 82  1  0  0  0  0
  5 83  1  0  0  0  0
  6  7  1  0  0  0  0
  6 84  1  0  0  0  0
  6 85  1  0  0  0  0
  7  8  1  0  0  0  0
  7 86  1  0  0  0  0
  8  9  2  0  0  0  0
  8 10  1  0  0  0  0
 10 11  1  0  0  0  0
 10 15  2  0  0  0  0
 11 12  2  0  0  0  0
 11 87  1  0  0  0  0
 12 13  1  0  0  0  0
 12 88  1  0  0  0  0
 13 14  2  0  0  0  0
 13 16  1  0  0  0  0
 14 15  1  0  0  0  0
 14 89  1  0  0  0  0
 15 90  1  0  0  0  0
 16 17  1  0  0  0  0
 16 71  2  0  0  0  0
 17 18  1  0  0  0  0
 17 21  2  0  0  0  0
 18 19  2  0  0  0  0
 18 91  1  0  0  0  0
 19 20  1  0  0  0  0
 19 92  1  0  0  0  0
 20 21  1  0  0  0  0
 20 22  2  0  0  0  0
 22 23  1  0  0  0  0
 22 34  1  0  0  0  0
 23 24  1  0  0  0  0
 23 32  2  0  0  0  0
 24 25  1  0  0  0  0
 24 26  2  0  0  0  0
 26 27  1  0  0  0  0
 26 28  1  0  0  0  0
 28 29  1  0  0  0  0
 28 30  2  0  0  0  0
 30 31  1  0  0  0  0
 30 32  1  0  0  0  0
 32 33  1  0  0  0  0
 34 35  2  0  0  0  0
 34 38  1  0  0  0  0
 35 36  1  0  0  0  0
 35 93  1  0  0  0  0
 36 37  2  0  0  0  0
 36 94  1  0  0  0  0
 37 38  1  0  0  0  0
 37 39  1  0  0  0  0
 38 95  1  0  0  0  0
 39 40  1  0  0  0  0
 39 51  2  0  0  0  0
 40 41  1  0  0  0  0
 40 49  2  0  0  0  0
 41 42  1  0  0  0  0
 41 43  2  0  0  0  0
 43 44  1  0  0  0  0
 43 45  1  0  0  0  0
 45 46  1  0  0  0  0
 45 47  2  0  0  0  0
 47 48  1  0  0  0  0
 47 49  1  0  0  0  0
 49 50  1  0  0  0  0
 51 52  1  0  0  0  0
 51 55  1  0  0  0  0
 52 53  2  0  0  0  0
 52 96  1  0  0  0  0
 53 54  1  0  0  0  0
 53 97  1  0  0  0  0
 54 55  2  0  0  0  0
 54 56  1  0  0  0  0
 56 57  1  0  0  0  0
 56 68  2  0  0  0  0
 57 58  1  0  0  0  0
 57 66  2  0  0  0  0
 58 59  1  0  0  0  0
 58 60  2  0  0  0  0
 60 61  1  0  0  0  0
 60 62  1  0  0  0  0
 62 63  1  0  0  0  0
 62 64  2  0  0  0  0
 64 65  1  0  0  0  0
 64 66  1  0  0  0  0
 66 67  1  0  0  0  0
 68 69  1  0  0  0  0
 68 72  1  0  0  0  0
 69 70  2  0  0  0  0
 69 98  1  0  0  0  0
 70 71  1  0  0  0  0
 70 99  1  0  0  0  0
 71 72  1  0  0  0  0
 72100  1  0  0  0  0
M  END
$$$$
