ligands/4-CHEMBL404108
 OpenBabel10182222423D

132142  0  0  0  0  0  0  0  0999 V2000
    2.5577   -0.0127    0.2218 C   0  0  0  0  0  0  0  0  0  0  0  0
    1.0602   -0.0587    0.1856 C   0  0  0  0  0  0  0  0  0  0  0  0
    0.4010   -1.2773    0.0566 C   0  0  0  0  0  0  0  0  0  0  0  0
   -0.9947   -1.3229    0.0027 C   0  0  0  0  0  0  0  0  0  0  0  0
   -1.7804   -0.1589    0.0446 C   0  0  0  0  0  0  0  0  0  0  0  0
   -3.1886   -0.2312   -0.0075 N   0  0  0  0  0  0  0  0  0  0  0  0
   -4.0307   -1.3671    0.0171 C   0  0  0  0  0  0  0  0  0  0  0  0
   -3.9448   -2.3370    1.0276 C   0  0  0  0  0  0  0  0  0  0  0  0
   -3.1189   -2.1576    2.0706 F   0  0  0  0  0  0  0  0  0  0  0  0
   -4.7141   -3.5000    0.9993 C   0  0  0  0  0  0  0  0  0  0  0  0
   -5.5901   -3.7268   -0.0582 C   0  0  0  0  0  0  0  0  0  0  0  0
   -5.7013   -2.7801   -1.0759 C   0  0  0  0  0  0  0  0  0  0  0  0
   -4.9317   -1.6113   -1.0361 C   0  0  0  0  0  0  0  0  0  0  0  0
   -5.0855   -0.4960   -2.3518 Cl  0  0  0  0  0  0  0  0  0  0  0  0
   -1.1133    1.0777    0.1775 C   0  0  0  0  0  0  0  0  0  0  0  0
   -1.8443    2.4035    0.2120 C   0  0  0  0  0  0  0  0  0  0  0  0
   -2.7452    2.6462   -0.9846 C   0  0  0  0  0  0  0  0  0  0  0  0
   -3.9723    2.6149   -0.8633 O   0  0  0  0  0  0  0  0  0  0  0  0
   -2.2202    2.8856   -2.2183 N   0  0  0  0  0  0  0  0  0  0  0  0
   -0.8396    2.8128   -2.6455 C   0  0  0  0  0  0  0  0  0  0  0  0
   -0.5615    1.5508   -3.4674 C   0  0  0  0  0  0  0  0  0  0  0  0
   -1.2076    1.5249   -4.8614 C   0  0  0  0  0  0  0  0  0  0  0  0
   -0.9779    2.7605   -5.7466 C   0  0  0  0  0  0  0  0  0  0  0  0
    0.4684    3.2484   -5.8536 C   0  0  0  0  0  0  0  0  0  0  0  0
    1.3820    2.3376   -6.6629 C   0  0  0  0  0  0  0  0  0  0  0  0
    1.5453    2.7536   -8.0489 N   0  0  0  0  0  0  0  0  0  0  0  0
    2.2651    2.1734   -9.0801 C   0  0  0  0  0  0  0  0  0  0  0  0
    2.3351    2.7330  -10.1592 O   0  0  0  0  0  0  0  0  0  0  0  0
    2.8185    0.8024   -8.9200 C   0  0  0  0  0  0  0  0  0  0  0  0
    2.6466   -0.0898   -9.9881 C   0  0  0  0  0  0  0  0  0  0  0  0
    2.6833   -1.4609   -9.7485 C   0  0  0  0  0  0  0  0  0  0  0  0
    2.8414   -1.9040   -8.4389 C   0  0  0  0  0  0  0  0  0  0  0  0
    2.4263   -3.2234   -7.9779 C   0  0  0  0  0  0  0  0  0  0  0  0
    3.4143   -4.2168   -7.5148 C   0  0  0  0  0  0  0  0  0  0  0  0
    3.1164   -5.4357   -7.2164 N   0  0  0  0  0  0  0  0  0  0  0  0
    4.2128   -5.9991   -6.6158 C   0  0  0  0  0  0  0  0  0  0  0  0
    4.0318   -7.1134   -5.8532 C   0  0  0  0  0  0  0  0  0  0  0  0
    4.9612   -7.5916   -4.7576 C   0  0  0  0  0  0  0  0  0  0  0  0
    4.6783   -8.7893   -4.0634 C   0  0  0  0  0  0  0  0  0  0  0  0
    3.6526   -9.5749   -4.4221 F   0  0  0  0  0  0  0  0  0  0  0  0
    5.4233   -9.2123   -2.9560 C   0  0  0  0  0  0  0  0  0  0  0  0
    5.0663  -10.3251   -2.2996 F   0  0  0  0  0  0  0  0  0  0  0  0
    6.5108   -8.4835   -2.5205 C   0  0  0  0  0  0  0  0  0  0  0  0
    7.2245   -8.8853   -1.4607 F   0  0  0  0  0  0  0  0  0  0  0  0
    6.8388   -7.3198   -3.1783 C   0  0  0  0  0  0  0  0  0  0  0  0
    7.8884   -6.5913   -2.7699 F   0  0  0  0  0  0  0  0  0  0  0  0
    6.0625   -6.8680   -4.2494 C   0  0  0  0  0  0  0  0  0  0  0  0
    6.4043   -5.6628   -4.7136 F   0  0  0  0  0  0  0  0  0  0  0  0
    2.7395   -7.7394   -6.1407 C   0  0  0  0  0  0  0  0  0  0  0  0
    1.5305   -7.8721   -5.4818 C   0  0  0  0  0  0  0  0  0  0  0  0
    0.5586   -8.3132   -6.4352 C   0  0  0  0  0  0  0  0  0  0  0  0
    1.1886   -8.4777   -7.6562 C   0  0  0  0  0  0  0  0  0  0  0  0
    2.5145   -8.1702   -7.4384 N   0  0  0  0  0  0  0  0  0  0  0  0
    0.7659   -8.8123   -9.0058 C   0  0  0  0  0  0  0  0  0  0  0  0
    1.1090  -10.1457   -9.5929 C   0  0  0  0  0  0  0  0  0  0  0  0
    0.1351  -10.9656  -10.1825 C   0  0  0  0  0  0  0  0  0  0  0  0
   -1.1307  -10.5389  -10.3078 F   0  0  0  0  0  0  0  0  0  0  0  0
    0.4436  -12.2450  -10.6466 C   0  0  0  0  0  0  0  0  0  0  0  0
   -0.5031  -12.9828  -11.2428 F   0  0  0  0  0  0  0  0  0  0  0  0
    1.7200  -12.7587  -10.4898 C   0  0  0  0  0  0  0  0  0  0  0  0
    2.0079  -13.9968  -10.9130 F   0  0  0  0  0  0  0  0  0  0  0  0
    2.6987  -11.9822   -9.8993 C   0  0  0  0  0  0  0  0  0  0  0  0
    3.9361  -12.4708   -9.7329 F   0  0  0  0  0  0  0  0  0  0  0  0
    2.4044  -10.6872   -9.4786 C   0  0  0  0  0  0  0  0  0  0  0  0
    3.4179   -9.9627   -8.9804 F   0  0  0  0  0  0  0  0  0  0  0  0
    0.0774   -7.8631   -9.6997 C   0  0  0  0  0  0  0  0  0  0  0  0
   -0.2397   -6.6417   -9.1729 N   0  0  0  0  0  0  0  0  0  0  0  0
   -0.8076   -5.9101  -10.0911 C   0  0  0  0  0  0  0  0  0  0  0  0
   -1.1507   -4.4417   -9.9306 C   0  0  0  0  0  0  0  0  0  0  0  0
   -1.0452   -3.4241  -11.0104 C   0  0  0  0  0  0  0  0  0  0  0  0
   -1.9157   -2.3167  -10.9780 C   0  0  0  0  0  0  0  0  0  0  0  0
   -3.0215   -2.3553  -10.2169 F   0  0  0  0  0  0  0  0  0  0  0  0
   -1.5976   -1.1273  -11.6284 C   0  0  0  0  0  0  0  0  0  0  0  0
   -2.3874   -0.0538  -11.4836 F   0  0  0  0  0  0  0  0  0  0  0  0
   -0.4265   -1.0336  -12.3604 C   0  0  0  0  0  0  0  0  0  0  0  0
   -0.0685    0.1346  -12.9107 F   0  0  0  0  0  0  0  0  0  0  0  0
    0.3972   -2.1429  -12.4857 C   0  0  0  0  0  0  0  0  0  0  0  0
    1.5456   -2.0432  -13.1704 F   0  0  0  0  0  0  0  0  0  0  0  0
    0.0923   -3.3303  -11.8192 C   0  0  0  0  0  0  0  0  0  0  0  0
    0.9723   -4.3404  -11.8750 F   0  0  0  0  0  0  0  0  0  0  0  0
   -0.9010   -3.9224   -8.6921 C   0  0  0  0  0  0  0  0  0  0  0  0
   -0.7712   -4.7041   -7.4767 C   0  0  0  0  0  0  0  0  0  0  0  0
    0.4666   -4.4912   -7.0049 C   0  0  0  0  0  0  0  0  0  0  0  0
    1.1025   -3.4472   -7.8057 C   0  0  0  0  0  0  0  0  0  0  0  0
    0.0388   -2.8730   -8.5268 N   0  0  0  0  0  0  0  0  0  0  0  0
   -0.9866   -6.6390  -11.3490 C   0  0  0  0  0  0  0  0  0  0  0  0
   -0.4159   -7.8210  -11.0631 C   0  0  0  0  0  0  0  0  0  0  0  0
    5.2926   -5.0849   -6.8885 C   0  0  0  0  0  0  0  0  0  0  0  0
    4.8449   -3.9386   -7.4144 C   0  0  0  0  0  0  0  0  0  0  0  0
    3.2389   -1.0155   -7.4347 C   0  0  0  0  0  0  0  0  0  0  0  0
    3.2965    0.3377   -7.6999 C   0  0  0  0  0  0  0  0  0  0  0  0
    0.2966    1.1067    0.2752 C   0  0  0  0  0  0  0  0  0  0  0  0
    2.9471   -1.0059    0.1398 H   0  0  0  0  0  0  0  0  0  0  0  0
    2.8790    0.4213    1.1456 H   0  0  0  0  0  0  0  0  0  0  0  0
    2.9162    0.5794   -0.5942 H   0  0  0  0  0  0  0  0  0  0  0  0
    0.9457   -2.1521    0.0004 H   0  0  0  0  0  0  0  0  0  0  0  0
   -1.4627   -2.2398   -0.0701 H   0  0  0  0  0  0  0  0  0  0  0  0
   -3.6523    0.6350   -0.0701 H   0  0  0  0  0  0  0  0  0  0  0  0
   -4.6339   -4.1913    1.7613 H   0  0  0  0  0  0  0  0  0  0  0  0
   -6.1540   -4.5906   -0.0889 H   0  0  0  0  0  0  0  0  0  0  0  0
   -6.3524   -2.9414   -1.8602 H   0  0  0  0  0  0  0  0  0  0  0  0
   -1.1169    3.1873    0.2493 H   0  0  0  0  0  0  0  0  0  0  0  0
   -2.4765    2.3846    1.0751 H   0  0  0  0  0  0  0  0  0  0  0  0
   -2.8678    3.1431   -2.9137 H   0  0  0  0  0  0  0  0  0  0  0  0
   -0.2097    2.8080   -1.7806 H   0  0  0  0  0  0  0  0  0  0  0  0
   -0.6389    3.6623   -3.2644 H   0  0  0  0  0  0  0  0  0  0  0  0
   -0.9274    0.7094   -2.9168 H   0  0  0  0  0  0  0  0  0  0  0  0
    0.4960    1.5275   -3.6288 H   0  0  0  0  0  0  0  0  0  0  0  0
   -2.2633    1.4119   -4.7284 H   0  0  0  0  0  0  0  0  0  0  0  0
   -0.7356    0.7150   -5.3774 H   0  0  0  0  0  0  0  0  0  0  0  0
   -1.5653    3.5618   -5.3494 H   0  0  0  0  0  0  0  0  0  0  0  0
   -1.2563    2.4628   -6.7359 H   0  0  0  0  0  0  0  0  0  0  0  0
    0.8681    3.3297   -4.8644 H   0  0  0  0  0  0  0  0  0  0  0  0
    0.4369    4.1853   -6.3694 H   0  0  0  0  0  0  0  0  0  0  0  0
    0.9696    1.3503   -6.6530 H   0  0  0  0  0  0  0  0  0  0  0  0
    2.3493    2.3807   -6.2076 H   0  0  0  0  0  0  0  0  0  0  0  0
    1.0676    3.5795   -8.2917 H   0  0  0  0  0  0  0  0  0  0  0  0
    2.4941    0.2671  -10.9443 H   0  0  0  0  0  0  0  0  0  0  0  0
    2.5951   -2.1342  -10.5256 H   0  0  0  0  0  0  0  0  0  0  0  0
    1.3598   -7.6862   -4.4811 H   0  0  0  0  0  0  0  0  0  0  0  0
   -0.4418   -8.4802   -6.2445 H   0  0  0  0  0  0  0  0  0  0  0  0
    3.2177   -8.2474   -8.1231 H   0  0  0  0  0  0  0  0  0  0  0  0
   -1.4935   -5.3088   -7.0553 H   0  0  0  0  0  0  0  0  0  0  0  0
    0.8986   -4.9837   -6.2075 H   0  0  0  0  0  0  0  0  0  0  0  0
   -0.0365   -1.9450   -8.8468 H   0  0  0  0  0  0  0  0  0  0  0  0
   -1.4338   -6.3265  -12.2250 H   0  0  0  0  0  0  0  0  0  0  0  0
   -0.3380   -8.6033  -11.7316 H   0  0  0  0  0  0  0  0  0  0  0  0
    6.2869   -5.2886   -6.7016 H   0  0  0  0  0  0  0  0  0  0  0  0
    5.3682   -3.0889   -7.6775 H   0  0  0  0  0  0  0  0  0  0  0  0
    3.4884   -1.3706   -6.4984 H   0  0  0  0  0  0  0  0  0  0  0  0
    3.6874    0.9929   -7.0050 H   0  0  0  0  0  0  0  0  0  0  0  0
    0.7730    2.0112    0.4162 H   0  0  0  0  0  0  0  0  0  0  0  0
  1  2  1  0  0  0  0
  1 93  1  0  0  0  0
  1 94  1  0  0  0  0
  1 95  1  0  0  0  0
  2  3  1  0  0  0  0
  2 92  2  0  0  0  0
  3  4  2  0  0  0  0
  3 96  1  0  0  0  0
  4  5  1  0  0  0  0
  4 97  1  0  0  0  0
  5  6  1  0  0  0  0
  5 15  2  0  0  0  0
  6  7  1  0  0  0  0
  6 98  1  0  0  0  0
  7  8  1  0  0  0  0
  7 13  2  0  0  0  0
  8  9  1  0  0  0  0
  8 10  2  0  0  0  0
 10 11  1  0  0  0  0
 10 99  1  0  0  0  0
 11 12  2  0  0  0  0
 11100  1  0  0  0  0
 12 13  1  0  0  0  0
 12101  1  0  0  0  0
 13 14  1  0  0  0  0
 15 16  1  0  0  0  0
 15 92  1  0  0  0  0
 16 17  1  0  0  0  0
 16102  1  0  0  0  0
 16103  1  0  0  0  0
 17 18  2  0  0  0  0
 17 19  1  0  0  0  0
 19 20  1  0  0  0  0
 19104  1  0  0  0  0
 20 21  1  0  0  0  0
 20105  1  0  0  0  0
 20106  1  0  0  0  0
 21 22  1  0  0  0  0
 21107  1  0  0  0  0
 21108  1  0  0  0  0
 22 23  1  0  0  0  0
 22109  1  0  0  0  0
 22110  1  0  0  0  0
 23 24  1  0  0  0  0
 23111  1  0  0  0  0
 23112  1  0  0  0  0
 24 25  1  0  0  0  0
 24113  1  0  0  0  0
 24114  1  0  0  0  0
 25 26  1  0  0  0  0
 25115  1  0  0  0  0
 25116  1  0  0  0  0
 26 27  1  0  0  0  0
 26117  1  0  0  0  0
 27 28  2  0  0  0  0
 27 29  1  0  0  0  0
 29 30  1  0  0  0  0
 29 91  2  0  0  0  0
 30 31  2  0  0  0  0
 30118  1  0  0  0  0
 31 32  1  0  0  0  0
 31119  1  0  0  0  0
 32 33  1  0  0  0  0
 32 90  2  0  0  0  0
 33 34  1  0  0  0  0
 33 84  2  0  0  0  0
 34 35  2  0  0  0  0
 34 89  1  0  0  0  0
 35 36  1  0  0  0  0
 36 37  2  0  0  0  0
 36 88  1  0  0  0  0
 37 38  1  0  0  0  0
 37 49  1  0  0  0  0
 38 39  1  0  0  0  0
 38 47  2  0  0  0  0
 39 40  1  0  0  0  0
 39 41  2  0  0  0  0
 41 42  1  0  0  0  0
 41 43  1  0  0  0  0
 43 44  1  0  0  0  0
 43 45  2  0  0  0  0
 45 46  1  0  0  0  0
 45 47  1  0  0  0  0
 47 48  1  0  0  0  0
 49 50  2  0  0  0  0
 49 53  1  0  0  0  0
 50 51  1  0  0  0  0
 50120  1  0  0  0  0
 51 52  2  0  0  0  0
 51121  1  0  0  0  0
 52 53  1  0  0  0  0
 52 54  1  0  0  0  0
 53122  1  0  0  0  0
 54 55  1  0  0  0  0
 54 66  2  0  0  0  0
 55 56  1  0  0  0  0
 55 64  2  0  0  0  0
 56 57  1  0  0  0  0
 56 58  2  0  0  0  0
 58 59  1  0  0  0  0
 58 60  1  0  0  0  0
 60 61  1  0  0  0  0
 60 62  2  0  0  0  0
 62 63  1  0  0  0  0
 62 64  1  0  0  0  0
 64 65  1  0  0  0  0
 66 67  1  0  0  0  0
 66 87  1  0  0  0  0
 67 68  2  0  0  0  0
 68 69  1  0  0  0  0
 68 86  1  0  0  0  0
 69 70  1  0  0  0  0
 69 81  2  0  0  0  0
 70 71  1  0  0  0  0
 70 79  2  0  0  0  0
 71 72  1  0  0  0  0
 71 73  2  0  0  0  0
 73 74  1  0  0  0  0
 73 75  1  0  0  0  0
 75 76  1  0  0  0  0
 75 77  2  0  0  0  0
 77 78  1  0  0  0  0
 77 79  1  0  0  0  0
 79 80  1  0  0  0  0
 81 82  1  0  0  0  0
 81 85  1  0  0  0  0
 82 83  2  0  0  0  0
 82123  1  0  0  0  0
 83 84  1  0  0  0  0
 83124  1  0  0  0  0
 84 85  1  0  0  0  0
 85125  1  0  0  0  0
 86 87  2  0  0  0  0
 86126  1  0  0  0  0
 87127  1  0  0  0  0
 88 89  2  0  0  0  0
 88128  1  0  0  0  0
 89129  1  0  0  0  0
 90 91  1  0  0  0  0
 90130  1  0  0  0  0
 91131  1  0  0  0  0
 92132  1  0  0  0  0
M  END
$$$$
