ligands/5-CHEMBL563
 OpenBabel10182222423D

130140  0  0  0  0  0  0  0  0999 V2000
    0.8865    0.2589    0.1188 C   0  0  0  0  0  0  0  0  0  0  0  0
    0.3764   -1.0954   -0.3961 C   0  0  1  0  0  0  0  0  0  0  0  0
    0.9757   -2.2258    0.4652 C   0  0  0  0  0  0  0  0  0  0  0  0
    0.3398   -2.8355    1.3268 O   0  0  0  0  0  0  0  0  0  0  0  0
    2.2654   -2.6251    0.2628 N   0  0  0  0  0  0  0  0  0  0  0  0
    3.3641   -1.9146   -0.3581 C   0  0  0  0  0  0  0  0  0  0  0  0
    4.2316   -1.2519    0.7188 C   0  0  0  0  0  0  0  0  0  0  0  0
    4.9514   -2.2451    1.6416 C   0  0  0  0  0  0  0  0  0  0  0  0
    5.9012   -3.2133    0.9321 C   0  0  0  0  0  0  0  0  0  0  0  0
    6.9567   -2.5418    0.0535 C   0  0  0  0  0  0  0  0  0  0  0  0
    7.8668   -1.5742    0.7994 C   0  0  0  0  0  0  0  0  0  0  0  0
    8.7291   -2.2570    1.7518 N   0  0  0  0  0  0  0  0  0  0  0  0
   10.0923   -2.1648    1.8855 C   0  0  0  0  0  0  0  0  0  0  0  0
   10.7105   -2.9363    2.6113 O   0  0  0  0  0  0  0  0  0  0  0  0
   10.8137   -1.1276    1.1227 C   0  0  0  0  0  0  0  0  0  0  0  0
   11.9282   -1.4869    0.3610 C   0  0  0  0  0  0  0  0  0  0  0  0
   12.5558   -0.5271   -0.4359 C   0  0  0  0  0  0  0  0  0  0  0  0
   12.0467    0.7792   -0.4969 C   0  0  0  0  0  0  0  0  0  0  0  0
   12.6596    1.8256   -1.3507 C   0  0  0  0  0  0  0  0  0  0  0  0
   13.2566    3.0422   -0.7047 C   0  0  0  0  0  0  0  0  0  0  0  0
   13.6640    4.1589   -1.2506 N   0  0  0  0  0  0  0  0  0  0  0  0
   14.0461    4.9738   -0.1936 C   0  0  0  0  0  0  0  0  0  0  0  0
   14.5839    6.2158   -0.2385 C   0  0  0  0  0  0  0  0  0  0  0  0
   14.8732    6.8890    1.0723 C   0  0  0  0  0  0  0  0  0  0  0  0
   15.8749    6.4244    1.9388 C   0  0  0  0  0  0  0  0  0  0  0  0
   16.6030    5.3457    1.6125 F   0  0  0  0  0  0  0  0  0  0  0  0
   16.0927    7.0300    3.1737 C   0  0  0  0  0  0  0  0  0  0  0  0
   17.0059    6.5238    4.0138 F   0  0  0  0  0  0  0  0  0  0  0  0
   15.3483    8.1387    3.5461 C   0  0  0  0  0  0  0  0  0  0  0  0
   15.5564    8.7182    4.7363 F   0  0  0  0  0  0  0  0  0  0  0  0
   14.3794    8.6389    2.6896 C   0  0  0  0  0  0  0  0  0  0  0  0
   13.6683    9.7188    3.0419 F   0  0  0  0  0  0  0  0  0  0  0  0
   14.1343    8.0136    1.4699 C   0  0  0  0  0  0  0  0  0  0  0  0
   13.1696    8.5051    0.6776 F   0  0  0  0  0  0  0  0  0  0  0  0
   14.8751    6.9217   -1.4576 C   0  0  0  0  0  0  0  0  0  0  0  0
   15.4821    8.1541   -1.6176 C   0  0  0  0  0  0  0  0  0  0  0  0
   15.5079    8.4529   -2.9837 C   0  0  0  0  0  0  0  0  0  0  0  0
   14.9680    7.3820   -3.6791 C   0  0  0  0  0  0  0  0  0  0  0  0
   14.5760    6.4532   -2.7295 N   0  0  0  0  0  0  0  0  0  0  0  0
   14.8223    7.2208   -5.1044 C   0  0  0  0  0  0  0  0  0  0  0  0
   15.3494    8.3235   -5.9745 C   0  0  0  0  0  0  0  0  0  0  0  0
   14.4948    9.2204   -6.6296 C   0  0  0  0  0  0  0  0  0  0  0  0
   13.1652    9.0521   -6.5703 F   0  0  0  0  0  0  0  0  0  0  0  0
   15.0072   10.2862   -7.3652 C   0  0  0  0  0  0  0  0  0  0  0  0
   14.1739   11.1179   -8.0056 F   0  0  0  0  0  0  0  0  0  0  0  0
   16.3779   10.4894   -7.4370 C   0  0  0  0  0  0  0  0  0  0  0  0
   16.8675   11.5281   -8.1280 F   0  0  0  0  0  0  0  0  0  0  0  0
   17.2408    9.6157   -6.7936 C   0  0  0  0  0  0  0  0  0  0  0  0
   18.5644    9.8183   -6.8491 F   0  0  0  0  0  0  0  0  0  0  0  0
   16.7332    8.5345   -6.0799 C   0  0  0  0  0  0  0  0  0  0  0  0
   17.5917    7.7063   -5.4659 F   0  0  0  0  0  0  0  0  0  0  0  0
   14.2730    6.1433   -5.7164 C   0  0  0  0  0  0  0  0  0  0  0  0
   13.7678    4.9819   -5.1478 N   0  0  0  0  0  0  0  0  0  0  0  0
   13.3595    4.2375   -6.1468 C   0  0  0  0  0  0  0  0  0  0  0  0
   12.7516    2.8616   -6.1155 C   0  0  0  0  0  0  0  0  0  0  0  0
   12.3084    2.1857   -7.3615 C   0  0  0  0  0  0  0  0  0  0  0  0
   13.2423    1.6926   -8.2824 C   0  0  0  0  0  0  0  0  0  0  0  0
   14.5532    1.8796   -8.0704 F   0  0  0  0  0  0  0  0  0  0  0  0
   12.8329    1.0260   -9.4354 C   0  0  0  0  0  0  0  0  0  0  0  0
   13.7456    0.5876  -10.3129 F   0  0  0  0  0  0  0  0  0  0  0  0
   11.4830    0.8193   -9.6778 C   0  0  0  0  0  0  0  0  0  0  0  0
   11.0905    0.1640  -10.7787 F   0  0  0  0  0  0  0  0  0  0  0  0
   10.5407    1.2935   -8.7778 C   0  0  0  0  0  0  0  0  0  0  0  0
    9.2363    1.0813   -8.9996 F   0  0  0  0  0  0  0  0  0  0  0  0
   10.9482    1.9819   -7.6370 C   0  0  0  0  0  0  0  0  0  0  0  0
   10.0156    2.4279   -6.7827 F   0  0  0  0  0  0  0  0  0  0  0  0
   12.6219    2.2249   -4.9357 C   0  0  0  0  0  0  0  0  0  0  0  0
   12.0402    0.8984   -4.7467 C   0  0  0  0  0  0  0  0  0  0  0  0
   11.9870    0.6263   -3.4330 C   0  0  0  0  0  0  0  0  0  0  0  0
   12.5734    1.7416   -2.6909 C   0  0  0  0  0  0  0  0  0  0  0  0
   12.9508    2.6312   -3.6661 N   0  0  0  0  0  0  0  0  0  0  0  0
   13.5295    4.8607   -7.4668 C   0  0  0  0  0  0  0  0  0  0  0  0
   14.1175    6.0070   -7.1501 C   0  0  0  0  0  0  0  0  0  0  0  0
   13.7799    4.2413    1.0254 C   0  0  0  0  0  0  0  0  0  0  0  0
   13.3705    3.0104    0.7617 C   0  0  0  0  0  0  0  0  0  0  0  0
   10.9395    1.1285    0.2942 C   0  0  0  0  0  0  0  0  0  0  0  0
   10.3585    0.1933    1.1401 C   0  0  0  0  0  0  0  0  0  0  0  0
   -1.1561   -1.1553   -0.4888 C   0  0  0  0  0  0  0  0  0  0  0  0
   -1.9474    0.0040   -0.4751 C   0  0  0  0  0  0  0  0  0  0  0  0
   -3.3436   -0.0677   -0.4891 C   0  0  0  0  0  0  0  0  0  0  0  0
   -4.0080   -1.3003   -0.5287 C   0  0  0  0  0  0  0  0  0  0  0  0
   -5.4733   -1.3428   -0.4500 C   0  0  0  0  0  0  0  0  0  0  0  0
   -6.2648   -0.6477   -1.3792 C   0  0  0  0  0  0  0  0  0  0  0  0
   -7.6552   -0.6151   -1.2563 C   0  0  0  0  0  0  0  0  0  0  0  0
   -8.2765   -1.2781   -0.2010 C   0  0  0  0  0  0  0  0  0  0  0  0
   -7.5100   -1.9834    0.7239 C   0  0  0  0  0  0  0  0  0  0  0  0
   -6.1193   -2.0182    0.5979 C   0  0  0  0  0  0  0  0  0  0  0  0
   -3.2203   -2.4526   -0.6058 C   0  0  0  0  0  0  0  0  0  0  0  0
   -3.7969   -3.6634   -0.6676 F   0  0  0  0  0  0  0  0  0  0  0  0
   -1.8240   -2.3863   -0.6094 C   0  0  0  0  0  0  0  0  0  0  0  0
    1.9555    0.2440    0.1629 H   0  0  0  0  0  0  0  0  0  0  0  0
    0.4917    0.4404    1.0966 H   0  0  0  0  0  0  0  0  0  0  0  0
    0.5677    1.0357   -0.5444 H   0  0  0  0  0  0  0  0  0  0  0  0
    0.7111   -1.2281   -1.4037 H   0  0  0  0  0  0  0  0  0  0  0  0
    2.4803   -3.5296    0.5867 H   0  0  0  0  0  0  0  0  0  0  0  0
    2.9756   -1.1629   -1.0130 H   0  0  0  0  0  0  0  0  0  0  0  0
    3.9610   -2.6061   -0.9152 H   0  0  0  0  0  0  0  0  0  0  0  0
    3.6031   -0.6289    1.3204 H   0  0  0  0  0  0  0  0  0  0  0  0
    4.9916   -0.6998    0.2065 H   0  0  0  0  0  0  0  0  0  0  0  0
    4.2090   -2.8223    2.1521 H   0  0  0  0  0  0  0  0  0  0  0  0
    5.5580   -1.6579    2.2990 H   0  0  0  0  0  0  0  0  0  0  0  0
    5.3160   -3.8616    0.3139 H   0  0  0  0  0  0  0  0  0  0  0  0
    6.4335   -3.7332    1.7010 H   0  0  0  0  0  0  0  0  0  0  0  0
    6.4539   -2.0005   -0.7205 H   0  0  0  0  0  0  0  0  0  0  0  0
    7.5828   -3.3223   -0.3257 H   0  0  0  0  0  0  0  0  0  0  0  0
    7.2606   -0.8681    1.3275 H   0  0  0  0  0  0  0  0  0  0  0  0
    8.4914   -1.0881    0.0793 H   0  0  0  0  0  0  0  0  0  0  0  0
    8.2766   -2.8634    2.3817 H   0  0  0  0  0  0  0  0  0  0  0  0
   12.2852   -2.4548    0.3870 H   0  0  0  0  0  0  0  0  0  0  0  0
   13.3953   -0.7788   -0.9808 H   0  0  0  0  0  0  0  0  0  0  0  0
   15.8518    8.7498   -0.8604 H   0  0  0  0  0  0  0  0  0  0  0  0
   15.8683    9.3241   -3.4035 H   0  0  0  0  0  0  0  0  0  0  0  0
   14.1485    5.5887   -2.9273 H   0  0  0  0  0  0  0  0  0  0  0  0
   11.7214    0.2712   -5.5016 H   0  0  0  0  0  0  0  0  0  0  0  0
   11.5953   -0.2318   -3.0143 H   0  0  0  0  0  0  0  0  0  0  0  0
   13.4128    3.4790   -3.4736 H   0  0  0  0  0  0  0  0  0  0  0  0
   13.2617    4.5010   -8.3963 H   0  0  0  0  0  0  0  0  0  0  0  0
   14.4251    6.7122   -7.8380 H   0  0  0  0  0  0  0  0  0  0  0  0
   13.8942    4.6276    1.9755 H   0  0  0  0  0  0  0  0  0  0  0  0
   13.1811    2.2329    1.4134 H   0  0  0  0  0  0  0  0  0  0  0  0
   10.5560    2.0854    0.2463 H   0  0  0  0  0  0  0  0  0  0  0  0
    9.5959    0.4718    1.7772 H   0  0  0  0  0  0  0  0  0  0  0  0
   -1.4891    0.9284   -0.4543 H   0  0  0  0  0  0  0  0  0  0  0  0
   -3.8953    0.8042   -0.4699 H   0  0  0  0  0  0  0  0  0  0  0  0
   -5.8120   -0.1539   -2.1642 H   0  0  0  0  0  0  0  0  0  0  0  0
   -8.2224   -0.0997   -1.9474 H   0  0  0  0  0  0  0  0  0  0  0  0
   -9.3035   -1.2469   -0.1043 H   0  0  0  0  0  0  0  0  0  0  0  0
   -7.9699   -2.4805    1.5026 H   0  0  0  0  0  0  0  0  0  0  0  0
   -5.5591   -2.5474    1.2842 H   0  0  0  0  0  0  0  0  0  0  0  0
   -1.2747   -3.2550   -0.7021 H   0  0  0  0  0  0  0  0  0  0  0  0
  1  2  1  0  0  0  0
  1 91  1  0  0  0  0
  1 92  1  0  0  0  0
  1 93  1  0  0  0  0
  2  3  1  0  0  0  0
  2 78  1  0  0  0  0
  2 94  1  6  0  0  0
  3  4  2  0  0  0  0
  3  5  1  0  0  0  0
  5  6  1  0  0  0  0
  5 95  1  0  0  0  0
  6  7  1  0  0  0  0
  6 96  1  0  0  0  0
  6 97  1  0  0  0  0
  7  8  1  0  0  0  0
  7 98  1  0  0  0  0
  7 99  1  0  0  0  0
  8  9  1  0  0  0  0
  8100  1  0  0  0  0
  8101  1  0  0  0  0
  9 10  1  0  0  0  0
  9102  1  0  0  0  0
  9103  1  0  0  0  0
 10 11  1  0  0  0  0
 10104  1  0  0  0  0
 10105  1  0  0  0  0
 11 12  1  0  0  0  0
 11106  1  0  0  0  0
 11107  1  0  0  0  0
 12 13  1  0  0  0  0
 12108  1  0  0  0  0
 13 14  2  0  0  0  0
 13 15  1  0  0  0  0
 15 16  1  0  0  0  0
 15 77  2  0  0  0  0
 16 17  2  0  0  0  0
 16109  1  0  0  0  0
 17 18  1  0  0  0  0
 17110  1  0  0  0  0
 18 19  1  0  0  0  0
 18 76  2  0  0  0  0
 19 20  1  0  0  0  0
 19 70  2  0  0  0  0
 20 21  2  0  0  0  0
 20 75  1  0  0  0  0
 21 22  1  0  0  0  0
 22 23  2  0  0  0  0
 22 74  1  0  0  0  0
 23 24  1  0  0  0  0
 23 35  1  0  0  0  0
 24 25  1  0  0  0  0
 24 33  2  0  0  0  0
 25 26  1  0  0  0  0
 25 27  2  0  0  0  0
 27 28  1  0  0  0  0
 27 29  1  0  0  0  0
 29 30  1  0  0  0  0
 29 31  2  0  0  0  0
 31 32  1  0  0  0  0
 31 33  1  0  0  0  0
 33 34  1  0  0  0  0
 35 36  2  0  0  0  0
 35 39  1  0  0  0  0
 36 37  1  0  0  0  0
 36111  1  0  0  0  0
 37 38  2  0  0  0  0
 37112  1  0  0  0  0
 38 39  1  0  0  0  0
 38 40  1  0  0  0  0
 39113  1  0  0  0  0
 40 41  1  0  0  0  0
 40 52  2  0  0  0  0
 41 42  1  0  0  0  0
 41 50  2  0  0  0  0
 42 43  1  0  0  0  0
 42 44  2  0  0  0  0
 44 45  1  0  0  0  0
 44 46  1  0  0  0  0
 46 47  1  0  0  0  0
 46 48  2  0  0  0  0
 48 49  1  0  0  0  0
 48 50  1  0  0  0  0
 50 51  1  0  0  0  0
 52 53  1  0  0  0  0
 52 73  1  0  0  0  0
 53 54  2  0  0  0  0
 54 55  1  0  0  0  0
 54 72  1  0  0  0  0
 55 56  1  0  0  0  0
 55 67  2  0  0  0  0
 56 57  1  0  0  0  0
 56 65  2  0  0  0  0
 57 58  1  0  0  0  0
 57 59  2  0  0  0  0
 59 60  1  0  0  0  0
 59 61  1  0  0  0  0
 61 62  1  0  0  0  0
 61 63  2  0  0  0  0
 63 64  1  0  0  0  0
 63 65  1  0  0  0  0
 65 66  1  0  0  0  0
 67 68  1  0  0  0  0
 67 71  1  0  0  0  0
 68 69  2  0  0  0  0
 68114  1  0  0  0  0
 69 70  1  0  0  0  0
 69115  1  0  0  0  0
 70 71  1  0  0  0  0
 71116  1  0  0  0  0
 72 73  2  0  0  0  0
 72117  1  0  0  0  0
 73118  1  0  0  0  0
 74 75  2  0  0  0  0
 74119  1  0  0  0  0
 75120  1  0  0  0  0
 76 77  1  0  0  0  0
 76121  1  0  0  0  0
 77122  1  0  0  0  0
 78 79  1  0  0  0  0
 78 90  2  0  0  0  0
 79 80  2  0  0  0  0
 79123  1  0  0  0  0
 80 81  1  0  0  0  0
 80124  1  0  0  0  0
 81 82  1  0  0  0  0
 81 88  2  0  0  0  0
 82 83  1  0  0  0  0
 82 87  2  0  0  0  0
 83 84  2  0  0  0  0
 83125  1  0  0  0  0
 84 85  1  0  0  0  0
 84126  1  0  0  0  0
 85 86  2  0  0  0  0
 85127  1  0  0  0  0
 86 87  1  0  0  0  0
 86128  1  0  0  0  0
 87129  1  0  0  0  0
 88 89  1  0  0  0  0
 88 90  1  0  0  0  0
 90130  1  0  0  0  0
M  END
$$$$
