ligands/6-CHEMBL23588
 OpenBabel10182222423D

129139  0  0  0  0  0  0  0  0999 V2000
    1.1516    0.2694    0.0034 O   0  0  0  0  0  0  0  0  0  0  0  0
    2.3723    0.1556    0.0684 C   0  0  0  0  0  0  0  0  0  0  0  0
    3.0638   -0.4837   -0.9330 N   0  0  0  0  0  0  0  0  0  0  0  0
    4.4739   -0.8305   -0.9997 C   0  0  0  0  0  0  0  0  0  0  0  0
    4.7210   -2.2792   -1.3994 C   0  0  0  0  0  0  0  0  0  0  0  0
    4.2598   -2.6630   -2.8045 C   0  0  0  0  0  0  0  0  0  0  0  0
    4.7818   -1.7843   -3.9447 C   0  0  0  0  0  0  0  0  0  0  0  0
    6.3014   -1.5899   -4.0120 C   0  0  0  0  0  0  0  0  0  0  0  0
    7.1342   -2.8699   -4.0252 C   0  0  0  0  0  0  0  0  0  0  0  0
    6.8227   -3.7241   -5.1561 N   0  0  0  0  0  0  0  0  0  0  0  0
    7.6806   -4.3900   -5.9934 C   0  0  0  0  0  0  0  0  0  0  0  0
    7.2379   -5.0287   -6.9438 O   0  0  0  0  0  0  0  0  0  0  0  0
    9.1413   -4.3272   -5.7762 C   0  0  0  0  0  0  0  0  0  0  0  0
    9.9007   -3.7851   -6.8250 C   0  0  0  0  0  0  0  0  0  0  0  0
   11.2847   -3.6895   -6.7083 C   0  0  0  0  0  0  0  0  0  0  0  0
   11.9100   -4.1410   -5.5503 C   0  0  0  0  0  0  0  0  0  0  0  0
   11.1541   -4.6990   -4.5139 C   0  0  0  0  0  0  0  0  0  0  0  0
    9.7585   -4.8237   -4.6091 C   0  0  0  0  0  0  0  0  0  0  0  0
    9.0082   -5.3986   -3.5622 N   0  0  0  0  0  0  0  0  0  0  0  0
    9.2266   -5.4433   -2.1752 C   0  0  0  0  0  0  0  0  0  0  0  0
    8.7177   -6.5211   -1.4405 C   0  0  0  0  0  0  0  0  0  0  0  0
    8.9510   -6.6314   -0.0681 C   0  0  0  0  0  0  0  0  0  0  0  0
    9.6971   -5.6579    0.5924 C   0  0  0  0  0  0  0  0  0  0  0  0
   10.2138   -4.5638   -0.1145 C   0  0  0  0  0  0  0  0  0  0  0  0
   11.0181   -3.5110    0.6059 C   0  0  0  0  0  0  0  0  0  0  0  0
   10.3661   -3.0132    1.6936 F   0  0  0  0  0  0  0  0  0  0  0  0
   12.2073   -3.9871    1.0656 F   0  0  0  0  0  0  0  0  0  0  0  0
   11.3208   -2.4315   -0.1686 F   0  0  0  0  0  0  0  0  0  0  0  0
    9.9790   -4.4752   -1.4978 C   0  0  0  0  0  0  0  0  0  0  0  0
    3.0961    0.6774    1.2495 C   0  0  0  0  0  0  0  0  0  0  0  0
    4.2895    1.3875    1.1046 C   0  0  0  0  0  0  0  0  0  0  0  0
    5.0341    1.7239    2.2301 C   0  0  0  0  0  0  0  0  0  0  0  0
    4.5367    1.4690    3.5191 C   0  0  0  0  0  0  0  0  0  0  0  0
    5.3353    1.8862    4.7003 C   0  0  0  0  0  0  0  0  0  0  0  0
    5.9069    0.8729    5.6528 C   0  0  0  0  0  0  0  0  0  0  0  0
    6.6678    1.0641    6.7026 N   0  0  0  0  0  0  0  0  0  0  0  0
    6.8869   -0.1932    7.2504 C   0  0  0  0  0  0  0  0  0  0  0  0
    7.6329   -0.5253    8.3324 C   0  0  0  0  0  0  0  0  0  0  0  0
    7.6688   -1.9713    8.7374 C   0  0  0  0  0  0  0  0  0  0  0  0
    8.3631   -2.9331    7.9888 C   0  0  0  0  0  0  0  0  0  0  0  0
    8.9780   -2.5863    6.8481 F   0  0  0  0  0  0  0  0  0  0  0  0
    8.3992   -4.2663    8.3919 C   0  0  0  0  0  0  0  0  0  0  0  0
    9.0318   -5.1759    7.6374 F   0  0  0  0  0  0  0  0  0  0  0  0
    7.7712   -4.6574    9.5650 C   0  0  0  0  0  0  0  0  0  0  0  0
    7.8120   -5.9394    9.9537 F   0  0  0  0  0  0  0  0  0  0  0  0
    7.0950   -3.7203   10.3308 C   0  0  0  0  0  0  0  0  0  0  0  0
    6.4975   -4.0938   11.4709 F   0  0  0  0  0  0  0  0  0  0  0  0
    7.0343   -2.3920    9.9167 C   0  0  0  0  0  0  0  0  0  0  0  0
    6.3624   -1.5119   10.6741 F   0  0  0  0  0  0  0  0  0  0  0  0
    8.3775    0.4179    9.1280 C   0  0  0  0  0  0  0  0  0  0  0  0
    9.2042    0.1721   10.2112 C   0  0  0  0  0  0  0  0  0  0  0  0
    9.6733    1.3993   10.6935 C   0  0  0  0  0  0  0  0  0  0  0  0
    9.1774    2.4069    9.8823 C   0  0  0  0  0  0  0  0  0  0  0  0
    8.3825    1.7908    8.9275 N   0  0  0  0  0  0  0  0  0  0  0  0
    9.4087    3.8260    9.9712 C   0  0  0  0  0  0  0  0  0  0  0  0
   10.2986    4.3283   11.0694 C   0  0  0  0  0  0  0  0  0  0  0  0
    9.7840    5.0337   12.1671 C   0  0  0  0  0  0  0  0  0  0  0  0
    8.4719    5.3035   12.2409 F   0  0  0  0  0  0  0  0  0  0  0  0
   10.6251    5.5069   13.1704 C   0  0  0  0  0  0  0  0  0  0  0  0
   10.1192    6.2242   14.1832 F   0  0  0  0  0  0  0  0  0  0  0  0
   11.9878    5.2548   13.1131 C   0  0  0  0  0  0  0  0  0  0  0  0
   12.7960    5.7114   14.0797 F   0  0  0  0  0  0  0  0  0  0  0  0
   12.5144    4.5390   12.0484 C   0  0  0  0  0  0  0  0  0  0  0  0
   13.8295    4.2865   11.9967 F   0  0  0  0  0  0  0  0  0  0  0  0
   11.6802    4.0887   11.0293 C   0  0  0  0  0  0  0  0  0  0  0  0
   12.2205    3.4151   10.0028 F   0  0  0  0  0  0  0  0  0  0  0  0
    8.9013    4.7517    9.1210 C   0  0  0  0  0  0  0  0  0  0  0  0
    8.0781    4.5649    8.0204 N   0  0  0  0  0  0  0  0  0  0  0  0
    7.8451    5.7611    7.5392 C   0  0  0  0  0  0  0  0  0  0  0  0
    7.0318    6.1588    6.3417 C   0  0  0  0  0  0  0  0  0  0  0  0
    6.9406    7.5770    5.9122 C   0  0  0  0  0  0  0  0  0  0  0  0
    8.0537    8.2375    5.3752 C   0  0  0  0  0  0  0  0  0  0  0  0
    9.2289    7.5987    5.2781 F   0  0  0  0  0  0  0  0  0  0  0  0
    7.9711    9.5657    4.9637 C   0  0  0  0  0  0  0  0  0  0  0  0
    9.0591   10.1856    4.4868 F   0  0  0  0  0  0  0  0  0  0  0  0
    6.7679   10.2494    5.0560 C   0  0  0  0  0  0  0  0  0  0  0  0
    6.6866   11.5238    4.6504 F   0  0  0  0  0  0  0  0  0  0  0  0
    5.6504    9.6122    5.5736 C   0  0  0  0  0  0  0  0  0  0  0  0
    4.4821   10.2638    5.6495 F   0  0  0  0  0  0  0  0  0  0  0  0
    5.7391    8.2935    6.0117 C   0  0  0  0  0  0  0  0  0  0  0  0
    4.6449    7.7032    6.5144 F   0  0  0  0  0  0  0  0  0  0  0  0
    6.3910    5.2068    5.6394 C   0  0  0  0  0  0  0  0  0  0  0  0
    5.5675    5.4439    4.4589 C   0  0  0  0  0  0  0  0  0  0  0  0
    5.0647    4.2748    4.0375 C   0  0  0  0  0  0  0  0  0  0  0  0
    5.5779    3.1979    4.8864 C   0  0  0  0  0  0  0  0  0  0  0  0
    6.3344    3.8479    5.8273 N   0  0  0  0  0  0  0  0  0  0  0  0
    8.4809    6.8490    8.2935 C   0  0  0  0  0  0  0  0  0  0  0  0
    9.1429    6.1767    9.2244 C   0  0  0  0  0  0  0  0  0  0  0  0
    6.1598   -1.1401    6.4316 C   0  0  0  0  0  0  0  0  0  0  0  0
    5.5765   -0.5380    5.4039 C   0  0  0  0  0  0  0  0  0  0  0  0
    3.2801    0.8604    3.6564 C   0  0  0  0  0  0  0  0  0  0  0  0
    2.5721    0.4438    2.5248 C   0  0  0  0  0  0  0  0  0  0  0  0
    2.5276   -0.7437   -1.7167 H   0  0  0  0  0  0  0  0  0  0  0  0
    4.9100   -0.6650   -0.0367 H   0  0  0  0  0  0  0  0  0  0  0  0
    4.9159   -0.2142   -1.7545 H   0  0  0  0  0  0  0  0  0  0  0  0
    4.2066   -2.9059   -0.7012 H   0  0  0  0  0  0  0  0  0  0  0  0
    5.7832   -2.4077   -1.3941 H   0  0  0  0  0  0  0  0  0  0  0  0
    3.1908   -2.6206   -2.8214 H   0  0  0  0  0  0  0  0  0  0  0  0
    4.6617   -3.6383   -2.9841 H   0  0  0  0  0  0  0  0  0  0  0  0
    4.3338   -0.8180   -3.8428 H   0  0  0  0  0  0  0  0  0  0  0  0
    4.5201   -2.3001   -4.8449 H   0  0  0  0  0  0  0  0  0  0  0  0
    6.5970   -1.0145   -3.1597 H   0  0  0  0  0  0  0  0  0  0  0  0
    6.4921   -1.1089   -4.9486 H   0  0  0  0  0  0  0  0  0  0  0  0
    6.9439   -3.4124   -3.1228 H   0  0  0  0  0  0  0  0  0  0  0  0
    8.1632   -2.5874   -4.1049 H   0  0  0  0  0  0  0  0  0  0  0  0
    5.8644   -3.8417   -5.3486 H   0  0  0  0  0  0  0  0  0  0  0  0
    9.4323   -3.4569   -7.6840 H   0  0  0  0  0  0  0  0  0  0  0  0
   11.8436   -3.2861   -7.4763 H   0  0  0  0  0  0  0  0  0  0  0  0
   12.9348   -4.0640   -5.4557 H   0  0  0  0  0  0  0  0  0  0  0  0
   11.6327   -5.0264   -3.6602 H   0  0  0  0  0  0  0  0  0  0  0  0
    8.1838   -5.8493   -3.8562 H   0  0  0  0  0  0  0  0  0  0  0  0
    8.1614   -7.2455   -1.9208 H   0  0  0  0  0  0  0  0  0  0  0  0
    8.5706   -7.4343    0.4569 H   0  0  0  0  0  0  0  0  0  0  0  0
    9.8700   -5.7428    1.6063 H   0  0  0  0  0  0  0  0  0  0  0  0
   10.3696   -3.6792   -2.0259 H   0  0  0  0  0  0  0  0  0  0  0  0
    4.6180    1.6618    0.1655 H   0  0  0  0  0  0  0  0  0  0  0  0
    5.9604    2.1647    2.1174 H   0  0  0  0  0  0  0  0  0  0  0  0
    9.4349   -0.7569   10.5968 H   0  0  0  0  0  0  0  0  0  0  0  0
   10.2849    1.5312   11.5142 H   0  0  0  0  0  0  0  0  0  0  0  0
    7.8936    2.2588    8.2125 H   0  0  0  0  0  0  0  0  0  0  0  0
    5.3993    6.3624    4.0195 H   0  0  0  0  0  0  0  0  0  0  0  0
    4.4189    4.1533    3.2417 H   0  0  0  0  0  0  0  0  0  0  0  0
    6.7924    3.3852    6.5658 H   0  0  0  0  0  0  0  0  0  0  0  0
    8.4266    7.8680    8.1394 H   0  0  0  0  0  0  0  0  0  0  0  0
    9.7532    6.6129    9.9331 H   0  0  0  0  0  0  0  0  0  0  0  0
    6.1027   -2.1526    6.6228 H   0  0  0  0  0  0  0  0  0  0  0  0
    5.0324   -0.9520    4.6308 H   0  0  0  0  0  0  0  0  0  0  0  0
    2.8768    0.7197    4.5959 H   0  0  0  0  0  0  0  0  0  0  0  0
    1.6642   -0.0353    2.6306 H   0  0  0  0  0  0  0  0  0  0  0  0
  1  2  2  0  0  0  0
  2  3  1  0  0  0  0
  2 30  1  0  0  0  0
  3  4  1  0  0  0  0
  3 93  1  0  0  0  0
  4  5  1  0  0  0  0
  4 94  1  0  0  0  0
  4 95  1  0  0  0  0
  5  6  1  0  0  0  0
  5 96  1  0  0  0  0
  5 97  1  0  0  0  0
  6  7  1  0  0  0  0
  6 98  1  0  0  0  0
  6 99  1  0  0  0  0
  7  8  1  0  0  0  0
  7100  1  0  0  0  0
  7101  1  0  0  0  0
  8  9  1  0  0  0  0
  8102  1  0  0  0  0
  8103  1  0  0  0  0
  9 10  1  0  0  0  0
  9104  1  0  0  0  0
  9105  1  0  0  0  0
 10 11  1  0  0  0  0
 10106  1  0  0  0  0
 11 12  2  0  0  0  0
 11 13  1  0  0  0  0
 13 14  1  0  0  0  0
 13 18  2  0  0  0  0
 14 15  2  0  0  0  0
 14107  1  0  0  0  0
 15 16  1  0  0  0  0
 15108  1  0  0  0  0
 16 17  2  0  0  0  0
 16109  1  0  0  0  0
 17 18  1  0  0  0  0
 17110  1  0  0  0  0
 18 19  1  0  0  0  0
 19 20  1  0  0  0  0
 19111  1  0  0  0  0
 20 21  1  0  0  0  0
 20 29  2  0  0  0  0
 21 22  2  0  0  0  0
 21112  1  0  0  0  0
 22 23  1  0  0  0  0
 22113  1  0  0  0  0
 23 24  2  0  0  0  0
 23114  1  0  0  0  0
 24 25  1  0  0  0  0
 24 29  1  0  0  0  0
 25 26  1  0  0  0  0
 25 27  1  0  0  0  0
 25 28  1  0  0  0  0
 29115  1  0  0  0  0
 30 31  1  0  0  0  0
 30 92  2  0  0  0  0
 31 32  2  0  0  0  0
 31116  1  0  0  0  0
 32 33  1  0  0  0  0
 32117  1  0  0  0  0
 33 34  1  0  0  0  0
 33 91  2  0  0  0  0
 34 35  1  0  0  0  0
 34 85  2  0  0  0  0
 35 36  2  0  0  0  0
 35 90  1  0  0  0  0
 36 37  1  0  0  0  0
 37 38  2  0  0  0  0
 37 89  1  0  0  0  0
 38 39  1  0  0  0  0
 38 50  1  0  0  0  0
 39 40  1  0  0  0  0
 39 48  2  0  0  0  0
 40 41  1  0  0  0  0
 40 42  2  0  0  0  0
 42 43  1  0  0  0  0
 42 44  1  0  0  0  0
 44 45  1  0  0  0  0
 44 46  2  0  0  0  0
 46 47  1  0  0  0  0
 46 48  1  0  0  0  0
 48 49  1  0  0  0  0
 50 51  2  0  0  0  0
 50 54  1  0  0  0  0
 51 52  1  0  0  0  0
 51118  1  0  0  0  0
 52 53  2  0  0  0  0
 52119  1  0  0  0  0
 53 54  1  0  0  0  0
 53 55  1  0  0  0  0
 54120  1  0  0  0  0
 55 56  1  0  0  0  0
 55 67  2  0  0  0  0
 56 57  1  0  0  0  0
 56 65  2  0  0  0  0
 57 58  1  0  0  0  0
 57 59  2  0  0  0  0
 59 60  1  0  0  0  0
 59 61  1  0  0  0  0
 61 62  1  0  0  0  0
 61 63  2  0  0  0  0
 63 64  1  0  0  0  0
 63 65  1  0  0  0  0
 65 66  1  0  0  0  0
 67 68  1  0  0  0  0
 67 88  1  0  0  0  0
 68 69  2  0  0  0  0
 69 70  1  0  0  0  0
 69 87  1  0  0  0  0
 70 71  1  0  0  0  0
 70 82  2  0  0  0  0
 71 72  1  0  0  0  0
 71 80  2  0  0  0  0
 72 73  1  0  0  0  0
 72 74  2  0  0  0  0
 74 75  1  0  0  0  0
 74 76  1  0  0  0  0
 76 77  1  0  0  0  0
 76 78  2  0  0  0  0
 78 79  1  0  0  0  0
 78 80  1  0  0  0  0
 80 81  1  0  0  0  0
 82 83  1  0  0  0  0
 82 86  1  0  0  0  0
 83 84  2  0  0  0  0
 83121  1  0  0  0  0
 84 85  1  0  0  0  0
 84122  1  0  0  0  0
 85 86  1  0  0  0  0
 86123  1  0  0  0  0
 87 88  2  0  0  0  0
 87124  1  0  0  0  0
 88125  1  0  0  0  0
 89 90  2  0  0  0  0
 89126  1  0  0  0  0
 90127  1  0  0  0  0
 91 92  1  0  0  0  0
 91128  1  0  0  0  0
 92129  1  0  0  0  0
M  END
$$$$
