ligands/8-CHEMBL75435
 OpenBabel10182222423D

132142  0  0  1  0  0  0  0  0999 V2000
    1.0832    2.7669    0.1114 C   0  0  0  0  0  0  0  0  0  0  0  0
    0.5848    1.3542    0.4954 C   0  0  2  0  0  0  0  0  0  0  0  0
    1.2234    0.3613   -0.4989 C   0  0  0  0  0  0  0  0  0  0  0  0
    2.3062    0.6537   -1.0338 O   0  0  0  0  0  0  0  0  0  0  0  0
    0.8135   -0.8906   -0.8006 N   0  0  0  0  0  0  0  0  0  0  0  0
   -0.3231   -1.7252   -0.4717 C   0  0  0  0  0  0  0  0  0  0  0  0
   -1.5045   -1.4970   -1.4169 C   0  0  0  0  0  0  0  0  0  0  0  0
   -1.7002   -2.6493   -2.4159 C   0  0  0  0  0  0  0  0  0  0  0  0
   -2.1763   -3.9690   -1.7852 C   0  0  0  0  0  0  0  0  0  0  0  0
   -3.6305   -3.9428   -1.3064 C   0  0  0  0  0  0  0  0  0  0  0  0
   -4.6495   -4.0833   -2.4314 C   0  0  0  0  0  0  0  0  0  0  0  0
   -4.8084   -5.4703   -2.8440 N   0  0  0  0  0  0  0  0  0  0  0  0
   -5.6860   -6.4505   -2.4683 C   0  0  0  0  0  0  0  0  0  0  0  0
   -5.4273   -7.6158   -2.8077 O   0  0  0  0  0  0  0  0  0  0  0  0
   -6.9189   -6.2008   -1.6777 C   0  0  0  0  0  0  0  0  0  0  0  0
   -7.4261   -7.2497   -0.8965 C   0  0  0  0  0  0  0  0  0  0  0  0
   -8.6421   -7.1134   -0.2153 C   0  0  0  0  0  0  0  0  0  0  0  0
   -9.3476   -5.9017   -0.2492 C   0  0  0  0  0  0  0  0  0  0  0  0
  -10.6693   -5.7551    0.4252 C   0  0  0  0  0  0  0  0  0  0  0  0
  -11.9051   -5.4373   -0.3831 C   0  0  0  0  0  0  0  0  0  0  0  0
  -13.1299   -5.2059    0.0243 N   0  0  0  0  0  0  0  0  0  0  0  0
  -13.8616   -4.9035   -1.1183 C   0  0  0  0  0  0  0  0  0  0  0  0
  -15.1886   -4.6561   -1.2394 C   0  0  0  0  0  0  0  0  0  0  0  0
  -15.7192   -4.3551   -2.6119 C   0  0  0  0  0  0  0  0  0  0  0  0
  -15.8157   -5.3523   -3.5944 C   0  0  0  0  0  0  0  0  0  0  0  0
  -15.3762   -6.5941   -3.3407 F   0  0  0  0  0  0  0  0  0  0  0  0
  -16.3326   -5.0688   -4.8559 C   0  0  0  0  0  0  0  0  0  0  0  0
  -16.3743   -6.0273   -5.7917 F   0  0  0  0  0  0  0  0  0  0  0  0
  -16.7942   -3.7946   -5.1488 C   0  0  0  0  0  0  0  0  0  0  0  0
  -17.3010   -3.5261   -6.3601 F   0  0  0  0  0  0  0  0  0  0  0  0
  -16.7253   -2.7975   -4.1875 C   0  0  0  0  0  0  0  0  0  0  0  0
  -17.1831   -1.5687   -4.4654 F   0  0  0  0  0  0  0  0  0  0  0  0
  -16.1823   -3.0704   -2.9341 C   0  0  0  0  0  0  0  0  0  0  0  0
  -16.1204   -2.0818   -2.0295 F   0  0  0  0  0  0  0  0  0  0  0  0
  -16.1243   -4.6847   -0.1464 C   0  0  0  0  0  0  0  0  0  0  0  0
  -17.4955   -4.4955   -0.1766 C   0  0  0  0  0  0  0  0  0  0  0  0
  -17.9831   -4.6099    1.1298 C   0  0  0  0  0  0  0  0  0  0  0  0
  -16.9204   -4.9058    1.9672 C   0  0  0  0  0  0  0  0  0  0  0  0
  -15.7846   -4.9357    1.1740 N   0  0  0  0  0  0  0  0  0  0  0  0
  -16.9361   -5.1473    3.3855 C   0  0  0  0  0  0  0  0  0  0  0  0
  -18.2588   -5.1067    4.0911 C   0  0  0  0  0  0  0  0  0  0  0  0
  -18.6020   -4.0462    4.9425 C   0  0  0  0  0  0  0  0  0  0  0  0
  -17.7279   -3.0545    5.1711 F   0  0  0  0  0  0  0  0  0  0  0  0
  -19.8302   -4.0243    5.5971 C   0  0  0  0  0  0  0  0  0  0  0  0
  -20.1176   -3.0267    6.4447 F   0  0  0  0  0  0  0  0  0  0  0  0
  -20.7490   -5.0420    5.3878 C   0  0  0  0  0  0  0  0  0  0  0  0
  -21.9309   -5.0190    6.0190 F   0  0  0  0  0  0  0  0  0  0  0  0
  -20.4389   -6.0883    4.5319 C   0  0  0  0  0  0  0  0  0  0  0  0
  -21.3302   -7.0668    4.3210 F   0  0  0  0  0  0  0  0  0  0  0  0
  -19.2013   -6.1272    3.8962 C   0  0  0  0  0  0  0  0  0  0  0  0
  -18.9231   -7.1595    3.0861 F   0  0  0  0  0  0  0  0  0  0  0  0
  -15.8429   -5.4228    4.1375 C   0  0  0  0  0  0  0  0  0  0  0  0
  -14.5162   -5.5300    3.7437 N   0  0  0  0  0  0  0  0  0  0  0  0
  -13.8349   -5.7732    4.8363 C   0  0  0  0  0  0  0  0  0  0  0  0
  -12.3569   -6.0012    5.0050 C   0  0  0  0  0  0  0  0  0  0  0  0
  -11.7801   -6.2511    6.3518 C   0  0  0  0  0  0  0  0  0  0  0  0
  -12.0495   -7.4424    7.0402 C   0  0  0  0  0  0  0  0  0  0  0  0
  -12.8424   -8.3712    6.4855 F   0  0  0  0  0  0  0  0  0  0  0  0
  -11.5474   -7.6633    8.3208 C   0  0  0  0  0  0  0  0  0  0  0  0
  -11.8635   -8.7881    8.9770 F   0  0  0  0  0  0  0  0  0  0  0  0
  -10.7397   -6.7118    8.9247 C   0  0  0  0  0  0  0  0  0  0  0  0
  -10.2578   -6.9243   10.1568 F   0  0  0  0  0  0  0  0  0  0  0  0
  -10.4411   -5.5352    8.2540 C   0  0  0  0  0  0  0  0  0  0  0  0
   -9.6521   -4.6185    8.8305 F   0  0  0  0  0  0  0  0  0  0  0  0
  -10.9663   -5.3009    6.9848 C   0  0  0  0  0  0  0  0  0  0  0  0
  -10.6775   -4.1463    6.3674 F   0  0  0  0  0  0  0  0  0  0  0  0
  -11.5598   -6.0025    3.9193 C   0  0  0  0  0  0  0  0  0  0  0  0
  -10.1172   -6.2261    3.9294 C   0  0  0  0  0  0  0  0  0  0  0  0
   -9.6502   -6.1361    2.6736 C   0  0  0  0  0  0  0  0  0  0  0  0
  -10.7669   -5.8807    1.7634 C   0  0  0  0  0  0  0  0  0  0  0  0
  -11.8597   -5.8063    2.5930 N   0  0  0  0  0  0  0  0  0  0  0  0
  -14.6568   -5.8311    6.0541 C   0  0  0  0  0  0  0  0  0  0  0  0
  -15.8761   -5.6554    5.5659 C   0  0  0  0  0  0  0  0  0  0  0  0
  -12.9374   -4.9291   -2.2300 C   0  0  0  0  0  0  0  0  0  0  0  0
  -11.7377   -5.3347   -1.8419 C   0  0  0  0  0  0  0  0  0  0  0  0
   -8.8179   -4.8453   -1.0019 C   0  0  0  0  0  0  0  0  0  0  0  0
   -7.6599   -5.0214   -1.7663 C   0  0  0  0  0  0  0  0  0  0  0  0
   -0.9218    1.3362    0.7413 C   0  0  0  0  0  0  0  0  0  0  0  0
   -1.8102    2.2707    0.1898 C   0  0  0  0  0  0  0  0  0  0  0  0
   -3.1690    2.2561    0.5230 C   0  0  0  0  0  0  0  0  0  0  0  0
   -3.6796    1.2626    1.3581 C   0  0  0  0  0  0  0  0  0  0  0  0
   -2.8268    0.2996    1.9023 C   0  0  0  0  0  0  0  0  0  0  0  0
   -3.4386   -0.8525    2.6377 C   0  0  0  0  0  0  0  0  0  0  0  0
   -4.6225   -0.8254    2.9622 O   0  0  0  0  0  0  0  0  0  0  0  0
   -2.6963   -2.1219    2.8202 C   0  0  0  0  0  0  0  0  0  0  0  0
   -3.1793   -3.2648    2.1737 C   0  0  0  0  0  0  0  0  0  0  0  0
   -2.4544   -4.4562    2.2283 C   0  0  0  0  0  0  0  0  0  0  0  0
   -1.2571   -4.5088    2.9405 C   0  0  0  0  0  0  0  0  0  0  0  0
   -0.8045   -3.3841    3.6319 C   0  0  0  0  0  0  0  0  0  0  0  0
   -1.5338   -2.1941    3.5904 C   0  0  0  0  0  0  0  0  0  0  0  0
   -1.4516    0.4015    1.6489 C   0  0  0  0  0  0  0  0  0  0  0  0
    0.6613    3.4879    0.7800 H   0  0  0  0  0  0  0  0  0  0  0  0
    0.7826    2.9910   -0.8908 H   0  0  0  0  0  0  0  0  0  0  0  0
    2.1506    2.7992    0.1793 H   0  0  0  0  0  0  0  0  0  0  0  0
    0.9140    1.0151    1.4553 H   0  0  0  0  0  0  0  0  0  0  0  0
    1.4487   -1.3521   -1.3946 H   0  0  0  0  0  0  0  0  0  0  0  0
   -0.6345   -1.5041    0.5278 H   0  0  0  0  0  0  0  0  0  0  0  0
   -0.0184   -2.7462   -0.5694 H   0  0  0  0  0  0  0  0  0  0  0  0
   -1.3339   -0.5943   -1.9655 H   0  0  0  0  0  0  0  0  0  0  0  0
   -2.3890   -1.4366   -0.8179 H   0  0  0  0  0  0  0  0  0  0  0  0
   -0.7653   -2.8306   -2.9037 H   0  0  0  0  0  0  0  0  0  0  0  0
   -2.4716   -2.3392   -3.0895 H   0  0  0  0  0  0  0  0  0  0  0  0
   -1.5496   -4.1856   -0.9454 H   0  0  0  0  0  0  0  0  0  0  0  0
   -2.1157   -4.7160   -2.5488 H   0  0  0  0  0  0  0  0  0  0  0  0
   -3.8049   -3.0127   -0.8071 H   0  0  0  0  0  0  0  0  0  0  0  0
   -3.7615   -4.7848   -0.6593 H   0  0  0  0  0  0  0  0  0  0  0  0
   -4.3207   -3.5073   -3.2710 H   0  0  0  0  0  0  0  0  0  0  0  0
   -5.5940   -3.7321   -2.0716 H   0  0  0  0  0  0  0  0  0  0  0  0
   -4.1587   -5.7588   -3.5251 H   0  0  0  0  0  0  0  0  0  0  0  0
   -6.8967   -8.1325   -0.8229 H   0  0  0  0  0  0  0  0  0  0  0  0
   -9.0225   -7.9118    0.3165 H   0  0  0  0  0  0  0  0  0  0  0  0
  -18.0609   -4.3031   -1.0182 H   0  0  0  0  0  0  0  0  0  0  0  0
  -18.9666   -4.4936    1.4199 H   0  0  0  0  0  0  0  0  0  0  0  0
  -14.8719   -5.1094    1.4998 H   0  0  0  0  0  0  0  0  0  0  0  0
   -9.5476   -6.4220    4.7674 H   0  0  0  0  0  0  0  0  0  0  0  0
   -8.6612   -6.2318    2.3949 H   0  0  0  0  0  0  0  0  0  0  0  0
  -12.7718   -5.6291    2.2676 H   0  0  0  0  0  0  0  0  0  0  0  0
  -14.3614   -5.9718    7.0329 H   0  0  0  0  0  0  0  0  0  0  0  0
  -16.7389   -5.6811    6.1316 H   0  0  0  0  0  0  0  0  0  0  0  0
  -13.1804   -4.6661   -3.1979 H   0  0  0  0  0  0  0  0  0  0  0  0
  -10.9014   -5.5287   -2.4146 H   0  0  0  0  0  0  0  0  0  0  0  0
   -9.2877   -3.9265   -0.9922 H   0  0  0  0  0  0  0  0  0  0  0  0
   -7.3499   -4.2707   -2.4030 H   0  0  0  0  0  0  0  0  0  0  0  0
   -1.4565    2.9796   -0.4716 H   0  0  0  0  0  0  0  0  0  0  0  0
   -3.7969    2.9845    0.1487 H   0  0  0  0  0  0  0  0  0  0  0  0
   -4.6885    1.2390    1.5741 H   0  0  0  0  0  0  0  0  0  0  0  0
   -4.0715   -3.2269    1.6565 H   0  0  0  0  0  0  0  0  0  0  0  0
   -2.8041   -5.2968    1.7423 H   0  0  0  0  0  0  0  0  0  0  0  0
   -0.7048   -5.3804    2.9565 H   0  0  0  0  0  0  0  0  0  0  0  0
    0.0715   -3.4321    4.1753 H   0  0  0  0  0  0  0  0  0  0  0  0
   -1.2152   -1.3718    4.1264 H   0  0  0  0  0  0  0  0  0  0  0  0
   -0.8055   -0.2315    2.1457 H   0  0  0  0  0  0  0  0  0  0  0  0
  1 92  1  0  0  0  0
  1 93  1  0  0  0  0
  1 94  1  0  0  0  0
  2 78  1  0  0  0  0
  2  3  1  0  0  0  0
  2  1  1  0  0  0  0
  2 95  1  1  0  0  0
  3  4  2  0  0  0  0
  3  5  1  0  0  0  0
  5  6  1  0  0  0  0
  5 96  1  0  0  0  0
  6  7  1  0  0  0  0
  6 97  1  0  0  0  0
  6 98  1  0  0  0  0
  7  8  1  0  0  0  0
  7 99  1  0  0  0  0
  7100  1  0  0  0  0
  8  9  1  0  0  0  0
  8101  1  0  0  0  0
  8102  1  0  0  0  0
  9 10  1  0  0  0  0
  9103  1  0  0  0  0
  9104  1  0  0  0  0
 10 11  1  0  0  0  0
 10105  1  0  0  0  0
 10106  1  0  0  0  0
 11 12  1  0  0  0  0
 11107  1  0  0  0  0
 11108  1  0  0  0  0
 12 13  1  0  0  0  0
 12109  1  0  0  0  0
 13 14  2  0  0  0  0
 13 15  1  0  0  0  0
 15 16  1  0  0  0  0
 15 77  2  0  0  0  0
 16 17  2  0  0  0  0
 16110  1  0  0  0  0
 17 18  1  0  0  0  0
 17111  1  0  0  0  0
 18 19  1  0  0  0  0
 18 76  2  0  0  0  0
 19 20  1  0  0  0  0
 19 70  2  0  0  0  0
 20 21  2  0  0  0  0
 20 75  1  0  0  0  0
 21 22  1  0  0  0  0
 22 23  2  0  0  0  0
 22 74  1  0  0  0  0
 23 24  1  0  0  0  0
 23 35  1  0  0  0  0
 24 25  1  0  0  0  0
 24 33  2  0  0  0  0
 25 26  1  0  0  0  0
 25 27  2  0  0  0  0
 27 28  1  0  0  0  0
 27 29  1  0  0  0  0
 29 30  1  0  0  0  0
 29 31  2  0  0  0  0
 31 32  1  0  0  0  0
 31 33  1  0  0  0  0
 33 34  1  0  0  0  0
 35 36  2  0  0  0  0
 35 39  1  0  0  0  0
 36 37  1  0  0  0  0
 36112  1  0  0  0  0
 37 38  2  0  0  0  0
 37113  1  0  0  0  0
 38 39  1  0  0  0  0
 38 40  1  0  0  0  0
 39114  1  0  0  0  0
 40 41  1  0  0  0  0
 40 52  2  0  0  0  0
 41 42  1  0  0  0  0
 41 50  2  0  0  0  0
 42 43  1  0  0  0  0
 42 44  2  0  0  0  0
 44 45  1  0  0  0  0
 44 46  1  0  0  0  0
 46 47  1  0  0  0  0
 46 48  2  0  0  0  0
 48 49  1  0  0  0  0
 48 50  1  0  0  0  0
 50 51  1  0  0  0  0
 52 53  1  0  0  0  0
 52 73  1  0  0  0  0
 53 54  2  0  0  0  0
 54 55  1  0  0  0  0
 54 72  1  0  0  0  0
 55 56  1  0  0  0  0
 55 67  2  0  0  0  0
 56 57  1  0  0  0  0
 56 65  2  0  0  0  0
 57 58  1  0  0  0  0
 57 59  2  0  0  0  0
 59 60  1  0  0  0  0
 59 61  1  0  0  0  0
 61 62  1  0  0  0  0
 61 63  2  0  0  0  0
 63 64  1  0  0  0  0
 63 65  1  0  0  0  0
 65 66  1  0  0  0  0
 67 68  1  0  0  0  0
 67 71  1  0  0  0  0
 68 69  2  0  0  0  0
 68115  1  0  0  0  0
 69 70  1  0  0  0  0
 69116  1  0  0  0  0
 70 71  1  0  0  0  0
 71117  1  0  0  0  0
 72 73  2  0  0  0  0
 72118  1  0  0  0  0
 73119  1  0  0  0  0
 74 75  2  0  0  0  0
 74120  1  0  0  0  0
 75121  1  0  0  0  0
 76 77  1  0  0  0  0
 76122  1  0  0  0  0
 77123  1  0  0  0  0
 78 79  1  0  0  0  0
 78 91  2  0  0  0  0
 79 80  2  0  0  0  0
 79124  1  0  0  0  0
 80 81  1  0  0  0  0
 80125  1  0  0  0  0
 81 82  2  0  0  0  0
 81126  1  0  0  0  0
 82 83  1  0  0  0  0
 82 91  1  0  0  0  0
 83 84  2  0  0  0  0
 83 85  1  0  0  0  0
 85 86  1  0  0  0  0
 85 90  2  0  0  0  0
 86 87  2  0  0  0  0
 86127  1  0  0  0  0
 87 88  1  0  0  0  0
 87128  1  0  0  0  0
 88 89  2  0  0  0  0
 88129  1  0  0  0  0
 89 90  1  0  0  0  0
 89130  1  0  0  0  0
 90131  1  0  0  0  0
 91132  1  0  0  0  0
M  END
$$$$
