ligands/9-CHEMBL1316
 OpenBabel10182222423D

130141  0  0  0  0  0  0  0  0999 V2000
    1.0217   -0.2204   -0.1272 C   0  0  0  0  0  0  0  0  0  0  0  0
    0.2560    1.1138   -0.1106 C   0  0  1  0  0  0  0  0  0  0  0  0
    0.7343    2.0249   -1.2640 C   0  0  0  0  0  0  0  0  0  0  0  0
    0.0064    2.3950   -2.1875 O   0  0  0  0  0  0  0  0  0  0  0  0
    2.0143    2.5130   -1.2780 N   0  0  0  0  0  0  0  0  0  0  0  0
    3.1705    2.1687   -0.4710 C   0  0  0  0  0  0  0  0  0  0  0  0
    4.0701    1.1666   -1.2098 C   0  0  0  0  0  0  0  0  0  0  0  0
    4.8808    1.7695   -2.3608 C   0  0  0  0  0  0  0  0  0  0  0  0
    5.9091    2.8223   -1.9438 C   0  0  0  0  0  0  0  0  0  0  0  0
    6.9388    2.3543   -0.9108 C   0  0  0  0  0  0  0  0  0  0  0  0
    7.7950    1.1659   -1.3442 C   0  0  0  0  0  0  0  0  0  0  0  0
    8.6014    1.4702   -2.5142 N   0  0  0  0  0  0  0  0  0  0  0  0
    9.9543    1.3594   -2.7092 C   0  0  0  0  0  0  0  0  0  0  0  0
   10.4681    1.8580   -3.7059 O   0  0  0  0  0  0  0  0  0  0  0  0
   10.8069    0.6571   -1.7239 C   0  0  0  0  0  0  0  0  0  0  0  0
   12.0575    1.2020   -1.4183 C   0  0  0  0  0  0  0  0  0  0  0  0
   12.8894    0.5632   -0.4968 C   0  0  0  0  0  0  0  0  0  0  0  0
   12.4649   -0.6070    0.1541 C   0  0  0  0  0  0  0  0  0  0  0  0
   13.3237   -1.2518    1.1806 C   0  0  0  0  0  0  0  0  0  0  0  0
   13.9164   -2.6124    0.9404 C   0  0  0  0  0  0  0  0  0  0  0  0
   14.6873   -3.3284    1.7213 N   0  0  0  0  0  0  0  0  0  0  0  0
   14.9336   -4.5087    1.0325 C   0  0  0  0  0  0  0  0  0  0  0  0
   15.7366   -5.5420    1.3838 C   0  0  0  0  0  0  0  0  0  0  0  0
   15.8555   -6.6865    0.4192 C   0  0  0  0  0  0  0  0  0  0  0  0
   16.5438   -6.5472   -0.7960 C   0  0  0  0  0  0  0  0  0  0  0  0
   17.0632   -5.3604   -1.1450 F   0  0  0  0  0  0  0  0  0  0  0  0
   16.6732   -7.6196   -1.6744 C   0  0  0  0  0  0  0  0  0  0  0  0
   17.2986   -7.4508   -2.8477 F   0  0  0  0  0  0  0  0  0  0  0  0
   16.1473   -8.8586   -1.3418 C   0  0  0  0  0  0  0  0  0  0  0  0
   16.2813   -9.8927   -2.1836 F   0  0  0  0  0  0  0  0  0  0  0  0
   15.4776   -9.0240   -0.1387 C   0  0  0  0  0  0  0  0  0  0  0  0
   14.9796  -10.2243    0.1894 F   0  0  0  0  0  0  0  0  0  0  0  0
   15.3218   -7.9460    0.7296 C   0  0  0  0  0  0  0  0  0  0  0  0
   14.6594   -8.1355    1.8806 F   0  0  0  0  0  0  0  0  0  0  0  0
   16.4928   -5.6048    2.6078 C   0  0  0  0  0  0  0  0  0  0  0  0
   17.3564   -6.5963    3.0411 C   0  0  0  0  0  0  0  0  0  0  0  0
   17.8361   -6.2392    4.3062 C   0  0  0  0  0  0  0  0  0  0  0  0
   17.3066   -5.0040    4.6416 C   0  0  0  0  0  0  0  0  0  0  0  0
   16.4763   -4.6314    3.5959 N   0  0  0  0  0  0  0  0  0  0  0  0
   17.5427   -4.2179    5.8248 C   0  0  0  0  0  0  0  0  0  0  0  0
   18.5023   -4.7532    6.8473 C   0  0  0  0  0  0  0  0  0  0  0  0
   18.0611   -5.2227    8.0935 C   0  0  0  0  0  0  0  0  0  0  0  0
   16.7585   -5.1728    8.4108 F   0  0  0  0  0  0  0  0  0  0  0  0
   18.9647   -5.7005    9.0387 C   0  0  0  0  0  0  0  0  0  0  0  0
   18.5266   -6.0916   10.2433 F   0  0  0  0  0  0  0  0  0  0  0  0
   20.3187   -5.7530    8.7432 C   0  0  0  0  0  0  0  0  0  0  0  0
   21.1869   -6.2130    9.6545 F   0  0  0  0  0  0  0  0  0  0  0  0
   20.7738   -5.3187    7.5073 C   0  0  0  0  0  0  0  0  0  0  0  0
   22.0805   -5.3798    7.2163 F   0  0  0  0  0  0  0  0  0  0  0  0
   19.8765   -4.8125    6.5711 C   0  0  0  0  0  0  0  0  0  0  0  0
   20.3489   -4.3825    5.3916 F   0  0  0  0  0  0  0  0  0  0  0  0
   16.9756   -3.0140    6.0826 C   0  0  0  0  0  0  0  0  0  0  0  0
   16.0749   -2.2898    5.3140 N   0  0  0  0  0  0  0  0  0  0  0  0
   15.8019   -1.2085    6.0026 C   0  0  0  0  0  0  0  0  0  0  0  0
   14.9075   -0.0536    5.6427 C   0  0  0  0  0  0  0  0  0  0  0  0
   14.7165    1.0824    6.5815 C   0  0  0  0  0  0  0  0  0  0  0  0
   15.7643    1.9685    6.8679 C   0  0  0  0  0  0  0  0  0  0  0  0
   16.9645    1.7930    6.2956 F   0  0  0  0  0  0  0  0  0  0  0  0
   15.5978    3.0091    7.7792 C   0  0  0  0  0  0  0  0  0  0  0  0
   16.6311    3.8095    8.0742 F   0  0  0  0  0  0  0  0  0  0  0  0
   14.3711    3.2048    8.3955 C   0  0  0  0  0  0  0  0  0  0  0  0
   14.2112    4.2060    9.2714 F   0  0  0  0  0  0  0  0  0  0  0  0
   13.3129    2.3556    8.1092 C   0  0  0  0  0  0  0  0  0  0  0  0
   12.1216    2.5501    8.6909 F   0  0  0  0  0  0  0  0  0  0  0  0
   13.4870    1.2967    7.2210 C   0  0  0  0  0  0  0  0  0  0  0  0
   12.4508    0.4815    6.9754 F   0  0  0  0  0  0  0  0  0  0  0  0
   14.2932   -0.0469    4.4447 C   0  0  0  0  0  0  0  0  0  0  0  0
   13.4310    1.0186    3.9425 C   0  0  0  0  0  0  0  0  0  0  0  0
   12.9827    0.6807    2.7231 C   0  0  0  0  0  0  0  0  0  0  0  0
   13.5478   -0.6162    2.3470 C   0  0  0  0  0  0  0  0  0  0  0  0
   14.3071   -0.9751    3.4326 N   0  0  0  0  0  0  0  0  0  0  0  0
   16.4866   -1.1353    7.3007 C   0  0  0  0  0  0  0  0  0  0  0  0
   17.2234   -2.2364    7.2787 C   0  0  0  0  0  0  0  0  0  0  0  0
   14.1815   -4.4413   -0.2021 C   0  0  0  0  0  0  0  0  0  0  0  0
   13.5836   -3.2658   -0.3346 C   0  0  0  0  0  0  0  0  0  0  0  0
   11.2163   -1.1553   -0.1739 C   0  0  0  0  0  0  0  0  0  0  0  0
   10.4129   -0.5516   -1.1419 C   0  0  0  0  0  0  0  0  0  0  0  0
   -1.2719    0.8835   -0.0499 C   0  0  0  0  0  0  0  0  0  0  0  0
   -2.1881    1.9304   -0.2500 C   0  0  0  0  0  0  0  0  0  0  0  0
   -3.5829    1.7349   -0.1490 C   0  0  0  0  0  0  0  0  0  0  0  0
   -4.0865    0.4713    0.2222 C   0  0  0  0  0  0  0  0  0  0  0  0
   -3.1681   -0.5438    0.4513 C   0  0  0  0  0  0  0  0  0  0  0  0
   -1.7896   -0.3777    0.3035 C   0  0  0  0  0  0  0  0  0  0  0  0
   -3.8644   -1.6576    0.8423 N   0  0  0  0  0  0  0  0  0  0  0  0
   -5.2083   -1.3966    0.9017 C   0  0  0  0  0  0  0  0  0  0  0  0
   -6.2563   -2.2270    1.3099 C   0  0  0  0  0  0  0  0  0  0  0  0
   -7.5491   -1.7092    1.2337 C   0  0  0  0  0  0  0  0  0  0  0  0
   -7.7695   -0.4190    0.7561 C   0  0  0  0  0  0  0  0  0  0  0  0
   -9.3855    0.1682    0.6425 Cl  0  0  0  0  0  0  0  0  0  0  0  0
   -6.7075    0.4098    0.3720 C   0  0  0  0  0  0  0  0  0  0  0  0
   -5.3893   -0.0838    0.4609 C   0  0  0  0  0  0  0  0  0  0  0  0
    2.0733   -0.0276   -0.1693 H   0  0  0  0  0  0  0  0  0  0  0  0
    0.7287   -0.7891   -0.9849 H   0  0  0  0  0  0  0  0  0  0  0  0
    0.7956   -0.7725    0.7611 H   0  0  0  0  0  0  0  0  0  0  0  0
    0.4826    1.6483    0.7883 H   0  0  0  0  0  0  0  0  0  0  0  0
    2.1773    3.2155   -1.9482 H   0  0  0  0  0  0  0  0  0  0  0  0
    2.8397    1.7322    0.4482 H   0  0  0  0  0  0  0  0  0  0  0  0
    3.7327    3.0585   -0.2787 H   0  0  0  0  0  0  0  0  0  0  0  0
    3.4497    0.3912   -1.6082 H   0  0  0  0  0  0  0  0  0  0  0  0
    4.7792    0.8083   -0.4931 H   0  0  0  0  0  0  0  0  0  0  0  0
    4.1968    2.2262   -3.0453 H   0  0  0  0  0  0  0  0  0  0  0  0
    5.4361    0.9624   -2.7910 H   0  0  0  0  0  0  0  0  0  0  0  0
    5.3806    3.6558   -1.5304 H   0  0  0  0  0  0  0  0  0  0  0  0
    6.4628    3.0631   -2.8272 H   0  0  0  0  0  0  0  0  0  0  0  0
    6.4135    2.0777   -0.0206 H   0  0  0  0  0  0  0  0  0  0  0  0
    7.6134    3.1727   -0.7696 H   0  0  0  0  0  0  0  0  0  0  0  0
    7.1513    0.3425   -1.5736 H   0  0  0  0  0  0  0  0  0  0  0  0
    8.4589    0.9276   -0.5396 H   0  0  0  0  0  0  0  0  0  0  0  0
    8.0971    1.8093   -3.2888 H   0  0  0  0  0  0  0  0  0  0  0  0
   12.3655    2.0755   -1.8734 H   0  0  0  0  0  0  0  0  0  0  0  0
   13.8227    0.9534   -0.2924 H   0  0  0  0  0  0  0  0  0  0  0  0
   17.6040   -7.4522    2.5203 H   0  0  0  0  0  0  0  0  0  0  0  0
   18.4756   -6.8006    4.8900 H   0  0  0  0  0  0  0  0  0  0  0  0
   15.9522   -3.7988    3.5599 H   0  0  0  0  0  0  0  0  0  0  0  0
   13.2028    1.8911    4.4441 H   0  0  0  0  0  0  0  0  0  0  0  0
   12.3420    1.2451    2.1434 H   0  0  0  0  0  0  0  0  0  0  0  0
   14.8136   -1.8179    3.4811 H   0  0  0  0  0  0  0  0  0  0  0  0
   16.4130   -0.4153    8.0364 H   0  0  0  0  0  0  0  0  0  0  0  0
   17.8892   -2.5056    8.0198 H   0  0  0  0  0  0  0  0  0  0  0  0
   14.1189   -5.2084   -0.8896 H   0  0  0  0  0  0  0  0  0  0  0  0
   13.0291   -2.9035   -1.1260 H   0  0  0  0  0  0  0  0  0  0  0  0
   10.8899   -2.0101    0.3034 H   0  0  0  0  0  0  0  0  0  0  0  0
    9.5274   -0.9975   -1.4284 H   0  0  0  0  0  0  0  0  0  0  0  0
   -1.8303    2.8712   -0.4778 H   0  0  0  0  0  0  0  0  0  0  0  0
   -4.2309    2.5135   -0.3460 H   0  0  0  0  0  0  0  0  0  0  0  0
   -1.1527   -1.1759    0.4526 H   0  0  0  0  0  0  0  0  0  0  0  0
   -3.4544   -2.5277    1.0522 H   0  0  0  0  0  0  0  0  0  0  0  0
   -6.0805   -3.1841    1.6536 H   0  0  0  0  0  0  0  0  0  0  0  0
   -8.3498   -2.2870    1.5338 H   0  0  0  0  0  0  0  0  0  0  0  0
   -6.8868    1.3666    0.0293 H   0  0  0  0  0  0  0  0  0  0  0  0
  1  2  1  0  0  0  0
  1 92  1  0  0  0  0
  1 93  1  0  0  0  0
  1 94  1  0  0  0  0
  2  3  1  0  0  0  0
  2 78  1  0  0  0  0
  2 95  1  1  0  0  0
  3  4  2  0  0  0  0
  3  5  1  0  0  0  0
  5  6  1  0  0  0  0
  5 96  1  0  0  0  0
  6  7  1  0  0  0  0
  6 97  1  0  0  0  0
  6 98  1  0  0  0  0
  7  8  1  0  0  0  0
  7 99  1  0  0  0  0
  7100  1  0  0  0  0
  8  9  1  0  0  0  0
  8101  1  0  0  0  0
  8102  1  0  0  0  0
  9 10  1  0  0  0  0
  9103  1  0  0  0  0
  9104  1  0  0  0  0
 10 11  1  0  0  0  0
 10105  1  0  0  0  0
 10106  1  0  0  0  0
 11 12  1  0  0  0  0
 11107  1  0  0  0  0
 11108  1  0  0  0  0
 12 13  1  0  0  0  0
 12109  1  0  0  0  0
 13 14  2  0  0  0  0
 13 15  1  0  0  0  0
 15 16  1  0  0  0  0
 15 77  2  0  0  0  0
 16 17  2  0  0  0  0
 16110  1  0  0  0  0
 17 18  1  0  0  0  0
 17111  1  0  0  0  0
 18 19  1  0  0  0  0
 18 76  2  0  0  0  0
 19 20  1  0  0  0  0
 19 70  2  0  0  0  0
 20 21  2  0  0  0  0
 20 75  1  0  0  0  0
 21 22  1  0  0  0  0
 22 23  2  0  0  0  0
 22 74  1  0  0  0  0
 23 24  1  0  0  0  0
 23 35  1  0  0  0  0
 24 25  1  0  0  0  0
 24 33  2  0  0  0  0
 25 26  1  0  0  0  0
 25 27  2  0  0  0  0
 27 28  1  0  0  0  0
 27 29  1  0  0  0  0
 29 30  1  0  0  0  0
 29 31  2  0  0  0  0
 31 32  1  0  0  0  0
 31 33  1  0  0  0  0
 33 34  1  0  0  0  0
 35 36  2  0  0  0  0
 35 39  1  0  0  0  0
 36 37  1  0  0  0  0
 36112  1  0  0  0  0
 37 38  2  0  0  0  0
 37113  1  0  0  0  0
 38 39  1  0  0  0  0
 38 40  1  0  0  0  0
 39114  1  0  0  0  0
 40 41  1  0  0  0  0
 40 52  2  0  0  0  0
 41 42  1  0  0  0  0
 41 50  2  0  0  0  0
 42 43  1  0  0  0  0
 42 44  2  0  0  0  0
 44 45  1  0  0  0  0
 44 46  1  0  0  0  0
 46 47  1  0  0  0  0
 46 48  2  0  0  0  0
 48 49  1  0  0  0  0
 48 50  1  0  0  0  0
 50 51  1  0  0  0  0
 52 53  1  0  0  0  0
 52 73  1  0  0  0  0
 53 54  2  0  0  0  0
 54 55  1  0  0  0  0
 54 72  1  0  0  0  0
 55 56  1  0  0  0  0
 55 67  2  0  0  0  0
 56 57  1  0  0  0  0
 56 65  2  0  0  0  0
 57 58  1  0  0  0  0
 57 59  2  0  0  0  0
 59 60  1  0  0  0  0
 59 61  1  0  0  0  0
 61 62  1  0  0  0  0
 61 63  2  0  0  0  0
 63 64  1  0  0  0  0
 63 65  1  0  0  0  0
 65 66  1  0  0  0  0
 67 68  1  0  0  0  0
 67 71  1  0  0  0  0
 68 69  2  0  0  0  0
 68115  1  0  0  0  0
 69 70  1  0  0  0  0
 69116  1  0  0  0  0
 70 71  1  0  0  0  0
 71117  1  0  0  0  0
 72 73  2  0  0  0  0
 72118  1  0  0  0  0
 73119  1  0  0  0  0
 74 75  2  0  0  0  0
 74120  1  0  0  0  0
 75121  1  0  0  0  0
 76 77  1  0  0  0  0
 76122  1  0  0  0  0
 77123  1  0  0  0  0
 78 79  1  0  0  0  0
 78 83  2  0  0  0  0
 79 80  2  0  0  0  0
 79124  1  0  0  0  0
 80 81  1  0  0  0  0
 80125  1  0  0  0  0
 81 82  2  0  0  0  0
 81 91  1  0  0  0  0
 82 83  1  0  0  0  0
 82 84  1  0  0  0  0
 83126  1  0  0  0  0
 84 85  1  0  0  0  0
 84127  1  0  0  0  0
 85 86  1  0  0  0  0
 85 91  2  0  0  0  0
 86 87  2  0  0  0  0
 86128  1  0  0  0  0
 87 88  1  0  0  0  0
 87129  1  0  0  0  0
 88 89  1  0  0  0  0
 88 90  2  0  0  0  0
 90 91  1  0  0  0  0
 90130  1  0  0  0  0
M  END
$$$$
