REMARK SMILES O=C(CCCC[C@@H]1CCSS1)NCCCCCCNC(=O)c1ccc(-c2c3nc(c(-c4c(F)c(F)c(F)c(F)c4F)c4ccc([nH]4)c(-c4c(F)c(F)c(F)c(F)c4F)c4nc(c(-c5c(F)c(F)c(F)c(F)c5F)c5ccc2[nH]5)C=C4)C=C3)cc1
REMARK SMILES IDX 14 1 13 4 12 7 1 8 2 9 3 11 4 14 5 17 6 20 7 23 8 24 11 25
REMARK SMILES IDX 9 27 10 30 15 33 16 36 17 39 18 42 19 45 20 46 21 48 22 49
REMARK SMILES IDX 23 50 84 51 24 52 83 54 25 56 26 59 27 60 77 61 28 62 82 63
REMARK SMILES IDX 76 64 78 65 29 66 81 67 75 69 74 71 30 73 62 76 42 77 61 78
REMARK SMILES IDX 43 79 46 80 60 81 79 82 44 83 45 85 59 87 80 88 47 91 31 93
REMARK SMILES IDX 32 94 40 95 33 96 34 97 38 98 41 99 35 100 36 101 39 102
REMARK SMILES IDX 37 103 63 104 64 105 72 106 65 107 66 108 70 109 73 110
REMARK SMILES IDX 67 111 68 112 71 113 69 114 48 115 49 116 57 117 50 118
REMARK SMILES IDX 51 119 55 120 58 121 52 122 53 123 56 124 54 125
REMARK H PARENT 14 2 14 3 13 5 13 6 12 10 3 12 3 13 4 15 4 16 5 18 5 19 6 21
REMARK H PARENT 6 22 7 26 8 28 8 29 9 31 9 32 15 34 15 35 16 37 16 38 17 40
REMARK H PARENT 17 41 18 43 18 44 19 47 23 53 84 55 24 57 83 58 82 68 76 70
REMARK H PARENT 78 72 81 74 75 75 43 84 46 86 79 89 44 90 80 92
REMARK Flexibility Score: inf
ROOT
ATOM      1  C   UNL     1       2.665   1.011   3.341  1.00  0.00    -0.036 C 
ATOM      2  H   UNL     1       2.466  -0.015   3.575  1.00  0.00     0.028 H 
ATOM      3  H   UNL     1       2.186   1.701   4.003  1.00  0.00     0.028 H 
ENDROOT
BRANCH   1   4
ATOM      4  C   UNL     1       2.101   1.297   1.949  1.00  0.00     0.017 C 
ATOM      5  H   UNL     1       1.049   1.101   1.952  1.00  0.00     0.049 H 
ATOM      6  H   UNL     1       2.295   2.321   1.710  1.00  0.00     0.049 H 
BRANCH   4   7
ATOM      7  N   UNL     1       2.731   0.468   0.945  1.00  0.00    -0.356 N 
ATOM      8  O   UNL     1       0.915   0.273  -0.443  1.00  0.00    -0.275 OA
ATOM      9  C   UNL     1       2.087   0.025  -0.183  1.00  0.00     0.219 C 
ATOM     10  H   UNL     1       3.671   0.207   1.078  1.00  0.00     0.163 HD
BRANCH   9  11
ATOM     11  C   UNL     1       2.959  -0.827  -1.087  1.00  0.00     0.026 C 
ATOM     12  H   UNL     1       2.322  -1.418  -1.711  1.00  0.00     0.037 H 
ATOM     13  H   UNL     1       3.576  -1.426  -0.451  1.00  0.00     0.037 H 
BRANCH  11  14
ATOM     14  C   UNL     1       3.895  -0.013  -1.982  1.00  0.00    -0.044 C 
ATOM     15  H   UNL     1       3.305   0.729  -2.477  1.00  0.00     0.027 H 
ATOM     16  H   UNL     1       4.353  -0.729  -2.633  1.00  0.00     0.027 H 
BRANCH  14  17
ATOM     17  C   UNL     1       5.061   0.705  -1.289  1.00  0.00    -0.052 C 
ATOM     18  H   UNL     1       4.648   1.447  -0.638  1.00  0.00     0.027 H 
ATOM     19  H   UNL     1       5.665   1.102  -2.079  1.00  0.00     0.027 H 
BRANCH  17  20
ATOM     20  C   UNL     1       6.001  -0.180  -0.457  1.00  0.00    -0.040 C 
ATOM     21  H   UNL     1       5.410  -0.741   0.237  1.00  0.00     0.028 H 
ATOM     22  H   UNL     1       6.694   0.471   0.033  1.00  0.00     0.028 H 
BRANCH  20  23
ATOM     23  C   UNL     1       6.826  -1.165  -1.302  1.00  0.00     0.016 C 
ATOM     24  C   UNL     1       6.607  -2.622  -0.871  1.00  0.00    -0.030 C 
ATOM     25  S   UNL     1       8.615  -0.844  -1.110  1.00  0.00    -0.091 SA
ATOM     26  H   UNL     1       6.503  -1.022  -2.312  1.00  0.00     0.043 H 
ATOM     27  C   UNL     1       7.640  -3.527  -1.531  1.00  0.00     0.005 C 
ATOM     28  H   UNL     1       5.626  -2.933  -1.163  1.00  0.00     0.029 H 
ATOM     29  H   UNL     1       6.711  -2.691   0.192  1.00  0.00     0.029 H 
ATOM     30  S   UNL     1       9.253  -2.788  -1.192  1.00  0.00    -0.094 SA
ATOM     31  H   UNL     1       7.469  -3.576  -2.586  1.00  0.00     0.039 H 
ATOM     32  H   UNL     1       7.581  -4.526  -1.151  1.00  0.00     0.039 H 
ENDBRANCH  20  23
ENDBRANCH  17  20
ENDBRANCH  14  17
ENDBRANCH  11  14
ENDBRANCH   9  11
ENDBRANCH   4   7
ENDBRANCH   1   4
BRANCH   1  33
ATOM     33  C   UNL     1       4.175   1.249   3.497  1.00  0.00    -0.052 C 
ATOM     34  H   UNL     1       4.684   0.587   2.829  1.00  0.00     0.027 H 
ATOM     35  H   UNL     1       4.394   1.075   4.530  1.00  0.00     0.027 H 
BRANCH  33  36
ATOM     36  C   UNL     1       4.652   2.674   3.203  1.00  0.00    -0.052 C 
ATOM     37  H   UNL     1       4.436   2.889   2.177  1.00  0.00     0.027 H 
ATOM     38  H   UNL     1       5.697   2.689   3.434  1.00  0.00     0.027 H 
BRANCH  36  39
ATOM     39  C   UNL     1       4.014   3.768   4.060  1.00  0.00    -0.036 C 
ATOM     40  H   UNL     1       2.973   3.813   3.817  1.00  0.00     0.028 H 
ATOM     41  H   UNL     1       4.547   4.668   3.834  1.00  0.00     0.028 H 
BRANCH  39  42
ATOM     42  C   UNL     1       4.137   3.574   5.569  1.00  0.00     0.018 C 
ATOM     43  H   UNL     1       3.678   2.644   5.832  1.00  0.00     0.049 H 
ATOM     44  H   UNL     1       3.654   4.405   6.039  1.00  0.00     0.049 H 
BRANCH  42  45
ATOM     45  N   UNL     1       5.516   3.557   6.029  1.00  0.00    -0.352 N 
ATOM     46  C   UNL     1       6.084   4.173   7.115  1.00  0.00     0.251 C 
ATOM     47  H   UNL     1       6.135   3.023   5.479  1.00  0.00     0.163 HD
ATOM     48  O   UNL     1       7.304   4.138   7.270  1.00  0.00    -0.269 OA
BRANCH  46  49
ATOM     49  C   UNL     1       5.247   4.909   8.089  1.00  0.00     0.039 A 
ATOM     50  C   UNL     1       5.698   6.149   8.552  1.00  0.00    -0.049 A 
ATOM     51  C   UNL     1       4.040   4.386   8.562  1.00  0.00    -0.049 A 
ATOM     52  C   UNL     1       4.911   6.891   9.436  1.00  0.00    -0.053 A 
ATOM     53  H   UNL     1       6.611   6.516   8.241  1.00  0.00     0.063 H 
ATOM     54  C   UNL     1       3.225   5.155   9.393  1.00  0.00    -0.053 A 
ATOM     55  H   UNL     1       3.752   3.432   8.296  1.00  0.00     0.063 H 
ATOM     56  C   UNL     1       3.652   6.415   9.837  1.00  0.00    -0.014 A 
ATOM     57  H   UNL     1       5.257   7.794   9.796  1.00  0.00     0.063 H 
ATOM     58  H   UNL     1       2.302   4.795   9.682  1.00  0.00     0.063 H 
BRANCH  56  59
ATOM     59  C   UNL     1       2.770   7.244  10.699  1.00  0.00     0.031 A 
ATOM     60  C   UNL     1       2.428   6.807  12.096  1.00  0.00     0.074 A 
ATOM     61  C   UNL     1       2.237   8.376  10.202  1.00  0.00     0.049 A 
ATOM     62  N   UNL     1       1.683   7.407  12.992  1.00  0.00    -0.248 NA
ATOM     63  C   UNL     1       2.972   5.515  12.537  1.00  0.00    -0.034 C 
ATOM     64  C   UNL     1       2.442   8.879   8.842  1.00  0.00    -0.036 A 
ATOM     65  N   UNL     1       1.415   9.310  10.781  1.00  0.00    -0.354 N 
ATOM     66  C   UNL     1       1.659   6.562  14.093  1.00  0.00     0.074 A 
ATOM     67  C   UNL     1       2.424   5.385  13.737  1.00  0.00    -0.034 C 
ATOM     68  H   UNL     1       3.614   4.876  12.043  1.00  0.00     0.065 H 
ATOM     69  C   UNL     1       1.796  10.047   8.704  1.00  0.00    -0.036 A 
ATOM     70  H   UNL     1       2.995   8.410   8.108  1.00  0.00     0.065 H 
ATOM     71  C   UNL     1       1.109  10.362   9.953  1.00  0.00     0.049 A 
ATOM     72  H   UNL     1       1.076   9.233  11.702  1.00  0.00     0.167 HD
ATOM     73  C   UNL     1       1.071   6.758  15.297  1.00  0.00     0.037 A 
ATOM     74  H   UNL     1       2.527   4.554  14.339  1.00  0.00     0.065 H 
ATOM     75  H   UNL     1       1.787  10.629   7.852  1.00  0.00     0.065 H 
ATOM     76  C   UNL     1       0.367  11.462  10.179  1.00  0.00     0.037 A 
ATOM     77  C   UNL     1       0.335   7.942  15.661  1.00  0.00     0.049 A 
ATOM     78  C   UNL     1      -0.262  11.662  11.530  1.00  0.00     0.074 A 
ATOM     79  C   UNL     1      -0.222   8.273  16.884  1.00  0.00    -0.036 A 
ATOM     80  N   UNL     1       0.047   8.989  14.796  1.00  0.00    -0.354 N 
ATOM     81  N   UNL     1      -0.201  10.900  12.593  1.00  0.00    -0.248 NA
ATOM     82  C   UNL     1      -1.058  12.884  11.710  1.00  0.00    -0.034 C 
ATOM     83  C   UNL     1      -0.886   9.497  16.748  1.00  0.00    -0.036 A 
ATOM     84  H   UNL     1      -0.158   7.713  17.748  1.00  0.00     0.065 H 
ATOM     85  C   UNL     1      -0.705   9.952  15.452  1.00  0.00     0.049 A 
ATOM     86  H   UNL     1       0.334   9.040  13.856  1.00  0.00     0.167 HD
ATOM     87  C   UNL     1      -0.928  11.558  13.576  1.00  0.00     0.074 A 
ATOM     88  C   UNL     1      -1.405  12.792  12.986  1.00  0.00    -0.034 C 
ATOM     89  H   UNL     1      -1.286  13.621  11.024  1.00  0.00     0.065 H 
ATOM     90  H   UNL     1      -1.421   9.979  17.487  1.00  0.00     0.065 H 
ATOM     91  C   UNL     1      -1.179  11.173  14.852  1.00  0.00     0.037 A 
ATOM     92  H   UNL     1      -1.946  13.508  13.495  1.00  0.00     0.065 H 
BRANCH  73  93
ATOM     93  C   UNL     1       1.198   5.662  16.316  1.00  0.00     0.064 A 
ATOM     94  C   UNL     1       2.421   5.373  16.941  1.00  0.00     0.173 A 
ATOM     95  C   UNL     1       0.076   4.908  16.692  1.00  0.00     0.173 A 
ATOM     96  F   UNL     1       3.526   6.058  16.609  1.00  0.00    -0.203 F 
ATOM     97  C   UNL     1       2.523   4.349  17.878  1.00  0.00     0.198 A 
ATOM     98  C   UNL     1       0.175   3.904  17.652  1.00  0.00     0.198 A 
ATOM     99  F   UNL     1      -1.119   5.147  16.131  1.00  0.00    -0.203 F 
ATOM    100  F   UNL     1       3.712   4.057  18.423  1.00  0.00    -0.200 F 
ATOM    101  C   UNL     1       1.400   3.619  18.238  1.00  0.00     0.200 A 
ATOM    102  F   UNL     1      -0.913   3.207  18.007  1.00  0.00    -0.200 F 
ATOM    103  F   UNL     1       1.499   2.635  19.142  1.00  0.00    -0.200 F 
ENDBRANCH  73  93
BRANCH  76 104
ATOM    104  C   UNL     1       0.222  12.487   9.114  1.00  0.00     0.064 A 
ATOM    105  C   UNL     1       0.860  13.730   9.229  1.00  0.00     0.173 A 
ATOM    106  C   UNL     1      -0.547  12.249   7.967  1.00  0.00     0.173 A 
ATOM    107  F   UNL     1       1.588  14.010  10.320  1.00  0.00    -0.203 F 
ATOM    108  C   UNL     1       0.721  14.704   8.243  1.00  0.00     0.198 A 
ATOM    109  C   UNL     1      -0.664  13.214   6.969  1.00  0.00     0.198 A 
ATOM    110  F   UNL     1      -1.173  11.074   7.810  1.00  0.00    -0.203 F 
ATOM    111  F   UNL     1       1.309  15.898   8.396  1.00  0.00    -0.200 F 
ATOM    112  C   UNL     1      -0.036  14.443   7.110  1.00  0.00     0.200 A 
ATOM    113  F   UNL     1      -1.387  12.955   5.871  1.00  0.00    -0.200 F 
ATOM    114  F   UNL     1      -0.165  15.377   6.159  1.00  0.00    -0.200 F 
ENDBRANCH  76 104
BRANCH  91 115
ATOM    115  C   UNL     1      -1.990  12.111  15.698  1.00  0.00     0.064 A 
ATOM    116  C   UNL     1      -3.363  12.298  15.478  1.00  0.00     0.173 A 
ATOM    117  C   UNL     1      -1.389  12.825  16.745  1.00  0.00     0.173 A 
ATOM    118  F   UNL     1      -3.980  11.651  14.478  1.00  0.00    -0.203 F 
ATOM    119  C   UNL     1      -4.097  13.191  16.254  1.00  0.00     0.198 A 
ATOM    120  C   UNL     1      -2.133  13.695  17.538  1.00  0.00     0.198 A 
ATOM    121  F   UNL     1      -0.081  12.679  17.001  1.00  0.00    -0.203 F 
ATOM    122  F   UNL     1      -5.394  13.397  15.988  1.00  0.00    -0.200 F 
ATOM    123  C   UNL     1      -3.483  13.885  17.286  1.00  0.00     0.200 A 
ATOM    124  F   UNL     1      -1.540  14.357  18.542  1.00  0.00    -0.200 F 
ATOM    125  F   UNL     1      -4.191  14.746  18.030  1.00  0.00    -0.200 F 
ENDBRANCH  91 115
ENDBRANCH  56  59
ENDBRANCH  46  49
ENDBRANCH  42  45
ENDBRANCH  39  42
ENDBRANCH  36  39
ENDBRANCH  33  36
ENDBRANCH   1  33
TORSDOF 17
