MODEL 1
REMARK VINA RESULT:     -10.8      0.000      0.000
ROOT
ATOM     34  C26 UNL A   1      42.295  12.826  52.390  1.00  0.00    +0.000 C 
ATOM     35  C27 UNL A   1      43.109  12.570  51.153  1.00  0.00    +0.000 C 
ATOM     36  N4  UNL A   1      43.968  11.609  50.919  1.00  0.00    +0.000 N 
ATOM     37  C28 UNL A   1      44.429  11.814  49.625  1.00  0.00    +0.000 C 
ATOM     38  C29 UNL A   1      45.356  11.103  48.937  1.00  0.00    +0.000 C 
ATOM     50  C36 UNL A   1      46.051   9.952  49.455  1.00  0.00    +0.000 C 
ATOM     51  C37 UNL A   1      47.011   9.169  48.837  1.00  0.00    +0.000 C 
ATOM     52  C38 UNL A   1      47.380   8.146  49.718  1.00  0.00    +0.000 C 
ATOM     53  C39 UNL A   1      46.682   8.316  50.902  1.00  0.00    +0.000 C 
ATOM     54  N5  UNL A   1      45.863   9.421  50.723  1.00  0.00    +0.000 N 
ATOM     55  C40 UNL A   1      46.758   7.532  52.106  1.00  0.00    +0.000 C 
ATOM     67  C47 UNL A   1      46.046   7.767  53.236  1.00  0.00    +0.000 C 
ATOM     68  N6  UNL A   1      45.099   8.750  53.480  1.00  0.00    +0.000 N 
ATOM     69  C48 UNL A   1      44.657   8.528  54.694  1.00  0.00    +0.000 C 
ATOM     70  C49 UNL A   1      43.623   9.284  55.475  1.00  0.00    +0.000 C 
ATOM     82  C56 UNL A   1      43.012  10.336  54.901  1.00  0.00    +0.000 C 
ATOM     83  C57 UNL A   1      42.003  11.171  55.544  1.00  0.00    +0.000 C 
ATOM     84  C58 UNL A   1      41.606  12.115  54.679  1.00  0.00    +0.000 C 
ATOM     85  C59 UNL A   1      42.373  11.982  53.438  1.00  0.00    +0.000 C 
ATOM     86  N7  UNL A   1      43.152  10.873  53.645  1.00  0.00    +0.000 N 
ATOM     87  C60 UNL A   1      45.281   7.380  55.363  1.00  0.00    +0.000 C 
ATOM     88  C61 UNL A   1      46.146   6.975  54.445  1.00  0.00    +0.000 C 
ATOM     89  C62 UNL A   1      43.735  12.976  49.112  1.00  0.00    +0.000 C 
ATOM     90  C63 UNL A   1      42.935  13.503  50.030  1.00  0.00    +0.000 C 
ATOM    118  H26 UNL A   1      47.389   9.314  47.887  1.00  0.00    +0.000 H 
ATOM    119  H27 UNL A   1      48.058   7.393  49.519  1.00  0.00    +0.000 H 
ATOM    120  H28 UNL A   1      45.239   9.777  51.398  1.00  0.00    +0.000 H 
ATOM    121  H29 UNL A   1      41.655  11.056  56.508  1.00  0.00    +0.000 H 
ATOM    122  H30 UNL A   1      40.876  12.821  54.858  1.00  0.00    +0.000 H 
ATOM    123  H31 UNL A   1      43.753  10.498  52.962  1.00  0.00    +0.000 H 
ATOM    124  H32 UNL A   1      45.094   6.990  56.300  1.00  0.00    +0.000 H 
ATOM    125  H33 UNL A   1      46.809   6.194  54.574  1.00  0.00    +0.000 H 
ATOM    126  H34 UNL A   1      43.846  13.346  48.155  1.00  0.00    +0.000 H 
ATOM    127  H35 UNL A   1      42.346  14.349  49.972  1.00  0.00    +0.000 H 
ENDROOT
BRANCH   34   33
ATOM    129  H37 UNL A   1      41.485  17.274  53.430  1.00  0.00    +0.000 H 
ATOM     33  C25 UNL A   1      41.443  14.035  52.527  1.00  0.00    +0.000 C 
ATOM    116  H24 UNL A   1      38.329  15.044  51.770  1.00  0.00    +0.000 H 
ATOM    117  H25 UNL A   1      39.703  13.052  51.832  1.00  0.00    +0.000 H 
ATOM     91  C64 UNL A   1      41.955  15.265  52.967  1.00  0.00    +0.000 C 
ATOM     92  C65 UNL A   1      41.114  16.379  53.073  1.00  0.00    +0.000 C 
ATOM    128  H36 UNL A   1      42.954  15.349  53.213  1.00  0.00    +0.000 H 
ATOM     30  C22 UNL A   1      39.771  16.278  52.695  1.00  0.00    +0.000 C 
ATOM     31  C23 UNL A   1      39.285  15.086  52.155  1.00  0.00    +0.000 C 
ATOM     32  C24 UNL A   1      40.095  13.957  52.136  1.00  0.00    +0.000 C 
BRANCH   30    2
ATOM      1  O1  UNL A   1      38.032  17.423  53.778  1.00  0.00    +0.000 O 
ATOM      2  C1  UNL A   1      38.875  17.442  52.885  1.00  0.00    +0.000 C 
BRANCH    2    3
ATOM      3  N1  UNL A   1      38.968  18.521  52.037  1.00  0.00    +0.000 N 
ATOM     93  H1  UNL A   1      38.852  19.404  52.456  1.00  0.00    +0.000 H 
BRANCH    3    4
ATOM      4  C2  UNL A   1      39.216  18.533  50.604  1.00  0.00    +0.000 C 
ATOM     94  H2  UNL A   1      38.739  19.394  50.187  1.00  0.00    +0.000 H 
ATOM     95  H3  UNL A   1      38.822  17.620  50.210  1.00  0.00    +0.000 H 
BRANCH    4    5
ATOM     97  H5  UNL A   1      40.801  19.383  49.549  1.00  0.00    +0.000 H 
ATOM      5  C3  UNL A   1      40.693  18.577  50.244  1.00  0.00    +0.000 C 
ATOM     96  H4  UNL A   1      41.249  18.709  51.149  1.00  0.00    +0.000 H 
BRANCH    5    6
ATOM     98  H6  UNL A   1      40.683  17.210  48.630  1.00  0.00    +0.000 H 
ATOM     99  H7  UNL A   1      41.128  16.535  50.235  1.00  0.00    +0.000 H 
ATOM      6  C4  UNL A   1      41.237  17.338  49.536  1.00  0.00    +0.000 C 
BRANCH    6    7
ATOM    100  H8  UNL A   1      43.278  17.106  50.053  1.00  0.00    +0.000 H 
ATOM    101  H9  UNL A   1      42.909  18.361  48.815  1.00  0.00    +0.000 H 
ATOM      7  C5  UNL A   1      42.725  17.370  49.175  1.00  0.00    +0.000 C 
BRANCH    7    8
ATOM    102  H10 UNL A   1      42.577  16.656  47.182  1.00  0.00    +0.000 H 
ATOM    103  H11 UNL A   1      43.051  15.444  48.420  1.00  0.00    +0.000 H 
ATOM      8  C6  UNL A   1      43.175  16.438  48.042  1.00  0.00    +0.000 C 
BRANCH    8    9
ATOM      9  C7  UNL A   1      44.641  16.545  47.632  1.00  0.00    +0.000 C 
ATOM    105  H13 UNL A   1      44.984  17.522  47.902  1.00  0.00    +0.000 H 
ATOM    104  H12 UNL A   1      45.196  15.781  48.137  1.00  0.00    +0.000 H 
BRANCH    9   10
ATOM     10  N2  UNL A   1      44.831  16.388  46.203  1.00  0.00    +0.000 N 
ATOM    106  H14 UNL A   1      44.949  15.462  45.888  1.00  0.00    +0.000 H 
BRANCH   10   11
ATOM     11  C8  UNL A   1      44.866  17.352  45.229  1.00  0.00    +0.000 C 
ATOM     12  O2  UNL A   1      44.376  18.457  45.441  1.00  0.00    +0.000 O 
BRANCH   11   13
ATOM    107  H15 UNL A   1      47.320  17.965  44.603  1.00  0.00    +0.000 H 
ATOM    108  H16 UNL A   1      48.525  17.603  42.528  1.00  0.00    +0.000 H 
ATOM     13  C9  UNL A   1      45.517  17.085  43.930  1.00  0.00    +0.000 C 
ATOM     14  C10 UNL A   1      46.851  17.504  43.808  1.00  0.00    +0.000 C 
ATOM     15  C11 UNL A   1      47.542  17.300  42.617  1.00  0.00    +0.000 C 
ATOM    110  H18 UNL A   1      45.106  15.821  40.863  1.00  0.00    +0.000 H 
ATOM     17  C13 UNL A   1      45.566  16.282  41.664  1.00  0.00    +0.000 C 
ATOM     18  C14 UNL A   1      44.837  16.491  42.846  1.00  0.00    +0.000 C 
ATOM     16  C12 UNL A   1      46.901  16.683  41.547  1.00  0.00    +0.000 C 
ATOM    109  H17 UNL A   1      47.411  16.523  40.665  1.00  0.00    +0.000 H 
BRANCH   18   19
ATOM     19  N3  UNL A   1      43.490  16.083  42.950  1.00  0.00    +0.000 N 
ATOM    111  H19 UNL A   1      42.931  16.669  43.511  1.00  0.00    +0.000 H 
BRANCH   19   20
ATOM    112  H20 UNL A   1      42.254  16.032  40.647  1.00  0.00    +0.000 H 
ATOM    113  H21 UNL A   1      41.152  14.156  39.586  1.00  0.00    +0.000 H 
ATOM    114  H22 UNL A   1      41.047  12.012  40.710  1.00  0.00    +0.000 H 
ATOM    115  H23 UNL A   1      43.183  13.624  43.956  1.00  0.00    +0.000 H 
ATOM     20  C15 UNL A   1      42.807  14.989  42.395  1.00  0.00    +0.000 C 
ATOM     21  C16 UNL A   1      42.217  15.122  41.132  1.00  0.00    +0.000 C 
ATOM     22  C17 UNL A   1      41.579  14.041  40.519  1.00  0.00    +0.000 C 
ATOM     23  C18 UNL A   1      41.518  12.809  41.165  1.00  0.00    +0.000 C 
ATOM     24  C19 UNL A   1      42.092  12.647  42.434  1.00  0.00    +0.000 C 
ATOM     25  C20 UNL A   1      42.024  11.311  43.131  1.00  0.00    +0.000 C 
ATOM     26  F1  UNL A   1      40.761  10.805  43.162  1.00  0.00    +0.000 F 
ATOM     27  F2  UNL A   1      42.794  10.368  42.524  1.00  0.00    +0.000 F 
ATOM     28  F3  UNL A   1      42.437  11.354  44.428  1.00  0.00    +0.000 F 
ATOM     29  C21 UNL A   1      42.743  13.742  43.029  1.00  0.00    +0.000 C 
ENDBRANCH   19   20
ENDBRANCH   18   19
ENDBRANCH   11   13
ENDBRANCH   10   11
ENDBRANCH    9   10
ENDBRANCH    8    9
ENDBRANCH    7    8
ENDBRANCH    6    7
ENDBRANCH    5    6
ENDBRANCH    4    5
ENDBRANCH    3    4
ENDBRANCH    2    3
ENDBRANCH   30    2
ENDBRANCH   34   33
BRANCH   38   39
ATOM     39  C30 UNL A   1      45.677  11.544  47.538  1.00  0.00    +0.000 C 
ATOM     40  C31 UNL A   1      46.445  12.690  47.289  1.00  0.00    +0.000 C 
ATOM     41  F4  UNL A   1      46.849  13.466  48.306  1.00  0.00    +0.000 F 
ATOM     42  C32 UNL A   1      46.783  13.059  45.988  1.00  0.00    +0.000 C 
ATOM     43  F5  UNL A   1      47.491  14.176  45.773  1.00  0.00    +0.000 F 
ATOM     44  C33 UNL A   1      46.383  12.276  44.915  1.00  0.00    +0.000 C 
ATOM     45  F6  UNL A   1      46.720  12.625  43.666  1.00  0.00    +0.000 F 
ATOM     46  C34 UNL A   1      45.630  11.133  45.139  1.00  0.00    +0.000 C 
ATOM     47  F7  UNL A   1      45.253  10.369  44.104  1.00  0.00    +0.000 F 
ATOM     48  C35 UNL A   1      45.271  10.774  46.436  1.00  0.00    +0.000 C 
ATOM     49  F8  UNL A   1      44.540   9.665  46.619  1.00  0.00    +0.000 F 
ENDBRANCH   38   39
BRANCH   55   56
ATOM     65  C46 UNL A   1      49.065   6.562  52.409  1.00  0.00    +0.000 C 
ATOM     66  F13 UNL A   1      49.541   7.794  52.642  1.00  0.00    +0.000 F 
ATOM     56  C41 UNL A   1      47.703   6.369  52.138  1.00  0.00    +0.000 C 
ATOM     57  C42 UNL A   1      47.257   5.060  51.898  1.00  0.00    +0.000 C 
ATOM     58  F9  UNL A   1      45.959   4.824  51.652  1.00  0.00    +0.000 F 
ATOM     59  C43 UNL A   1      48.135   3.983  51.963  1.00  0.00    +0.000 C 
ATOM     60  F10 UNL A   1      47.677   2.736  51.786  1.00  0.00    +0.000 F 
ATOM     61  C44 UNL A   1      49.478   4.196  52.233  1.00  0.00    +0.000 C 
ATOM     62  F11 UNL A   1      50.322   3.157  52.301  1.00  0.00    +0.000 F 
ATOM     63  C45 UNL A   1      49.945   5.484  52.447  1.00  0.00    +0.000 C 
ATOM     64  F12 UNL A   1      51.245   5.692  52.701  1.00  0.00    +0.000 F 
ENDBRANCH   55   56
BRANCH   70   71
ATOM     71  C50 UNL A   1      43.259   8.886  56.860  1.00  0.00    +0.000 C 
ATOM     72  C51 UNL A   1      42.243   7.955  57.104  1.00  0.00    +0.000 C 
ATOM     73  F14 UNL A   1      41.556   7.427  56.079  1.00  0.00    +0.000 F 
ATOM     74  C52 UNL A   1      41.905   7.586  58.405  1.00  0.00    +0.000 C 
ATOM     75  F15 UNL A   1      40.902   6.723  58.615  1.00  0.00    +0.000 F 
ATOM     76  C53 UNL A   1      42.598   8.118  59.482  1.00  0.00    +0.000 C 
ATOM     77  F16 UNL A   1      42.280   7.755  60.732  1.00  0.00    +0.000 F 
ATOM     78  C54 UNL A   1      43.618   9.030  59.263  1.00  0.00    +0.000 C 
ATOM     79  F17 UNL A   1      44.304   9.533  60.298  1.00  0.00    +0.000 F 
ATOM     80  C55 UNL A   1      43.936   9.423  57.966  1.00  0.00    +0.000 C 
ATOM     81  F18 UNL A   1      44.921  10.314  57.783  1.00  0.00    +0.000 F 
ENDBRANCH   70   71
TORSDOF 17
ENDMDL
MODEL 2
REMARK VINA RESULT:     -10.5     31.766     35.428
ROOT
ATOM     34  C26 UNL A   1      29.623 -14.003  31.788  1.00  0.00    +0.000 C 
ATOM     35  C27 UNL A   1      28.800 -13.188  30.832  1.00  0.00    +0.000 C 
ATOM     36  N4  UNL A   1      27.693 -12.524  31.058  1.00  0.00    +0.000 N 
ATOM     37  C28 UNL A   1      27.349 -11.929  29.852  1.00  0.00    +0.000 C 
ATOM     38  C29 UNL A   1      26.266 -11.165  29.565  1.00  0.00    +0.000 C 
ATOM     50  C36 UNL A   1      25.238 -10.819  30.515  1.00  0.00    +0.000 C 
ATOM     51  C37 UNL A   1      24.100 -10.056  30.319  1.00  0.00    +0.000 C 
ATOM     52  C38 UNL A   1      23.413  -9.969  31.535  1.00  0.00    +0.000 C 
ATOM     53  C39 UNL A   1      24.100 -10.713  32.480  1.00  0.00    +0.000 C 
ATOM     54  N5  UNL A   1      25.223 -11.221  31.843  1.00  0.00    +0.000 N 
ATOM     55  C40 UNL A   1      23.758 -10.948  33.858  1.00  0.00    +0.000 C 
ATOM     67  C47 UNL A   1      24.479 -11.700  34.724  1.00  0.00    +0.000 C 
ATOM     68  N6  UNL A   1      25.676 -12.367  34.510  1.00  0.00    +0.000 N 
ATOM     69  C48 UNL A   1      25.998 -12.902  35.662  1.00  0.00    +0.000 C 
ATOM     70  C49 UNL A   1      27.195 -13.735  36.015  1.00  0.00    +0.000 C 
ATOM     82  C56 UNL A   1      28.114 -13.991  35.066  1.00  0.00    +0.000 C 
ATOM     83  C57 UNL A   1      29.314 -14.798  35.259  1.00  0.00    +0.000 C 
ATOM     84  C58 UNL A   1      30.003 -14.831  34.109  1.00  0.00    +0.000 C 
ATOM     85  C59 UNL A   1      29.263 -14.092  33.084  1.00  0.00    +0.000 C 
ATOM     86  N7  UNL A   1      28.176 -13.592  33.754  1.00  0.00    +0.000 N 
ATOM     87  C60 UNL A   1      25.036 -12.641  36.740  1.00  0.00    +0.000 C 
ATOM     88  C61 UNL A   1      24.111 -11.936  36.105  1.00  0.00    +0.000 C 
ATOM     89  C62 UNL A   1      28.379 -12.286  28.899  1.00  0.00    +0.000 C 
ATOM     90  C63 UNL A   1      29.279 -13.094  29.444  1.00  0.00    +0.000 C 
ATOM    118  H26 UNL A   1      23.808  -9.624  29.428  1.00  0.00    +0.000 H 
ATOM    119  H27 UNL A   1      22.541  -9.441  31.700  1.00  0.00    +0.000 H 
ATOM    120  H28 UNL A   1      25.909 -11.784  32.271  1.00  0.00    +0.000 H 
ATOM    121  H29 UNL A   1      29.587 -15.268  36.136  1.00  0.00    +0.000 H 
ATOM    122  H30 UNL A   1      30.910 -15.302  33.970  1.00  0.00    +0.000 H 
ATOM    123  H31 UNL A   1      27.506 -13.005  33.336  1.00  0.00    +0.000 H 
ATOM    124  H32 UNL A   1      25.071 -12.929  37.731  1.00  0.00    +0.000 H 
ATOM    125  H33 UNL A   1      23.237 -11.598  36.539  1.00  0.00    +0.000 H 
ATOM    126  H34 UNL A   1      28.410 -11.954  27.923  1.00  0.00    +0.000 H 
ATOM    127  H35 UNL A   1      30.101 -13.541  29.008  1.00  0.00    +0.000 H 
ENDROOT
BRANCH   34   33
ATOM    129  H37 UNL A   1      34.156 -14.725  31.122  1.00  0.00    +0.000 H 
ATOM     33  C25 UNL A   1      30.801 -14.785  31.334  1.00  0.00    +0.000 C 
ATOM    116  H24 UNL A   1      31.513 -17.854  30.166  1.00  0.00    +0.000 H 
ATOM    117  H25 UNL A   1      29.631 -16.418  30.671  1.00  0.00    +0.000 H 
ATOM     91  C64 UNL A   1      32.114 -14.313  31.481  1.00  0.00    +0.000 C 
ATOM     92  C65 UNL A   1      33.194 -15.089  31.044  1.00  0.00    +0.000 C 
ATOM    128  H36 UNL A   1      32.285 -13.390  31.912  1.00  0.00    +0.000 H 
ATOM     30  C22 UNL A   1      32.966 -16.359  30.504  1.00  0.00    +0.000 C 
ATOM     31  C23 UNL A   1      31.671 -16.876  30.457  1.00  0.00    +0.000 C 
ATOM     32  C24 UNL A   1      30.593 -16.070  30.804  1.00  0.00    +0.000 C 
BRANCH   30    2
ATOM      1  O1  UNL A   1      35.106 -17.308  30.672  1.00  0.00    +0.000 O 
ATOM      2  C1  UNL A   1      34.110 -17.138  29.975  1.00  0.00    +0.000 C 
BRANCH    2    3
ATOM      3  N1  UNL A   1      34.063 -17.634  28.693  1.00  0.00    +0.000 N 
ATOM     93  H1  UNL A   1      34.462 -18.524  28.565  1.00  0.00    +0.000 H 
BRANCH    3    4
ATOM      4  C2  UNL A   1      33.503 -17.020  27.500  1.00  0.00    +0.000 C 
ATOM     94  H2  UNL A   1      32.449 -17.203  27.489  1.00  0.00    +0.000 H 
ATOM     95  H3  UNL A   1      33.999 -17.457  26.659  1.00  0.00    +0.000 H 
BRANCH    4    5
ATOM     97  H5  UNL A   1      34.223 -15.251  28.337  1.00  0.00    +0.000 H 
ATOM      5  C3  UNL A   1      33.733 -15.519  27.424  1.00  0.00    +0.000 C 
ATOM     96  H4  UNL A   1      34.314 -15.318  26.548  1.00  0.00    +0.000 H 
BRANCH    5    6
ATOM     98  H6  UNL A   1      31.704 -15.165  27.902  1.00  0.00    +0.000 H 
ATOM     99  H7  UNL A   1      32.264 -14.532  26.317  1.00  0.00    +0.000 H 
ATOM      6  C4  UNL A   1      32.473 -14.659  27.359  1.00  0.00    +0.000 C 
BRANCH    6    7
ATOM    100  H8  UNL A   1      32.584 -13.321  28.997  1.00  0.00    +0.000 H 
ATOM    101  H9  UNL A   1      31.771 -12.699  27.516  1.00  0.00    +0.000 H 
ATOM      7  C5  UNL A   1      32.595 -13.243  27.929  1.00  0.00    +0.000 C 
BRANCH    7    8
ATOM    102  H10 UNL A   1      34.344 -12.991  26.755  1.00  0.00    +0.000 H 
ATOM    103  H11 UNL A   1      34.419 -12.346  28.429  1.00  0.00    +0.000 H 
ATOM      8  C6  UNL A   1      33.846 -12.449  27.532  1.00  0.00    +0.000 C 
BRANCH    8    9
ATOM      9  C7  UNL A   1      33.603 -11.028  27.030  1.00  0.00    +0.000 C 
ATOM    105  H13 UNL A   1      32.590 -10.771  27.257  1.00  0.00    +0.000 H 
ATOM    104  H12 UNL A   1      34.294 -10.369  27.516  1.00  0.00    +0.000 H 
BRANCH    9   10
ATOM     10  N2  UNL A   1      33.780 -10.909  25.595  1.00  0.00    +0.000 N 
ATOM    106  H14 UNL A   1      34.713 -10.889  25.281  1.00  0.00    +0.000 H 
BRANCH   10   11
ATOM     11  C8  UNL A   1      32.825 -10.823  24.615  1.00  0.00    +0.000 C 
ATOM     12  O2  UNL A   1      33.071 -10.231  23.569  1.00  0.00    +0.000 O 
BRANCH   11   13
ATOM    107  H15 UNL A   1      32.258 -13.311  24.089  1.00  0.00    +0.000 H 
ATOM    108  H16 UNL A   1      30.156 -14.502  24.319  1.00  0.00    +0.000 H 
ATOM     13  C9  UNL A   1      31.505 -11.463  24.794  1.00  0.00    +0.000 C 
ATOM     14  C10 UNL A   1      31.423 -12.819  24.443  1.00  0.00    +0.000 C 
ATOM     15  C11 UNL A   1      30.217 -13.503  24.572  1.00  0.00    +0.000 C 
ATOM    110  H18 UNL A   1      28.331 -10.993  25.731  1.00  0.00    +0.000 H 
ATOM     17  C13 UNL A   1      29.173 -11.475  25.377  1.00  0.00    +0.000 C 
ATOM     18  C14 UNL A   1      30.371 -10.755  25.241  1.00  0.00    +0.000 C 
ATOM     16  C12 UNL A   1      29.093 -12.832  25.044  1.00  0.00    +0.000 C 
ATOM    109  H17 UNL A   1      28.200 -13.336  25.149  1.00  0.00    +0.000 H 
BRANCH   18   19
ATOM     19  N3  UNL A   1      30.436  -9.386  25.578  1.00  0.00    +0.000 N 
ATOM    111  H19 UNL A   1      30.563  -8.784  24.809  1.00  0.00    +0.000 H 
BRANCH   19   20
ATOM    112  H20 UNL A   1      29.825  -6.874  25.968  1.00  0.00    +0.000 H 
ATOM    113  H21 UNL A   1      29.561  -5.712  28.074  1.00  0.00    +0.000 H 
ATOM    114  H22 UNL A   1      29.941  -6.879  30.164  1.00  0.00    +0.000 H 
ATOM    115  H23 UNL A   1      30.824 -10.392  28.026  1.00  0.00    +0.000 H 
ATOM     20  C15 UNL A   1      30.353  -8.731  26.818  1.00  0.00    +0.000 C 
ATOM     21  C16 UNL A   1      29.986  -7.380  26.853  1.00  0.00    +0.000 C 
ATOM     22  C17 UNL A   1      29.835  -6.707  28.067  1.00  0.00    +0.000 C 
ATOM     23  C18 UNL A   1      30.055  -7.377  29.268  1.00  0.00    +0.000 C 
ATOM     24  C19 UNL A   1      30.431  -8.728  29.265  1.00  0.00    +0.000 C 
ATOM     25  C20 UNL A   1      30.668  -9.450  30.568  1.00  0.00    +0.000 C 
ATOM     26  F1  UNL A   1      31.510  -8.770  31.394  1.00  0.00    +0.000 F 
ATOM     27  F2  UNL A   1      29.520  -9.642  31.273  1.00  0.00    +0.000 F 
ATOM     28  F3  UNL A   1      31.222 -10.685  30.411  1.00  0.00    +0.000 F 
ATOM     29  C21 UNL A   1      30.564  -9.393  28.034  1.00  0.00    +0.000 C 
ENDBRANCH   19   20
ENDBRANCH   18   19
ENDBRANCH   11   13
ENDBRANCH   10   11
ENDBRANCH    9   10
ENDBRANCH    8    9
ENDBRANCH    7    8
ENDBRANCH    6    7
ENDBRANCH    5    6
ENDBRANCH    4    5
ENDBRANCH    3    4
ENDBRANCH    2    3
ENDBRANCH   30    2
ENDBRANCH   34   33
BRANCH   38   39
ATOM     39  C30 UNL A   1      26.130 -10.642  28.165  1.00  0.00    +0.000 C 
ATOM     40  C31 UNL A   1      26.642  -9.389  27.798  1.00  0.00    +0.000 C 
ATOM     41  F4  UNL A   1      27.204  -8.593  28.720  1.00  0.00    +0.000 F 
ATOM     42  C32 UNL A   1      26.558  -8.936  26.483  1.00  0.00    +0.000 C 
ATOM     43  F5  UNL A   1      27.027  -7.723  26.163  1.00  0.00    +0.000 F 
ATOM     44  C33 UNL A   1      25.986  -9.737  25.505  1.00  0.00    +0.000 C 
ATOM     45  F6  UNL A   1      25.918  -9.305  24.239  1.00  0.00    +0.000 F 
ATOM     46  C34 UNL A   1      25.481 -10.983  25.844  1.00  0.00    +0.000 C 
ATOM     47  F7  UNL A   1      24.939 -11.763  24.898  1.00  0.00    +0.000 F 
ATOM     48  C35 UNL A   1      25.543 -11.429  27.162  1.00  0.00    +0.000 C 
ATOM     49  F8  UNL A   1      25.043 -12.638  27.458  1.00  0.00    +0.000 F 
ENDBRANCH   38   39
BRANCH   55   56
ATOM     65  C46 UNL A   1      21.262 -10.965  34.218  1.00  0.00    +0.000 C 
ATOM     66  F13 UNL A   1      21.188 -12.136  33.569  1.00  0.00    +0.000 F 
ATOM     56  C41 UNL A   1      22.500 -10.329  34.392  1.00  0.00    +0.000 C 
ATOM     57  C42 UNL A   1      22.523  -9.105  35.075  1.00  0.00    +0.000 C 
ATOM     58  F9  UNL A   1      23.686  -8.468  35.281  1.00  0.00    +0.000 F 
ATOM     59  C43 UNL A   1      21.356  -8.555  35.597  1.00  0.00    +0.000 C 
ATOM     60  F10 UNL A   1      21.409  -7.413  36.295  1.00  0.00    +0.000 F 
ATOM     61  C44 UNL A   1      20.142  -9.200  35.414  1.00  0.00    +0.000 C 
ATOM     62  F11 UNL A   1      19.019  -8.673  35.922  1.00  0.00    +0.000 F 
ATOM     63  C45 UNL A   1      20.093 -10.399  34.718  1.00  0.00    +0.000 C 
ATOM     64  F12 UNL A   1      18.919 -11.019  34.536  1.00  0.00    +0.000 F 
ENDBRANCH   55   56
BRANCH   70   71
ATOM     71  C50 UNL A   1      27.386 -14.271  37.387  1.00  0.00    +0.000 C 
ATOM     72  C51 UNL A   1      26.638 -15.361  37.851  1.00  0.00    +0.000 C 
ATOM     73  F14 UNL A   1      25.708 -15.920  37.062  1.00  0.00    +0.000 F 
ATOM     74  C52 UNL A   1      26.821 -15.860  39.139  1.00  0.00    +0.000 C 
ATOM     75  F15 UNL A   1      26.065 -16.877  39.574  1.00  0.00    +0.000 F 
ATOM     76  C53 UNL A   1      27.774 -15.299  39.975  1.00  0.00    +0.000 C 
ATOM     77  F16 UNL A   1      27.956 -15.786  41.210  1.00  0.00    +0.000 F 
ATOM     78  C54 UNL A   1      28.536 -14.229  39.532  1.00  0.00    +0.000 C 
ATOM     79  F17 UNL A   1      29.472 -13.695  40.329  1.00  0.00    +0.000 F 
ATOM     80  C55 UNL A   1      28.334 -13.710  38.257  1.00  0.00    +0.000 C 
ATOM     81  F18 UNL A   1      29.078 -12.669  37.857  1.00  0.00    +0.000 F 
ENDBRANCH   70   71
TORSDOF 17
ENDMDL
MODEL 3
REMARK VINA RESULT:     -10.4     34.755     41.262
ROOT
ATOM     34  C26 UNL A   1      53.487  19.805  12.029  1.00  0.00    +0.000 C 
ATOM     35  C27 UNL A   1      54.847  19.185  11.872  1.00  0.00    +0.000 C 
ATOM     36  N4  UNL A   1      55.856  19.193  12.707  1.00  0.00    +0.000 N 
ATOM     37  C28 UNL A   1      56.868  18.467  12.093  1.00  0.00    +0.000 C 
ATOM     38  C29 UNL A   1      58.122  18.218  12.544  1.00  0.00    +0.000 C 
ATOM     50  C36 UNL A   1      58.643  18.687  13.803  1.00  0.00    +0.000 C 
ATOM     51  C37 UNL A   1      59.902  18.492  14.346  1.00  0.00    +0.000 C 
ATOM     52  C38 UNL A   1      59.942  19.110  15.601  1.00  0.00    +0.000 C 
ATOM     53  C39 UNL A   1      58.722  19.726  15.824  1.00  0.00    +0.000 C 
ATOM     54  N5  UNL A   1      57.931  19.450  14.718  1.00  0.00    +0.000 N 
ATOM     55  C40 UNL A   1      58.308  20.510  16.957  1.00  0.00    +0.000 C 
ATOM     67  C47 UNL A   1      57.093  21.093  17.100  1.00  0.00    +0.000 C 
ATOM     68  N6  UNL A   1      56.000  21.052  16.247  1.00  0.00    +0.000 N 
ATOM     69  C48 UNL A   1      55.049  21.721  16.851  1.00  0.00    +0.000 C 
ATOM     70  C49 UNL A   1      53.649  21.997  16.388  1.00  0.00    +0.000 C 
ATOM     82  C56 UNL A   1      53.244  21.503  15.205  1.00  0.00    +0.000 C 
ATOM     83  C57 UNL A   1      51.922  21.705  14.620  1.00  0.00    +0.000 C 
ATOM     84  C58 UNL A   1      51.865  21.063  13.445  1.00  0.00    +0.000 C 
ATOM     85  C59 UNL A   1      53.166  20.449  13.169  1.00  0.00    +0.000 C 
ATOM     86  N7  UNL A   1      53.908  20.725  14.288  1.00  0.00    +0.000 N 
ATOM     87  C60 UNL A   1      55.433  22.271  18.157  1.00  0.00    +0.000 C 
ATOM     88  C61 UNL A   1      56.699  21.892  18.244  1.00  0.00    +0.000 C 
ATOM     89  C62 UNL A   1      56.342  18.006  10.825  1.00  0.00    +0.000 C 
ATOM     90  C63 UNL A   1      55.111  18.455  10.623  1.00  0.00    +0.000 C 
ATOM    118  H26 UNL A   1      60.679  17.979  13.900  1.00  0.00    +0.000 H 
ATOM    119  H27 UNL A   1      60.744  19.107  16.250  1.00  0.00    +0.000 H 
ATOM    120  H28 UNL A   1      57.001  19.751  14.600  1.00  0.00    +0.000 H 
ATOM    121  H29 UNL A   1      51.158  22.255  15.042  1.00  0.00    +0.000 H 
ATOM    122  H30 UNL A   1      51.036  21.010  12.833  1.00  0.00    +0.000 H 
ATOM    123  H31 UNL A   1      54.827  20.400  14.421  1.00  0.00    +0.000 H 
ATOM    124  H32 UNL A   1      54.865  22.810  18.831  1.00  0.00    +0.000 H 
ATOM    125  H33 UNL A   1      57.327  22.135  19.027  1.00  0.00    +0.000 H 
ATOM    126  H34 UNL A   1      56.859  17.406  10.164  1.00  0.00    +0.000 H 
ATOM    127  H35 UNL A   1      54.498  18.326   9.802  1.00  0.00    +0.000 H 
ENDROOT
BRANCH   34   33
ATOM    129  H37 UNL A   1      51.463  21.470   8.202  1.00  0.00    +0.000 H 
ATOM     33  C25 UNL A   1      52.490  19.791  10.929  1.00  0.00    +0.000 C 
ATOM    116  H24 UNL A   1      50.129  17.760   9.668  1.00  0.00    +0.000 H 
ATOM    117  H25 UNL A   1      51.594  17.989  11.581  1.00  0.00    +0.000 H 
ATOM     91  C64 UNL A   1      52.460  20.781   9.935  1.00  0.00    +0.000 C 
ATOM     92  C65 UNL A   1      51.505  20.722   8.912  1.00  0.00    +0.000 C 
ATOM    128  H36 UNL A   1      53.142  21.555   9.958  1.00  0.00    +0.000 H 
ATOM     30  C22 UNL A   1      50.611  19.648   8.854  1.00  0.00    +0.000 C 
ATOM     31  C23 UNL A   1      50.710  18.606   9.777  1.00  0.00    +0.000 C 
ATOM     32  C24 UNL A   1      51.595  18.712  10.844  1.00  0.00    +0.000 C 
BRANCH   30    2
ATOM      1  O1  UNL A   1      48.511  20.250   7.999  1.00  0.00    +0.000 O 
ATOM      2  C1  UNL A   1      49.558  19.638   7.813  1.00  0.00    +0.000 C 
BRANCH    2    3
ATOM      3  N1  UNL A   1      49.746  18.911   6.660  1.00  0.00    +0.000 N 
ATOM     93  H1  UNL A   1      49.775  19.434   5.826  1.00  0.00    +0.000 H 
BRANCH    3    4
ATOM      4  C2  UNL A   1      49.907  17.475   6.505  1.00  0.00    +0.000 C 
ATOM     94  H2  UNL A   1      49.146  16.986   7.076  1.00  0.00    +0.000 H 
ATOM     95  H3  UNL A   1      50.891  17.230   6.848  1.00  0.00    +0.000 H 
BRANCH    4    5
ATOM     97  H5  UNL A   1      48.959  17.510   4.648  1.00  0.00    +0.000 H 
ATOM      5  C3  UNL A   1      49.806  17.004   5.063  1.00  0.00    +0.000 C 
ATOM     96  H4  UNL A   1      50.729  17.237   4.575  1.00  0.00    +0.000 H 
BRANCH    5    6
ATOM     98  H6  UNL A   1      49.576  15.048   5.834  1.00  0.00    +0.000 H 
ATOM     99  H7  UNL A   1      50.284  15.171   4.186  1.00  0.00    +0.000 H 
ATOM      6  C4  UNL A   1      49.537  15.513   4.871  1.00  0.00    +0.000 C 
BRANCH    6    7
ATOM    100  H8  UNL A   1      48.386  14.862   3.217  1.00  0.00    +0.000 H 
ATOM    101  H9  UNL A   1      47.583  16.022   4.336  1.00  0.00    +0.000 H 
ATOM      7  C5  UNL A   1      48.195  15.149   4.230  1.00  0.00    +0.000 C 
BRANCH    7    8
ATOM    102  H10 UNL A   1      47.716  13.953   5.916  1.00  0.00    +0.000 H 
ATOM    103  H11 UNL A   1      47.614  13.139   4.318  1.00  0.00    +0.000 H 
ATOM      8  C6  UNL A   1      47.403  14.016   4.895  1.00  0.00    +0.000 C 
BRANCH    8    9
ATOM      9  C7  UNL A   1      45.884  14.165   4.880  1.00  0.00    +0.000 C 
ATOM    105  H13 UNL A   1      45.482  13.350   4.314  1.00  0.00    +0.000 H 
ATOM    104  H12 UNL A   1      45.527  14.155   5.890  1.00  0.00    +0.000 H 
BRANCH    9   10
ATOM     10  N2  UNL A   1      45.453  15.397   4.247  1.00  0.00    +0.000 N 
ATOM    106  H14 UNL A   1      45.657  15.476   3.287  1.00  0.00    +0.000 H 
BRANCH   10   11
ATOM     11  C8  UNL A   1      44.799  16.466   4.803  1.00  0.00    +0.000 C 
ATOM     12  O2  UNL A   1      43.855  16.280   5.564  1.00  0.00    +0.000 O 
BRANCH   11   13
ATOM    107  H15 UNL A   1      46.740  17.722   6.007  1.00  0.00    +0.000 H 
ATOM    108  H16 UNL A   1      47.574  19.974   5.663  1.00  0.00    +0.000 H 
ATOM     13  C9  UNL A   1      45.240  17.847   4.518  1.00  0.00    +0.000 C 
ATOM     14  C10 UNL A   1      46.308  18.328   5.292  1.00  0.00    +0.000 C 
ATOM     15  C11 UNL A   1      46.786  19.622   5.098  1.00  0.00    +0.000 C 
ATOM    110  H18 UNL A   1      44.694  20.576   2.666  1.00  0.00    +0.000 H 
ATOM     17  C13 UNL A   1      45.118  19.961   3.379  1.00  0.00    +0.000 C 
ATOM     18  C14 UNL A   1      44.603  18.668   3.564  1.00  0.00    +0.000 C 
ATOM     16  C12 UNL A   1      46.194  20.436   4.137  1.00  0.00    +0.000 C 
ATOM    109  H17 UNL A   1      46.550  21.392   3.984  1.00  0.00    +0.000 H 
BRANCH   18   19
ATOM     19  N3  UNL A   1      43.516  18.203   2.794  1.00  0.00    +0.000 N 
ATOM    111  H19 UNL A   1      43.733  17.445   2.202  1.00  0.00    +0.000 H 
BRANCH   19   20
ATOM    112  H20 UNL A   1      41.587  17.548   4.434  1.00  0.00    +0.000 H 
ATOM    113  H21 UNL A   1      39.297  18.330   4.430  1.00  0.00    +0.000 H 
ATOM    114  H22 UNL A   1      38.536  19.864   2.715  1.00  0.00    +0.000 H 
ATOM    115  H23 UNL A   1      42.386  19.853   1.019  1.00  0.00    +0.000 H 
ATOM     20  C15 UNL A   1      42.180  18.630   2.722  1.00  0.00    +0.000 C 
ATOM     21  C16 UNL A   1      41.273  18.204   3.701  1.00  0.00    +0.000 C 
ATOM     22  C17 UNL A   1      39.951  18.652   3.699  1.00  0.00    +0.000 C 
ATOM     23  C18 UNL A   1      39.513  19.533   2.713  1.00  0.00    +0.000 C 
ATOM     24  C19 UNL A   1      40.396  19.971   1.716  1.00  0.00    +0.000 C 
ATOM     25  C20 UNL A   1      39.919  20.925   0.649  1.00  0.00    +0.000 C 
ATOM     26  F1  UNL A   1      38.769  20.505   0.053  1.00  0.00    +0.000 F 
ATOM     27  F2  UNL A   1      39.658  22.166   1.140  1.00  0.00    +0.000 F 
ATOM     28  F3  UNL A   1      40.815  21.101  -0.362  1.00  0.00    +0.000 F 
ATOM     29  C21 UNL A   1      41.727  19.520   1.741  1.00  0.00    +0.000 C 
ENDBRANCH   19   20
ENDBRANCH   18   19
ENDBRANCH   11   13
ENDBRANCH   10   11
ENDBRANCH    9   10
ENDBRANCH    8    9
ENDBRANCH    7    8
ENDBRANCH    6    7
ENDBRANCH    5    6
ENDBRANCH    4    5
ENDBRANCH    3    4
ENDBRANCH    2    3
ENDBRANCH   30    2
ENDBRANCH   34   33
BRANCH   38   39
ATOM     39  C30 UNL A   1      59.028  17.397  11.673  1.00  0.00    +0.000 C 
ATOM     40  C31 UNL A   1      59.876  17.995  10.729  1.00  0.00    +0.000 C 
ATOM     41  F4  UNL A   1      59.838  19.321  10.532  1.00  0.00    +0.000 F 
ATOM     42  C32 UNL A   1      60.752  17.228   9.964  1.00  0.00    +0.000 C 
ATOM     43  F5  UNL A   1      61.530  17.817   9.046  1.00  0.00    +0.000 F 
ATOM     44  C33 UNL A   1      60.817  15.854  10.147  1.00  0.00    +0.000 C 
ATOM     45  F6  UNL A   1      61.670  15.120   9.420  1.00  0.00    +0.000 F 
ATOM     46  C34 UNL A   1      59.995  15.243  11.081  1.00  0.00    +0.000 C 
ATOM     47  F7  UNL A   1      60.065  13.917  11.267  1.00  0.00    +0.000 F 
ATOM     48  C35 UNL A   1      59.101  16.004  11.831  1.00  0.00    +0.000 C 
ATOM     49  F8  UNL A   1      58.317  15.383  12.724  1.00  0.00    +0.000 F 
ENDBRANCH   38   39
BRANCH   55   56
ATOM     65  C46 UNL A   1      59.435  19.765  19.086  1.00  0.00    +0.000 C 
ATOM     66  F13 UNL A   1      58.693  18.648  19.075  1.00  0.00    +0.000 F 
ATOM     56  C41 UNL A   1      59.290  20.721  18.071  1.00  0.00    +0.000 C 
ATOM     57  C42 UNL A   1      60.088  21.873  18.130  1.00  0.00    +0.000 C 
ATOM     58  F9  UNL A   1      59.997  22.807  17.171  1.00  0.00    +0.000 F 
ATOM     59  C43 UNL A   1      61.021  22.045  19.148  1.00  0.00    +0.000 C 
ATOM     60  F10 UNL A   1      61.812  23.126  19.154  1.00  0.00    +0.000 F 
ATOM     61  C44 UNL A   1      61.149  21.087  20.143  1.00  0.00    +0.000 C 
ATOM     62  F11 UNL A   1      62.051  21.250  21.120  1.00  0.00    +0.000 F 
ATOM     63  C45 UNL A   1      60.351  19.952  20.118  1.00  0.00    +0.000 C 
ATOM     64  F12 UNL A   1      60.469  19.029  21.082  1.00  0.00    +0.000 F 
ENDBRANCH   55   56
BRANCH   70   71
ATOM     71  C50 UNL A   1      52.706  22.796  17.214  1.00  0.00    +0.000 C 
ATOM     72  C51 UNL A   1      51.803  22.177  18.086  1.00  0.00    +0.000 C 
ATOM     73  F14 UNL A   1      51.755  20.839  18.165  1.00  0.00    +0.000 F 
ATOM     74  C52 UNL A   1      50.920  22.931  18.858  1.00  0.00    +0.000 C 
ATOM     75  F15 UNL A   1      50.037  22.315  19.655  1.00  0.00    +0.000 F 
ATOM     76  C53 UNL A   1      50.948  24.316  18.794  1.00  0.00    +0.000 C 
ATOM     77  F16 UNL A   1      50.106  25.040  19.545  1.00  0.00    +0.000 F 
ATOM     78  C54 UNL A   1      51.845  24.950  17.949  1.00  0.00    +0.000 C 
ATOM     79  F17 UNL A   1      51.888  26.288  17.897  1.00  0.00    +0.000 F 
ATOM     80  C55 UNL A   1      52.705  24.198  17.154  1.00  0.00    +0.000 C 
ATOM     81  F18 UNL A   1      53.556  24.837  16.339  1.00  0.00    +0.000 F 
ENDBRANCH   70   71
TORSDOF 17
ENDMDL
MODEL 4
REMARK VINA RESULT:     -10.4     63.121     68.420
ROOT
ATOM     34  C26 UNL A   1      13.129  49.622   3.732  1.00  0.00    +0.000 C 
ATOM     35  C27 UNL A   1      14.008  49.221   2.581  1.00  0.00    +0.000 C 
ATOM     36  N4  UNL A   1      14.825  49.962   1.873  1.00  0.00    +0.000 N 
ATOM     37  C28 UNL A   1      15.409  49.110   0.946  1.00  0.00    +0.000 C 
ATOM     38  C29 UNL A   1      16.300  49.408  -0.031  1.00  0.00    +0.000 C 
ATOM     50  C36 UNL A   1      16.821  50.728  -0.284  1.00  0.00    +0.000 C 
ATOM     51  C37 UNL A   1      17.723  51.132  -1.254  1.00  0.00    +0.000 C 
ATOM     52  C38 UNL A   1      17.953  52.504  -1.098  1.00  0.00    +0.000 C 
ATOM     53  C39 UNL A   1      17.163  52.964  -0.058  1.00  0.00    +0.000 C 
ATOM     54  N5  UNL A   1      16.482  51.863   0.439  1.00  0.00    +0.000 N 
ATOM     55  C40 UNL A   1      17.035  54.307   0.443  1.00  0.00    +0.000 C 
ATOM     67  C47 UNL A   1      16.229  54.685   1.465  1.00  0.00    +0.000 C 
ATOM     68  N6  UNL A   1      15.397  53.903   2.254  1.00  0.00    +0.000 N 
ATOM     69  C48 UNL A   1      14.872  54.718   3.136  1.00  0.00    +0.000 C 
ATOM     70  C49 UNL A   1      13.901  54.416   4.239  1.00  0.00    +0.000 C 
ATOM     82  C56 UNL A   1      13.483  53.148   4.411  1.00  0.00    +0.000 C 
ATOM     83  C57 UNL A   1      12.530  52.711   5.425  1.00  0.00    +0.000 C 
ATOM     84  C58 UNL A   1      12.356  51.387   5.314  1.00  0.00    +0.000 C 
ATOM     85  C59 UNL A   1      13.145  50.891   4.184  1.00  0.00    +0.000 C 
ATOM     86  N7  UNL A   1      13.815  52.000   3.735  1.00  0.00    +0.000 N 
ATOM     87  C60 UNL A   1      15.307  56.114   3.003  1.00  0.00    +0.000 C 
ATOM     88  C61 UNL A   1      16.103  56.046   1.947  1.00  0.00    +0.000 C 
ATOM     89  C62 UNL A   1      14.876  47.787   1.198  1.00  0.00    +0.000 C 
ATOM     90  C63 UNL A   1      13.978  47.808   2.173  1.00  0.00    +0.000 C 
ATOM    118  H26 UNL A   1      18.152  50.525  -1.970  1.00  0.00    +0.000 H 
ATOM    119  H27 UNL A   1      18.601  53.075  -1.663  1.00  0.00    +0.000 H 
ATOM    120  H28 UNL A   1      15.850  51.883   1.194  1.00  0.00    +0.000 H 
ATOM    121  H29 UNL A   1      12.065  53.323   6.115  1.00  0.00    +0.000 H 
ATOM    122  H30 UNL A   1      11.761  50.809   5.928  1.00  0.00    +0.000 H 
ATOM    123  H31 UNL A   1      14.469  51.976   3.001  1.00  0.00    +0.000 H 
ATOM    124  H32 UNL A   1      15.058  56.933   3.581  1.00  0.00    +0.000 H 
ATOM    125  H33 UNL A   1      16.574  56.859   1.520  1.00  0.00    +0.000 H 
ATOM    126  H34 UNL A   1      15.159  46.937   0.686  1.00  0.00    +0.000 H 
ATOM    127  H35 UNL A   1      13.405  47.035   2.548  1.00  0.00    +0.000 H 
ENDROOT
BRANCH   34   33
ATOM    129  H37 UNL A   1       8.989  47.602   4.277  1.00  0.00    +0.000 H 
ATOM     33  C25 UNL A   1      12.177  48.668   4.356  1.00  0.00    +0.000 C 
ATOM    116  H24 UNL A   1      12.209  46.111   6.535  1.00  0.00    +0.000 H 
ATOM    117  H25 UNL A   1      13.630  47.869   5.671  1.00  0.00    +0.000 H 
ATOM     91  C64 UNL A   1      10.840  48.569   3.944  1.00  0.00    +0.000 C 
ATOM     92  C65 UNL A   1       9.981  47.649   4.558  1.00  0.00    +0.000 C 
ATOM    128  H36 UNL A   1      10.488  49.175   3.187  1.00  0.00    +0.000 H 
ATOM     30  C22 UNL A   1      10.470  46.794   5.552  1.00  0.00    +0.000 C 
ATOM     31  C23 UNL A   1      11.824  46.815   5.887  1.00  0.00    +0.000 C 
ATOM     32  C24 UNL A   1      12.654  47.790   5.344  1.00  0.00    +0.000 C 
BRANCH   30    2
ATOM      1  O1  UNL A   1       8.595  45.385   5.630  1.00  0.00    +0.000 O 
ATOM      2  C1  UNL A   1       9.534  45.880   6.246  1.00  0.00    +0.000 C 
BRANCH    2    3
ATOM      3  N1  UNL A   1       9.702  45.622   7.587  1.00  0.00    +0.000 N 
ATOM     93  H1  UNL A   1      10.198  44.800   7.804  1.00  0.00    +0.000 H 
BRANCH    3    4
ATOM      4  C2  UNL A   1       9.247  46.399   8.728  1.00  0.00    +0.000 C 
ATOM     94  H2  UNL A   1       8.912  45.722   9.485  1.00  0.00    +0.000 H 
ATOM     95  H3  UNL A   1       8.462  47.038   8.380  1.00  0.00    +0.000 H 
BRANCH    4    5
ATOM     97  H5  UNL A   1      10.063  47.423  10.351  1.00  0.00    +0.000 H 
ATOM      5  C3  UNL A   1      10.323  47.296   9.320  1.00  0.00    +0.000 C 
ATOM     96  H4  UNL A   1      11.268  46.819   9.169  1.00  0.00    +0.000 H 
BRANCH    5    6
ATOM     98  H6  UNL A   1       9.784  49.341   9.324  1.00  0.00    +0.000 H 
ATOM     99  H7  UNL A   1      10.100  48.609   7.713  1.00  0.00    +0.000 H 
ATOM      6  C4  UNL A   1      10.408  48.703   8.734  1.00  0.00    +0.000 C 
BRANCH    6    7
ATOM    100  H8  UNL A   1      11.731  50.248   8.143  1.00  0.00    +0.000 H 
ATOM    101  H9  UNL A   1      12.431  48.591   8.229  1.00  0.00    +0.000 H 
ATOM      7  C5  UNL A   1      11.805  49.328   8.687  1.00  0.00    +0.000 C 
BRANCH    7    8
ATOM    102  H10 UNL A   1      11.712  49.551  10.795  1.00  0.00    +0.000 H 
ATOM    103  H11 UNL A   1      12.875  50.620   9.940  1.00  0.00    +0.000 H 
ATOM      8  C6  UNL A   1      12.463  49.637  10.037  1.00  0.00    +0.000 C 
BRANCH    8    9
ATOM      9  C7  UNL A   1      13.631  48.736  10.432  1.00  0.00    +0.000 C 
ATOM    105  H13 UNL A   1      14.385  49.355  10.871  1.00  0.00    +0.000 H 
ATOM    104  H12 UNL A   1      13.277  47.998  11.123  1.00  0.00    +0.000 H 
BRANCH    9   10
ATOM     10  N2  UNL A   1      14.220  48.061   9.292  1.00  0.00    +0.000 N 
ATOM    106  H14 UNL A   1      13.592  47.563   8.721  1.00  0.00    +0.000 H 
BRANCH   10   11
ATOM     11  C8  UNL A   1      15.534  48.022   8.900  1.00  0.00    +0.000 C 
ATOM     12  O2  UNL A   1      16.331  47.302   9.494  1.00  0.00    +0.000 O 
BRANCH   11   13
ATOM    107  H15 UNL A   1      15.298  47.348   6.394  1.00  0.00    +0.000 H 
ATOM    108  H16 UNL A   1      16.007  48.534   4.399  1.00  0.00    +0.000 H 
ATOM     13  C9  UNL A   1      15.997  48.819   7.746  1.00  0.00    +0.000 C 
ATOM     14  C10 UNL A   1      15.769  48.263   6.478  1.00  0.00    +0.000 C 
ATOM     15  C11 UNL A   1      16.179  48.940   5.332  1.00  0.00    +0.000 C 
ATOM    110  H18 UNL A   1      17.533  51.630   6.791  1.00  0.00    +0.000 H 
ATOM     17  C13 UNL A   1      17.061  50.715   6.719  1.00  0.00    +0.000 C 
ATOM     18  C14 UNL A   1      16.676  50.047   7.892  1.00  0.00    +0.000 C 
ATOM     16  C12 UNL A   1      16.820  50.169   5.453  1.00  0.00    +0.000 C 
ATOM    109  H17 UNL A   1      17.118  50.679   4.608  1.00  0.00    +0.000 H 
BRANCH   18   19
ATOM     19  N3  UNL A   1      16.928  50.607   9.162  1.00  0.00    +0.000 N 
ATOM    111  H19 UNL A   1      17.848  50.473   9.490  1.00  0.00    +0.000 H 
BRANCH   19   20
ATOM    112  H20 UNL A   1      17.201  50.779  11.757  1.00  0.00    +0.000 H 
ATOM    113  H21 UNL A   1      15.877  52.075  13.314  1.00  0.00    +0.000 H 
ATOM    114  H22 UNL A   1      13.991  53.374  12.521  1.00  0.00    +0.000 H 
ATOM    115  H23 UNL A   1      14.780  52.095   8.592  1.00  0.00    +0.000 H 
ATOM     20  C15 UNL A   1      16.099  51.322  10.042  1.00  0.00    +0.000 C 
ATOM     21  C16 UNL A   1      16.401  51.332  11.410  1.00  0.00    +0.000 C 
ATOM     22  C17 UNL A   1      15.637  52.077  12.310  1.00  0.00    +0.000 C 
ATOM     23  C18 UNL A   1      14.553  52.823  11.854  1.00  0.00    +0.000 C 
ATOM     24  C19 UNL A   1      14.221  52.827  10.492  1.00  0.00    +0.000 C 
ATOM     25  C20 UNL A   1      13.045  53.636  10.003  1.00  0.00    +0.000 C 
ATOM     26  F1  UNL A   1      11.914  53.397  10.722  1.00  0.00    +0.000 F 
ATOM     27  F2  UNL A   1      13.267  54.975  10.081  1.00  0.00    +0.000 F 
ATOM     28  F3  UNL A   1      12.717  53.385   8.705  1.00  0.00    +0.000 F 
ATOM     29  C21 UNL A   1      15.009  52.082   9.599  1.00  0.00    +0.000 C 
ENDBRANCH   19   20
ENDBRANCH   18   19
ENDBRANCH   11   13
ENDBRANCH   10   11
ENDBRANCH    9   10
ENDBRANCH    8    9
ENDBRANCH    7    8
ENDBRANCH    6    7
ENDBRANCH    5    6
ENDBRANCH    4    5
ENDBRANCH    3    4
ENDBRANCH    2    3
ENDBRANCH   30    2
ENDBRANCH   34   33
BRANCH   38   39
ATOM     39  C30 UNL A   1      16.778  48.287  -0.908  1.00  0.00    +0.000 C 
ATOM     40  C31 UNL A   1      16.044  47.869  -2.028  1.00  0.00    +0.000 C 
ATOM     41  F4  UNL A   1      14.851  48.419  -2.296  1.00  0.00    +0.000 F 
ATOM     42  C32 UNL A   1      16.524  46.864  -2.866  1.00  0.00    +0.000 C 
ATOM     43  F5  UNL A   1      15.791  46.459  -3.911  1.00  0.00    +0.000 F 
ATOM     44  C33 UNL A   1      17.756  46.278  -2.616  1.00  0.00    +0.000 C 
ATOM     45  F6  UNL A   1      18.222  45.321  -3.431  1.00  0.00    +0.000 F 
ATOM     46  C34 UNL A   1      18.503  46.682  -1.520  1.00  0.00    +0.000 C 
ATOM     47  F7  UNL A   1      19.700  46.125  -1.285  1.00  0.00    +0.000 F 
ATOM     48  C35 UNL A   1      18.016  47.670  -0.668  1.00  0.00    +0.000 C 
ATOM     49  F8  UNL A   1      18.760  48.037   0.386  1.00  0.00    +0.000 F 
ENDBRANCH   38   39
BRANCH   55   56
ATOM     65  C46 UNL A   1      19.067  55.796   0.329  1.00  0.00    +0.000 C 
ATOM     66  F13 UNL A   1      19.536  55.222   1.447  1.00  0.00    +0.000 F 
ATOM     56  C41 UNL A   1      17.840  55.389  -0.214  1.00  0.00    +0.000 C 
ATOM     57  C42 UNL A   1      17.392  56.023  -1.382  1.00  0.00    +0.000 C 
ATOM     58  F9  UNL A   1      16.232  55.655  -1.948  1.00  0.00    +0.000 F 
ATOM     59  C43 UNL A   1      18.161  57.002  -2.004  1.00  0.00    +0.000 C 
ATOM     60  F10 UNL A   1      17.741  57.554  -3.150  1.00  0.00    +0.000 F 
ATOM     61  C44 UNL A   1      19.372  57.389  -1.451  1.00  0.00    +0.000 C 
ATOM     62  F11 UNL A   1      20.115  58.328  -2.053  1.00  0.00    +0.000 F 
ATOM     63  C45 UNL A   1      19.821  56.794  -0.281  1.00  0.00    +0.000 C 
ATOM     64  F12 UNL A   1      20.988  57.173   0.258  1.00  0.00    +0.000 F 
ENDBRANCH   55   56
BRANCH   70   71
ATOM     71  C50 UNL A   1      13.402  55.484   5.142  1.00  0.00    +0.000 C 
ATOM     72  C51 UNL A   1      12.294  56.268   4.797  1.00  0.00    +0.000 C 
ATOM     73  F14 UNL A   1      11.682  56.081   3.618  1.00  0.00    +0.000 F 
ATOM     74  C52 UNL A   1      11.831  57.269   5.648  1.00  0.00    +0.000 C 
ATOM     75  F15 UNL A   1      10.794  58.033   5.277  1.00  0.00    +0.000 F 
ATOM     76  C53 UNL A   1      12.446  57.483   6.872  1.00  0.00    +0.000 C 
ATOM     77  F16 UNL A   1      11.993  58.440   7.694  1.00  0.00    +0.000 F 
ATOM     78  C54 UNL A   1      13.535  56.710   7.241  1.00  0.00    +0.000 C 
ATOM     79  F17 UNL A   1      14.122  56.900   8.430  1.00  0.00    +0.000 F 
ATOM     80  C55 UNL A   1      14.019  55.730   6.379  1.00  0.00    +0.000 C 
ATOM     81  F18 UNL A   1      15.079  55.002   6.757  1.00  0.00    +0.000 F 
ENDBRANCH   70   71
TORSDOF 17
ENDMDL
MODEL 5
REMARK VINA RESULT:     -10.4     61.288     68.183
ROOT
ATOM     34  C26 UNL A   1      14.329  50.123   4.412  1.00  0.00    +0.000 C 
ATOM     35  C27 UNL A   1      14.374  51.591   4.728  1.00  0.00    +0.000 C 
ATOM     36  N4  UNL A   1      14.861  52.572   4.010  1.00  0.00    +0.000 N 
ATOM     37  C28 UNL A   1      14.638  53.731   4.742  1.00  0.00    +0.000 C 
ATOM     38  C29 UNL A   1      14.990  55.004   4.436  1.00  0.00    +0.000 C 
ATOM     50  C36 UNL A   1      15.688  55.390   3.236  1.00  0.00    +0.000 C 
ATOM     51  C37 UNL A   1      16.094  56.653   2.839  1.00  0.00    +0.000 C 
ATOM     52  C38 UNL A   1      16.711  56.545   1.588  1.00  0.00    +0.000 C 
ATOM     53  C39 UNL A   1      16.728  55.209   1.223  1.00  0.00    +0.000 C 
ATOM     54  N5  UNL A   1      16.088  54.513   2.237  1.00  0.00    +0.000 N 
ATOM     55  C40 UNL A   1      17.289  54.611   0.040  1.00  0.00    +0.000 C 
ATOM     67  C47 UNL A   1      17.275  53.286  -0.245  1.00  0.00    +0.000 C 
ATOM     68  N6  UNL A   1      16.720  52.244   0.482  1.00  0.00    +0.000 N 
ATOM     69  C48 UNL A   1      16.919  51.163  -0.233  1.00  0.00    +0.000 C 
ATOM     70  C49 UNL A   1      16.526  49.747   0.069  1.00  0.00    +0.000 C 
ATOM     82  C56 UNL A   1      15.859  49.483   1.207  1.00  0.00    +0.000 C 
ATOM     83  C57 UNL A   1      15.430  48.157   1.638  1.00  0.00    +0.000 C 
ATOM     84  C58 UNL A   1      14.786  48.269   2.808  1.00  0.00    +0.000 C 
ATOM     85  C59 UNL A   1      14.805  49.670   3.235  1.00  0.00    +0.000 C 
ATOM     86  N7  UNL A   1      15.425  50.324   2.202  1.00  0.00    +0.000 N 
ATOM     87  C60 UNL A   1      17.630  51.396  -1.495  1.00  0.00    +0.000 C 
ATOM     88  C61 UNL A   1      17.858  52.700  -1.436  1.00  0.00    +0.000 C 
ATOM     89  C62 UNL A   1      13.945  53.336   5.950  1.00  0.00    +0.000 C 
ATOM     90  C63 UNL A   1      13.791  52.020   6.008  1.00  0.00    +0.000 C 
ATOM    118  H26 UNL A   1      15.964  57.526   3.375  1.00  0.00    +0.000 H 
ATOM    119  H27 UNL A   1      17.090  57.328   1.031  1.00  0.00    +0.000 H 
ATOM    120  H28 UNL A   1      15.940  53.540   2.248  1.00  0.00    +0.000 H 
ATOM    121  H29 UNL A   1      15.598  47.276   1.127  1.00  0.00    +0.000 H 
ATOM    122  H30 UNL A   1      14.347  47.491   3.325  1.00  0.00    +0.000 H 
ATOM    123  H31 UNL A   1      15.547  51.300   2.175  1.00  0.00    +0.000 H 
ATOM    124  H32 UNL A   1      17.886  50.722  -2.235  1.00  0.00    +0.000 H 
ATOM    125  H33 UNL A   1      18.383  53.232  -2.147  1.00  0.00    +0.000 H 
ATOM    126  H34 UNL A   1      13.613  53.994   6.672  1.00  0.00    +0.000 H 
ATOM    127  H35 UNL A   1      13.372  51.446   6.757  1.00  0.00    +0.000 H 
ENDROOT
BRANCH   34   33
ATOM    129  H37 UNL A   1      11.080  47.490   6.419  1.00  0.00    +0.000 H 
ATOM     33  C25 UNL A   1      13.833  49.127   5.396  1.00  0.00    +0.000 C 
ATOM    116  H24 UNL A   1      15.055  47.019   7.709  1.00  0.00    +0.000 H 
ATOM    117  H25 UNL A   1      15.738  48.841   6.270  1.00  0.00    +0.000 H 
ATOM     91  C64 UNL A   1      12.492  48.713   5.431  1.00  0.00    +0.000 C 
ATOM     92  C65 UNL A   1      12.073  47.766   6.372  1.00  0.00    +0.000 C 
ATOM    128  H36 UNL A   1      11.814  49.109   4.761  1.00  0.00    +0.000 H 
ATOM     30  C22 UNL A   1      13.002  47.195   7.248  1.00  0.00    +0.000 C 
ATOM     31  C23 UNL A   1      14.354  47.522   7.143  1.00  0.00    +0.000 C 
ATOM     32  C24 UNL A   1      14.754  48.530   6.273  1.00  0.00    +0.000 C 
BRANCH   30    2
ATOM      1  O1  UNL A   1      11.617  45.473   8.039  1.00  0.00    +0.000 O 
ATOM      2  C1  UNL A   1      12.532  46.252   8.289  1.00  0.00    +0.000 C 
BRANCH    2    3
ATOM      3  N1  UNL A   1      13.099  46.282   9.543  1.00  0.00    +0.000 N 
ATOM     93  H1  UNL A   1      14.056  46.509   9.572  1.00  0.00    +0.000 H 
BRANCH    3    4
ATOM      4  C2  UNL A   1      12.475  46.023  10.830  1.00  0.00    +0.000 C 
ATOM     94  H2  UNL A   1      12.868  45.107  11.218  1.00  0.00    +0.000 H 
ATOM     95  H3  UNL A   1      11.419  45.973  10.663  1.00  0.00    +0.000 H 
BRANCH    4    5
ATOM     97  H5  UNL A   1      12.825  46.628  12.795  1.00  0.00    +0.000 H 
ATOM      5  C3  UNL A   1      12.714  47.123  11.853  1.00  0.00    +0.000 C 
ATOM     96  H4  UNL A   1      13.580  47.672  11.549  1.00  0.00    +0.000 H 
BRANCH    5    6
ATOM     98  H6  UNL A   1      11.833  48.777  12.834  1.00  0.00    +0.000 H 
ATOM     99  H7  UNL A   1      10.699  47.522  12.225  1.00  0.00    +0.000 H 
ATOM      6  C4  UNL A   1      11.568  48.116  12.035  1.00  0.00    +0.000 C 
BRANCH    6    7
ATOM    100  H8  UNL A   1      10.444  49.651  11.104  1.00  0.00    +0.000 H 
ATOM    101  H9  UNL A   1      10.942  48.278  10.049  1.00  0.00    +0.000 H 
ATOM      7  C5  UNL A   1      11.221  48.973  10.814  1.00  0.00    +0.000 C 
BRANCH    7    8
ATOM    102  H10 UNL A   1      12.359  49.644   9.154  1.00  0.00    +0.000 H 
ATOM    103  H11 UNL A   1      13.252  49.467  10.702  1.00  0.00    +0.000 H 
ATOM      8  C6  UNL A   1      12.362  49.802  10.212  1.00  0.00    +0.000 C 
BRANCH    8    9
ATOM      9  C7  UNL A   1      12.297  51.308  10.460  1.00  0.00    +0.000 C 
ATOM    105  H13 UNL A   1      11.281  51.616  10.325  1.00  0.00    +0.000 H 
ATOM    104  H12 UNL A   1      12.638  51.507  11.455  1.00  0.00    +0.000 H 
BRANCH    9   10
ATOM     10  N2  UNL A   1      13.116  52.059   9.528  1.00  0.00    +0.000 N 
ATOM    106  H14 UNL A   1      12.683  52.294   8.676  1.00  0.00    +0.000 H 
BRANCH   10   11
ATOM     11  C8  UNL A   1      14.409  52.490   9.674  1.00  0.00    +0.000 C 
ATOM     12  O2  UNL A   1      14.681  53.678   9.530  1.00  0.00    +0.000 O 
BRANCH   11   13
ATOM    107  H15 UNL A   1      15.390  50.643   8.118  1.00  0.00    +0.000 H 
ATOM    108  H16 UNL A   1      17.132  49.013   8.558  1.00  0.00    +0.000 H 
ATOM     13  C9  UNL A   1      15.481  51.539  10.034  1.00  0.00    +0.000 C 
ATOM     14  C10 UNL A   1      15.856  50.622   9.039  1.00  0.00    +0.000 C 
ATOM     15  C11 UNL A   1      16.853  49.684   9.291  1.00  0.00    +0.000 C 
ATOM    110  H18 UNL A   1      17.558  50.531  12.451  1.00  0.00    +0.000 H 
ATOM     17  C13 UNL A   1      17.085  50.560  11.534  1.00  0.00    +0.000 C 
ATOM     18  C14 UNL A   1      16.071  51.506  11.314  1.00  0.00    +0.000 C 
ATOM     16  C12 UNL A   1      17.472  49.657  10.537  1.00  0.00    +0.000 C 
ATOM    109  H17 UNL A   1      18.216  48.969  10.726  1.00  0.00    +0.000 H 
BRANCH   18   19
ATOM     19  N3  UNL A   1      15.690  52.409  12.329  1.00  0.00    +0.000 N 
ATOM    111  H19 UNL A   1      16.379  53.073  12.562  1.00  0.00    +0.000 H 
BRANCH   19   20
ATOM    112  H20 UNL A   1      14.322  54.602  12.728  1.00  0.00    +0.000 H 
ATOM    113  H21 UNL A   1      12.217  54.856  13.895  1.00  0.00    +0.000 H 
ATOM    114  H22 UNL A   1      11.159  52.936  14.929  1.00  0.00    +0.000 H 
ATOM    115  H23 UNL A   1      14.314  50.496  13.594  1.00  0.00    +0.000 H 
ATOM     20  C15 UNL A   1      14.500  52.527  13.068  1.00  0.00    +0.000 C 
ATOM     21  C16 UNL A   1      13.877  53.778  13.163  1.00  0.00    +0.000 C 
ATOM     22  C17 UNL A   1      12.664  53.927  13.837  1.00  0.00    +0.000 C 
ATOM     23  C18 UNL A   1      12.056  52.824  14.432  1.00  0.00    +0.000 C 
ATOM     24  C19 UNL A   1      12.660  51.561  14.361  1.00  0.00    +0.000 C 
ATOM     25  C20 UNL A   1      11.999  50.368  15.006  1.00  0.00    +0.000 C 
ATOM     26  F1  UNL A   1      11.648  50.606  16.301  1.00  0.00    +0.000 F 
ATOM     27  F2  UNL A   1      10.856  49.998  14.368  1.00  0.00    +0.000 F 
ATOM     28  F3  UNL A   1      12.789  49.259  15.036  1.00  0.00    +0.000 F 
ATOM     29  C21 UNL A   1      13.874  51.427  13.666  1.00  0.00    +0.000 C 
ENDBRANCH   19   20
ENDBRANCH   18   19
ENDBRANCH   11   13
ENDBRANCH   10   11
ENDBRANCH    9   10
ENDBRANCH    8    9
ENDBRANCH    7    8
ENDBRANCH    6    7
ENDBRANCH    5    6
ENDBRANCH    4    5
ENDBRANCH    3    4
ENDBRANCH    2    3
ENDBRANCH   30    2
ENDBRANCH   34   33
BRANCH   38   39
ATOM     39  C30 UNL A   1      14.626  56.084   5.413  1.00  0.00    +0.000 C 
ATOM     40  C31 UNL A   1      15.589  56.677   6.242  1.00  0.00    +0.000 C 
ATOM     41  F4  UNL A   1      16.855  56.234   6.230  1.00  0.00    +0.000 F 
ATOM     42  C32 UNL A   1      15.251  57.716   7.106  1.00  0.00    +0.000 C 
ATOM     43  F5  UNL A   1      16.181  58.247   7.911  1.00  0.00    +0.000 F 
ATOM     44  C33 UNL A   1      13.951  58.200   7.139  1.00  0.00    +0.000 C 
ATOM     45  F6  UNL A   1      13.630  59.208   7.961  1.00  0.00    +0.000 F 
ATOM     46  C34 UNL A   1      12.984  57.634   6.322  1.00  0.00    +0.000 C 
ATOM     47  F7  UNL A   1      11.730  58.108   6.344  1.00  0.00    +0.000 F 
ATOM     48  C35 UNL A   1      13.314  56.580   5.474  1.00  0.00    +0.000 C 
ATOM     49  F8  UNL A   1      12.356  56.052   4.698  1.00  0.00    +0.000 F 
ENDBRANCH   38   39
BRANCH   55   56
ATOM     65  C46 UNL A   1      19.303  55.864  -0.814  1.00  0.00    +0.000 C 
ATOM     66  F13 UNL A   1      20.014  55.409   0.229  1.00  0.00    +0.000 F 
ATOM     56  C41 UNL A   1      17.956  55.507  -0.961  1.00  0.00    +0.000 C 
ATOM     57  C42 UNL A   1      17.256  56.012  -2.067  1.00  0.00    +0.000 C 
ATOM     58  F9  UNL A   1      15.969  55.684  -2.259  1.00  0.00    +0.000 F 
ATOM     59  C43 UNL A   1      17.892  56.815  -3.009  1.00  0.00    +0.000 C 
ATOM     60  F10 UNL A   1      17.219  57.241  -4.087  1.00  0.00    +0.000 F 
ATOM     61  C44 UNL A   1      19.226  57.156  -2.845  1.00  0.00    +0.000 C 
ATOM     62  F11 UNL A   1      19.839  57.925  -3.755  1.00  0.00    +0.000 F 
ATOM     63  C45 UNL A   1      19.929  56.689  -1.744  1.00  0.00    +0.000 C 
ATOM     64  F12 UNL A   1      21.217  57.024  -1.581  1.00  0.00    +0.000 F 
ENDBRANCH   55   56
BRANCH   70   71
ATOM     71  C50 UNL A   1      16.852  48.640  -0.867  1.00  0.00    +0.000 C 
ATOM     72  C51 UNL A   1      16.041  48.363  -1.974  1.00  0.00    +0.000 C 
ATOM     73  F14 UNL A   1      14.929  49.082  -2.188  1.00  0.00    +0.000 F 
ATOM     74  C52 UNL A   1      16.351  47.323  -2.848  1.00  0.00    +0.000 C 
ATOM     75  F15 UNL A   1      15.537  47.051  -3.877  1.00  0.00    +0.000 F 
ATOM     76  C53 UNL A   1      17.494  46.563  -2.649  1.00  0.00    +0.000 C 
ATOM     77  F16 UNL A   1      17.797  45.569  -3.496  1.00  0.00    +0.000 F 
ATOM     78  C54 UNL A   1      18.320  46.829  -1.568  1.00  0.00    +0.000 C 
ATOM     79  F17 UNL A   1      19.435  46.110  -1.381  1.00  0.00    +0.000 F 
ATOM     80  C55 UNL A   1      17.994  47.847  -0.677  1.00  0.00    +0.000 C 
ATOM     81  F18 UNL A   1      18.806  48.078   0.366  1.00  0.00    +0.000 F 
ENDBRANCH   70   71
TORSDOF 17
ENDMDL
MODEL 6
REMARK VINA RESULT:     -10.4     62.105     68.375
ROOT
ATOM     34  C26 UNL A   1      13.195  49.683   3.511  1.00  0.00    +0.000 C 
ATOM     35  C27 UNL A   1      14.112  49.328   2.375  1.00  0.00    +0.000 C 
ATOM     36  N4  UNL A   1      14.971  50.089   1.743  1.00  0.00    +0.000 N 
ATOM     37  C28 UNL A   1      15.577  49.277   0.794  1.00  0.00    +0.000 C 
ATOM     38  C29 UNL A   1      16.512  49.610  -0.129  1.00  0.00    +0.000 C 
ATOM     50  C36 UNL A   1      17.067  50.931  -0.287  1.00  0.00    +0.000 C 
ATOM     51  C37 UNL A   1      18.015  51.369  -1.196  1.00  0.00    +0.000 C 
ATOM     52  C38 UNL A   1      18.264  52.725  -0.956  1.00  0.00    +0.000 C 
ATOM     53  C39 UNL A   1      17.441  53.144   0.076  1.00  0.00    +0.000 C 
ATOM     54  N5  UNL A   1      16.720  52.031   0.484  1.00  0.00    +0.000 N 
ATOM     55  C40 UNL A   1      17.317  54.460   0.646  1.00  0.00    +0.000 C 
ATOM     67  C47 UNL A   1      16.476  54.797   1.653  1.00  0.00    +0.000 C 
ATOM     68  N6  UNL A   1      15.600  53.991   2.364  1.00  0.00    +0.000 N 
ATOM     69  C48 UNL A   1      15.054  54.767   3.269  1.00  0.00    +0.000 C 
ATOM     70  C49 UNL A   1      14.033  54.425   4.313  1.00  0.00    +0.000 C 
ATOM     82  C56 UNL A   1      13.585  53.159   4.398  1.00  0.00    +0.000 C 
ATOM     83  C57 UNL A   1      12.584  52.687   5.348  1.00  0.00    +0.000 C 
ATOM     84  C58 UNL A   1      12.389  51.374   5.157  1.00  0.00    +0.000 C 
ATOM     85  C59 UNL A   1      13.215  50.925   4.033  1.00  0.00    +0.000 C 
ATOM     86  N7  UNL A   1      13.923  52.043   3.673  1.00  0.00    +0.000 N 
ATOM     87  C60 UNL A   1      15.519  56.159   3.231  1.00  0.00    +0.000 C 
ATOM     88  C61 UNL A   1      16.356  56.132   2.205  1.00  0.00    +0.000 C 
ATOM     89  C62 UNL A   1      15.010  47.954   0.951  1.00  0.00    +0.000 C 
ATOM     90  C63 UNL A   1      14.073  47.940   1.889  1.00  0.00    +0.000 C 
ATOM    118  H26 UNL A   1      18.463  50.793  -1.928  1.00  0.00    +0.000 H 
ATOM    119  H27 UNL A   1      18.945  53.313  -1.462  1.00  0.00    +0.000 H 
ATOM    120  H28 UNL A   1      16.058  52.023   1.213  1.00  0.00    +0.000 H 
ATOM    121  H29 UNL A   1      12.102  53.269   6.051  1.00  0.00    +0.000 H 
ATOM    122  H30 UNL A   1      11.759  50.776   5.713  1.00  0.00    +0.000 H 
ATOM    123  H31 UNL A   1      14.606  52.045   2.965  1.00  0.00    +0.000 H 
ATOM    124  H32 UNL A   1      15.262  56.950   3.843  1.00  0.00    +0.000 H 
ATOM    125  H33 UNL A   1      16.859  56.958   1.843  1.00  0.00    +0.000 H 
ATOM    126  H34 UNL A   1      15.298  47.128   0.404  1.00  0.00    +0.000 H 
ATOM    127  H35 UNL A   1      13.472  47.160   2.197  1.00  0.00    +0.000 H 
ENDROOT
BRANCH   34   33
ATOM    129  H37 UNL A   1       9.017  47.679   3.733  1.00  0.00    +0.000 H 
ATOM     33  C25 UNL A   1      12.200  48.717   4.043  1.00  0.00    +0.000 C 
ATOM    116  H24 UNL A   1      12.084  46.085   6.129  1.00  0.00    +0.000 H 
ATOM    117  H25 UNL A   1      13.566  47.861   5.414  1.00  0.00    +0.000 H 
ATOM     91  C64 UNL A   1      10.890  48.642   3.547  1.00  0.00    +0.000 C 
ATOM     92  C65 UNL A   1       9.990  47.709   4.075  1.00  0.00    +0.000 C 
ATOM    128  H36 UNL A   1      10.588  49.277   2.791  1.00  0.00    +0.000 H 
ATOM     30  C22 UNL A   1      10.412  46.816   5.067  1.00  0.00    +0.000 C 
ATOM     31  C23 UNL A   1      11.744  46.815   5.484  1.00  0.00    +0.000 C 
ATOM     32  C24 UNL A   1      12.611  47.801   5.027  1.00  0.00    +0.000 C 
BRANCH   30    2
ATOM      1  O1  UNL A   1       8.671  45.248   4.949  1.00  0.00    +0.000 O 
ATOM      2  C1  UNL A   1       9.430  45.887   5.671  1.00  0.00    +0.000 C 
BRANCH    2    3
ATOM      3  N1  UNL A   1       9.351  45.775   7.040  1.00  0.00    +0.000 N 
ATOM     93  H1  UNL A   1       9.777  44.977   7.428  1.00  0.00    +0.000 H 
BRANCH    3    4
ATOM      4  C2  UNL A   1       8.721  46.675   7.992  1.00  0.00    +0.000 C 
ATOM     94  H2  UNL A   1       8.109  46.096   8.650  1.00  0.00    +0.000 H 
ATOM     95  H3  UNL A   1       8.151  47.382   7.426  1.00  0.00    +0.000 H 
BRANCH    4    5
ATOM     97  H5  UNL A   1       9.185  47.764   9.709  1.00  0.00    +0.000 H 
ATOM      5  C3  UNL A   1       9.715  47.467   8.828  1.00  0.00    +0.000 C 
ATOM     96  H4  UNL A   1      10.557  46.836   9.022  1.00  0.00    +0.000 H 
BRANCH    5    6
ATOM     98  H6  UNL A   1       9.655  49.567   8.590  1.00  0.00    +0.000 H 
ATOM     99  H7  UNL A   1      10.130  48.620   7.138  1.00  0.00    +0.000 H 
ATOM      6  C4  UNL A   1      10.230  48.757   8.195  1.00  0.00    +0.000 C 
BRANCH    6    7
ATOM    100  H8  UNL A   1      11.767  50.055   8.858  1.00  0.00    +0.000 H 
ATOM    101  H9  UNL A   1      12.175  48.985   7.469  1.00  0.00    +0.000 H 
ATOM      7  C5  UNL A   1      11.710  49.076   8.429  1.00  0.00    +0.000 C 
BRANCH    7    8
ATOM    102  H10 UNL A   1      13.156  47.554   8.737  1.00  0.00    +0.000 H 
ATOM    103  H11 UNL A   1      11.736  47.526   9.836  1.00  0.00    +0.000 H 
ATOM      8  C6  UNL A   1      12.481  48.118   9.346  1.00  0.00    +0.000 C 
BRANCH    8    9
ATOM      9  C7  UNL A   1      13.291  48.771  10.463  1.00  0.00    +0.000 C 
ATOM    105  H13 UNL A   1      13.352  49.818  10.252  1.00  0.00    +0.000 H 
ATOM    104  H12 UNL A   1      12.801  48.586  11.397  1.00  0.00    +0.000 H 
BRANCH    9   10
ATOM     10  N2  UNL A   1      14.645  48.255  10.539  1.00  0.00    +0.000 N 
ATOM    106  H14 UNL A   1      14.763  47.449  11.092  1.00  0.00    +0.000 H 
BRANCH   10   11
ATOM     11  C8  UNL A   1      15.783  48.736   9.946  1.00  0.00    +0.000 C 
ATOM     12  O2  UNL A   1      16.776  48.976  10.626  1.00  0.00    +0.000 O 
BRANCH   11   13
ATOM    107  H15 UNL A   1      15.750  46.855   8.143  1.00  0.00    +0.000 H 
ATOM    108  H16 UNL A   1      15.841  47.027   5.724  1.00  0.00    +0.000 H 
ATOM     13  C9  UNL A   1      15.839  48.942   8.484  1.00  0.00    +0.000 C 
ATOM     14  C10 UNL A   1      15.811  47.782   7.694  1.00  0.00    +0.000 C 
ATOM     15  C11 UNL A   1      15.866  47.879   6.306  1.00  0.00    +0.000 C 
ATOM    110  H18 UNL A   1      16.060  51.209   6.038  1.00  0.00    +0.000 H 
ATOM     17  C13 UNL A   1      16.000  50.287   6.497  1.00  0.00    +0.000 C 
ATOM     18  C14 UNL A   1      15.964  50.219   7.899  1.00  0.00    +0.000 C 
ATOM     16  C12 UNL A   1      15.955  49.133   5.708  1.00  0.00    +0.000 C 
ATOM    109  H17 UNL A   1      15.988  49.210   4.680  1.00  0.00    +0.000 H 
BRANCH   18   19
ATOM     19  N3  UNL A   1      16.012  51.392   8.683  1.00  0.00    +0.000 N 
ATOM    111  H19 UNL A   1      16.897  51.824   8.713  1.00  0.00    +0.000 H 
BRANCH   19   20
ATOM    112  H20 UNL A   1      13.781  52.393   7.759  1.00  0.00    +0.000 H 
ATOM    113  H21 UNL A   1      11.988  53.441   9.001  1.00  0.00    +0.000 H 
ATOM    114  H22 UNL A   1      12.174  53.724  11.401  1.00  0.00    +0.000 H 
ATOM    115  H23 UNL A   1      15.951  51.875  11.313  1.00  0.00    +0.000 H 
ATOM     20  C15 UNL A   1      15.022  52.050   9.430  1.00  0.00    +0.000 C 
ATOM     21  C16 UNL A   1      13.868  52.506   8.781  1.00  0.00    +0.000 C 
ATOM     22  C17 UNL A   1      12.833  53.113   9.496  1.00  0.00    +0.000 C 
ATOM     23  C18 UNL A   1      12.940  53.277  10.875  1.00  0.00    +0.000 C 
ATOM     24  C19 UNL A   1      14.086  52.838  11.551  1.00  0.00    +0.000 C 
ATOM     25  C20 UNL A   1      14.199  53.017  13.045  1.00  0.00    +0.000 C 
ATOM     26  F1  UNL A   1      13.929  54.292  13.438  1.00  0.00    +0.000 F 
ATOM     27  F2  UNL A   1      13.336  52.220  13.731  1.00  0.00    +0.000 F 
ATOM     28  F3  UNL A   1      15.439  52.735  13.534  1.00  0.00    +0.000 F 
ATOM     29  C21 UNL A   1      15.112  52.216  10.818  1.00  0.00    +0.000 C 
ENDBRANCH   19   20
ENDBRANCH   18   19
ENDBRANCH   11   13
ENDBRANCH   10   11
ENDBRANCH    9   10
ENDBRANCH    8    9
ENDBRANCH    7    8
ENDBRANCH    6    7
ENDBRANCH    5    6
ENDBRANCH    4    5
ENDBRANCH    3    4
ENDBRANCH    2    3
ENDBRANCH   30    2
ENDBRANCH   34   33
BRANCH   38   39
ATOM     39  C30 UNL A   1      17.005  48.529  -1.047  1.00  0.00    +0.000 C 
ATOM     40  C31 UNL A   1      18.113  47.735  -0.716  1.00  0.00    +0.000 C 
ATOM     41  F4  UNL A   1      18.806  47.979   0.405  1.00  0.00    +0.000 F 
ATOM     42  C32 UNL A   1      18.529  46.700  -1.551  1.00  0.00    +0.000 C 
ATOM     43  F5  UNL A   1      19.608  45.975  -1.229  1.00  0.00    +0.000 F 
ATOM     44  C33 UNL A   1      17.830  46.420  -2.716  1.00  0.00    +0.000 C 
ATOM     45  F6  UNL A   1      18.223  45.415  -3.510  1.00  0.00    +0.000 F 
ATOM     46  C34 UNL A   1      16.726  47.186  -3.059  1.00  0.00    +0.000 C 
ATOM     47  F7  UNL A   1      16.043  46.910  -4.178  1.00  0.00    +0.000 F 
ATOM     48  C35 UNL A   1      16.322  48.237  -2.239  1.00  0.00    +0.000 C 
ATOM     49  F8  UNL A   1      15.252  48.962  -2.599  1.00  0.00    +0.000 F 
ENDBRANCH   38   39
BRANCH   55   56
ATOM     65  C46 UNL A   1      17.762  56.262  -1.061  1.00  0.00    +0.000 C 
ATOM     66  F13 UNL A   1      16.606  55.957  -1.668  1.00  0.00    +0.000 F 
ATOM     56  C41 UNL A   1      18.168  55.559   0.083  1.00  0.00    +0.000 C 
ATOM     57  C42 UNL A   1      19.387  55.915   0.678  1.00  0.00    +0.000 C 
ATOM     58  F9  UNL A   1      19.807  55.283   1.785  1.00  0.00    +0.000 F 
ATOM     59  C43 UNL A   1      20.153  56.959   0.170  1.00  0.00    +0.000 C 
ATOM     60  F10 UNL A   1      21.286  57.319   0.788  1.00  0.00    +0.000 F 
ATOM     61  C44 UNL A   1      19.734  57.642  -0.962  1.00  0.00    +0.000 C 
ATOM     62  F11 UNL A   1      20.469  58.651  -1.448  1.00  0.00    +0.000 F 
ATOM     63  C45 UNL A   1      18.545  57.288  -1.582  1.00  0.00    +0.000 C 
ATOM     64  F12 UNL A   1      18.142  57.943  -2.680  1.00  0.00    +0.000 F 
ENDBRANCH   55   56
BRANCH   70   71
ATOM     71  C50 UNL A   1      13.517  55.452   5.254  1.00  0.00    +0.000 C 
ATOM     72  C51 UNL A   1      14.070  55.610   6.531  1.00  0.00    +0.000 C 
ATOM     73  F14 UNL A   1      15.063  54.805   6.936  1.00  0.00    +0.000 F 
ATOM     74  C52 UNL A   1      13.582  56.576   7.409  1.00  0.00    +0.000 C 
ATOM     75  F15 UNL A   1      14.100  56.680   8.640  1.00  0.00    +0.000 F 
ATOM     76  C53 UNL A   1      12.555  57.420   7.016  1.00  0.00    +0.000 C 
ATOM     77  F16 UNL A   1      12.093  58.355   7.858  1.00  0.00    +0.000 F 
ATOM     78  C54 UNL A   1      12.002  57.293   5.751  1.00  0.00    +0.000 C 
ATOM     79  F17 UNL A   1      11.023  58.118   5.359  1.00  0.00    +0.000 F 
ATOM     80  C55 UNL A   1      12.468  56.308   4.884  1.00  0.00    +0.000 C 
ATOM     81  F18 UNL A   1      11.909  56.200   3.669  1.00  0.00    +0.000 F 
ENDBRANCH   70   71
TORSDOF 17
ENDMDL
MODEL 7
REMARK VINA RESULT:     -10.4     34.776     41.476
ROOT
ATOM     34  C26 UNL A   1      53.017  19.905  11.572  1.00  0.00    +0.000 C 
ATOM     35  C27 UNL A   1      54.360  19.274  11.340  1.00  0.00    +0.000 C 
ATOM     36  N4  UNL A   1      55.391  19.212  12.148  1.00  0.00    +0.000 N 
ATOM     37  C28 UNL A   1      56.373  18.508  11.463  1.00  0.00    +0.000 C 
ATOM     38  C29 UNL A   1      57.633  18.210  11.864  1.00  0.00    +0.000 C 
ATOM     50  C36 UNL A   1      58.194  18.590  13.137  1.00  0.00    +0.000 C 
ATOM     51  C37 UNL A   1      59.463  18.340  13.632  1.00  0.00    +0.000 C 
ATOM     52  C38 UNL A   1      59.546  18.876  14.922  1.00  0.00    +0.000 C 
ATOM     53  C39 UNL A   1      58.343  19.498  15.215  1.00  0.00    +0.000 C 
ATOM     54  N5  UNL A   1      57.520  19.305  14.116  1.00  0.00    +0.000 N 
ATOM     55  C40 UNL A   1      57.973  20.217  16.406  1.00  0.00    +0.000 C 
ATOM     67  C47 UNL A   1      56.774  20.810  16.617  1.00  0.00    +0.000 C 
ATOM     68  N6  UNL A   1      55.659  20.841  15.792  1.00  0.00    +0.000 N 
ATOM     69  C48 UNL A   1      54.736  21.487  16.462  1.00  0.00    +0.000 C 
ATOM     70  C49 UNL A   1      53.330  21.816  16.054  1.00  0.00    +0.000 C 
ATOM     82  C56 UNL A   1      52.886  21.404  14.853  1.00  0.00    +0.000 C 
ATOM     83  C57 UNL A   1      51.554  21.665  14.317  1.00  0.00    +0.000 C 
ATOM     84  C58 UNL A   1      51.455  21.099  13.106  1.00  0.00    +0.000 C 
ATOM     85  C59 UNL A   1      52.737  20.481  12.758  1.00  0.00    +0.000 C 
ATOM     86  N7  UNL A   1      53.513  20.674  13.872  1.00  0.00    +0.000 N 
ATOM     87  C60 UNL A   1      55.163  21.947  17.789  1.00  0.00    +0.000 C 
ATOM     88  C61 UNL A   1      56.424  21.542  17.818  1.00  0.00    +0.000 C 
ATOM     89  C62 UNL A   1      55.807  18.137  10.183  1.00  0.00    +0.000 C 
ATOM     90  C63 UNL A   1      54.579  18.619  10.042  1.00  0.00    +0.000 C 
ATOM    118  H26 UNL A   1      60.219  17.842  13.135  1.00  0.00    +0.000 H 
ATOM    119  H27 UNL A   1      60.364  18.819  15.549  1.00  0.00    +0.000 H 
ATOM    120  H28 UNL A   1      56.593  19.630  14.041  1.00  0.00    +0.000 H 
ATOM    121  H29 UNL A   1      50.811  22.200  14.793  1.00  0.00    +0.000 H 
ATOM    122  H30 UNL A   1      50.610  21.099  12.514  1.00  0.00    +0.000 H 
ATOM    123  H31 UNL A   1      54.428  20.325  13.961  1.00  0.00    +0.000 H 
ATOM    124  H32 UNL A   1      54.623  22.453  18.509  1.00  0.00    +0.000 H 
ATOM    125  H33 UNL A   1      57.075  21.724  18.598  1.00  0.00    +0.000 H 
ATOM    126  H34 UNL A   1      56.296  17.571   9.472  1.00  0.00    +0.000 H 
ATOM    127  H35 UNL A   1      53.943  18.552   9.232  1.00  0.00    +0.000 H 
ENDROOT
BRANCH   34   33
ATOM    129  H37 UNL A   1      50.781  21.949   8.060  1.00  0.00    +0.000 H 
ATOM     33  C25 UNL A   1      51.993  19.978  10.500  1.00  0.00    +0.000 C 
ATOM    116  H24 UNL A   1      49.735  17.987   9.007  1.00  0.00    +0.000 H 
ATOM    117  H25 UNL A   1      51.236  18.045  10.906  1.00  0.00    +0.000 H 
ATOM     91  C64 UNL A   1      51.869  21.093   9.658  1.00  0.00    +0.000 C 
ATOM     92  C65 UNL A   1      50.893  21.113   8.655  1.00  0.00    +0.000 C 
ATOM    128  H36 UNL A   1      52.500  21.902   9.778  1.00  0.00    +0.000 H 
ATOM     30  C22 UNL A   1      50.069  19.999   8.461  1.00  0.00    +0.000 C 
ATOM     31  C23 UNL A   1      50.263  18.847   9.224  1.00  0.00    +0.000 C 
ATOM     32  C24 UNL A   1      51.168  18.862  10.279  1.00  0.00    +0.000 C 
BRANCH   30    2
ATOM      1  O1  UNL A   1      47.826  19.870   7.786  1.00  0.00    +0.000 O 
ATOM      2  C1  UNL A   1      48.990  20.062   7.449  1.00  0.00    +0.000 C 
BRANCH    2    3
ATOM      3  N1  UNL A   1      49.305  20.300   6.130  1.00  0.00    +0.000 N 
ATOM     93  H1  UNL A   1      49.436  21.244   5.887  1.00  0.00    +0.000 H 
BRANCH    3    4
ATOM      4  C2  UNL A   1      49.469  19.344   5.048  1.00  0.00    +0.000 C 
ATOM     94  H2  UNL A   1      50.221  19.713   4.382  1.00  0.00    +0.000 H 
ATOM     95  H3  UNL A   1      48.518  19.244   4.569  1.00  0.00    +0.000 H 
BRANCH    4    5
ATOM     97  H5  UNL A   1      50.773  17.717   4.980  1.00  0.00    +0.000 H 
ATOM      5  C3  UNL A   1      49.880  17.958   5.519  1.00  0.00    +0.000 C 
ATOM     96  H4  UNL A   1      50.015  17.997   6.580  1.00  0.00    +0.000 H 
BRANCH    5    6
ATOM     98  H6  UNL A   1      48.276  17.155   4.398  1.00  0.00    +0.000 H 
ATOM     99  H7  UNL A   1      48.360  16.662   6.124  1.00  0.00    +0.000 H 
ATOM      6  C4  UNL A   1      48.892  16.835   5.212  1.00  0.00    +0.000 C 
BRANCH    6    7
ATOM    100  H8  UNL A   1      49.072  15.182   3.900  1.00  0.00    +0.000 H 
ATOM    101  H9  UNL A   1      49.290  14.833   5.653  1.00  0.00    +0.000 H 
ATOM      7  C5  UNL A   1      49.505  15.485   4.831  1.00  0.00    +0.000 C 
BRANCH    7    8
ATOM    102  H10 UNL A   1      51.387  16.455   4.682  1.00  0.00    +0.000 H 
ATOM    103  H11 UNL A   1      51.211  14.928   3.752  1.00  0.00    +0.000 H 
ATOM      8  C6  UNL A   1      51.030  15.446   4.671  1.00  0.00    +0.000 C 
BRANCH    8    9
ATOM      9  C7  UNL A   1      51.794  14.668   5.740  1.00  0.00    +0.000 C 
ATOM    105  H13 UNL A   1      51.224  13.795   5.978  1.00  0.00    +0.000 H 
ATOM    104  H12 UNL A   1      52.761  14.414   5.355  1.00  0.00    +0.000 H 
BRANCH    9   10
ATOM     10  N2  UNL A   1      51.968  15.431   6.962  1.00  0.00    +0.000 N 
ATOM    106  H14 UNL A   1      51.193  15.443   7.570  1.00  0.00    +0.000 H 
BRANCH   10   11
ATOM     11  C8  UNL A   1      53.064  16.134   7.389  1.00  0.00    +0.000 C 
ATOM     12  O2  UNL A   1      53.645  15.802   8.417  1.00  0.00    +0.000 O 
BRANCH   11   13
ATOM    107  H15 UNL A   1      52.263  18.605   7.600  1.00  0.00    +0.000 H 
ATOM    108  H16 UNL A   1      52.992  20.578   6.390  1.00  0.00    +0.000 H 
ATOM     13  C9  UNL A   1      53.576  17.277   6.603  1.00  0.00    +0.000 C 
ATOM     14  C10 UNL A   1      52.998  18.526   6.880  1.00  0.00    +0.000 C 
ATOM     15  C11 UNL A   1      53.413  19.658   6.184  1.00  0.00    +0.000 C 
ATOM    110  H18 UNL A   1      55.696  18.226   4.200  1.00  0.00    +0.000 H 
ATOM     17  C13 UNL A   1      54.961  18.294   4.922  1.00  0.00    +0.000 C 
ATOM     18  C14 UNL A   1      54.551  17.132   5.595  1.00  0.00    +0.000 C 
ATOM     16  C12 UNL A   1      54.399  19.542   5.209  1.00  0.00    +0.000 C 
ATOM    109  H17 UNL A   1      54.715  20.379   4.696  1.00  0.00    +0.000 H 
BRANCH   18   19
ATOM     19  N3  UNL A   1      55.125  15.878   5.295  1.00  0.00    +0.000 N 
ATOM    111  H19 UNL A   1      55.384  15.350   6.085  1.00  0.00    +0.000 H 
BRANCH   19   20
ATOM    112  H20 UNL A   1      57.437  14.950   4.499  1.00  0.00    +0.000 H 
ATOM    113  H21 UNL A   1      57.944  13.767   2.449  1.00  0.00    +0.000 H 
ATOM    114  H22 UNL A   1      56.206  13.379   0.806  1.00  0.00    +0.000 H 
ATOM    115  H23 UNL A   1      53.437  15.340   3.292  1.00  0.00    +0.000 H 
ATOM     20  C15 UNL A   1      55.394  15.251   4.067  1.00  0.00    +0.000 C 
ATOM     21  C16 UNL A   1      56.689  14.786   3.806  1.00  0.00    +0.000 C 
ATOM     22  C17 UNL A   1      56.984  14.106   2.624  1.00  0.00    +0.000 C 
ATOM     23  C18 UNL A   1      55.986  13.883   1.678  1.00  0.00    +0.000 C 
ATOM     24  C19 UNL A   1      54.682  14.344   1.908  1.00  0.00    +0.000 C 
ATOM     25  C20 UNL A   1      53.602  14.101   0.882  1.00  0.00    +0.000 C 
ATOM     26  F1  UNL A   1      53.980  14.480  -0.370  1.00  0.00    +0.000 F 
ATOM     27  F2  UNL A   1      53.257  12.788   0.790  1.00  0.00    +0.000 F 
ATOM     28  F3  UNL A   1      52.447  14.775   1.139  1.00  0.00    +0.000 F 
ATOM     29  C21 UNL A   1      54.399  15.014   3.110  1.00  0.00    +0.000 C 
ENDBRANCH   19   20
ENDBRANCH   18   19
ENDBRANCH   11   13
ENDBRANCH   10   11
ENDBRANCH    9   10
ENDBRANCH    8    9
ENDBRANCH    7    8
ENDBRANCH    6    7
ENDBRANCH    5    6
ENDBRANCH    4    5
ENDBRANCH    3    4
ENDBRANCH    2    3
ENDBRANCH   30    2
ENDBRANCH   34   33
BRANCH   38   39
ATOM     39  C30 UNL A   1      58.501  17.430  10.920  1.00  0.00    +0.000 C 
ATOM     40  C31 UNL A   1      59.350  18.072  10.007  1.00  0.00    +0.000 C 
ATOM     41  F4  UNL A   1      59.347  19.409   9.906  1.00  0.00    +0.000 F 
ATOM     42  C32 UNL A   1      60.192  17.338   9.172  1.00  0.00    +0.000 C 
ATOM     43  F5  UNL A   1      60.971  17.971   8.286  1.00  0.00    +0.000 F 
ATOM     44  C33 UNL A   1      60.221  15.954   9.255  1.00  0.00    +0.000 C 
ATOM     45  F6  UNL A   1      61.041  15.251   8.461  1.00  0.00    +0.000 F 
ATOM     46  C34 UNL A   1      59.397  15.299  10.158  1.00  0.00    +0.000 C 
ATOM     47  F7  UNL A   1      59.433  13.962  10.246  1.00  0.00    +0.000 F 
ATOM     48  C35 UNL A   1      58.537  16.028  10.976  1.00  0.00    +0.000 C 
ATOM     49  F8  UNL A   1      57.750  15.366  11.836  1.00  0.00    +0.000 F 
ENDBRANCH   38   39
BRANCH   55   56
ATOM     65  C46 UNL A   1      59.197  19.286  18.405  1.00  0.00    +0.000 C 
ATOM     66  F13 UNL A   1      58.489  18.152  18.296  1.00  0.00    +0.000 F 
ATOM     56  C41 UNL A   1      58.987  20.340  17.504  1.00  0.00    +0.000 C 
ATOM     57  C42 UNL A   1      59.751  21.506  17.663  1.00  0.00    +0.000 C 
ATOM     58  F9  UNL A   1      59.598  22.534  16.814  1.00  0.00    +0.000 F 
ATOM     59  C43 UNL A   1      60.713  21.599  18.663  1.00  0.00    +0.000 C 
ATOM     60  F10 UNL A   1      61.471  22.700  18.762  1.00  0.00    +0.000 F 
ATOM     61  C44 UNL A   1      60.905  20.545  19.544  1.00  0.00    +0.000 C 
ATOM     62  F11 UNL A   1      61.836  20.632  20.504  1.00  0.00    +0.000 F 
ATOM     63  C45 UNL A   1      60.142  19.393  19.421  1.00  0.00    +0.000 C 
ATOM     64  F12 UNL A   1      60.322  18.376  20.275  1.00  0.00    +0.000 F 
ENDBRANCH   55   56
BRANCH   70   71
ATOM     71  C50 UNL A   1      52.424  22.577  16.952  1.00  0.00    +0.000 C 
ATOM     72  C51 UNL A   1      51.673  21.931  17.942  1.00  0.00    +0.000 C 
ATOM     73  F14 UNL A   1      51.740  20.598  18.071  1.00  0.00    +0.000 F 
ATOM     74  C52 UNL A   1      50.824  22.650  18.781  1.00  0.00    +0.000 C 
ATOM     75  F15 UNL A   1      50.085  22.005  19.694  1.00  0.00    +0.000 F 
ATOM     76  C53 UNL A   1      50.735  24.029  18.667  1.00  0.00    +0.000 C 
ATOM     77  F16 UNL A   1      49.926  24.720  19.482  1.00  0.00    +0.000 F 
ATOM     78  C54 UNL A   1      51.481  24.692  17.705  1.00  0.00    +0.000 C 
ATOM     79  F17 UNL A   1      51.413  26.025  17.602  1.00  0.00    +0.000 F 
ATOM     80  C55 UNL A   1      52.306  23.971  16.845  1.00  0.00    +0.000 C 
ATOM     81  F18 UNL A   1      53.009  24.636  15.917  1.00  0.00    +0.000 F 
ENDBRANCH   70   71
TORSDOF 17
ENDMDL
MODEL 8
REMARK VINA RESULT:     -10.3     34.785     41.417
ROOT
ATOM     34  C26 UNL A   1      52.809  20.409  11.520  1.00  0.00    +0.000 C 
ATOM     35  C27 UNL A   1      54.129  19.747  11.240  1.00  0.00    +0.000 C 
ATOM     36  N4  UNL A   1      55.164  19.608  12.031  1.00  0.00    +0.000 N 
ATOM     37  C28 UNL A   1      56.115  18.910  11.299  1.00  0.00    +0.000 C 
ATOM     38  C29 UNL A   1      57.369  18.550  11.670  1.00  0.00    +0.000 C 
ATOM     50  C36 UNL A   1      57.954  18.841  12.954  1.00  0.00    +0.000 C 
ATOM     51  C37 UNL A   1      59.218  18.524  13.422  1.00  0.00    +0.000 C 
ATOM     52  C38 UNL A   1      59.331  18.987  14.738  1.00  0.00    +0.000 C 
ATOM     53  C39 UNL A   1      58.153  19.631  15.077  1.00  0.00    +0.000 C 
ATOM     54  N5  UNL A   1      57.313  19.525  13.978  1.00  0.00    +0.000 N 
ATOM     55  C40 UNL A   1      57.818  20.296  16.308  1.00  0.00    +0.000 C 
ATOM     67  C47 UNL A   1      56.641  20.917  16.564  1.00  0.00    +0.000 C 
ATOM     68  N6  UNL A   1      55.520  21.029  15.755  1.00  0.00    +0.000 N 
ATOM     69  C48 UNL A   1      54.626  21.668  16.468  1.00  0.00    +0.000 C 
ATOM     70  C49 UNL A   1      53.228  22.064  16.094  1.00  0.00    +0.000 C 
ATOM     82  C56 UNL A   1      52.759  21.732  14.877  1.00  0.00    +0.000 C 
ATOM     83  C57 UNL A   1      51.432  22.065  14.371  1.00  0.00    +0.000 C 
ATOM     84  C58 UNL A   1      51.303  21.569  13.133  1.00  0.00    +0.000 C 
ATOM     85  C59 UNL A   1      52.560  20.929  12.738  1.00  0.00    +0.000 C 
ATOM     86  N7  UNL A   1      53.352  21.036  13.852  1.00  0.00    +0.000 N 
ATOM     87  C60 UNL A   1      55.080  22.042  17.813  1.00  0.00    +0.000 C 
ATOM     88  C61 UNL A   1      56.327  21.594  17.807  1.00  0.00    +0.000 C 
ATOM     89  C62 UNL A   1      55.526  18.627  10.008  1.00  0.00    +0.000 C 
ATOM     90  C63 UNL A   1      54.313  19.156   9.906  1.00  0.00    +0.000 C 
ATOM    118  H26 UNL A   1      59.952  18.029  12.891  1.00  0.00    +0.000 H 
ATOM    119  H27 UNL A   1      60.153  18.869  15.351  1.00  0.00    +0.000 H 
ATOM    120  H28 UNL A   1      56.397  19.883  13.930  1.00  0.00    +0.000 H 
ATOM    121  H29 UNL A   1      50.711  22.598  14.883  1.00  0.00    +0.000 H 
ATOM    122  H30 UNL A   1      50.453  21.629  12.551  1.00  0.00    +0.000 H 
ATOM    123  H31 UNL A   1      54.256  20.653  13.912  1.00  0.00    +0.000 H 
ATOM    124  H32 UNL A   1      54.564  22.525  18.565  1.00  0.00    +0.000 H 
ATOM    125  H33 UNL A   1      56.991  21.712  18.587  1.00  0.00    +0.000 H 
ATOM    126  H34 UNL A   1      55.989  18.084   9.262  1.00  0.00    +0.000 H 
ATOM    127  H35 UNL A   1      53.668  19.154   9.100  1.00  0.00    +0.000 H 
ENDROOT
BRANCH   34   33
ATOM    129  H37 UNL A   1      48.944  19.246   9.234  1.00  0.00    +0.000 H 
ATOM     33  C25 UNL A   1      51.778  20.573  10.464  1.00  0.00    +0.000 C 
ATOM    116  H24 UNL A   1      50.900  22.792   8.099  1.00  0.00    +0.000 H 
ATOM    117  H25 UNL A   1      52.684  22.308   9.662  1.00  0.00    +0.000 H 
ATOM     91  C64 UNL A   1      50.682  19.706  10.348  1.00  0.00    +0.000 C 
ATOM     92  C65 UNL A   1      49.731  19.906   9.340  1.00  0.00    +0.000 C 
ATOM    128  H36 UNL A   1      50.576  18.918  11.006  1.00  0.00    +0.000 H 
ATOM     30  C22 UNL A   1      49.848  21.000   8.477  1.00  0.00    +0.000 C 
ATOM     31  C23 UNL A   1      50.877  21.926   8.660  1.00  0.00    +0.000 C 
ATOM     32  C24 UNL A   1      51.871  21.676   9.599  1.00  0.00    +0.000 C 
BRANCH   30    2
ATOM      1  O1  UNL A   1      47.983  21.990   7.454  1.00  0.00    +0.000 O 
ATOM      2  C1  UNL A   1      48.880  21.156   7.368  1.00  0.00    +0.000 C 
BRANCH    2    3
ATOM      3  N1  UNL A   1      48.970  20.340   6.264  1.00  0.00    +0.000 N 
ATOM     93  H1  UNL A   1      48.514  20.666   5.455  1.00  0.00    +0.000 H 
BRANCH    3    4
ATOM      4  C2  UNL A   1      49.647  19.061   6.131  1.00  0.00    +0.000 C 
ATOM     94  H2  UNL A   1      49.096  18.457   5.441  1.00  0.00    +0.000 H 
ATOM     95  H3  UNL A   1      49.691  18.625   7.107  1.00  0.00    +0.000 H 
BRANCH    4    5
ATOM     97  H5  UNL A   1      51.180  18.450   4.856  1.00  0.00    +0.000 H 
ATOM      5  C3  UNL A   1      51.078  19.181   5.630  1.00  0.00    +0.000 C 
ATOM     96  H4  UNL A   1      51.227  20.187   5.295  1.00  0.00    +0.000 H 
BRANCH    5    6
ATOM     98  H6  UNL A   1      52.315  19.734   7.254  1.00  0.00    +0.000 H 
ATOM     99  H7  UNL A   1      53.022  18.569   6.083  1.00  0.00    +0.000 H 
ATOM      6  C4  UNL A   1      52.165  18.862   6.653  1.00  0.00    +0.000 C 
BRANCH    6    7
ATOM    100  H8  UNL A   1      50.838  17.449   7.508  1.00  0.00    +0.000 H 
ATOM    101  H9  UNL A   1      52.177  18.024   8.566  1.00  0.00    +0.000 H 
ATOM      7  C5  UNL A   1      51.878  17.688   7.595  1.00  0.00    +0.000 C 
BRANCH    7    8
ATOM    102  H10 UNL A   1      53.267  16.210   8.218  1.00  0.00    +0.000 H 
ATOM    103  H11 UNL A   1      53.246  16.580   6.460  1.00  0.00    +0.000 H 
ATOM      8  C6  UNL A   1      52.675  16.401   7.347  1.00  0.00    +0.000 C 
BRANCH    8    9
ATOM      9  C7  UNL A   1      51.849  15.149   7.061  1.00  0.00    +0.000 C 
ATOM    105  H13 UNL A   1      52.214  14.367   7.692  1.00  0.00    +0.000 H 
ATOM    104  H12 UNL A   1      50.818  15.365   7.258  1.00  0.00    +0.000 H 
BRANCH    9   10
ATOM     10  N2  UNL A   1      51.974  14.704   5.686  1.00  0.00    +0.000 N 
ATOM    106  H14 UNL A   1      52.447  13.850   5.557  1.00  0.00    +0.000 H 
BRANCH   10   11
ATOM     11  C8  UNL A   1      51.523  15.309   4.541  1.00  0.00    +0.000 C 
ATOM     12  O2  UNL A   1      50.499  15.986   4.567  1.00  0.00    +0.000 O 
BRANCH   11   13
ATOM    107  H15 UNL A   1      50.974  13.649   2.609  1.00  0.00    +0.000 H 
ATOM    108  H16 UNL A   1      52.107  13.313   0.489  1.00  0.00    +0.000 H 
ATOM     13  C9  UNL A   1      52.275  15.180   3.276  1.00  0.00    +0.000 C 
ATOM     14  C10 UNL A   1      51.805  14.215   2.372  1.00  0.00    +0.000 C 
ATOM     15  C11 UNL A   1      52.455  14.019   1.157  1.00  0.00    +0.000 C 
ATOM    110  H18 UNL A   1      54.887  16.290   1.510  1.00  0.00    +0.000 H 
ATOM     17  C13 UNL A   1      54.056  15.729   1.757  1.00  0.00    +0.000 C 
ATOM     18  C14 UNL A   1      53.432  15.938   2.998  1.00  0.00    +0.000 C 
ATOM     16  C12 UNL A   1      53.578  14.780   0.847  1.00  0.00    +0.000 C 
ATOM    109  H17 UNL A   1      54.059  14.644  -0.055  1.00  0.00    +0.000 H 
BRANCH   18   19
ATOM     19  N3  UNL A   1      53.926  16.897   3.907  1.00  0.00    +0.000 N 
ATOM    111  H19 UNL A   1      53.425  17.745   3.914  1.00  0.00    +0.000 H 
BRANCH   19   20
ATOM    112  H20 UNL A   1      54.892  18.910   5.268  1.00  0.00    +0.000 H 
ATOM    113  H21 UNL A   1      56.676  18.886   6.903  1.00  0.00    +0.000 H 
ATOM    114  H22 UNL A   1      57.849  16.823   7.396  1.00  0.00    +0.000 H 
ATOM    115  H23 UNL A   1      55.417  14.796   4.625  1.00  0.00    +0.000 H 
ATOM     20  C15 UNL A   1      55.007  16.855   4.803  1.00  0.00    +0.000 C 
ATOM     21  C16 UNL A   1      55.384  18.026   5.473  1.00  0.00    +0.000 C 
ATOM     22  C17 UNL A   1      56.414  18.014   6.415  1.00  0.00    +0.000 C 
ATOM     23  C18 UNL A   1      57.089  16.829   6.698  1.00  0.00    +0.000 C 
ATOM     24  C19 UNL A   1      56.739  15.643   6.037  1.00  0.00    +0.000 C 
ATOM     25  C20 UNL A   1      57.472  14.361   6.346  1.00  0.00    +0.000 C 
ATOM     26  F1  UNL A   1      58.825  14.507   6.284  1.00  0.00    +0.000 F 
ATOM     27  F2  UNL A   1      57.200  13.894   7.594  1.00  0.00    +0.000 F 
ATOM     28  F3  UNL A   1      57.172  13.345   5.490  1.00  0.00    +0.000 F 
ATOM     29  C21 UNL A   1      55.690  15.670   5.102  1.00  0.00    +0.000 C 
ENDBRANCH   19   20
ENDBRANCH   18   19
ENDBRANCH   11   13
ENDBRANCH   10   11
ENDBRANCH    9   10
ENDBRANCH    8    9
ENDBRANCH    7    8
ENDBRANCH    6    7
ENDBRANCH    5    6
ENDBRANCH    4    5
ENDBRANCH    3    4
ENDBRANCH    2    3
ENDBRANCH   30    2
ENDBRANCH   34   33
BRANCH   38   39
ATOM     39  C30 UNL A   1      58.202  17.794  10.676  1.00  0.00    +0.000 C 
ATOM     40  C31 UNL A   1      59.042  18.456   9.770  1.00  0.00    +0.000 C 
ATOM     41  F4  UNL A   1      59.062  19.797   9.724  1.00  0.00    +0.000 F 
ATOM     42  C32 UNL A   1      59.852  17.743   8.888  1.00  0.00    +0.000 C 
ATOM     43  F5  UNL A   1      60.624  18.398   8.010  1.00  0.00    +0.000 F 
ATOM     44  C33 UNL A   1      59.857  16.356   8.914  1.00  0.00    +0.000 C 
ATOM     45  F6  UNL A   1      60.646  15.672   8.075  1.00  0.00    +0.000 F 
ATOM     46  C34 UNL A   1      59.041  15.680   9.808  1.00  0.00    +0.000 C 
ATOM     47  F7  UNL A   1      59.053  14.340   9.842  1.00  0.00    +0.000 F 
ATOM     48  C35 UNL A   1      58.213  16.390  10.674  1.00  0.00    +0.000 C 
ATOM     49  F8  UNL A   1      57.432  15.707  11.525  1.00  0.00    +0.000 F 
ENDBRANCH   38   39
BRANCH   55   56
ATOM     65  C46 UNL A   1      59.045  19.211  18.225  1.00  0.00    +0.000 C 
ATOM     66  F13 UNL A   1      58.314  18.100  18.049  1.00  0.00    +0.000 F 
ATOM     56  C41 UNL A   1      58.846  20.327  17.400  1.00  0.00    +0.000 C 
ATOM     57  C42 UNL A   1      59.633  21.465  17.628  1.00  0.00    +0.000 C 
ATOM     58  F9  UNL A   1      59.491  22.551  16.852  1.00  0.00    +0.000 F 
ATOM     59  C43 UNL A   1      60.608  21.473  18.621  1.00  0.00    +0.000 C 
ATOM     60  F10 UNL A   1      61.387  22.551  18.784  1.00  0.00    +0.000 F 
ATOM     61  C44 UNL A   1      60.789  20.359  19.426  1.00  0.00    +0.000 C 
ATOM     62  F11 UNL A   1      61.731  20.365  20.379  1.00  0.00    +0.000 F 
ATOM     63  C45 UNL A   1      60.002  19.232  19.235  1.00  0.00    +0.000 C 
ATOM     64  F12 UNL A   1      60.172  18.157  20.017  1.00  0.00    +0.000 F 
ENDBRANCH   55   56
BRANCH   70   71
ATOM     71  C50 UNL A   1      52.356  22.805  17.041  1.00  0.00    +0.000 C 
ATOM     72  C51 UNL A   1      52.294  24.204  17.028  1.00  0.00    +0.000 C 
ATOM     73  F14 UNL A   1      53.054  24.901  16.171  1.00  0.00    +0.000 F 
ATOM     74  C52 UNL A   1      51.475  24.894  17.920  1.00  0.00    +0.000 C 
ATOM     75  F15 UNL A   1      51.463  26.233  17.915  1.00  0.00    +0.000 F 
ATOM     76  C53 UNL A   1      50.680  24.197  18.817  1.00  0.00    +0.000 C 
ATOM     77  F16 UNL A   1      49.884  24.862  19.667  1.00  0.00    +0.000 F 
ATOM     78  C54 UNL A   1      50.713  22.812  18.838  1.00  0.00    +0.000 C 
ATOM     79  F17 UNL A   1      49.934  22.133  19.690  1.00  0.00    +0.000 F 
ATOM     80  C55 UNL A   1      51.555  22.122  17.969  1.00  0.00    +0.000 C 
ATOM     81  F18 UNL A   1      51.574  20.782  18.017  1.00  0.00    +0.000 F 
ENDBRANCH   70   71
TORSDOF 17
ENDMDL
MODEL 9
REMARK VINA RESULT:     -10.3     21.422     27.801
ROOT
ATOM     34  C26 UNL A   1      41.824  27.715  29.615  1.00  0.00    +0.000 C 
ATOM     35  C27 UNL A   1      40.594  28.568  29.489  1.00  0.00    +0.000 C 
ATOM     36  N4  UNL A   1      40.043  29.354  30.381  1.00  0.00    +0.000 N 
ATOM     37  C28 UNL A   1      38.940  29.925  29.761  1.00  0.00    +0.000 C 
ATOM     38  C29 UNL A   1      38.030  30.785  30.280  1.00  0.00    +0.000 C 
ATOM     50  C36 UNL A   1      38.056  31.280  31.634  1.00  0.00    +0.000 C 
ATOM     51  C37 UNL A   1      37.176  32.149  32.255  1.00  0.00    +0.000 C 
ATOM     52  C38 UNL A   1      37.618  32.363  33.565  1.00  0.00    +0.000 C 
ATOM     53  C39 UNL A   1      38.751  31.596  33.775  1.00  0.00    +0.000 C 
ATOM     54  N5  UNL A   1      39.015  30.944  32.579  1.00  0.00    +0.000 N 
ATOM     55  C40 UNL A   1      39.534  31.462  34.976  1.00  0.00    +0.000 C 
ATOM     67  C47 UNL A   1      40.631  30.679  35.108  1.00  0.00    +0.000 C 
ATOM     68  N6  UNL A   1      41.252  29.881  34.159  1.00  0.00    +0.000 N 
ATOM     69  C48 UNL A   1      42.302  29.368  34.753  1.00  0.00    +0.000 C 
ATOM     70  C49 UNL A   1      43.336  28.431  34.202  1.00  0.00    +0.000 C 
ATOM     82  C56 UNL A   1      43.240  28.037  32.919  1.00  0.00    +0.000 C 
ATOM     83  C57 UNL A   1      44.158  27.118  32.255  1.00  0.00    +0.000 C 
ATOM     84  C58 UNL A   1      43.768  26.960  30.982  1.00  0.00    +0.000 C 
ATOM     85  C59 UNL A   1      42.539  27.725  30.758  1.00  0.00    +0.000 C 
ATOM     86  N7  UNL A   1      42.325  28.367  31.950  1.00  0.00    +0.000 N 
ATOM     87  C60 UNL A   1      42.464  29.779  36.154  1.00  0.00    +0.000 C 
ATOM     88  C61 UNL A   1      41.399  30.547  36.331  1.00  0.00    +0.000 C 
ATOM     89  C62 UNL A   1      38.914  29.419  28.405  1.00  0.00    +0.000 C 
ATOM     90  C63 UNL A   1      39.891  28.547  28.197  1.00  0.00    +0.000 C 
ATOM    118  H26 UNL A   1      36.335  32.568  31.825  1.00  0.00    +0.000 H 
ATOM    119  H27 UNL A   1      37.175  32.988  34.258  1.00  0.00    +0.000 H 
ATOM    120  H28 UNL A   1      39.772  30.333  32.424  1.00  0.00    +0.000 H 
ATOM    121  H29 UNL A   1      44.974  26.663  32.694  1.00  0.00    +0.000 H 
ATOM    122  H30 UNL A   1      44.256  26.390  30.274  1.00  0.00    +0.000 H 
ATOM    123  H31 UNL A   1      41.587  29.001  32.098  1.00  0.00    +0.000 H 
ATOM    124  H32 UNL A   1      43.210  29.534  36.823  1.00  0.00    +0.000 H 
ATOM    125  H33 UNL A   1      41.147  30.994  37.226  1.00  0.00    +0.000 H 
ATOM    126  H34 UNL A   1      38.223  29.700  27.691  1.00  0.00    +0.000 H 
ATOM    127  H35 UNL A   1      40.103  27.996  27.351  1.00  0.00    +0.000 H 
ENDROOT
BRANCH   34   33
ATOM    129  H37 UNL A   1      41.811  23.697  27.298  1.00  0.00    +0.000 H 
ATOM     33  C25 UNL A   1      42.250  26.794  28.531  1.00  0.00    +0.000 C 
ATOM    116  H24 UNL A   1      44.070  26.868  25.707  1.00  0.00    +0.000 H 
ATOM    117  H25 UNL A   1      43.545  28.216  27.648  1.00  0.00    +0.000 H 
ATOM     91  C64 UNL A   1      41.737  25.494  28.409  1.00  0.00    +0.000 C 
ATOM     92  C65 UNL A   1      42.163  24.665  27.365  1.00  0.00    +0.000 C 
ATOM    128  H36 UNL A   1      41.043  25.148  29.091  1.00  0.00    +0.000 H 
ATOM     30  C22 UNL A   1      43.067  25.149  26.414  1.00  0.00    +0.000 C 
ATOM     31  C23 UNL A   1      43.495  26.476  26.470  1.00  0.00    +0.000 C 
ATOM     32  C24 UNL A   1      43.144  27.269  27.556  1.00  0.00    +0.000 C 
BRANCH   30    2
ATOM      1  O1  UNL A   1      44.531  24.569  24.674  1.00  0.00    +0.000 O 
ATOM      2  C1  UNL A   1      43.569  24.238  25.360  1.00  0.00    +0.000 C 
BRANCH    2    3
ATOM      3  N1  UNL A   1      42.930  23.040  25.133  1.00  0.00    +0.000 N 
ATOM     93  H1  UNL A   1      42.101  23.093  24.604  1.00  0.00    +0.000 H 
BRANCH    3    4
ATOM      4  C2  UNL A   1      43.313  21.707  25.568  1.00  0.00    +0.000 C 
ATOM     94  H2  UNL A   1      44.132  21.798  26.250  1.00  0.00    +0.000 H 
ATOM     95  H3  UNL A   1      43.574  21.153  24.691  1.00  0.00    +0.000 H 
BRANCH    4    5
ATOM     97  H5  UNL A   1      42.030  20.066  25.674  1.00  0.00    +0.000 H 
ATOM      5  C3  UNL A   1      42.191  20.948  26.259  1.00  0.00    +0.000 C 
ATOM     96  H4  UNL A   1      42.498  20.749  27.264  1.00  0.00    +0.000 H 
BRANCH    5    6
ATOM     98  H6  UNL A   1      40.889  22.496  25.640  1.00  0.00    +0.000 H 
ATOM     99  H7  UNL A   1      40.702  21.937  27.338  1.00  0.00    +0.000 H 
ATOM      6  C4  UNL A   1      40.844  21.665  26.313  1.00  0.00    +0.000 C 
BRANCH    6    7
ATOM    100  H8  UNL A   1      39.454  20.121  26.727  1.00  0.00    +0.000 H 
ATOM    101  H9  UNL A   1      39.858  20.382  24.991  1.00  0.00    +0.000 H 
ATOM      7  C5  UNL A   1      39.620  20.825  25.937  1.00  0.00    +0.000 C 
BRANCH    7    8
ATOM    102  H10 UNL A   1      38.551  22.528  25.259  1.00  0.00    +0.000 H 
ATOM    103  H11 UNL A   1      37.850  21.669  26.671  1.00  0.00    +0.000 H 
ATOM      8  C6  UNL A   1      38.309  21.588  25.708  1.00  0.00    +0.000 C 
BRANCH    8    9
ATOM      9  C7  UNL A   1      37.280  20.896  24.818  1.00  0.00    +0.000 C 
ATOM    105  H13 UNL A   1      37.798  20.498  23.970  1.00  0.00    +0.000 H 
ATOM    104  H12 UNL A   1      36.800  20.123  25.383  1.00  0.00    +0.000 H 
BRANCH    9   10
ATOM     10  N2  UNL A   1      36.266  21.810  24.327  1.00  0.00    +0.000 N 
ATOM    106  H14 UNL A   1      36.418  22.168  23.422  1.00  0.00    +0.000 H 
BRANCH   10   11
ATOM     11  C8  UNL A   1      35.124  22.243  24.950  1.00  0.00    +0.000 C 
ATOM     12  O2  UNL A   1      34.972  22.054  26.153  1.00  0.00    +0.000 O 
BRANCH   11   13
ATOM    107  H15 UNL A   1      35.373  24.615  23.901  1.00  0.00    +0.000 H 
ATOM    108  H16 UNL A   1      33.766  25.927  22.643  1.00  0.00    +0.000 H 
ATOM     13  C9  UNL A   1      34.082  22.964  24.191  1.00  0.00    +0.000 C 
ATOM     14  C10 UNL A   1      34.431  24.237  23.716  1.00  0.00    +0.000 C 
ATOM     15  C11 UNL A   1      33.508  24.993  22.997  1.00  0.00    +0.000 C 
ATOM    110  H18 UNL A   1      30.940  22.848  23.056  1.00  0.00    +0.000 H 
ATOM     17  C13 UNL A   1      31.885  23.217  23.247  1.00  0.00    +0.000 C 
ATOM     18  C14 UNL A   1      32.788  22.440  23.990  1.00  0.00    +0.000 C 
ATOM     16  C12 UNL A   1      32.237  24.480  22.757  1.00  0.00    +0.000 C 
ATOM    109  H17 UNL A   1      31.554  25.032  22.218  1.00  0.00    +0.000 H 
BRANCH   18   19
ATOM     19  N3  UNL A   1      32.418  21.169  24.480  1.00  0.00    +0.000 N 
ATOM    111  H19 UNL A   1      31.997  21.184  25.370  1.00  0.00    +0.000 H 
BRANCH   19   20
ATOM    112  H20 UNL A   1      31.938  20.501  21.998  1.00  0.00    +0.000 H 
ATOM    113  H21 UNL A   1      32.239  18.342  20.948  1.00  0.00    +0.000 H 
ATOM    114  H22 UNL A   1      33.017  16.453  22.252  1.00  0.00    +0.000 H 
ATOM    115  H23 UNL A   1      33.218  18.907  25.662  1.00  0.00    +0.000 H 
ATOM     20  C15 UNL A   1      32.547  19.886  23.922  1.00  0.00    +0.000 C 
ATOM     21  C16 UNL A   1      32.272  19.703  22.560  1.00  0.00    +0.000 C 
ATOM     22  C17 UNL A   1      32.443  18.458  21.954  1.00  0.00    +0.000 C 
ATOM     23  C18 UNL A   1      32.889  17.372  22.703  1.00  0.00    +0.000 C 
ATOM     24  C19 UNL A   1      33.165  17.522  24.069  1.00  0.00    +0.000 C 
ATOM     25  C20 UNL A   1      33.648  16.344  24.878  1.00  0.00    +0.000 C 
ATOM     26  F1  UNL A   1      32.861  15.244  24.715  1.00  0.00    +0.000 F 
ATOM     27  F2  UNL A   1      34.908  15.960  24.538  1.00  0.00    +0.000 F 
ATOM     28  F3  UNL A   1      33.677  16.581  26.219  1.00  0.00    +0.000 F 
ATOM     29  C21 UNL A   1      33.000  18.786  24.660  1.00  0.00    +0.000 C 
ENDBRANCH   19   20
ENDBRANCH   18   19
ENDBRANCH   11   13
ENDBRANCH   10   11
ENDBRANCH    9   10
ENDBRANCH    8    9
ENDBRANCH    7    8
ENDBRANCH    6    7
ENDBRANCH    5    6
ENDBRANCH    4    5
ENDBRANCH    3    4
ENDBRANCH    2    3
ENDBRANCH   30    2
ENDBRANCH   34   33
BRANCH   38   39
ATOM     39  C30 UNL A   1      36.921  31.255  29.384  1.00  0.00    +0.000 C 
ATOM     40  C31 UNL A   1      35.846  30.419  29.049  1.00  0.00    +0.000 C 
ATOM     41  F4  UNL A   1      35.827  29.144  29.466  1.00  0.00    +0.000 F 
ATOM     42  C32 UNL A   1      34.795  30.883  28.260  1.00  0.00    +0.000 C 
ATOM     43  F5  UNL A   1      33.794  30.057  27.927  1.00  0.00    +0.000 F 
ATOM     44  C33 UNL A   1      34.784  32.197  27.816  1.00  0.00    +0.000 C 
ATOM     45  F6  UNL A   1      33.766  32.645  27.070  1.00  0.00    +0.000 F 
ATOM     46  C34 UNL A   1      35.832  33.044  28.144  1.00  0.00    +0.000 C 
ATOM     47  F7  UNL A   1      35.817  34.317  27.725  1.00  0.00    +0.000 F 
ATOM     48  C35 UNL A   1      36.896  32.576  28.912  1.00  0.00    +0.000 C 
ATOM     49  F8  UNL A   1      37.896  33.420  29.209  1.00  0.00    +0.000 F 
ENDBRANCH   38   39
BRANCH   55   56
ATOM     65  C46 UNL A   1      39.580  33.535  36.411  1.00  0.00    +0.000 C 
ATOM     66  F13 UNL A   1      40.423  34.106  35.539  1.00  0.00    +0.000 F 
ATOM     56  C41 UNL A   1      39.107  32.233  36.190  1.00  0.00    +0.000 C 
ATOM     57  C42 UNL A   1      38.230  31.680  37.133  1.00  0.00    +0.000 C 
ATOM     58  F9  UNL A   1      37.738  30.444  36.954  1.00  0.00    +0.000 F 
ATOM     59  C43 UNL A   1      37.813  32.414  38.239  1.00  0.00    +0.000 C 
ATOM     60  F10 UNL A   1      36.930  31.887  39.098  1.00  0.00    +0.000 F 
ATOM     61  C44 UNL A   1      38.292  33.700  38.440  1.00  0.00    +0.000 C 
ATOM     62  F11 UNL A   1      37.885  34.410  39.501  1.00  0.00    +0.000 F 
ATOM     63  C45 UNL A   1      39.181  34.257  37.533  1.00  0.00    +0.000 C 
ATOM     64  F12 UNL A   1      39.650  35.497  37.729  1.00  0.00    +0.000 F 
ENDBRANCH   55   56
BRANCH   70   71
ATOM     71  C50 UNL A   1      44.460  27.942  35.040  1.00  0.00    +0.000 C 
ATOM     72  C51 UNL A   1      44.369  26.734  35.743  1.00  0.00    +0.000 C 
ATOM     73  F14 UNL A   1      43.240  26.012  35.691  1.00  0.00    +0.000 F 
ATOM     74  C52 UNL A   1      45.427  26.280  36.528  1.00  0.00    +0.000 C 
ATOM     75  F15 UNL A   1      45.301  25.142  37.224  1.00  0.00    +0.000 F 
ATOM     76  C53 UNL A   1      46.604  27.009  36.600  1.00  0.00    +0.000 C 
ATOM     77  F16 UNL A   1      47.625  26.566  37.348  1.00  0.00    +0.000 F 
ATOM     78  C54 UNL A   1      46.723  28.200  35.901  1.00  0.00    +0.000 C 
ATOM     79  F17 UNL A   1      47.864  28.898  35.952  1.00  0.00    +0.000 F 
ATOM     80  C55 UNL A   1      45.656  28.670  35.141  1.00  0.00    +0.000 C 
ATOM     81  F18 UNL A   1      45.793  29.830  34.482  1.00  0.00    +0.000 F 
ENDBRANCH   70   71
TORSDOF 17
ENDMDL
MODEL 10
REMARK VINA RESULT:     -10.3     62.102     67.806
ROOT
ATOM     34  C26 UNL A   1      13.761  53.912   4.819  1.00  0.00    +0.000 C 
ATOM     35  C27 UNL A   1      14.726  54.353   3.754  1.00  0.00    +0.000 C 
ATOM     36  N4  UNL A   1      15.251  53.653   2.780  1.00  0.00    +0.000 N 
ATOM     37  C28 UNL A   1      16.060  54.530   2.070  1.00  0.00    +0.000 C 
ATOM     38  C29 UNL A   1      16.842  54.274   0.992  1.00  0.00    +0.000 C 
ATOM     50  C36 UNL A   1      16.970  52.982   0.367  1.00  0.00    +0.000 C 
ATOM     51  C37 UNL A   1      17.741  52.621  -0.725  1.00  0.00    +0.000 C 
ATOM     52  C38 UNL A   1      17.524  51.264  -0.989  1.00  0.00    +0.000 C 
ATOM     53  C39 UNL A   1      16.650  50.768  -0.036  1.00  0.00    +0.000 C 
ATOM     54  N5  UNL A   1      16.310  51.834   0.782  1.00  0.00    +0.000 N 
ATOM     55  C40 UNL A   1      16.164  49.422   0.119  1.00  0.00    +0.000 C 
ATOM     67  C47 UNL A   1      15.313  49.007   1.088  1.00  0.00    +0.000 C 
ATOM     68  N6  UNL A   1      14.711  49.748   2.095  1.00  0.00    +0.000 N 
ATOM     69  C48 UNL A   1      13.935  48.911   2.740  1.00  0.00    +0.000 C 
ATOM     70  C49 UNL A   1      13.046  49.167   3.921  1.00  0.00    +0.000 C 
ATOM     82  C56 UNL A   1      12.976  50.412   4.427  1.00  0.00    +0.000 C 
ATOM     83  C57 UNL A   1      12.172  50.803   5.579  1.00  0.00    +0.000 C 
ATOM     84  C58 UNL A   1      12.333  52.116   5.795  1.00  0.00    +0.000 C 
ATOM     85  C59 UNL A   1      13.296  52.647   4.827  1.00  0.00    +0.000 C 
ATOM     86  N7  UNL A   1      13.591  51.573   4.028  1.00  0.00    +0.000 N 
ATOM     87  C60 UNL A   1      13.961  47.539   2.218  1.00  0.00    +0.000 C 
ATOM     88  C61 UNL A   1      14.845  47.644   1.237  1.00  0.00    +0.000 C 
ATOM     89  C62 UNL A   1      15.934  55.824   2.707  1.00  0.00    +0.000 C 
ATOM     90  C63 UNL A   1      15.152  55.761   3.776  1.00  0.00    +0.000 C 
ATOM    118  H26 UNL A   1      18.369  53.247  -1.255  1.00  0.00    +0.000 H 
ATOM    119  H27 UNL A   1      17.944  50.724  -1.762  1.00  0.00    +0.000 H 
ATOM    120  H28 UNL A   1      15.691  51.784   1.547  1.00  0.00    +0.000 H 
ATOM    121  H29 UNL A   1      11.577  50.171   6.139  1.00  0.00    +0.000 H 
ATOM    122  H30 UNL A   1      11.855  52.665   6.526  1.00  0.00    +0.000 H 
ATOM    123  H31 UNL A   1      14.185  51.628   3.246  1.00  0.00    +0.000 H 
ATOM    124  H32 UNL A   1      13.431  46.711   2.533  1.00  0.00    +0.000 H 
ATOM    125  H33 UNL A   1      15.161  46.854   0.652  1.00  0.00    +0.000 H 
ATOM    126  H34 UNL A   1      16.394  56.685   2.373  1.00  0.00    +0.000 H 
ATOM    127  H35 UNL A   1      14.906  56.504   4.448  1.00  0.00    +0.000 H 
ENDROOT
BRANCH   34   33
ATOM    129  H37 UNL A   1      14.249  55.965   8.950  1.00  0.00    +0.000 H 
ATOM     33  C25 UNL A   1      13.347  54.817   5.921  1.00  0.00    +0.000 C 
ATOM    116  H24 UNL A   1      10.993  57.130   6.556  1.00  0.00    +0.000 H 
ATOM    117  H25 UNL A   1      11.584  55.438   4.929  1.00  0.00    +0.000 H 
ATOM     91  C64 UNL A   1      14.122  54.993   7.076  1.00  0.00    +0.000 C 
ATOM     92  C65 UNL A   1      13.694  55.864   8.085  1.00  0.00    +0.000 C 
ATOM    128  H36 UNL A   1      15.011  54.479   7.183  1.00  0.00    +0.000 H 
ATOM     30  C22 UNL A   1      12.514  56.597   7.920  1.00  0.00    +0.000 C 
ATOM     31  C23 UNL A   1      11.798  56.507   6.725  1.00  0.00    +0.000 C 
ATOM     32  C24 UNL A   1      12.173  55.575   5.765  1.00  0.00    +0.000 C 
BRANCH   30    2
ATOM      1  O1  UNL A   1      12.258  58.661   9.006  1.00  0.00    +0.000 O 
ATOM      2  C1  UNL A   1      12.032  57.455   9.027  1.00  0.00    +0.000 C 
BRANCH    2    3
ATOM      3  N1  UNL A   1      11.367  56.888  10.089  1.00  0.00    +0.000 N 
ATOM     93  H1  UNL A   1      11.547  57.292  10.969  1.00  0.00    +0.000 H 
BRANCH    3    4
ATOM      4  C2  UNL A   1      10.435  55.773  10.089  1.00  0.00    +0.000 C 
ATOM     94  H2  UNL A   1      10.008  55.690   9.112  1.00  0.00    +0.000 H 
ATOM     95  H3  UNL A   1       9.699  55.978  10.837  1.00  0.00    +0.000 H 
BRANCH    4    5
ATOM     97  H5  UNL A   1      10.409  53.969  11.135  1.00  0.00    +0.000 H 
ATOM      5  C3  UNL A   1      11.079  54.443  10.449  1.00  0.00    +0.000 C 
ATOM     96  H4  UNL A   1      11.229  53.894   9.543  1.00  0.00    +0.000 H 
BRANCH    5    6
ATOM     98  H6  UNL A   1      12.904  55.432  10.852  1.00  0.00    +0.000 H 
ATOM     99  H7  UNL A   1      12.948  53.637  10.915  1.00  0.00    +0.000 H 
ATOM      6  C4  UNL A   1      12.421  54.533  11.171  1.00  0.00    +0.000 C 
BRANCH    6    7
ATOM    100  H8  UNL A   1      11.577  53.889  13.004  1.00  0.00    +0.000 H 
ATOM    101  H9  UNL A   1      12.204  55.577  12.967  1.00  0.00    +0.000 H 
ATOM      7  C5  UNL A   1      12.362  54.552  12.701  1.00  0.00    +0.000 C 
BRANCH    7    8
ATOM    102  H10 UNL A   1      13.372  53.916  14.455  1.00  0.00    +0.000 H 
ATOM    103  H11 UNL A   1      14.318  54.951  13.333  1.00  0.00    +0.000 H 
ATOM      8  C6  UNL A   1      13.638  54.132  13.442  1.00  0.00    +0.000 C 
BRANCH    8    9
ATOM      9  C7  UNL A   1      14.366  52.913  12.879  1.00  0.00    +0.000 C 
ATOM    105  H13 UNL A   1      13.936  52.689  11.926  1.00  0.00    +0.000 H 
ATOM    104  H12 UNL A   1      15.409  53.144  12.796  1.00  0.00    +0.000 H 
BRANCH    9   10
ATOM     10  N2  UNL A   1      14.216  51.741  13.720  1.00  0.00    +0.000 N 
ATOM    106  H14 UNL A   1      14.812  51.699  14.502  1.00  0.00    +0.000 H 
BRANCH   10   11
ATOM     11  C8  UNL A   1      13.355  50.684  13.576  1.00  0.00    +0.000 C 
ATOM     12  O2  UNL A   1      13.269  49.837  14.459  1.00  0.00    +0.000 O 
BRANCH   11   13
ATOM    107  H15 UNL A   1      10.924  51.593  13.342  1.00  0.00    +0.000 H 
ATOM    108  H16 UNL A   1       9.403  51.478  11.455  1.00  0.00    +0.000 H 
ATOM     13  C9  UNL A   1      12.503  50.567  12.374  1.00  0.00    +0.000 C 
ATOM     14  C10 UNL A   1      11.220  51.129  12.469  1.00  0.00    +0.000 C 
ATOM     15  C11 UNL A   1      10.345  51.061  11.388  1.00  0.00    +0.000 C 
ATOM    110  H18 UNL A   1      12.306  49.392   9.251  1.00  0.00    +0.000 H 
ATOM     17  C13 UNL A   1      12.020  49.853  10.130  1.00  0.00    +0.000 C 
ATOM     18  C14 UNL A   1      12.918  49.891  11.209  1.00  0.00    +0.000 C 
ATOM     16  C12 UNL A   1      10.748  50.427  10.216  1.00  0.00    +0.000 C 
ATOM    109  H17 UNL A   1      10.106  50.381   9.411  1.00  0.00    +0.000 H 
BRANCH   18   19
ATOM     19  N3  UNL A   1      14.198  49.305  11.109  1.00  0.00    +0.000 N 
ATOM    111  H19 UNL A   1      14.313  48.485  11.643  1.00  0.00    +0.000 H 
BRANCH   19   20
ATOM    112  H20 UNL A   1      16.522  49.971  12.104  1.00  0.00    +0.000 H 
ATOM    113  H21 UNL A   1      18.552  50.532  10.910  1.00  0.00    +0.000 H 
ATOM    114  H22 UNL A   1      18.563  50.585   8.487  1.00  0.00    +0.000 H 
ATOM    115  H23 UNL A   1      14.504  49.483   8.458  1.00  0.00    +0.000 H 
ATOM     20  C15 UNL A   1      15.338  49.686  10.382  1.00  0.00    +0.000 C 
ATOM     21  C16 UNL A   1      16.519  49.989  11.072  1.00  0.00    +0.000 C 
ATOM     22  C17 UNL A   1      17.689  50.314  10.385  1.00  0.00    +0.000 C 
ATOM     23  C18 UNL A   1      17.696  50.346   8.992  1.00  0.00    +0.000 C 
ATOM     24  C19 UNL A   1      16.528  50.055   8.274  1.00  0.00    +0.000 C 
ATOM     25  C20 UNL A   1      16.539  50.090   6.766  1.00  0.00    +0.000 C 
ATOM     26  F1  UNL A   1      17.070  51.244   6.276  1.00  0.00    +0.000 F 
ATOM     27  F2  UNL A   1      17.272  49.079   6.227  1.00  0.00    +0.000 F 
ATOM     28  F3  UNL A   1      15.299  49.990   6.212  1.00  0.00    +0.000 F 
ATOM     29  C21 UNL A   1      15.362  49.715   8.982  1.00  0.00    +0.000 C 
ENDBRANCH   19   20
ENDBRANCH   18   19
ENDBRANCH   11   13
ENDBRANCH   10   11
ENDBRANCH    9   10
ENDBRANCH    8    9
ENDBRANCH    7    8
ENDBRANCH    6    7
ENDBRANCH    5    6
ENDBRANCH    4    5
ENDBRANCH    3    4
ENDBRANCH    2    3
ENDBRANCH   30    2
ENDBRANCH   34   33
BRANCH   38   39
ATOM     39  C30 UNL A   1      17.625  55.415   0.410  1.00  0.00    +0.000 C 
ATOM     40  C31 UNL A   1      17.109  56.204  -0.628  1.00  0.00    +0.000 C 
ATOM     41  F4  UNL A   1      15.923  55.904  -1.178  1.00  0.00    +0.000 F 
ATOM     42  C32 UNL A   1      17.823  57.293  -1.125  1.00  0.00    +0.000 C 
ATOM     43  F5  UNL A   1      17.323  58.013  -2.138  1.00  0.00    +0.000 F 
ATOM     44  C33 UNL A   1      19.051  57.631  -0.575  1.00  0.00    +0.000 C 
ATOM     45  F6  UNL A   1      19.729  58.687  -1.044  1.00  0.00    +0.000 F 
ATOM     46  C34 UNL A   1      19.576  56.870   0.459  1.00  0.00    +0.000 C 
ATOM     47  F7  UNL A   1      20.757  57.203   0.999  1.00  0.00    +0.000 F 
ATOM     48  C35 UNL A   1      18.876  55.767   0.941  1.00  0.00    +0.000 C 
ATOM     49  F8  UNL A   1      19.413  55.049   1.939  1.00  0.00    +0.000 F 
ENDBRANCH   38   39
BRANCH   55   56
ATOM     65  C46 UNL A   1      15.842  48.010  -1.945  1.00  0.00    +0.000 C 
ATOM     66  F13 UNL A   1      14.644  48.582  -2.136  1.00  0.00    +0.000 F 
ATOM     56  C41 UNL A   1      16.637  48.380  -0.851  1.00  0.00    +0.000 C 
ATOM     57  C42 UNL A   1      17.880  47.750  -0.695  1.00  0.00    +0.000 C 
ATOM     58  F9  UNL A   1      18.683  48.085   0.327  1.00  0.00    +0.000 F 
ATOM     59  C43 UNL A   1      18.325  46.809  -1.618  1.00  0.00    +0.000 C 
ATOM     60  F10 UNL A   1      19.540  46.261  -1.480  1.00  0.00    +0.000 F 
ATOM     61  C44 UNL A   1      17.524  46.457  -2.693  1.00  0.00    +0.000 C 
ATOM     62  F11 UNL A   1      17.956  45.555  -3.586  1.00  0.00    +0.000 F 
ATOM     63  C45 UNL A   1      16.279  47.049  -2.852  1.00  0.00    +0.000 C 
ATOM     64  F12 UNL A   1      15.501  46.704  -3.888  1.00  0.00    +0.000 F 
ENDBRANCH   55   56
BRANCH   70   71
ATOM     71  C50 UNL A   1      12.241  48.078   4.532  1.00  0.00    +0.000 C 
ATOM     72  C51 UNL A   1      12.739  47.318   5.597  1.00  0.00    +0.000 C 
ATOM     73  F14 UNL A   1      13.976  47.546   6.064  1.00  0.00    +0.000 F 
ATOM     74  C52 UNL A   1      11.980  46.297   6.166  1.00  0.00    +0.000 C 
ATOM     75  F15 UNL A   1      12.493  45.557   7.157  1.00  0.00    +0.000 F 
ATOM     76  C53 UNL A   1      10.699  46.039   5.701  1.00  0.00    +0.000 C 
ATOM     77  F16 UNL A   1       9.966  45.064   6.256  1.00  0.00    +0.000 F 
ATOM     78  C54 UNL A   1      10.180  46.789   4.657  1.00  0.00    +0.000 C 
ATOM     79  F17 UNL A   1       8.936  46.557   4.217  1.00  0.00    +0.000 F 
ATOM     80  C55 UNL A   1      10.949  47.788   4.068  1.00  0.00    +0.000 C 
ATOM     81  F18 UNL A   1      10.426  48.493   3.053  1.00  0.00    +0.000 F 
ENDBRANCH   70   71
TORSDOF 17
ENDMDL
