MODEL 1
REMARK VINA RESULT:      -9.0      0.000      0.000
ROOT
ATOM    136  H36 UNL A   1      32.968  -8.602  30.596  1.00  0.00    +0.000 H 
ATOM    137  H37 UNL A   1      30.598  -8.281  31.766  1.00  0.00    +0.000 H 
ATOM    138  H38 UNL A   1      30.121  -8.186  27.776  1.00  0.00    +0.000 H 
ATOM    139  H39 UNL A   1      26.538 -15.530  29.294  1.00  0.00    +0.000 H 
ATOM    140  H40 UNL A   1      28.827 -16.003  30.309  1.00  0.00    +0.000 H 
ATOM    141  H41 UNL A   1      28.962 -12.183  28.677  1.00  0.00    +0.000 H 
ATOM    142  H42 UNL A   1      27.482 -11.277  25.884  1.00  0.00    +0.000 H 
ATOM    143  H43 UNL A   1      28.695  -9.246  26.902  1.00  0.00    +0.000 H 
ATOM    144  H44 UNL A   1      33.810 -12.065  26.731  1.00  0.00    +0.000 H 
ATOM    145  H45 UNL A   1      32.862 -14.312  27.536  1.00  0.00    +0.000 H 
ATOM     42  C30 UNL A   1      30.828 -14.053  29.525  1.00  0.00    +0.000 C 
ATOM     43  C31 UNL A   1      31.610 -12.963  28.860  1.00  0.00    +0.000 C 
ATOM     44  N9  UNL A   1      31.559 -11.682  29.066  1.00  0.00    +0.000 N 
ATOM     45  C32 UNL A   1      32.394 -11.102  28.109  1.00  0.00    +0.000 C 
ATOM     46  C33 UNL A   1      32.395  -9.770  27.821  1.00  0.00    +0.000 C 
ATOM     58  C40 UNL A   1      31.763  -8.982  28.836  1.00  0.00    +0.000 C 
ATOM     59  C41 UNL A   1      32.039  -8.683  30.154  1.00  0.00    +0.000 C 
ATOM     60  C42 UNL A   1      30.768  -8.511  30.775  1.00  0.00    +0.000 C 
ATOM     61  C43 UNL A   1      29.797  -8.714  29.793  1.00  0.00    +0.000 C 
ATOM     62  N10 UNL A   1      30.482  -8.547  28.618  1.00  0.00    +0.000 N 
ATOM     63  C44 UNL A   1      28.436  -9.185  29.869  1.00  0.00    +0.000 C 
ATOM     75  C51 UNL A   1      27.762  -9.762  28.832  1.00  0.00    +0.000 C 
ATOM     76  N11 UNL A   1      26.750 -10.680  29.066  1.00  0.00    +0.000 N 
ATOM     77  C52 UNL A   1      26.754 -11.456  28.016  1.00  0.00    +0.000 C 
ATOM     78  C53 UNL A   1      26.389 -12.893  28.042  1.00  0.00    +0.000 C 
ATOM     90  C60 UNL A   1      27.355 -13.553  28.722  1.00  0.00    +0.000 C 
ATOM     91  C61 UNL A   1      27.346 -14.889  29.279  1.00  0.00    +0.000 C 
ATOM     92  C62 UNL A   1      28.571 -15.156  29.776  1.00  0.00    +0.000 C 
ATOM     93  C63 UNL A   1      29.481 -14.058  29.443  1.00  0.00    +0.000 C 
ATOM     94  N12 UNL A   1      28.662 -13.093  28.905  1.00  0.00    +0.000 N 
ATOM     95  C64 UNL A   1      27.461 -10.936  26.858  1.00  0.00    +0.000 C 
ATOM     96  C65 UNL A   1      28.073  -9.890  27.415  1.00  0.00    +0.000 C 
ATOM     97  C66 UNL A   1      33.066 -12.186  27.437  1.00  0.00    +0.000 C 
ATOM     98  C67 UNL A   1      32.599 -13.364  27.848  1.00  0.00    +0.000 C 
ENDROOT
BRANCH   42   41
ATOM     99  C68 UNL A   1      31.686 -16.393  29.406  1.00  0.00    +0.000 C 
ATOM    100  C69 UNL A   1      32.326 -17.469  30.014  1.00  0.00    +0.000 C 
ATOM     38  C26 UNL A   1      32.896 -17.347  31.294  1.00  0.00    +0.000 C 
ATOM     39  C27 UNL A   1      32.870 -16.097  31.915  1.00  0.00    +0.000 C 
ATOM    134  H34 UNL A   1      33.352 -15.965  32.818  1.00  0.00    +0.000 H 
ATOM     40  C28 UNL A   1      32.201 -15.023  31.325  1.00  0.00    +0.000 C 
ATOM    135  H35 UNL A   1      32.168 -14.111  31.806  1.00  0.00    +0.000 H 
ATOM     41  C29 UNL A   1      31.575 -15.181  30.088  1.00  0.00    +0.000 C 
ATOM    146  H46 UNL A   1      31.296 -16.491  28.457  1.00  0.00    +0.000 H 
ATOM    147  H47 UNL A   1      32.382 -18.372  29.518  1.00  0.00    +0.000 H 
BRANCH   38   36
ATOM     36  C25 UNL A   1      33.475 -18.598  31.862  1.00  0.00    +0.000 C 
ATOM     37  O3  UNL A   1      34.622 -18.903  31.564  1.00  0.00    +0.000 O 
BRANCH   36   35
ATOM     35  N8  UNL A   1      32.796 -19.477  32.664  1.00  0.00    +0.000 N 
ATOM    133  H33 UNL A   1      33.398 -19.988  33.252  1.00  0.00    +0.000 H 
BRANCH   35   34
ATOM     34  C24 UNL A   1      31.408 -19.833  32.856  1.00  0.00    +0.000 C 
ATOM    131  H31 UNL A   1      31.014 -20.153  31.914  1.00  0.00    +0.000 H 
ATOM    132  H32 UNL A   1      31.396 -20.599  33.603  1.00  0.00    +0.000 H 
BRANCH   34   33
ATOM     33  C23 UNL A   1      30.518 -18.708  33.384  1.00  0.00    +0.000 C 
ATOM    130  H30 UNL A   1      31.185 -17.938  33.710  1.00  0.00    +0.000 H 
ATOM    129  H29 UNL A   1      29.906 -19.111  34.164  1.00  0.00    +0.000 H 
BRANCH   33   32
ATOM    128  H28 UNL A   1      29.276 -18.848  31.711  1.00  0.00    +0.000 H 
ATOM    127  H27 UNL A   1      30.150 -17.279  31.862  1.00  0.00    +0.000 H 
ATOM     32  C22 UNL A   1      29.594 -18.051  32.352  1.00  0.00    +0.000 C 
BRANCH   32   31
ATOM    125  H25 UNL A   1      27.986 -16.671  32.192  1.00  0.00    +0.000 H 
ATOM    126  H26 UNL A   1      27.603 -18.230  32.990  1.00  0.00    +0.000 H 
ATOM     31  C21 UNL A   1      28.299 -17.423  32.886  1.00  0.00    +0.000 C 
BRANCH   31   30
ATOM    123  H23 UNL A   1      29.436 -16.706  34.533  1.00  0.00    +0.000 H 
ATOM    124  H24 UNL A   1      27.925 -15.820  34.197  1.00  0.00    +0.000 H 
ATOM     30  C20 UNL A   1      28.400 -16.774  34.272  1.00  0.00    +0.000 C 
BRANCH   30   29
ATOM    121  H21 UNL A   1      27.022 -18.256  34.937  1.00  0.00    +0.000 H 
ATOM    122  H22 UNL A   1      28.419 -18.010  35.992  1.00  0.00    +0.000 H 
ATOM     29  C19 UNL A   1      27.676 -17.537  35.383  1.00  0.00    +0.000 C 
BRANCH   29   28
ATOM     28  N7  UNL A   1      26.898 -16.661  36.235  1.00  0.00    +0.000 N 
ATOM    120  H20 UNL A   1      26.047 -17.067  36.520  1.00  0.00    +0.000 H 
BRANCH   28   26
ATOM     26  C18 UNL A   1      27.070 -15.415  36.729  1.00  0.00    +0.000 C 
ATOM     27  O2  UNL A   1      28.175 -15.221  37.266  1.00  0.00    +0.000 O 
BRANCH   26    2
ATOM      2  C1  UNL A   1      26.093 -14.212  36.636  1.00  0.00    +0.000 C 
ATOM    104  H4  UNL A   1      25.529 -14.342  37.536  1.00  0.00    +0.000 H 
BRANCH    2    1
ATOM      1  N1  UNL A   1      26.840 -12.940  36.652  1.00  0.00    +0.000 N 
ATOM    101  H1  UNL A   1      26.395 -12.292  37.301  1.00  0.00    +0.000 H 
ATOM    102  H2  UNL A   1      26.843 -12.535  35.715  1.00  0.00    +0.000 H 
ATOM    103  H3  UNL A   1      27.801 -13.113  36.949  1.00  0.00    +0.000 H 
ENDBRANCH    2    1
BRANCH    2    3
ATOM    105  H5  UNL A   1      24.045 -14.588  36.456  1.00  0.00    +0.000 H 
ATOM    106  H6  UNL A   1      25.136 -14.825  34.962  1.00  0.00    +0.000 H 
ATOM      3  C2  UNL A   1      24.815 -14.240  35.799  1.00  0.00    +0.000 C 
BRANCH    3    4
ATOM      4  C3  UNL A   1      24.234 -13.040  35.095  1.00  0.00    +0.000 C 
ATOM      5  C4  UNL A   1      23.415 -12.151  35.779  1.00  0.00    +0.000 C 
ATOM      6  N2  UNL A   1      22.846 -11.282  34.886  1.00  0.00    +0.000 N 
ATOM    107  H7  UNL A   1      23.259 -12.147  36.799  1.00  0.00    +0.000 H 
ATOM     20  C12 UNL A   1      23.386 -11.489  33.633  1.00  0.00    +0.000 C 
ATOM     21  C13 UNL A   1      23.142 -10.818  32.419  1.00  0.00    +0.000 C 
ATOM    116  H16 UNL A   1      22.446 -10.057  32.367  1.00  0.00    +0.000 H 
ATOM     23  C15 UNL A   1      24.797 -12.222  31.366  1.00  0.00    +0.000 C 
ATOM     24  C16 UNL A   1      25.025 -12.889  32.577  1.00  0.00    +0.000 C 
ATOM     25  C17 UNL A   1      24.315 -12.538  33.747  1.00  0.00    +0.000 C 
ATOM    119  H19 UNL A   1      25.722 -13.649  32.615  1.00  0.00    +0.000 H 
ATOM    118  H18 UNL A   1      25.330 -12.493  30.524  1.00  0.00    +0.000 H 
ATOM     22  C14 UNL A   1      23.862 -11.202  31.289  1.00  0.00    +0.000 C 
ATOM    117  H17 UNL A   1      23.698 -10.723  30.390  1.00  0.00    +0.000 H 
BRANCH    6    7
ATOM      7  C5  UNL A   1      21.796 -10.390  35.207  1.00  0.00    +0.000 C 
ATOM      8  N3  UNL A   1      22.139  -9.146  35.524  1.00  0.00    +0.000 N 
ATOM      9  C6  UNL A   1      21.084  -8.362  35.672  1.00  0.00    +0.000 C 
ATOM     10 Cl1  UNL A   1      21.418  -6.727  36.038  1.00  0.00    +0.000 Cl
ATOM     11  N4  UNL A   1      19.805  -8.699  35.609  1.00  0.00    +0.000 N 
ATOM     12  C7  UNL A   1      19.584  -9.990  35.408  1.00  0.00    +0.000 C 
ATOM     19  N6  UNL A   1      20.548 -10.862  35.133  1.00  0.00    +0.000 N 
BRANCH   12   13
ATOM    108  H8  UNL A   1      16.538  -9.725  36.464  1.00  0.00    +0.000 H 
ATOM    109  H9  UNL A   1      18.009  -8.904  36.990  1.00  0.00    +0.000 H 
ATOM     13  N5  UNL A   1      18.304 -10.442  35.645  1.00  0.00    +0.000 N 
ATOM     14  C8  UNL A   1      17.560  -9.846  36.758  1.00  0.00    +0.000 C 
ATOM     15  C9  UNL A   1      17.611 -10.718  38.015  1.00  0.00    +0.000 C 
ATOM     17  C10 UNL A   1      18.076 -12.651  36.753  1.00  0.00    +0.000 C 
ATOM     18  C11 UNL A   1      18.068 -11.872  35.424  1.00  0.00    +0.000 C 
ATOM    114  H14 UNL A   1      18.838 -12.259  34.790  1.00  0.00    +0.000 H 
ATOM    115  H15 UNL A   1      17.107 -11.990  34.969  1.00  0.00    +0.000 H 
ATOM    110  H10 UNL A   1      16.959 -10.304  38.756  1.00  0.00    +0.000 H 
ATOM    111  H11 UNL A   1      18.619 -10.740  38.373  1.00  0.00    +0.000 H 
ATOM     16  O1  UNL A   1      17.199 -12.063  37.726  1.00  0.00    +0.000 O 
ATOM    112  H12 UNL A   1      17.761 -13.656  36.566  1.00  0.00    +0.000 H 
ATOM    113  H13 UNL A   1      19.071 -12.625  37.146  1.00  0.00    +0.000 H 
ENDBRANCH   12   13
ENDBRANCH    6    7
ENDBRANCH    3    4
ENDBRANCH    2    3
ENDBRANCH   26    2
ENDBRANCH   28   26
ENDBRANCH   29   28
ENDBRANCH   30   29
ENDBRANCH   31   30
ENDBRANCH   32   31
ENDBRANCH   33   32
ENDBRANCH   34   33
ENDBRANCH   35   34
ENDBRANCH   36   35
ENDBRANCH   38   36
ENDBRANCH   42   41
BRANCH   46   47
ATOM     47  C34 UNL A   1      32.776  -9.190  26.487  1.00  0.00    +0.000 C 
ATOM     48  C35 UNL A   1      31.879  -9.233  25.402  1.00  0.00    +0.000 C 
ATOM     49  F1  UNL A   1      30.609  -9.623  25.582  1.00  0.00    +0.000 F 
ATOM     50  C36 UNL A   1      32.287  -8.936  24.098  1.00  0.00    +0.000 C 
ATOM     51  F2  UNL A   1      31.422  -9.070  23.082  1.00  0.00    +0.000 F 
ATOM     52  C37 UNL A   1      33.591  -8.555  23.839  1.00  0.00    +0.000 C 
ATOM     53  F3  UNL A   1      33.991  -8.304  22.586  1.00  0.00    +0.000 F 
ATOM     54  C38 UNL A   1      34.493  -8.478  24.883  1.00  0.00    +0.000 C 
ATOM     55  F4  UNL A   1      35.767  -8.134  24.646  1.00  0.00    +0.000 F 
ATOM     56  C39 UNL A   1      34.101  -8.817  26.177  1.00  0.00    +0.000 C 
ATOM     57  F5  UNL A   1      35.071  -8.862  27.100  1.00  0.00    +0.000 F 
ENDBRANCH   46   47
BRANCH   63   64
ATOM     65  C46 UNL A   1      26.738  -8.593  31.687  1.00  0.00    +0.000 C 
ATOM     66  F6  UNL A   1      26.166  -7.675  30.895  1.00  0.00    +0.000 F 
ATOM     67  C47 UNL A   1      26.164  -8.834  32.933  1.00  0.00    +0.000 C 
ATOM     68  F7  UNL A   1      25.114  -8.106  33.341  1.00  0.00    +0.000 F 
ATOM     69  C48 UNL A   1      26.654  -9.849  33.738  1.00  0.00    +0.000 C 
ATOM     70  F8  UNL A   1      26.075 -10.111  34.919  1.00  0.00    +0.000 F 
ATOM     71  C49 UNL A   1      27.727 -10.613  33.308  1.00  0.00    +0.000 C 
ATOM     72  F9  UNL A   1      28.170 -11.629  34.062  1.00  0.00    +0.000 F 
ATOM     73  C50 UNL A   1      28.327 -10.349  32.079  1.00  0.00    +0.000 C 
ATOM     74  F10 UNL A   1      29.345 -11.126  31.678  1.00  0.00    +0.000 F 
ATOM     64  C45 UNL A   1      27.849  -9.331  31.243  1.00  0.00    +0.000 C 
ENDBRANCH   63   64
BRANCH   78   79
ATOM     79  C54 UNL A   1      25.348 -13.469  27.161  1.00  0.00    +0.000 C 
ATOM     80  C55 UNL A   1      24.004 -13.088  27.287  1.00  0.00    +0.000 C 
ATOM     81  F11 UNL A   1      23.608 -12.347  28.332  1.00  0.00    +0.000 F 
ATOM     82  C56 UNL A   1      23.060 -13.405  26.304  1.00  0.00    +0.000 C 
ATOM     83  F12 UNL A   1      21.799 -12.971  26.427  1.00  0.00    +0.000 F 
ATOM     84  C57 UNL A   1      23.433 -14.119  25.178  1.00  0.00    +0.000 C 
ATOM     85  F13 UNL A   1      22.541 -14.374  24.211  1.00  0.00    +0.000 F 
ATOM     86  C58 UNL A   1      24.744 -14.530  25.037  1.00  0.00    +0.000 C 
ATOM     87  F14 UNL A   1      25.126 -15.194  23.935  1.00  0.00    +0.000 F 
ATOM     88  C59 UNL A   1      25.689 -14.205  26.009  1.00  0.00    +0.000 C 
ATOM     89  F15 UNL A   1      26.961 -14.544  25.756  1.00  0.00    +0.000 F 
ENDBRANCH   78   79
TORSDOF 20
ENDMDL
MODEL 2
REMARK VINA RESULT:      -8.9     34.157     39.202
ROOT
ATOM    136  H36 UNL A   1      25.052  20.565   9.808  1.00  0.00    +0.000 H 
ATOM    137  H37 UNL A   1      26.888  19.604   8.136  1.00  0.00    +0.000 H 
ATOM    138  H38 UNL A   1      25.391  16.585  10.327  1.00  0.00    +0.000 H 
ATOM    139  H39 UNL A   1      21.999  14.618   2.999  1.00  0.00    +0.000 H 
ATOM    140  H40 UNL A   1      21.059  16.975   3.237  1.00  0.00    +0.000 H 
ATOM    141  H41 UNL A   1      23.223  16.152   6.689  1.00  0.00    +0.000 H 
ATOM    142  H42 UNL A   1      23.339  13.225   8.182  1.00  0.00    +0.000 H 
ATOM    143  H43 UNL A   1      24.821  14.895   9.466  1.00  0.00    +0.000 H 
ATOM    144  H44 UNL A   1      20.267  18.453  10.331  1.00  0.00    +0.000 H 
ATOM    145  H45 UNL A   1      19.314  18.189   7.960  1.00  0.00    +0.000 H 
ATOM     42  C30 UNL A   1      21.318  18.022   5.931  1.00  0.00    +0.000 C 
ATOM     43  C31 UNL A   1      21.513  18.205   7.405  1.00  0.00    +0.000 C 
ATOM     44  N9  UNL A   1      22.618  18.361   8.067  1.00  0.00    +0.000 N 
ATOM     45  C32 UNL A   1      22.264  18.366   9.418  1.00  0.00    +0.000 C 
ATOM     46  C33 UNL A   1      23.164  18.233  10.431  1.00  0.00    +0.000 C 
ATOM     58  C40 UNL A   1      24.512  18.477  10.012  1.00  0.00    +0.000 C 
ATOM     59  C41 UNL A   1      25.209  19.577   9.557  1.00  0.00    +0.000 C 
ATOM     60  C42 UNL A   1      26.190  19.057   8.664  1.00  0.00    +0.000 C 
ATOM     61  C43 UNL A   1      26.030  17.671   8.635  1.00  0.00    +0.000 C 
ATOM     62  N10 UNL A   1      25.326  17.400   9.779  1.00  0.00    +0.000 N 
ATOM     63  C44 UNL A   1      26.312  16.691   7.615  1.00  0.00    +0.000 C 
ATOM     75  C51 UNL A   1      25.704  15.472   7.530  1.00  0.00    +0.000 C 
ATOM     76  N11 UNL A   1      25.553  14.837   6.307  1.00  0.00    +0.000 N 
ATOM     77  C52 UNL A   1      24.481  14.104   6.441  1.00  0.00    +0.000 C 
ATOM     78  C53 UNL A   1      23.546  13.787   5.336  1.00  0.00    +0.000 C 
ATOM     90  C60 UNL A   1      22.905  14.929   4.996  1.00  0.00    +0.000 C 
ATOM     91  C61 UNL A   1      22.125  15.237   3.816  1.00  0.00    +0.000 C 
ATOM     92  C62 UNL A   1      21.591  16.466   3.961  1.00  0.00    +0.000 C 
ATOM     93  C63 UNL A   1      21.882  16.967   5.306  1.00  0.00    +0.000 C 
ATOM     94  N12 UNL A   1      22.756  16.042   5.829  1.00  0.00    +0.000 N 
ATOM     95  C64 UNL A   1      24.048  13.876   7.810  1.00  0.00    +0.000 C 
ATOM     96  C65 UNL A   1      24.831  14.750   8.445  1.00  0.00    +0.000 C 
ATOM     97  C66 UNL A   1      20.823  18.368   9.465  1.00  0.00    +0.000 C 
ATOM     98  C67 UNL A   1      20.305  18.244   8.244  1.00  0.00    +0.000 C 
ENDROOT
BRANCH   42   41
ATOM     99  C68 UNL A   1      20.783  20.022   4.538  1.00  0.00    +0.000 C 
ATOM    100  C69 UNL A   1      19.840  20.884   3.988  1.00  0.00    +0.000 C 
ATOM     38  C26 UNL A   1      18.462  20.627   4.112  1.00  0.00    +0.000 C 
ATOM     39  C27 UNL A   1      18.061  19.447   4.739  1.00  0.00    +0.000 C 
ATOM    134  H34 UNL A   1      17.060  19.199   4.771  1.00  0.00    +0.000 H 
ATOM     40  C28 UNL A   1      19.002  18.595   5.322  1.00  0.00    +0.000 C 
ATOM    135  H35 UNL A   1      18.691  17.738   5.804  1.00  0.00    +0.000 H 
ATOM     41  C29 UNL A   1      20.362  18.903   5.256  1.00  0.00    +0.000 C 
ATOM    146  H46 UNL A   1      21.790  20.209   4.415  1.00  0.00    +0.000 H 
ATOM    147  H47 UNL A   1      20.155  21.725   3.480  1.00  0.00    +0.000 H 
BRANCH   38   36
ATOM     36  C25 UNL A   1      17.561  21.673   3.550  1.00  0.00    +0.000 C 
ATOM     37  O3  UNL A   1      16.532  21.948   4.154  1.00  0.00    +0.000 O 
BRANCH   36   35
ATOM     35  N8  UNL A   1      17.768  22.327   2.364  1.00  0.00    +0.000 N 
ATOM    133  H33 UNL A   1      17.676  23.302   2.454  1.00  0.00    +0.000 H 
BRANCH   35   34
ATOM     34  C24 UNL A   1      18.090  21.927   1.012  1.00  0.00    +0.000 C 
ATOM    131  H31 UNL A   1      17.764  22.701   0.350  1.00  0.00    +0.000 H 
ATOM    132  H32 UNL A   1      19.148  21.768   0.992  1.00  0.00    +0.000 H 
BRANCH   34   33
ATOM     33  C23 UNL A   1      17.452  20.614   0.556  1.00  0.00    +0.000 C 
ATOM    130  H30 UNL A   1      16.675  20.408   1.262  1.00  0.00    +0.000 H 
ATOM    129  H29 UNL A   1      18.220  19.869   0.526  1.00  0.00    +0.000 H 
BRANCH   33   32
ATOM    128  H28 UNL A   1      17.428  20.105  -1.469  1.00  0.00    +0.000 H 
ATOM    127  H27 UNL A   1      16.629  21.674  -1.084  1.00  0.00    +0.000 H 
ATOM     32  C22 UNL A   1      16.773  20.648  -0.818  1.00  0.00    +0.000 C 
BRANCH   32   31
ATOM    125  H25 UNL A   1      15.018  20.148  -1.906  1.00  0.00    +0.000 H 
ATOM    126  H26 UNL A   1      15.608  18.904  -0.758  1.00  0.00    +0.000 H 
ATOM     31  C21 UNL A   1      15.415  19.941  -0.933  1.00  0.00    +0.000 C 
BRANCH   31   30
ATOM    123  H23 UNL A   1      14.847  20.955   0.847  1.00  0.00    +0.000 H 
ATOM    124  H24 UNL A   1      13.603  20.884  -0.429  1.00  0.00    +0.000 H 
ATOM     30  C20 UNL A   1      14.364  20.355   0.104  1.00  0.00    +0.000 C 
BRANCH   30   29
ATOM    121  H21 UNL A   1      12.618  19.361   0.812  1.00  0.00    +0.000 H 
ATOM    122  H22 UNL A   1      13.917  18.291   0.271  1.00  0.00    +0.000 H 
ATOM     29  C19 UNL A   1      13.673  19.185   0.807  1.00  0.00    +0.000 C 
BRANCH   29   28
ATOM     28  N7  UNL A   1      14.126  19.019   2.173  1.00  0.00    +0.000 N 
ATOM    120  H20 UNL A   1      14.878  19.611   2.399  1.00  0.00    +0.000 H 
BRANCH   28   26
ATOM     26  C18 UNL A   1      13.752  18.236   3.210  1.00  0.00    +0.000 C 
ATOM     27  O2  UNL A   1      12.842  18.710   3.913  1.00  0.00    +0.000 O 
BRANCH   26    2
ATOM      2  C1  UNL A   1      14.271  16.817   3.565  1.00  0.00    +0.000 C 
ATOM    104  H4  UNL A   1      14.057  16.781   4.613  1.00  0.00    +0.000 H 
BRANCH    2    1
ATOM      1  N1  UNL A   1      13.509  15.791   2.827  1.00  0.00    +0.000 N 
ATOM    101  H1  UNL A   1      13.200  16.173   1.933  1.00  0.00    +0.000 H 
ATOM    102  H2  UNL A   1      12.695  15.511   3.376  1.00  0.00    +0.000 H 
ATOM    103  H3  UNL A   1      14.102  14.978   2.663  1.00  0.00    +0.000 H 
ENDBRANCH    2    1
BRANCH    2    3
ATOM    105  H5  UNL A   1      16.286  17.364   3.477  1.00  0.00    +0.000 H 
ATOM    106  H6  UNL A   1      15.840  15.559   3.348  1.00  0.00    +0.000 H 
ATOM      3  C2  UNL A   1      15.745  16.510   3.828  1.00  0.00    +0.000 C 
BRANCH    3    4
ATOM      4  C3  UNL A   1      16.319  16.197   5.186  1.00  0.00    +0.000 C 
ATOM      5  C4  UNL A   1      15.745  16.730   6.333  1.00  0.00    +0.000 C 
ATOM      6  N2  UNL A   1      16.562  16.483   7.404  1.00  0.00    +0.000 N 
ATOM    107  H7  UNL A   1      14.846  17.235   6.371  1.00  0.00    +0.000 H 
ATOM     20  C12 UNL A   1      17.603  15.666   7.011  1.00  0.00    +0.000 C 
ATOM     21  C13 UNL A   1      18.660  15.120   7.765  1.00  0.00    +0.000 C 
ATOM    116  H16 UNL A   1      18.758  15.337   8.770  1.00  0.00    +0.000 H 
ATOM     23  C15 UNL A   1      19.431  13.993   5.777  1.00  0.00    +0.000 C 
ATOM     24  C16 UNL A   1      18.380  14.548   5.035  1.00  0.00    +0.000 C 
ATOM     25  C17 UNL A   1      17.437  15.410   5.640  1.00  0.00    +0.000 C 
ATOM    119  H19 UNL A   1      18.294  14.327   4.030  1.00  0.00    +0.000 H 
ATOM    118  H18 UNL A   1      20.106  13.363   5.315  1.00  0.00    +0.000 H 
ATOM     22  C14 UNL A   1      19.569  14.280   7.125  1.00  0.00    +0.000 C 
ATOM    117  H17 UNL A   1      20.351  13.870   7.659  1.00  0.00    +0.000 H 
BRANCH    6    7
ATOM      7  C5  UNL A   1      16.394  17.069   8.681  1.00  0.00    +0.000 C 
ATOM      8  N3  UNL A   1      16.876  18.296   8.846  1.00  0.00    +0.000 N 
ATOM      9  C6  UNL A   1      16.548  18.805  10.022  1.00  0.00    +0.000 C 
ATOM     10 Cl1  UNL A   1      17.083  20.401  10.318  1.00  0.00    +0.000 Cl
ATOM     11  N4  UNL A   1      15.893  18.214  11.009  1.00  0.00    +0.000 N 
ATOM     12  C7  UNL A   1      15.568  16.950  10.777  1.00  0.00    +0.000 C 
ATOM     19  N6  UNL A   1      15.738  16.357   9.600  1.00  0.00    +0.000 N 
BRANCH   12   13
ATOM    108  H8  UNL A   1      14.642  14.243  12.286  1.00  0.00    +0.000 H 
ATOM    109  H9  UNL A   1      14.455  14.738  10.602  1.00  0.00    +0.000 H 
ATOM     13  N5  UNL A   1      15.174  16.204  11.866  1.00  0.00    +0.000 N 
ATOM     14  C8  UNL A   1      14.335  15.026  11.625  1.00  0.00    +0.000 C 
ATOM     15  C9  UNL A   1      12.851  15.320  11.864  1.00  0.00    +0.000 C 
ATOM     17  C10 UNL A   1      13.356  17.138  13.273  1.00  0.00    +0.000 C 
ATOM     18  C11 UNL A   1      14.873  16.950  13.091  1.00  0.00    +0.000 C 
ATOM    114  H14 UNL A   1      15.338  17.912  13.036  1.00  0.00    +0.000 H 
ATOM    115  H15 UNL A   1      15.247  16.396  13.926  1.00  0.00    +0.000 H 
ATOM    110  H10 UNL A   1      12.298  14.406  11.793  1.00  0.00    +0.000 H 
ATOM    111  H11 UNL A   1      12.519  16.017  11.124  1.00  0.00    +0.000 H 
ATOM     16  O1  UNL A   1      12.643  15.895  13.163  1.00  0.00    +0.000 O 
ATOM    112  H12 UNL A   1      13.172  17.557  14.240  1.00  0.00    +0.000 H 
ATOM    113  H13 UNL A   1      13.007  17.789  12.498  1.00  0.00    +0.000 H 
ENDBRANCH   12   13
ENDBRANCH    6    7
ENDBRANCH    3    4
ENDBRANCH    2    3
ENDBRANCH   26    2
ENDBRANCH   28   26
ENDBRANCH   29   28
ENDBRANCH   30   29
ENDBRANCH   31   30
ENDBRANCH   32   31
ENDBRANCH   33   32
ENDBRANCH   34   33
ENDBRANCH   35   34
ENDBRANCH   36   35
ENDBRANCH   38   36
ENDBRANCH   42   41
BRANCH   46   47
ATOM     47  C34 UNL A   1      22.845  17.649  11.780  1.00  0.00    +0.000 C 
ATOM     48  C35 UNL A   1      22.465  18.480  12.851  1.00  0.00    +0.000 C 
ATOM     49  F1  UNL A   1      22.203  19.779  12.647  1.00  0.00    +0.000 F 
ATOM     50  C36 UNL A   1      22.409  18.007  14.166  1.00  0.00    +0.000 C 
ATOM     51  F2  UNL A   1      22.123  18.851  15.167  1.00  0.00    +0.000 F 
ATOM     52  C37 UNL A   1      22.696  16.683  14.448  1.00  0.00    +0.000 C 
ATOM     53  F3  UNL A   1      22.676  16.237  15.711  1.00  0.00    +0.000 F 
ATOM     54  C38 UNL A   1      23.049  15.832  13.419  1.00  0.00    +0.000 C 
ATOM     55  F4  UNL A   1      23.355  14.553  13.679  1.00  0.00    +0.000 F 
ATOM     56  C39 UNL A   1      23.151  16.313  12.114  1.00  0.00    +0.000 C 
ATOM     57  F5  UNL A   1      23.644  15.462  11.204  1.00  0.00    +0.000 F 
ENDBRANCH   46   47
BRANCH   63   64
ATOM     65  C46 UNL A   1      26.476  17.843   5.339  1.00  0.00    +0.000 C 
ATOM     66  F6  UNL A   1      25.153  18.059   5.319  1.00  0.00    +0.000 F 
ATOM     67  C47 UNL A   1      27.240  18.358   4.294  1.00  0.00    +0.000 C 
ATOM     68  F7  UNL A   1      26.642  18.985   3.269  1.00  0.00    +0.000 F 
ATOM     69  C48 UNL A   1      28.621  18.254   4.327  1.00  0.00    +0.000 C 
ATOM     70  F8  UNL A   1      29.361  18.788   3.343  1.00  0.00    +0.000 F 
ATOM     71  C49 UNL A   1      29.239  17.623   5.395  1.00  0.00    +0.000 C 
ATOM     72  F9  UNL A   1      30.577  17.567   5.455  1.00  0.00    +0.000 F 
ATOM     73  C50 UNL A   1      28.475  17.074   6.421  1.00  0.00    +0.000 C 
ATOM     74  F10 UNL A   1      29.106  16.495   7.455  1.00  0.00    +0.000 F 
ATOM     64  C45 UNL A   1      27.077  17.168   6.414  1.00  0.00    +0.000 C 
ENDBRANCH   63   64
BRANCH   78   79
ATOM     79  C54 UNL A   1      23.174  12.400   4.976  1.00  0.00    +0.000 C 
ATOM     80  C55 UNL A   1      23.751  11.762   3.869  1.00  0.00    +0.000 C 
ATOM     81  F11 UNL A   1      24.498  12.459   3.002  1.00  0.00    +0.000 F 
ATOM     82  C56 UNL A   1      23.625  10.382   3.672  1.00  0.00    +0.000 C 
ATOM     83  F12 UNL A   1      24.241   9.797   2.637  1.00  0.00    +0.000 F 
ATOM     84  C57 UNL A   1      22.910   9.608   4.572  1.00  0.00    +0.000 C 
ATOM     85  F13 UNL A   1      22.836   8.280   4.413  1.00  0.00    +0.000 F 
ATOM     86  C58 UNL A   1      22.308  10.211   5.660  1.00  0.00    +0.000 C 
ATOM     87  F14 UNL A   1      21.641   9.469   6.556  1.00  0.00    +0.000 F 
ATOM     88  C59 UNL A   1      22.444  11.584   5.864  1.00  0.00    +0.000 C 
ATOM     89  F15 UNL A   1      21.925  12.083   6.994  1.00  0.00    +0.000 F 
ENDBRANCH   78   79
TORSDOF 20
ENDMDL
MODEL 3
REMARK VINA RESULT:      -8.8     38.428     44.020
ROOT
ATOM    136  H36 UNL A   1      24.939  20.567   9.534  1.00  0.00    +0.000 H 
ATOM    137  H37 UNL A   1      26.726  19.671   7.775  1.00  0.00    +0.000 H 
ATOM    138  H38 UNL A   1      25.380  16.588   9.975  1.00  0.00    +0.000 H 
ATOM    139  H39 UNL A   1      21.736  14.664   2.757  1.00  0.00    +0.000 H 
ATOM    140  H40 UNL A   1      20.759  16.997   3.071  1.00  0.00    +0.000 H 
ATOM    141  H41 UNL A   1      23.076  16.165   6.419  1.00  0.00    +0.000 H 
ATOM    142  H42 UNL A   1      23.311  13.219   7.859  1.00  0.00    +0.000 H 
ATOM    143  H43 UNL A   1      24.810  14.900   9.110  1.00  0.00    +0.000 H 
ATOM    144  H44 UNL A   1      20.223  18.347  10.214  1.00  0.00    +0.000 H 
ATOM    145  H45 UNL A   1      19.181  18.100   7.879  1.00  0.00    +0.000 H 
ATOM     42  C30 UNL A   1      21.105  18.007   5.769  1.00  0.00    +0.000 C 
ATOM     43  C31 UNL A   1      21.355  18.171   7.236  1.00  0.00    +0.000 C 
ATOM     44  N9  UNL A   1      22.482  18.340   7.857  1.00  0.00    +0.000 N 
ATOM     45  C32 UNL A   1      22.183  18.317   9.220  1.00  0.00    +0.000 C 
ATOM     46  C33 UNL A   1      23.126  18.187  10.195  1.00  0.00    +0.000 C 
ATOM     58  C40 UNL A   1      24.451  18.466   9.726  1.00  0.00    +0.000 C 
ATOM     59  C41 UNL A   1      25.106  19.587   9.261  1.00  0.00    +0.000 C 
ATOM     60  C42 UNL A   1      26.061  19.101   8.321  1.00  0.00    +0.000 C 
ATOM     61  C43 UNL A   1      25.928  17.713   8.276  1.00  0.00    +0.000 C 
ATOM     62  N10 UNL A   1      25.276  17.409   9.443  1.00  0.00    +0.000 N 
ATOM     63  C44 UNL A   1      26.188  16.754   7.230  1.00  0.00    +0.000 C 
ATOM     75  C51 UNL A   1      25.602  15.525   7.149  1.00  0.00    +0.000 C 
ATOM     76  N11 UNL A   1      25.415  14.906   5.923  1.00  0.00    +0.000 N 
ATOM     77  C52 UNL A   1      24.365  14.149   6.088  1.00  0.00    +0.000 C 
ATOM     78  C53 UNL A   1      23.392  13.829   5.016  1.00  0.00    +0.000 C 
ATOM     90  C60 UNL A   1      22.716  14.963   4.720  1.00  0.00    +0.000 C 
ATOM     91  C61 UNL A   1      21.882  15.272   3.578  1.00  0.00    +0.000 C 
ATOM     92  C62 UNL A   1      21.329  16.488   3.764  1.00  0.00    +0.000 C 
ATOM     93  C63 UNL A   1      21.664  16.974   5.105  1.00  0.00    +0.000 C 
ATOM     94  N12 UNL A   1      22.577  16.059   5.577  1.00  0.00    +0.000 N 
ATOM     95  C64 UNL A   1      23.992  13.890   7.469  1.00  0.00    +0.000 C 
ATOM     96  C65 UNL A   1      24.782  14.770   8.087  1.00  0.00    +0.000 C 
ATOM     97  C66 UNL A   1      20.745  18.287   9.325  1.00  0.00    +0.000 C 
ATOM     98  C67 UNL A   1      20.181  18.172   8.123  1.00  0.00    +0.000 C 
ENDROOT
BRANCH   42   41
ATOM     99  C68 UNL A   1      18.742  18.586   5.213  1.00  0.00    +0.000 C 
ATOM    100  C69 UNL A   1      17.831  19.387   4.532  1.00  0.00    +0.000 C 
ATOM     38  C26 UNL A   1      18.257  20.513   3.803  1.00  0.00    +0.000 C 
ATOM     39  C27 UNL A   1      19.610  20.852   3.837  1.00  0.00    +0.000 C 
ATOM    134  H34 UNL A   1      19.932  21.717   3.375  1.00  0.00    +0.000 H 
ATOM     40  C28 UNL A   1      20.533  20.033   4.490  1.00  0.00    +0.000 C 
ATOM    135  H35 UNL A   1      21.534  20.282   4.487  1.00  0.00    +0.000 H 
ATOM     41  C29 UNL A   1      20.104  18.878   5.146  1.00  0.00    +0.000 C 
ATOM    146  H46 UNL A   1      18.412  17.780   5.765  1.00  0.00    +0.000 H 
ATOM    147  H47 UNL A   1      16.827  19.153   4.562  1.00  0.00    +0.000 H 
BRANCH   38   36
ATOM     36  C25 UNL A   1      17.189  21.234   3.053  1.00  0.00    +0.000 C 
ATOM     37  O3  UNL A   1      17.102  22.448   3.176  1.00  0.00    +0.000 O 
BRANCH   36   35
ATOM     35  N8  UNL A   1      16.248  20.629   2.262  1.00  0.00    +0.000 N 
ATOM    133  H33 UNL A   1      15.332  20.905   2.494  1.00  0.00    +0.000 H 
BRANCH   35   34
ATOM     34  C24 UNL A   1      16.278  19.684   1.168  1.00  0.00    +0.000 C 
ATOM    131  H31 UNL A   1      17.034  18.957   1.376  1.00  0.00    +0.000 H 
ATOM    132  H32 UNL A   1      15.294  19.268   1.105  1.00  0.00    +0.000 H 
BRANCH   34   33
ATOM     33  C23 UNL A   1      16.571  20.292  -0.204  1.00  0.00    +0.000 C 
ATOM    130  H30 UNL A   1      15.847  21.067  -0.340  1.00  0.00    +0.000 H 
ATOM    129  H29 UNL A   1      16.510  19.508  -0.931  1.00  0.00    +0.000 H 
BRANCH   33   32
ATOM    128  H28 UNL A   1      18.644  20.163  -0.425  1.00  0.00    +0.000 H 
ATOM    127  H27 UNL A   1      18.079  21.608   0.492  1.00  0.00    +0.000 H 
ATOM     32  C22 UNL A   1      17.940  20.967  -0.353  1.00  0.00    +0.000 C 
BRANCH   32   31
ATOM    125  H25 UNL A   1      19.187  21.710  -1.905  1.00  0.00    +0.000 H 
ATOM    126  H26 UNL A   1      17.470  21.433  -2.344  1.00  0.00    +0.000 H 
ATOM     31  C21 UNL A   1      18.160  21.809  -1.618  1.00  0.00    +0.000 C 
BRANCH   31   30
ATOM    123  H23 UNL A   1      18.373  23.827  -2.253  1.00  0.00    +0.000 H 
ATOM    124  H24 UNL A   1      16.789  23.404  -1.552  1.00  0.00    +0.000 H 
ATOM     30  C20 UNL A   1      17.851  23.304  -1.479  1.00  0.00    +0.000 C 
BRANCH   30   29
ATOM    121  H21 UNL A   1      18.010  24.954  -0.141  1.00  0.00    +0.000 H 
ATOM    122  H22 UNL A   1      17.723  23.391   0.634  1.00  0.00    +0.000 H 
ATOM     29  C19 UNL A   1      18.255  23.913  -0.135  1.00  0.00    +0.000 C 
BRANCH   29   28
ATOM     28  N7  UNL A   1      19.672  23.769   0.132  1.00  0.00    +0.000 N 
ATOM    120  H20 UNL A   1      19.857  23.152   0.875  1.00  0.00    +0.000 H 
BRANCH   28   26
ATOM     26  C18 UNL A   1      20.798  24.288  -0.406  1.00  0.00    +0.000 C 
ATOM     27  O2  UNL A   1      21.779  24.297   0.360  1.00  0.00    +0.000 O 
BRANCH   26    2
ATOM      2  C1  UNL A   1      21.014  24.793  -1.858  1.00  0.00    +0.000 C 
ATOM    104  H4  UNL A   1      21.889  25.396  -1.733  1.00  0.00    +0.000 H 
BRANCH    2    1
ATOM      1  N1  UNL A   1      21.271  23.657  -2.764  1.00  0.00    +0.000 N 
ATOM    101  H1  UNL A   1      20.446  23.487  -3.340  1.00  0.00    +0.000 H 
ATOM    102  H2  UNL A   1      21.479  22.823  -2.215  1.00  0.00    +0.000 H 
ATOM    103  H3  UNL A   1      22.066  23.874  -3.365  1.00  0.00    +0.000 H 
ENDBRANCH    2    1
BRANCH    2    3
ATOM    105  H5  UNL A   1      19.234  25.651  -2.538  1.00  0.00    +0.000 H 
ATOM    106  H6  UNL A   1      20.842  26.183  -3.317  1.00  0.00    +0.000 H 
ATOM      3  C2  UNL A   1      20.250  25.976  -2.450  1.00  0.00    +0.000 C 
BRANCH    3    4
ATOM      4  C3  UNL A   1      20.184  27.345  -1.823  1.00  0.00    +0.000 C 
ATOM      5  C4  UNL A   1      19.048  27.751  -1.136  1.00  0.00    +0.000 C 
ATOM      6  N2  UNL A   1      19.143  29.087  -0.852  1.00  0.00    +0.000 N 
ATOM    107  H7  UNL A   1      18.256  27.140  -0.879  1.00  0.00    +0.000 H 
ATOM     20  C12 UNL A   1      20.392  29.547  -1.216  1.00  0.00    +0.000 C 
ATOM     21  C13 UNL A   1      20.959  30.830  -1.084  1.00  0.00    +0.000 C 
ATOM    116  H16 UNL A   1      20.411  31.610  -0.688  1.00  0.00    +0.000 H 
ATOM     23  C15 UNL A   1      23.005  29.971  -2.030  1.00  0.00    +0.000 C 
ATOM     24  C16 UNL A   1      22.428  28.700  -2.164  1.00  0.00    +0.000 C 
ATOM     25  C17 UNL A   1      21.095  28.460  -1.761  1.00  0.00    +0.000 C 
ATOM    119  H19 UNL A   1      22.985  27.929  -2.565  1.00  0.00    +0.000 H 
ATOM    118  H18 UNL A   1      23.981  30.123  -2.327  1.00  0.00    +0.000 H 
ATOM     22  C14 UNL A   1      22.275  31.022  -1.500  1.00  0.00    +0.000 C 
ATOM    117  H17 UNL A   1      22.709  31.955  -1.413  1.00  0.00    +0.000 H 
BRANCH    6    7
ATOM      7  C5  UNL A   1      18.074  29.871  -0.357  1.00  0.00    +0.000 C 
ATOM      8  N3  UNL A   1      18.309  30.586   0.738  1.00  0.00    +0.000 N 
ATOM      9  C6  UNL A   1      17.298  31.384   1.037  1.00  0.00    +0.000 C 
ATOM     10 Cl1  UNL A   1      17.518  32.382   2.406  1.00  0.00    +0.000 Cl
ATOM     11  N4  UNL A   1      16.126  31.473   0.428  1.00  0.00    +0.000 N 
ATOM     12  C7  UNL A   1      15.959  30.625  -0.576  1.00  0.00    +0.000 C 
ATOM     19  N6  UNL A   1      16.931  29.853  -1.049  1.00  0.00    +0.000 N 
BRANCH   12   13
ATOM    108  H8  UNL A   1      13.692  29.444  -2.559  1.00  0.00    +0.000 H 
ATOM    109  H9  UNL A   1      15.402  29.778  -2.842  1.00  0.00    +0.000 H 
ATOM     13  N5  UNL A   1      14.671  30.456  -1.035  1.00  0.00    +0.000 N 
ATOM     14  C8  UNL A   1      14.480  30.160  -2.458  1.00  0.00    +0.000 C 
ATOM     15  C9  UNL A   1      14.116  31.413  -3.260  1.00  0.00    +0.000 C 
ATOM     17  C10 UNL A   1      13.305  32.506  -1.338  1.00  0.00    +0.000 C 
ATOM     18  C11 UNL A   1      13.647  31.312  -0.428  1.00  0.00    +0.000 C 
ATOM    114  H14 UNL A   1      14.012  31.682   0.508  1.00  0.00    +0.000 H 
ATOM    115  H15 UNL A   1      12.761  30.731  -0.285  1.00  0.00    +0.000 H 
ATOM    110  H10 UNL A   1      13.871  31.127  -4.262  1.00  0.00    +0.000 H 
ATOM    111  H11 UNL A   1      14.954  32.077  -3.254  1.00  0.00    +0.000 H 
ATOM     16  O1  UNL A   1      12.991  32.088  -2.676  1.00  0.00    +0.000 O 
ATOM    112  H12 UNL A   1      12.461  33.021  -0.930  1.00  0.00    +0.000 H 
ATOM    113  H13 UNL A   1      14.163  33.144  -1.383  1.00  0.00    +0.000 H 
ENDBRANCH   12   13
ENDBRANCH    6    7
ENDBRANCH    3    4
ENDBRANCH    2    3
ENDBRANCH   26    2
ENDBRANCH   28   26
ENDBRANCH   29   28
ENDBRANCH   30   29
ENDBRANCH   31   30
ENDBRANCH   32   31
ENDBRANCH   33   32
ENDBRANCH   34   33
ENDBRANCH   35   34
ENDBRANCH   36   35
ENDBRANCH   38   36
ENDBRANCH   42   41
BRANCH   46   47
ATOM     47  C34 UNL A   1      22.873  17.575  11.545  1.00  0.00    +0.000 C 
ATOM     48  C35 UNL A   1      22.501  18.380  12.640  1.00  0.00    +0.000 C 
ATOM     49  F1  UNL A   1      22.187  19.671  12.462  1.00  0.00    +0.000 F 
ATOM     50  C36 UNL A   1      22.506  17.888  13.949  1.00  0.00    +0.000 C 
ATOM     51  F2  UNL A   1      22.225  18.710  14.970  1.00  0.00    +0.000 F 
ATOM     52  C37 UNL A   1      22.848  16.572  14.204  1.00  0.00    +0.000 C 
ATOM     53  F3  UNL A   1      22.886  16.110  15.460  1.00  0.00    +0.000 F 
ATOM     54  C38 UNL A   1      23.195  15.747  13.152  1.00  0.00    +0.000 C 
ATOM     55  F4  UNL A   1      23.554  14.477  13.385  1.00  0.00    +0.000 F 
ATOM     56  C39 UNL A   1      23.236  16.247  11.851  1.00  0.00    +0.000 C 
ATOM     57  F5  UNL A   1      23.727  15.426  10.913  1.00  0.00    +0.000 F 
ENDBRANCH   46   47
BRANCH   63   64
ATOM     65  C46 UNL A   1      28.241  16.983   5.724  1.00  0.00    +0.000 C 
ATOM     66  F6  UNL A   1      28.982  16.259   6.574  1.00  0.00    +0.000 F 
ATOM     67  C47 UNL A   1      28.827  17.393   4.529  1.00  0.00    +0.000 C 
ATOM     68  F7  UNL A   1      30.119  17.125   4.286  1.00  0.00    +0.000 F 
ATOM     69  C48 UNL A   1      28.069  18.049   3.573  1.00  0.00    +0.000 C 
ATOM     70  F8  UNL A   1      28.620  18.405   2.403  1.00  0.00    +0.000 F 
ATOM     71  C49 UNL A   1      26.729  18.308   3.815  1.00  0.00    +0.000 C 
ATOM     72  F9  UNL A   1      25.980  18.896   2.871  1.00  0.00    +0.000 F 
ATOM     73  C50 UNL A   1      26.151  17.933   5.025  1.00  0.00    +0.000 C 
ATOM     74  F10 UNL A   1      24.844  18.173   5.217  1.00  0.00    +0.000 F 
ATOM     64  C45 UNL A   1      26.895  17.266   6.008  1.00  0.00    +0.000 C 
ENDBRANCH   63   64
BRANCH   78   79
ATOM     79  C54 UNL A   1      23.034  12.440   4.649  1.00  0.00    +0.000 C 
ATOM     80  C55 UNL A   1      23.699  11.774   3.610  1.00  0.00    +0.000 C 
ATOM     81  F11 UNL A   1      24.531  12.446   2.801  1.00  0.00    +0.000 F 
ATOM     82  C56 UNL A   1      23.571  10.393   3.427  1.00  0.00    +0.000 C 
ATOM     83  F12 UNL A   1      24.270   9.781   2.462  1.00  0.00    +0.000 F 
ATOM     84  C57 UNL A   1      22.768   9.645   4.272  1.00  0.00    +0.000 C 
ATOM     85  F13 UNL A   1      22.689   8.315   4.131  1.00  0.00    +0.000 F 
ATOM     86  C58 UNL A   1      22.080  10.276   5.290  1.00  0.00    +0.000 C 
ATOM     87  F14 UNL A   1      21.324   9.560   6.136  1.00  0.00    +0.000 F 
ATOM     88  C59 UNL A   1      22.216  11.650   5.481  1.00  0.00    +0.000 C 
ATOM     89  F15 UNL A   1      21.605  12.178   6.552  1.00  0.00    +0.000 F 
ENDBRANCH   78   79
TORSDOF 20
ENDMDL
MODEL 4
REMARK VINA RESULT:      -8.8     37.436     43.631
ROOT
ATOM    136  H36 UNL A   1      25.019  20.501   9.545  1.00  0.00    +0.000 H 
ATOM    137  H37 UNL A   1      26.834  19.499   7.874  1.00  0.00    +0.000 H 
ATOM    138  H38 UNL A   1      25.357  16.533  10.150  1.00  0.00    +0.000 H 
ATOM    139  H39 UNL A   1      21.875  14.411   2.907  1.00  0.00    +0.000 H 
ATOM    140  H40 UNL A   1      20.943  16.774   3.103  1.00  0.00    +0.000 H 
ATOM    141  H41 UNL A   1      23.145  16.023   6.547  1.00  0.00    +0.000 H 
ATOM    142  H42 UNL A   1      23.273  13.131   8.104  1.00  0.00    +0.000 H 
ATOM    143  H43 UNL A   1      24.773  14.826   9.333  1.00  0.00    +0.000 H 
ATOM    144  H44 UNL A   1      20.236  18.411  10.171  1.00  0.00    +0.000 H 
ATOM    145  H45 UNL A   1      19.256  18.097   7.818  1.00  0.00    +0.000 H 
ATOM     42  C30 UNL A   1      21.235  17.880   5.770  1.00  0.00    +0.000 C 
ATOM     43  C31 UNL A   1      21.447  18.096   7.237  1.00  0.00    +0.000 C 
ATOM     44  N9  UNL A   1      22.560  18.264   7.883  1.00  0.00    +0.000 N 
ATOM     45  C32 UNL A   1      22.222  18.300   9.237  1.00  0.00    +0.000 C 
ATOM     46  C33 UNL A   1      23.134  18.187  10.243  1.00  0.00    +0.000 C 
ATOM     58  C40 UNL A   1      24.478  18.419   9.803  1.00  0.00    +0.000 C 
ATOM     59  C41 UNL A   1      25.171  19.508   9.314  1.00  0.00    +0.000 C 
ATOM     60  C42 UNL A   1      26.141  18.966   8.422  1.00  0.00    +0.000 C 
ATOM     61  C43 UNL A   1      25.978  17.580   8.426  1.00  0.00    +0.000 C 
ATOM     62  N10 UNL A   1      25.286  17.335   9.584  1.00  0.00    +0.000 N 
ATOM     63  C44 UNL A   1      26.245  16.576   7.425  1.00  0.00    +0.000 C 
ATOM     75  C51 UNL A   1      25.634  15.358   7.374  1.00  0.00    +0.000 C 
ATOM     76  N11 UNL A   1      25.468  14.695   6.167  1.00  0.00    +0.000 N 
ATOM     77  C52 UNL A   1      24.397  13.968   6.331  1.00  0.00    +0.000 C 
ATOM     78  C53 UNL A   1      23.448  13.628   5.244  1.00  0.00    +0.000 C 
ATOM     90  C60 UNL A   1      22.806  14.764   4.885  1.00  0.00    +0.000 C 
ATOM     91  C61 UNL A   1      22.012  15.047   3.708  1.00  0.00    +0.000 C 
ATOM     92  C62 UNL A   1      21.482  16.280   3.832  1.00  0.00    +0.000 C 
ATOM     93  C63 UNL A   1      21.790  16.811   5.162  1.00  0.00    +0.000 C 
ATOM     94  N12 UNL A   1      22.668  15.895   5.695  1.00  0.00    +0.000 N 
ATOM     95  C64 UNL A   1      23.979  13.772   7.709  1.00  0.00    +0.000 C 
ATOM     96  C65 UNL A   1      24.771  14.657   8.315  1.00  0.00    +0.000 C 
ATOM     97  C66 UNL A   1      20.782  18.306   9.301  1.00  0.00    +0.000 C 
ATOM     98  C67 UNL A   1      20.250  18.156   8.089  1.00  0.00    +0.000 C 
ENDROOT
BRANCH   42   41
ATOM     99  C68 UNL A   1      18.926  18.399   4.978  1.00  0.00    +0.000 C 
ATOM    100  C69 UNL A   1      18.063  19.204   4.242  1.00  0.00    +0.000 C 
ATOM     38  C26 UNL A   1      18.516  20.388   3.633  1.00  0.00    +0.000 C 
ATOM     39  C27 UNL A   1      19.839  20.778   3.842  1.00  0.00    +0.000 C 
ATOM    134  H34 UNL A   1      20.171  21.682   3.472  1.00  0.00    +0.000 H 
ATOM     40  C28 UNL A   1      20.719  19.957   4.551  1.00  0.00    +0.000 C 
ATOM    135  H35 UNL A   1      21.702  20.245   4.678  1.00  0.00    +0.000 H 
ATOM     41  C29 UNL A   1      20.273  18.748   5.086  1.00  0.00    +0.000 C 
ATOM    146  H46 UNL A   1      18.573  17.548   5.441  1.00  0.00    +0.000 H 
ATOM    147  H47 UNL A   1      17.073  18.929   4.142  1.00  0.00    +0.000 H 
BRANCH   38   36
ATOM     36  C25 UNL A   1      17.508  21.112   2.806  1.00  0.00    +0.000 C 
ATOM     37  O3  UNL A   1      17.023  20.540   1.838  1.00  0.00    +0.000 O 
BRANCH   36   35
ATOM     35  N8  UNL A   1      17.113  22.407   3.014  1.00  0.00    +0.000 N 
ATOM    133  H33 UNL A   1      16.134  22.499   3.040  1.00  0.00    +0.000 H 
BRANCH   35   34
ATOM     34  C24 UNL A   1      17.789  23.671   3.205  1.00  0.00    +0.000 C 
ATOM    131  H31 UNL A   1      17.263  24.417   2.648  1.00  0.00    +0.000 H 
ATOM    132  H32 UNL A   1      17.793  23.852   4.259  1.00  0.00    +0.000 H 
BRANCH   34   33
ATOM     33  C23 UNL A   1      19.253  23.694   2.763  1.00  0.00    +0.000 C 
ATOM    130  H30 UNL A   1      19.402  22.795   2.204  1.00  0.00    +0.000 H 
ATOM    129  H29 UNL A   1      19.860  23.765   3.641  1.00  0.00    +0.000 H 
BRANCH   33   32
ATOM    128  H28 UNL A   1      20.361  25.421   2.371  1.00  0.00    +0.000 H 
ATOM    127  H27 UNL A   1      18.751  25.367   1.563  1.00  0.00    +0.000 H 
ATOM     32  C22 UNL A   1      19.645  24.841   1.824  1.00  0.00    +0.000 C 
BRANCH   32   31
ATOM    125  H25 UNL A   1      21.013  25.254   0.251  1.00  0.00    +0.000 H 
ATOM    126  H26 UNL A   1      20.858  23.531   0.723  1.00  0.00    +0.000 H 
ATOM     31  C21 UNL A   1      20.355  24.453   0.519  1.00  0.00    +0.000 C 
BRANCH   31   30
ATOM    123  H23 UNL A   1      19.416  23.120  -0.845  1.00  0.00    +0.000 H 
ATOM    124  H24 UNL A   1      18.478  24.576  -0.423  1.00  0.00    +0.000 H 
ATOM     30  C20 UNL A   1      19.436  24.176  -0.676  1.00  0.00    +0.000 C 
BRANCH   30   29
ATOM    121  H21 UNL A   1      20.925  25.004  -1.956  1.00  0.00    +0.000 H 
ATOM    122  H22 UNL A   1      19.573  24.228  -2.790  1.00  0.00    +0.000 H 
ATOM     29  C19 UNL A   1      19.865  24.860  -1.976  1.00  0.00    +0.000 C 
BRANCH   29   28
ATOM     28  N7  UNL A   1      19.223  26.145  -2.162  1.00  0.00    +0.000 N 
ATOM    120  H20 UNL A   1      18.313  26.171  -1.789  1.00  0.00    +0.000 H 
BRANCH   28   26
ATOM     26  C18 UNL A   1      19.586  27.316  -2.731  1.00  0.00    +0.000 C 
ATOM     27  O2  UNL A   1      18.827  27.707  -3.636  1.00  0.00    +0.000 O 
BRANCH   26    2
ATOM      2  C1  UNL A   1      20.773  28.235  -2.339  1.00  0.00    +0.000 C 
ATOM    104  H4  UNL A   1      20.612  29.063  -2.999  1.00  0.00    +0.000 H 
BRANCH    2    1
ATOM      1  N1  UNL A   1      20.660  28.648  -0.926  1.00  0.00    +0.000 N 
ATOM    101  H1  UNL A   1      21.349  28.143  -0.368  1.00  0.00    +0.000 H 
ATOM    102  H2  UNL A   1      19.723  28.435  -0.583  1.00  0.00    +0.000 H 
ATOM    103  H3  UNL A   1      20.830  29.650  -0.849  1.00  0.00    +0.000 H 
ENDBRANCH    2    1
BRANCH    2    3
ATOM    105  H5  UNL A   1      22.804  27.857  -2.024  1.00  0.00    +0.000 H 
ATOM    106  H6  UNL A   1      22.304  28.935  -3.461  1.00  0.00    +0.000 H 
ATOM      3  C2  UNL A   1      22.189  28.044  -2.880  1.00  0.00    +0.000 C 
BRANCH    3    4
ATOM      4  C3  UNL A   1      22.578  26.998  -3.893  1.00  0.00    +0.000 C 
ATOM      5  C4  UNL A   1      23.142  25.796  -3.484  1.00  0.00    +0.000 C 
ATOM      6  N2  UNL A   1      23.601  25.115  -4.580  1.00  0.00    +0.000 N 
ATOM    107  H7  UNL A   1      23.205  25.469  -2.507  1.00  0.00    +0.000 H 
ATOM     20  C12 UNL A   1      23.222  25.781  -5.728  1.00  0.00    +0.000 C 
ATOM     21  C13 UNL A   1      23.431  25.446  -7.080  1.00  0.00    +0.000 C 
ATOM    116  H16 UNL A   1      23.964  24.600  -7.338  1.00  0.00    +0.000 H 
ATOM     23  C15 UNL A   1      22.186  27.413  -7.710  1.00  0.00    +0.000 C 
ATOM     24  C16 UNL A   1      21.991  27.742  -6.361  1.00  0.00    +0.000 C 
ATOM     25  C17 UNL A   1      22.515  26.928  -5.331  1.00  0.00    +0.000 C 
ATOM    119  H19 UNL A   1      21.460  28.592  -6.117  1.00  0.00    +0.000 H 
ATOM    118  H18 UNL A   1      21.792  28.020  -8.446  1.00  0.00    +0.000 H 
ATOM     22  C14 UNL A   1      22.901  26.281  -8.062  1.00  0.00    +0.000 C 
ATOM    117  H17 UNL A   1      23.044  26.053  -9.059  1.00  0.00    +0.000 H 
BRANCH    6    7
ATOM      7  C5  UNL A   1      24.421  23.964  -4.512  1.00  0.00    +0.000 C 
ATOM      8  N3  UNL A   1      25.658  24.079  -4.982  1.00  0.00    +0.000 N 
ATOM      9  C6  UNL A   1      26.382  22.997  -4.746  1.00  0.00    +0.000 C 
ATOM     10 Cl1  UNL A   1      28.006  23.060  -5.273  1.00  0.00    +0.000 Cl
ATOM     11  N4  UNL A   1      25.989  21.862  -4.190  1.00  0.00    +0.000 N 
ATOM     12  C7  UNL A   1      24.703  21.819  -3.872  1.00  0.00    +0.000 C 
ATOM     19  N6  UNL A   1      23.896  22.871  -3.952  1.00  0.00    +0.000 N 
BRANCH   12   13
ATOM    108  H8  UNL A   1      22.353  19.758  -3.038  1.00  0.00    +0.000 H 
ATOM    109  H9  UNL A   1      22.565  21.470  -2.661  1.00  0.00    +0.000 H 
ATOM     13  N5  UNL A   1      24.178  20.577  -3.589  1.00  0.00    +0.000 N 
ATOM     14  C8  UNL A   1      23.029  20.507  -2.682  1.00  0.00    +0.000 C 
ATOM     15  C9  UNL A   1      23.447  20.153  -1.252  1.00  0.00    +0.000 C 
ATOM     17  C10 UNL A   1      25.446  19.156  -1.998  1.00  0.00    +0.000 C 
ATOM     18  C11 UNL A   1      25.139  19.476  -3.472  1.00  0.00    +0.000 C 
ATOM    114  H14 UNL A   1      26.048  19.754  -3.964  1.00  0.00    +0.000 H 
ATOM    115  H15 UNL A   1      24.714  18.606  -3.926  1.00  0.00    +0.000 H 
ATOM    110  H10 UNL A   1      22.570  19.998  -0.659  1.00  0.00    +0.000 H 
ATOM    111  H11 UNL A   1      24.027  20.961  -0.857  1.00  0.00    +0.000 H 
ATOM     16  O1  UNL A   1      24.247  18.961  -1.230  1.00  0.00    +0.000 O 
ATOM    112  H12 UNL A   1      26.034  18.263  -1.953  1.00  0.00    +0.000 H 
ATOM    113  H13 UNL A   1      25.975  19.987  -1.581  1.00  0.00    +0.000 H 
ENDBRANCH   12   13
ENDBRANCH    6    7
ENDBRANCH    3    4
ENDBRANCH    2    3
ENDBRANCH   26    2
ENDBRANCH   28   26
ENDBRANCH   29   28
ENDBRANCH   30   29
ENDBRANCH   31   30
ENDBRANCH   32   31
ENDBRANCH   33   32
ENDBRANCH   34   33
ENDBRANCH   35   34
ENDBRANCH   36   35
ENDBRANCH   38   36
ENDBRANCH   42   41
BRANCH   46   47
ATOM     47  C34 UNL A   1      22.830  17.634  11.607  1.00  0.00    +0.000 C 
ATOM     48  C35 UNL A   1      22.468  18.491  12.665  1.00  0.00    +0.000 C 
ATOM     49  F1  UNL A   1      22.209  19.786  12.436  1.00  0.00    +0.000 F 
ATOM     50  C36 UNL A   1      22.426  18.046  13.990  1.00  0.00    +0.000 C 
ATOM     51  F2  UNL A   1      22.157  18.913  14.976  1.00  0.00    +0.000 F 
ATOM     52  C37 UNL A   1      22.710  16.727  14.298  1.00  0.00    +0.000 C 
ATOM     53  F3  UNL A   1      22.704  16.309  15.570  1.00  0.00    +0.000 F 
ATOM     54  C38 UNL A   1      23.046  15.853  13.283  1.00  0.00    +0.000 C 
ATOM     55  F4  UNL A   1      23.349  14.578  13.567  1.00  0.00    +0.000 F 
ATOM     56  C39 UNL A   1      23.133  16.304  11.967  1.00  0.00    +0.000 C 
ATOM     57  F5  UNL A   1      23.611  15.432  11.068  1.00  0.00    +0.000 F 
ENDBRANCH   46   47
BRANCH   63   64
ATOM     65  C46 UNL A   1      28.340  16.687   5.963  1.00  0.00    +0.000 C 
ATOM     66  F6  UNL A   1      29.036  15.966   6.853  1.00  0.00    +0.000 F 
ATOM     67  C47 UNL A   1      28.968  17.039   4.770  1.00  0.00    +0.000 C 
ATOM     68  F7  UNL A   1      30.255  16.720   4.568  1.00  0.00    +0.000 F 
ATOM     69  C48 UNL A   1      28.254  17.690   3.776  1.00  0.00    +0.000 C 
ATOM     70  F8  UNL A   1      28.845  17.990   2.610  1.00  0.00    +0.000 F 
ATOM     71  C49 UNL A   1      26.920  18.002   3.978  1.00  0.00    +0.000 C 
ATOM     72  F9  UNL A   1      26.213  18.585   2.999  1.00  0.00    +0.000 F 
ATOM     73  C50 UNL A   1      26.301  17.685   5.185  1.00  0.00    +0.000 C 
ATOM     74  F10 UNL A   1      24.999  17.976   5.337  1.00  0.00    +0.000 F 
ATOM     64  C45 UNL A   1      26.998  17.025   6.205  1.00  0.00    +0.000 C 
ENDBRANCH   63   64
BRANCH   78   79
ATOM     79  C54 UNL A   1      23.069  12.234   4.919  1.00  0.00    +0.000 C 
ATOM     80  C55 UNL A   1      23.723  11.527   3.901  1.00  0.00    +0.000 C 
ATOM     81  F11 UNL A   1      24.565  12.161   3.072  1.00  0.00    +0.000 F 
ATOM     82  C56 UNL A   1      23.575  10.142   3.761  1.00  0.00    +0.000 C 
ATOM     83  F12 UNL A   1      24.264   9.490   2.815  1.00  0.00    +0.000 F 
ATOM     84  C57 UNL A   1      22.761   9.433   4.628  1.00  0.00    +0.000 C 
ATOM     85  F13 UNL A   1      22.662   8.101   4.528  1.00  0.00    +0.000 F 
ATOM     86  C58 UNL A   1      22.083  10.106   5.627  1.00  0.00    +0.000 C 
ATOM     87  F14 UNL A   1      21.317   9.427   6.494  1.00  0.00    +0.000 F 
ATOM     88  C59 UNL A   1      22.239  11.483   5.775  1.00  0.00    +0.000 C 
ATOM     89  F15 UNL A   1      21.637  12.052   6.829  1.00  0.00    +0.000 F 
ENDBRANCH   78   79
TORSDOF 20
ENDMDL
MODEL 5
REMARK VINA RESULT:      -8.6     66.681     71.107
ROOT
ATOM    136  H36 UNL A   1      17.804  53.343  -5.043  1.00  0.00    +0.000 H 
ATOM    137  H37 UNL A   1      17.912  50.685  -4.927  1.00  0.00    +0.000 H 
ATOM    138  H38 UNL A   1      19.614  52.219  -1.625  1.00  0.00    +0.000 H 
ATOM    139  H39 UNL A   1      12.727  49.113   1.841  1.00  0.00    +0.000 H 
ATOM    140  H40 UNL A   1      11.635  50.645   0.121  1.00  0.00    +0.000 H 
ATOM    141  H41 UNL A   1      15.745  51.177  -0.182  1.00  0.00    +0.000 H 
ATOM    142  H42 UNL A   1      17.835  51.174   2.356  1.00  0.00    +0.000 H 
ATOM    143  H43 UNL A   1      19.152  51.520   0.170  1.00  0.00    +0.000 H 
ATOM    144  H44 UNL A   1      16.056  56.316  -1.076  1.00  0.00    +0.000 H 
ATOM    145  H45 UNL A   1      13.798  55.327  -0.353  1.00  0.00    +0.000 H 
ATOM     42  C30 UNL A   1      13.491  52.565  -1.014  1.00  0.00    +0.000 C 
ATOM     43  C31 UNL A   1      14.657  53.458  -1.308  1.00  0.00    +0.000 C 
ATOM     44  N9  UNL A   1      15.752  53.184  -1.949  1.00  0.00    +0.000 N 
ATOM     45  C32 UNL A   1      16.559  54.318  -1.840  1.00  0.00    +0.000 C 
ATOM     46  C33 UNL A   1      17.888  54.326  -2.141  1.00  0.00    +0.000 C 
ATOM     58  C40 UNL A   1      18.284  53.201  -2.935  1.00  0.00    +0.000 C 
ATOM     59  C41 UNL A   1      18.009  52.764  -4.215  1.00  0.00    +0.000 C 
ATOM     60  C42 UNL A   1      18.069  51.342  -4.147  1.00  0.00    +0.000 C 
ATOM     61  C43 UNL A   1      18.380  51.003  -2.829  1.00  0.00    +0.000 C 
ATOM     62  N10 UNL A   1      18.913  52.155  -2.313  1.00  0.00    +0.000 N 
ATOM     63  C44 UNL A   1      18.078  49.835  -2.039  1.00  0.00    +0.000 C 
ATOM     75  C51 UNL A   1      18.033  49.818  -0.675  1.00  0.00    +0.000 C 
ATOM     76  N11 UNL A   1      17.220  48.920  -0.001  1.00  0.00    +0.000 N 
ATOM     77  C52 UNL A   1      16.922  49.517   1.120  1.00  0.00    +0.000 C 
ATOM     78  C53 UNL A   1      15.642  49.333   1.846  1.00  0.00    +0.000 C 
ATOM     90  C60 UNL A   1      14.662  49.902   1.107  1.00  0.00    +0.000 C 
ATOM     91  C61 UNL A   1      13.225  49.756   1.205  1.00  0.00    +0.000 C 
ATOM     92  C62 UNL A   1      12.646  50.599   0.327  1.00  0.00    +0.000 C 
ATOM     93  C63 UNL A   1      13.674  51.440  -0.292  1.00  0.00    +0.000 C 
ATOM     94  N12 UNL A   1      14.860  50.897   0.145  1.00  0.00    +0.000 N 
ATOM     95  C64 UNL A   1      17.769  50.644   1.473  1.00  0.00    +0.000 C 
ATOM     96  C65 UNL A   1      18.435  50.796   0.327  1.00  0.00    +0.000 C 
ATOM     97  C66 UNL A   1      15.755  55.338  -1.215  1.00  0.00    +0.000 C 
ATOM     98  C67 UNL A   1      14.572  54.851  -0.842  1.00  0.00    +0.000 C 
ENDROOT
BRANCH   42   41
ATOM     99  C68 UNL A   1      11.381  53.782  -0.469  1.00  0.00    +0.000 C 
ATOM    100  C69 UNL A   1      10.083  54.144  -0.812  1.00  0.00    +0.000 C 
ATOM     38  C26 UNL A   1       9.545  53.817  -2.070  1.00  0.00    +0.000 C 
ATOM     39  C27 UNL A   1      10.369  53.180  -2.998  1.00  0.00    +0.000 C 
ATOM    134  H34 UNL A   1      10.022  53.001  -3.953  1.00  0.00    +0.000 H 
ATOM     40  C28 UNL A   1      11.662  52.783  -2.648  1.00  0.00    +0.000 C 
ATOM    135  H35 UNL A   1      12.252  52.290  -3.336  1.00  0.00    +0.000 H 
ATOM     41  C29 UNL A   1      12.155  53.049  -1.370  1.00  0.00    +0.000 C 
ATOM    146  H46 UNL A   1      11.771  54.052   0.446  1.00  0.00    +0.000 H 
ATOM    147  H47 UNL A   1       9.504  54.663  -0.133  1.00  0.00    +0.000 H 
BRANCH   38   36
ATOM     36  C25 UNL A   1       8.117  54.191  -2.275  1.00  0.00    +0.000 C 
ATOM     37  O3  UNL A   1       7.764  54.581  -3.381  1.00  0.00    +0.000 O 
BRANCH   36   35
ATOM     35  N8  UNL A   1       7.160  54.182  -1.296  1.00  0.00    +0.000 N 
ATOM    133  H33 UNL A   1       6.980  55.082  -0.940  1.00  0.00    +0.000 H 
BRANCH   35   34
ATOM     34  C24 UNL A   1       6.349  53.168  -0.658  1.00  0.00    +0.000 C 
ATOM    131  H31 UNL A   1       5.328  53.486  -0.695  1.00  0.00    +0.000 H 
ATOM    132  H32 UNL A   1       6.531  52.260  -1.193  1.00  0.00    +0.000 H 
BRANCH   34   33
ATOM     33  C23 UNL A   1       6.703  52.881   0.801  1.00  0.00    +0.000 C 
ATOM    130  H30 UNL A   1       5.854  52.377   1.213  1.00  0.00    +0.000 H 
ATOM    129  H29 UNL A   1       6.927  53.814   1.275  1.00  0.00    +0.000 H 
BRANCH   33   32
ATOM    128  H28 UNL A   1       8.461  51.985   0.117  1.00  0.00    +0.000 H 
ATOM    127  H27 UNL A   1       7.505  50.974   1.261  1.00  0.00    +0.000 H 
ATOM     32  C22 UNL A   1       7.895  51.942   1.024  1.00  0.00    +0.000 C 
BRANCH   32   31
ATOM    125  H25 UNL A   1       9.538  53.082   1.742  1.00  0.00    +0.000 H 
ATOM    126  H26 UNL A   1       8.283  52.666   2.954  1.00  0.00    +0.000 H 
ATOM     31  C21 UNL A   1       8.882  52.331   2.134  1.00  0.00    +0.000 C 
BRANCH   31   30
ATOM    123  H23 UNL A   1      10.668  51.178   2.140  1.00  0.00    +0.000 H 
ATOM    124  H24 UNL A   1       9.877  51.380   3.725  1.00  0.00    +0.000 H 
ATOM     30  C20 UNL A   1       9.745  51.189   2.682  1.00  0.00    +0.000 C 
BRANCH   30   29
ATOM    121  H21 UNL A   1       8.049  49.902   2.674  1.00  0.00    +0.000 H 
ATOM    122  H22 UNL A   1       9.371  49.400   1.612  1.00  0.00    +0.000 H 
ATOM     29  C19 UNL A   1       9.108  49.803   2.569  1.00  0.00    +0.000 C 
BRANCH   29   28
ATOM     28  N7  UNL A   1       9.594  48.888   3.582  1.00  0.00    +0.000 N 
ATOM    120  H20 UNL A   1      10.523  48.604   3.423  1.00  0.00    +0.000 H 
BRANCH   28   26
ATOM     26  C18 UNL A   1       9.065  48.335   4.696  1.00  0.00    +0.000 C 
ATOM     27  O2  UNL A   1       7.825  48.228   4.680  1.00  0.00    +0.000 O 
BRANCH   26    2
ATOM      2  C1  UNL A   1       9.820  47.769   5.928  1.00  0.00    +0.000 C 
ATOM    104  H4  UNL A   1       9.899  48.646   6.536  1.00  0.00    +0.000 H 
BRANCH    2    1
ATOM      1  N1  UNL A   1       9.012  46.728   6.593  1.00  0.00    +0.000 N 
ATOM    101  H1  UNL A   1       8.177  47.152   6.997  1.00  0.00    +0.000 H 
ATOM    102  H2  UNL A   1       9.562  46.291   7.333  1.00  0.00    +0.000 H 
ATOM    103  H3  UNL A   1       8.739  46.021   5.911  1.00  0.00    +0.000 H 
ENDBRANCH    2    1
BRANCH    2    3
ATOM    105  H5  UNL A   1      11.620  47.345   4.954  1.00  0.00    +0.000 H 
ATOM    106  H6  UNL A   1      11.429  46.852   6.742  1.00  0.00    +0.000 H 
ATOM      3  C2  UNL A   1      11.336  47.576   5.959  1.00  0.00    +0.000 C 
BRANCH    3    4
ATOM      4  C3  UNL A   1      12.316  48.621   6.427  1.00  0.00    +0.000 C 
ATOM      5  C4  UNL A   1      12.961  48.485   7.649  1.00  0.00    +0.000 C 
ATOM      6  N2  UNL A   1      13.622  49.648   7.944  1.00  0.00    +0.000 N 
ATOM    107  H7  UNL A   1      12.944  47.641   8.242  1.00  0.00    +0.000 H 
ATOM     20  C12 UNL A   1      13.545  50.508   6.867  1.00  0.00    +0.000 C 
ATOM     21  C13 UNL A   1      14.098  51.791   6.691  1.00  0.00    +0.000 C 
ATOM    116  H16 UNL A   1      14.637  52.241   7.448  1.00  0.00    +0.000 H 
ATOM     23  C15 UNL A   1      13.178  51.829   4.462  1.00  0.00    +0.000 C 
ATOM     24  C16 UNL A   1      12.625  50.555   4.651  1.00  0.00    +0.000 C 
ATOM     25  C17 UNL A   1      12.793  49.862   5.871  1.00  0.00    +0.000 C 
ATOM    119  H19 UNL A   1      12.085  50.117   3.888  1.00  0.00    +0.000 H 
ATOM    118  H18 UNL A   1      13.046  52.315   3.561  1.00  0.00    +0.000 H 
ATOM     22  C14 UNL A   1      13.902  52.439   5.473  1.00  0.00    +0.000 C 
ATOM    117  H17 UNL A   1      14.298  53.380   5.324  1.00  0.00    +0.000 H 
BRANCH    6    7
ATOM      7  C5  UNL A   1      14.199  49.934   9.204  1.00  0.00    +0.000 C 
ATOM      8  N3  UNL A   1      15.469  49.585   9.377  1.00  0.00    +0.000 N 
ATOM      9  C6  UNL A   1      15.951  50.018  10.530  1.00  0.00    +0.000 C 
ATOM     10 Cl1  UNL A   1      17.594  49.658  10.832  1.00  0.00    +0.000 Cl
ATOM     11  N4  UNL A   1      15.305  50.659  11.491  1.00  0.00    +0.000 N 
ATOM     12  C7  UNL A   1      14.013  50.845  11.260  1.00  0.00    +0.000 C 
ATOM     19  N6  UNL A   1      13.431  50.560  10.100  1.00  0.00    +0.000 N 
BRANCH   12   13
ATOM    108  H8  UNL A   1      13.302  52.597  13.885  1.00  0.00    +0.000 H 
ATOM    109  H9  UNL A   1      14.863  52.179  13.173  1.00  0.00    +0.000 H 
ATOM     13  N5  UNL A   1      13.239  51.215  12.338  1.00  0.00    +0.000 N 
ATOM     14  C8  UNL A   1      13.913  51.809  13.496  1.00  0.00    +0.000 C 
ATOM     15  C9  UNL A   1      14.158  50.782  14.606  1.00  0.00    +0.000 C 
ATOM     17  C10 UNL A   1      12.424  49.397  13.817  1.00  0.00    +0.000 C 
ATOM     18  C11 UNL A   1      12.100  50.348  12.649  1.00  0.00    +0.000 C 
ATOM    114  H14 UNL A   1      11.858  49.765  11.784  1.00  0.00    +0.000 H 
ATOM    115  H15 UNL A   1      11.273  50.963  12.934  1.00  0.00    +0.000 H 
ATOM    110  H10 UNL A   1      14.540  51.285  15.470  1.00  0.00    +0.000 H 
ATOM    111  H11 UNL A   1      14.862  50.059  14.251  1.00  0.00    +0.000 H 
ATOM     16  O1  UNL A   1      12.942  50.103  14.956  1.00  0.00    +0.000 O 
ATOM    112  H12 UNL A   1      11.529  48.886  14.105  1.00  0.00    +0.000 H 
ATOM    113  H13 UNL A   1      13.173  48.709  13.486  1.00  0.00    +0.000 H 
ENDBRANCH   12   13
ENDBRANCH    6    7
ENDBRANCH    3    4
ENDBRANCH    2    3
ENDBRANCH   26    2
ENDBRANCH   28   26
ENDBRANCH   29   28
ENDBRANCH   30   29
ENDBRANCH   31   30
ENDBRANCH   32   31
ENDBRANCH   33   32
ENDBRANCH   34   33
ENDBRANCH   35   34
ENDBRANCH   36   35
ENDBRANCH   38   36
ENDBRANCH   42   41
BRANCH   46   47
ATOM     47  C34 UNL A   1      18.895  55.251  -1.517  1.00  0.00    +0.000 C 
ATOM     48  C35 UNL A   1      19.098  55.258  -0.124  1.00  0.00    +0.000 C 
ATOM     49  F1  UNL A   1      18.536  54.320   0.652  1.00  0.00    +0.000 F 
ATOM     50  C36 UNL A   1      19.832  56.267   0.509  1.00  0.00    +0.000 C 
ATOM     51  F2  UNL A   1      19.931  56.281   1.845  1.00  0.00    +0.000 F 
ATOM     52  C37 UNL A   1      20.414  57.280  -0.232  1.00  0.00    +0.000 C 
ATOM     53  F3  UNL A   1      21.088  58.266   0.376  1.00  0.00    +0.000 F 
ATOM     54  C38 UNL A   1      20.257  57.293  -1.604  1.00  0.00    +0.000 C 
ATOM     55  F4  UNL A   1      20.793  58.281  -2.333  1.00  0.00    +0.000 F 
ATOM     56  C39 UNL A   1      19.488  56.314  -2.232  1.00  0.00    +0.000 C 
ATOM     57  F5  UNL A   1      19.260  56.484  -3.541  1.00  0.00    +0.000 F 
ENDBRANCH   46   47
BRANCH   63   64
ATOM     65  C46 UNL A   1      16.149  48.654  -3.231  1.00  0.00    +0.000 C 
ATOM     66  F6  UNL A   1      15.333  49.693  -3.004  1.00  0.00    +0.000 F 
ATOM     67  C47 UNL A   1      15.662  47.592  -3.989  1.00  0.00    +0.000 C 
ATOM     68  F7  UNL A   1      14.388  47.593  -4.409  1.00  0.00    +0.000 F 
ATOM     69  C48 UNL A   1      16.502  46.547  -4.340  1.00  0.00    +0.000 C 
ATOM     70  F8  UNL A   1      16.047  45.545  -5.107  1.00  0.00    +0.000 F 
ATOM     71  C49 UNL A   1      17.823  46.555  -3.923  1.00  0.00    +0.000 C 
ATOM     72  F9  UNL A   1      18.652  45.573  -4.304  1.00  0.00    +0.000 F 
ATOM     73  C50 UNL A   1      18.302  47.597  -3.132  1.00  0.00    +0.000 C 
ATOM     74  F10 UNL A   1      19.594  47.590  -2.768  1.00  0.00    +0.000 F 
ATOM     64  C45 UNL A   1      17.474  48.667  -2.766  1.00  0.00    +0.000 C 
ENDBRANCH   63   64
BRANCH   78   79
ATOM     79  C54 UNL A   1      15.580  48.921   3.267  1.00  0.00    +0.000 C 
ATOM     80  C55 UNL A   1      15.128  47.645   3.630  1.00  0.00    +0.000 C 
ATOM     81  F11 UNL A   1      14.557  46.846   2.716  1.00  0.00    +0.000 F 
ATOM     82  C56 UNL A   1      15.315  47.143   4.922  1.00  0.00    +0.000 C 
ATOM     83  F12 UNL A   1      14.925  45.896   5.216  1.00  0.00    +0.000 F 
ATOM     84  C57 UNL A   1      15.951  47.908   5.886  1.00  0.00    +0.000 C 
ATOM     85  F13 UNL A   1      16.180  47.406   7.107  1.00  0.00    +0.000 F 
ATOM     86  C58 UNL A   1      16.386  49.179   5.566  1.00  0.00    +0.000 C 
ATOM     87  F14 UNL A   1      17.032  49.918   6.481  1.00  0.00    +0.000 F 
ATOM     88  C59 UNL A   1      16.211  49.676   4.276  1.00  0.00    +0.000 C 
ATOM     89  F15 UNL A   1      16.752  50.873   4.008  1.00  0.00    +0.000 F 
ENDBRANCH   78   79
TORSDOF 20
ENDMDL
MODEL 6
REMARK VINA RESULT:      -8.5     49.824     54.956
ROOT
ATOM    136  H36 UNL A   1       8.462  34.066   0.163  1.00  0.00    +0.000 H 
ATOM    137  H37 UNL A   1       7.512  31.993   1.538  1.00  0.00    +0.000 H 
ATOM    138  H38 UNL A   1       6.971  31.329  -2.389  1.00  0.00    +0.000 H 
ATOM    139  H39 UNL A   1      12.935  25.715  -0.977  1.00  0.00    +0.000 H 
ATOM    140  H40 UNL A   1      14.170  27.796  -0.178  1.00  0.00    +0.000 H 
ATOM    141  H41 UNL A   1      10.468  29.027  -1.611  1.00  0.00    +0.000 H 
ATOM    142  H42 UNL A   1       8.939  27.741  -4.221  1.00  0.00    +0.000 H 
ATOM    143  H43 UNL A   1       7.467  29.591  -3.199  1.00  0.00    +0.000 H 
ATOM    144  H44 UNL A   1      11.712  33.539  -3.936  1.00  0.00    +0.000 H 
ATOM    145  H45 UNL A   1      13.609  31.982  -3.177  1.00  0.00    +0.000 H 
ATOM     42  C30 UNL A   1      12.883  30.258  -1.017  1.00  0.00    +0.000 C 
ATOM     43  C31 UNL A   1      12.042  31.301  -1.685  1.00  0.00    +0.000 C 
ATOM     44  N9  UNL A   1      10.828  31.669  -1.409  1.00  0.00    +0.000 N 
ATOM     45  C32 UNL A   1      10.465  32.585  -2.398  1.00  0.00    +0.000 C 
ATOM     46  C33 UNL A   1       9.181  32.987  -2.615  1.00  0.00    +0.000 C 
ATOM     58  C40 UNL A   1       8.315  32.698  -1.511  1.00  0.00    +0.000 C 
ATOM     59  C41 UNL A   1       8.217  33.134  -0.206  1.00  0.00    +0.000 C 
ATOM     60  C42 UNL A   1       7.708  32.022   0.525  1.00  0.00    +0.000 C 
ATOM     61  C43 UNL A   1       7.524  30.979  -0.384  1.00  0.00    +0.000 C 
ATOM     62  N10 UNL A   1       7.489  31.608  -1.601  1.00  0.00    +0.000 N 
ATOM     63  C44 UNL A   1       7.554  29.545  -0.222  1.00  0.00    +0.000 C 
ATOM     75  C51 UNL A   1       7.814  28.663  -1.230  1.00  0.00    +0.000 C 
ATOM     76  N11 UNL A   1       8.388  27.429  -0.963  1.00  0.00    +0.000 N 
ATOM     77  C52 UNL A   1       9.045  27.125  -2.049  1.00  0.00    +0.000 C 
ATOM     78  C53 UNL A   1      10.294  26.328  -2.071  1.00  0.00    +0.000 C 
ATOM     90  C60 UNL A   1      11.271  27.077  -1.507  1.00  0.00    +0.000 C 
ATOM     91  C61 UNL A   1      12.577  26.682  -1.023  1.00  0.00    +0.000 C 
ATOM     92  C62 UNL A   1      13.248  27.788  -0.642  1.00  0.00    +0.000 C 
ATOM     93  C63 UNL A   1      12.464  28.976  -0.990  1.00  0.00    +0.000 C 
ATOM     94  N12 UNL A   1      11.254  28.471  -1.407  1.00  0.00    +0.000 N 
ATOM     95  C64 UNL A   1       8.682  27.888  -3.232  1.00  0.00    +0.000 C 
ATOM     96  C65 UNL A   1       7.924  28.831  -2.672  1.00  0.00    +0.000 C 
ATOM     97  C66 UNL A   1      11.649  32.839  -3.179  1.00  0.00    +0.000 C 
ATOM     98  C67 UNL A   1      12.652  32.050  -2.795  1.00  0.00    +0.000 C 
ENDROOT
BRANCH   42   41
ATOM     99  C68 UNL A   1      15.369  30.111  -1.174  1.00  0.00    +0.000 C 
ATOM    100  C69 UNL A   1      16.625  30.433  -0.669  1.00  0.00    +0.000 C 
ATOM     38  C26 UNL A   1      16.766  31.319   0.415  1.00  0.00    +0.000 C 
ATOM     39  C27 UNL A   1      15.620  31.926   0.929  1.00  0.00    +0.000 C 
ATOM    134  H34 UNL A   1      15.707  32.639   1.670  1.00  0.00    +0.000 H 
ATOM     40  C28 UNL A   1      14.355  31.582   0.448  1.00  0.00    +0.000 C 
ATOM    135  H35 UNL A   1      13.514  32.020   0.853  1.00  0.00    +0.000 H 
ATOM     41  C29 UNL A   1      14.227  30.644  -0.578  1.00  0.00    +0.000 C 
ATOM    146  H46 UNL A   1      15.284  29.481  -1.986  1.00  0.00    +0.000 H 
ATOM    147  H47 UNL A   1      17.466  30.016  -1.096  1.00  0.00    +0.000 H 
BRANCH   38   36
ATOM     36  C25 UNL A   1      18.159  31.511   0.911  1.00  0.00    +0.000 C 
ATOM     37  O3  UNL A   1      18.498  32.622   1.296  1.00  0.00    +0.000 O 
BRANCH   36   35
ATOM     35  N8  UNL A   1      19.124  30.539   0.921  1.00  0.00    +0.000 N 
ATOM    133  H33 UNL A   1      18.769  29.663   1.198  1.00  0.00    +0.000 H 
BRANCH   35   34
ATOM     34  C24 UNL A   1      20.538  30.490   0.623  1.00  0.00    +0.000 C 
ATOM    131  H31 UNL A   1      20.658  30.063  -0.351  1.00  0.00    +0.000 H 
ATOM    132  H32 UNL A   1      20.894  31.496   0.692  1.00  0.00    +0.000 H 
BRANCH   34   33
ATOM     33  C23 UNL A   1      21.378  29.673   1.605  1.00  0.00    +0.000 C 
ATOM    130  H30 UNL A   1      21.001  28.673   1.549  1.00  0.00    +0.000 H 
ATOM    129  H29 UNL A   1      21.280  30.120   2.573  1.00  0.00    +0.000 H 
BRANCH   33   32
ATOM    128  H28 UNL A   1      23.287  28.947   2.042  1.00  0.00    +0.000 H 
ATOM    127  H27 UNL A   1      23.266  30.570   1.258  1.00  0.00    +0.000 H 
ATOM     32  C22 UNL A   1      22.873  29.575   1.280  1.00  0.00    +0.000 C 
BRANCH   32   31
ATOM    125  H25 UNL A   1      22.375  28.882  -0.666  1.00  0.00    +0.000 H 
ATOM    126  H26 UNL A   1      24.055  29.471  -0.451  1.00  0.00    +0.000 H 
ATOM     31  C21 UNL A   1      23.248  28.897  -0.046  1.00  0.00    +0.000 C 
BRANCH   31   30
ATOM    123  H23 UNL A   1      23.691  26.998  -0.893  1.00  0.00    +0.000 H 
ATOM    124  H24 UNL A   1      24.779  27.530   0.417  1.00  0.00    +0.000 H 
ATOM     30  C20 UNL A   1      23.770  27.460   0.069  1.00  0.00    +0.000 C 
BRANCH   30   29
ATOM    121  H21 UNL A   1      23.680  25.832   1.439  1.00  0.00    +0.000 H 
ATOM    122  H22 UNL A   1      22.688  27.229   1.875  1.00  0.00    +0.000 H 
ATOM     29  C19 UNL A   1      23.019  26.592   1.080  1.00  0.00    +0.000 C 
BRANCH   29   28
ATOM     28  N7  UNL A   1      21.850  25.960   0.503  1.00  0.00    +0.000 N 
ATOM    120  H20 UNL A   1      21.960  24.989   0.391  1.00  0.00    +0.000 H 
BRANCH   28   26
ATOM     26  C18 UNL A   1      20.642  26.398   0.082  1.00  0.00    +0.000 C 
ATOM     27  O2  UNL A   1      19.801  26.538   0.988  1.00  0.00    +0.000 O 
BRANCH   26    2
ATOM      2  C1  UNL A   1      20.226  26.803  -1.357  1.00  0.00    +0.000 C 
ATOM    104  H4  UNL A   1      19.863  25.868  -1.731  1.00  0.00    +0.000 H 
BRANCH    2    1
ATOM      1  N1  UNL A   1      19.154  27.816  -1.317  1.00  0.00    +0.000 N 
ATOM    101  H1  UNL A   1      18.810  27.910  -0.361  1.00  0.00    +0.000 H 
ATOM    102  H2  UNL A   1      18.388  27.526  -1.926  1.00  0.00    +0.000 H 
ATOM    103  H3  UNL A   1      19.520  28.712  -1.636  1.00  0.00    +0.000 H 
ENDBRANCH    2    1
BRANCH    2    3
ATOM    105  H5  UNL A   1      21.995  27.564  -2.168  1.00  0.00    +0.000 H 
ATOM    106  H6  UNL A   1      20.569  27.198  -3.311  1.00  0.00    +0.000 H 
ATOM      3  C2  UNL A   1      21.221  26.911  -2.512  1.00  0.00    +0.000 C 
BRANCH    3    4
ATOM      4  C3  UNL A   1      21.929  25.736  -3.137  1.00  0.00    +0.000 C 
ATOM      5  C4  UNL A   1      23.085  25.926  -3.882  1.00  0.00    +0.000 C 
ATOM      6  N2  UNL A   1      23.412  24.756  -4.515  1.00  0.00    +0.000 N 
ATOM    107  H7  UNL A   1      23.613  26.810  -3.949  1.00  0.00    +0.000 H 
ATOM     20  C12 UNL A   1      22.570  23.750  -4.088  1.00  0.00    +0.000 C 
ATOM     21  C13 UNL A   1      22.547  22.383  -4.428  1.00  0.00    +0.000 C 
ATOM    116  H16 UNL A   1      23.214  22.000  -5.117  1.00  0.00    +0.000 H 
ATOM     23  C15 UNL A   1      20.714  22.081  -2.889  1.00  0.00    +0.000 C 
ATOM     24  C16 UNL A   1      20.740  23.444  -2.565  1.00  0.00    +0.000 C 
ATOM     25  C17 UNL A   1      21.674  24.318  -3.167  1.00  0.00    +0.000 C 
ATOM    119  H19 UNL A   1      20.067  23.817  -1.877  1.00  0.00    +0.000 H 
ATOM    118  H18 UNL A   1      20.026  21.461  -2.435  1.00  0.00    +0.000 H 
ATOM     22  C14 UNL A   1      21.605  21.560  -3.814  1.00  0.00    +0.000 C 
ATOM    117  H17 UNL A   1      21.571  20.556  -4.049  1.00  0.00    +0.000 H 
BRANCH    6    7
ATOM      7  C5  UNL A   1      24.400  24.650  -5.523  1.00  0.00    +0.000 C 
ATOM      8  N3  UNL A   1      23.988  24.748  -6.782  1.00  0.00    +0.000 N 
ATOM      9  C6  UNL A   1      24.999  24.775  -7.635  1.00  0.00    +0.000 C 
ATOM     10 Cl1  UNL A   1      24.577  24.945  -9.282  1.00  0.00    +0.000 Cl
ATOM     11  N4  UNL A   1      26.289  24.647  -7.370  1.00  0.00    +0.000 N 
ATOM     12  C7  UNL A   1      26.572  24.432  -6.093  1.00  0.00    +0.000 C 
ATOM     19  N6  UNL A   1      25.666  24.494  -5.124  1.00  0.00    +0.000 N 
BRANCH   12   13
ATOM    108  H8  UNL A   1      29.711  24.789  -5.397  1.00  0.00    +0.000 H 
ATOM    109  H9  UNL A   1      28.605  25.844  -6.281  1.00  0.00    +0.000 H 
ATOM     13  N5  UNL A   1      27.844  23.984  -5.809  1.00  0.00    +0.000 N 
ATOM     14  C8  UNL A   1      28.973  24.846  -6.170  1.00  0.00    +0.000 C 
ATOM     15  C9  UNL A   1      29.614  24.427  -7.496  1.00  0.00    +0.000 C 
ATOM     17  C10 UNL A   1      28.780  22.233  -7.299  1.00  0.00    +0.000 C 
ATOM     18  C11 UNL A   1      28.076  22.545  -5.965  1.00  0.00    +0.000 C 
ATOM    114  H14 UNL A   1      27.135  22.035  -5.941  1.00  0.00    +0.000 H 
ATOM    115  H15 UNL A   1      28.706  22.215  -5.165  1.00  0.00    +0.000 H 
ATOM    110  H10 UNL A   1      30.500  25.006  -7.655  1.00  0.00    +0.000 H 
ATOM    111  H11 UNL A   1      28.910  24.597  -8.283  1.00  0.00    +0.000 H 
ATOM     16  O1  UNL A   1      29.959  23.033  -7.483  1.00  0.00    +0.000 O 
ATOM    112  H12 UNL A   1      29.058  21.200  -7.310  1.00  0.00    +0.000 H 
ATOM    113  H13 UNL A   1      28.100  22.459  -8.093  1.00  0.00    +0.000 H 
ENDBRANCH   12   13
ENDBRANCH    6    7
ENDBRANCH    3    4
ENDBRANCH    2    3
ENDBRANCH   26    2
ENDBRANCH   28   26
ENDBRANCH   29   28
ENDBRANCH   30   29
ENDBRANCH   31   30
ENDBRANCH   32   31
ENDBRANCH   33   32
ENDBRANCH   34   33
ENDBRANCH   35   34
ENDBRANCH   36   35
ENDBRANCH   38   36
ENDBRANCH   42   41
BRANCH   46   47
ATOM     47  C34 UNL A   1       8.648  33.450  -3.942  1.00  0.00    +0.000 C 
ATOM     48  C35 UNL A   1       8.707  32.610  -5.072  1.00  0.00    +0.000 C 
ATOM     49  F1  UNL A   1       9.067  31.324  -4.948  1.00  0.00    +0.000 F 
ATOM     50  C36 UNL A   1       8.457  33.092  -6.361  1.00  0.00    +0.000 C 
ATOM     51  F2  UNL A   1       8.604  32.279  -7.416  1.00  0.00    +0.000 F 
ATOM     52  C37 UNL A   1       8.108  34.416  -6.560  1.00  0.00    +0.000 C 
ATOM     53  F3  UNL A   1       7.902  34.886  -7.797  1.00  0.00    +0.000 F 
ATOM     54  C38 UNL A   1       8.017  35.263  -5.473  1.00  0.00    +0.000 C 
ATOM     55  F4  UNL A   1       7.705  36.554  -5.651  1.00  0.00    +0.000 F 
ATOM     56  C39 UNL A   1       8.311  34.796  -4.192  1.00  0.00    +0.000 C 
ATOM     57  F5  UNL A   1       8.346  35.715  -3.217  1.00  0.00    +0.000 F 
ENDBRANCH   46   47
BRANCH   63   64
ATOM     65  C46 UNL A   1       6.517  28.439   1.836  1.00  0.00    +0.000 C 
ATOM     66  F6  UNL A   1       5.326  28.351   1.225  1.00  0.00    +0.000 F 
ATOM     67  C47 UNL A   1       6.645  27.879   3.105  1.00  0.00    +0.000 C 
ATOM     68  F7  UNL A   1       5.579  27.338   3.713  1.00  0.00    +0.000 F 
ATOM     69  C48 UNL A   1       7.882  27.850   3.728  1.00  0.00    +0.000 C 
ATOM     70  F8  UNL A   1       8.017  27.273   4.931  1.00  0.00    +0.000 F 
ATOM     71  C49 UNL A   1       8.987  28.392   3.092  1.00  0.00    +0.000 C 
ATOM     72  F9  UNL A   1      10.195  28.319   3.670  1.00  0.00    +0.000 F 
ATOM     73  C50 UNL A   1       8.853  28.987   1.840  1.00  0.00    +0.000 C 
ATOM     74  F10 UNL A   1       9.948  29.477   1.238  1.00  0.00    +0.000 F 
ATOM     64  C45 UNL A   1       7.614  29.027   1.186  1.00  0.00    +0.000 C 
ENDBRANCH   63   64
BRANCH   78   79
ATOM     79  C54 UNL A   1      10.451  25.107  -2.893  1.00  0.00    +0.000 C 
ATOM     80  C55 UNL A   1      11.084  25.155  -4.143  1.00  0.00    +0.000 C 
ATOM     81  F11 UNL A   1      11.381  26.335  -4.704  1.00  0.00    +0.000 F 
ATOM     82  C56 UNL A   1      11.482  23.989  -4.805  1.00  0.00    +0.000 C 
ATOM     83  F12 UNL A   1      12.140  24.074  -5.969  1.00  0.00    +0.000 F 
ATOM     84  C57 UNL A   1      11.248  22.746  -4.239  1.00  0.00    +0.000 C 
ATOM     85  F13 UNL A   1      11.679  21.633  -4.848  1.00  0.00    +0.000 F 
ATOM     86  C58 UNL A   1      10.604  22.665  -3.020  1.00  0.00    +0.000 C 
ATOM     87  F14 UNL A   1      10.401  21.470  -2.445  1.00  0.00    +0.000 F 
ATOM     88  C59 UNL A   1      10.218  23.826  -2.353  1.00  0.00    +0.000 C 
ATOM     89  F15 UNL A   1       9.695  23.677  -1.128  1.00  0.00    +0.000 F 
ENDBRANCH   78   79
TORSDOF 20
ENDMDL
MODEL 7
REMARK VINA RESULT:      -8.5     50.740     55.764
ROOT
ATOM    136  H36 UNL A   1       9.149  33.729   0.453  1.00  0.00    +0.000 H 
ATOM    137  H37 UNL A   1       8.265  31.634   1.838  1.00  0.00    +0.000 H 
ATOM    138  H38 UNL A   1       7.264  31.176  -2.027  1.00  0.00    +0.000 H 
ATOM    139  H39 UNL A   1      13.090  25.269  -1.531  1.00  0.00    +0.000 H 
ATOM    140  H40 UNL A   1      14.498  27.260  -0.790  1.00  0.00    +0.000 H 
ATOM    141  H41 UNL A   1      10.719  28.703  -1.744  1.00  0.00    +0.000 H 
ATOM    142  H42 UNL A   1       8.854  27.601  -4.218  1.00  0.00    +0.000 H 
ATOM    143  H43 UNL A   1       7.588  29.459  -2.960  1.00  0.00    +0.000 H 
ATOM    144  H44 UNL A   1      11.898  33.264  -4.004  1.00  0.00    +0.000 H 
ATOM    145  H45 UNL A   1      13.796  31.599  -3.529  1.00  0.00    +0.000 H 
ATOM     42  C30 UNL A   1      13.237  29.807  -1.376  1.00  0.00    +0.000 C 
ATOM     43  C31 UNL A   1      12.375  30.913  -1.900  1.00  0.00    +0.000 C 
ATOM     44  N9  UNL A   1      11.217  31.316  -1.474  1.00  0.00    +0.000 N 
ATOM     45  C32 UNL A   1      10.787  32.290  -2.377  1.00  0.00    +0.000 C 
ATOM     46  C33 UNL A   1       9.508  32.753  -2.430  1.00  0.00    +0.000 C 
ATOM     58  C40 UNL A   1       8.756  32.447  -1.249  1.00  0.00    +0.000 C 
ATOM     59  C41 UNL A   1       8.824  32.826   0.076  1.00  0.00    +0.000 C 
ATOM     60  C42 UNL A   1       8.349  31.702   0.812  1.00  0.00    +0.000 C 
ATOM     61  C43 UNL A   1       8.020  30.710  -0.113  1.00  0.00    +0.000 C 
ATOM     62  N10 UNL A   1       7.878  31.397  -1.291  1.00  0.00    +0.000 N 
ATOM     63  C44 UNL A   1       8.002  29.271  -0.016  1.00  0.00    +0.000 C 
ATOM     75  C51 UNL A   1       8.109  28.427  -1.082  1.00  0.00    +0.000 C 
ATOM     76  N11 UNL A   1       8.653  27.160  -0.934  1.00  0.00    +0.000 N 
ATOM     77  C52 UNL A   1       9.172  26.881  -2.099  1.00  0.00    +0.000 C 
ATOM     78  C53 UNL A   1      10.375  26.037  -2.294  1.00  0.00    +0.000 C 
ATOM     90  C60 UNL A   1      11.440  26.719  -1.814  1.00  0.00    +0.000 C 
ATOM     91  C61 UNL A   1      12.773  26.250  -1.497  1.00  0.00    +0.000 C 
ATOM     92  C62 UNL A   1      13.530  27.309  -1.148  1.00  0.00    +0.000 C 
ATOM     93  C63 UNL A   1      12.767  28.543  -1.355  1.00  0.00    +0.000 C 
ATOM     94  N12 UNL A   1      11.497  28.107  -1.654  1.00  0.00    +0.000 N 
ATOM     95  C64 UNL A   1       8.715  27.712  -3.201  1.00  0.00    +0.000 C 
ATOM     96  C65 UNL A   1       8.067  28.658  -2.520  1.00  0.00    +0.000 C 
ATOM     97  C66 UNL A   1      11.889  32.533  -3.275  1.00  0.00    +0.000 C 
ATOM     98  C67 UNL A   1      12.892  31.688  -3.039  1.00  0.00    +0.000 C 
ENDROOT
BRANCH   42   41
ATOM     99  C68 UNL A   1      15.683  29.547  -1.800  1.00  0.00    +0.000 C 
ATOM    100  C69 UNL A   1      16.999  29.797  -1.425  1.00  0.00    +0.000 C 
ATOM     38  C26 UNL A   1      17.297  30.648  -0.345  1.00  0.00    +0.000 C 
ATOM     39  C27 UNL A   1      16.244  31.297   0.299  1.00  0.00    +0.000 C 
ATOM    134  H34 UNL A   1      16.444  31.986   1.041  1.00  0.00    +0.000 H 
ATOM     40  C28 UNL A   1      14.919  31.024  -0.050  1.00  0.00    +0.000 C 
ATOM    135  H35 UNL A   1      14.148  31.492   0.450  1.00  0.00    +0.000 H 
ATOM     41  C29 UNL A   1      14.637  30.119  -1.075  1.00  0.00    +0.000 C 
ATOM    146  H46 UNL A   1      15.481  28.942  -2.610  1.00  0.00    +0.000 H 
ATOM    147  H47 UNL A   1      17.769  29.351  -1.947  1.00  0.00    +0.000 H 
BRANCH   38   36
ATOM     36  C25 UNL A   1      18.743  30.762   0.003  1.00  0.00    +0.000 C 
ATOM     37  O3  UNL A   1      19.070  31.504   0.919  1.00  0.00    +0.000 O 
BRANCH   36   35
ATOM     35  N8  UNL A   1      19.758  30.132  -0.667  1.00  0.00    +0.000 N 
ATOM    133  H33 UNL A   1      20.118  29.366  -0.165  1.00  0.00    +0.000 H 
BRANCH   35   34
ATOM     34  C24 UNL A   1      20.427  30.321  -1.935  1.00  0.00    +0.000 C 
ATOM    131  H31 UNL A   1      20.578  29.359  -2.378  1.00  0.00    +0.000 H 
ATOM    132  H32 UNL A   1      19.796  30.961  -2.514  1.00  0.00    +0.000 H 
BRANCH   34   33
ATOM     33  C23 UNL A   1      21.784  31.022  -1.852  1.00  0.00    +0.000 C 
ATOM    130  H30 UNL A   1      21.595  31.967  -1.388  1.00  0.00    +0.000 H 
ATOM    129  H29 UNL A   1      22.176  31.096  -2.845  1.00  0.00    +0.000 H 
BRANCH   33   32
ATOM    128  H28 UNL A   1      22.296  29.605  -0.406  1.00  0.00    +0.000 H 
ATOM    127  H27 UNL A   1      23.324  31.085  -0.398  1.00  0.00    +0.000 H 
ATOM     32  C22 UNL A   1      22.837  30.330  -0.979  1.00  0.00    +0.000 C 
BRANCH   32   31
ATOM    125  H25 UNL A   1      23.763  29.645  -2.765  1.00  0.00    +0.000 H 
ATOM    126  H26 UNL A   1      24.859  29.931  -1.375  1.00  0.00    +0.000 H 
ATOM     31  C21 UNL A   1      23.925  29.533  -1.712  1.00  0.00    +0.000 C 
BRANCH   31   30
ATOM    123  H23 UNL A   1      23.793  27.496  -2.308  1.00  0.00    +0.000 H 
ATOM    124  H24 UNL A   1      24.935  27.838  -0.982  1.00  0.00    +0.000 H 
ATOM     30  C20 UNL A   1      23.971  28.032  -1.399  1.00  0.00    +0.000 C 
BRANCH   30   29
ATOM    121  H21 UNL A   1      23.461  27.288   0.531  1.00  0.00    +0.000 H 
ATOM    122  H22 UNL A   1      22.271  28.383  -0.184  1.00  0.00    +0.000 H 
ATOM     29  C19 UNL A   1      22.945  27.570  -0.362  1.00  0.00    +0.000 C 
BRANCH   29   28
ATOM     28  N7  UNL A   1      22.163  26.442  -0.825  1.00  0.00    +0.000 N 
ATOM    120  H20 UNL A   1      22.689  25.611  -0.875  1.00  0.00    +0.000 H 
BRANCH   28   26
ATOM     26  C18 UNL A   1      20.878  26.267  -1.206  1.00  0.00    +0.000 C 
ATOM     27  O2  UNL A   1      20.106  25.949  -0.284  1.00  0.00    +0.000 O 
BRANCH   26    2
ATOM      2  C1  UNL A   1      20.266  26.486  -2.615  1.00  0.00    +0.000 C 
ATOM    104  H4  UNL A   1      20.668  25.645  -3.141  1.00  0.00    +0.000 H 
BRANCH    2    1
ATOM      1  N1  UNL A   1      18.793  26.422  -2.551  1.00  0.00    +0.000 N 
ATOM    101  H1  UNL A   1      18.411  27.367  -2.551  1.00  0.00    +0.000 H 
ATOM    102  H2  UNL A   1      18.509  25.940  -1.698  1.00  0.00    +0.000 H 
ATOM    103  H3  UNL A   1      18.438  25.913  -3.361  1.00  0.00    +0.000 H 
ENDBRANCH    2    1
BRANCH    2    3
ATOM    105  H5  UNL A   1      21.027  28.366  -3.117  1.00  0.00    +0.000 H 
ATOM    106  H6  UNL A   1      20.133  27.381  -4.424  1.00  0.00    +0.000 H 
ATOM      3  C2  UNL A   1      20.861  27.448  -3.642  1.00  0.00    +0.000 C 
BRANCH    3    4
ATOM      4  C3  UNL A   1      22.128  27.189  -4.416  1.00  0.00    +0.000 C 
ATOM      5  C4  UNL A   1      22.671  28.176  -5.228  1.00  0.00    +0.000 C 
ATOM      6  N2  UNL A   1      23.681  27.637  -5.981  1.00  0.00    +0.000 N 
ATOM    107  H7  UNL A   1      22.362  29.160  -5.259  1.00  0.00    +0.000 H 
ATOM     20  C12 UNL A   1      23.913  26.338  -5.578  1.00  0.00    +0.000 C 
ATOM     21  C13 UNL A   1      24.868  25.406  -6.029  1.00  0.00    +0.000 C 
ATOM    116  H16 UNL A   1      25.516  25.645  -6.797  1.00  0.00    +0.000 H 
ATOM     23  C15 UNL A   1      24.048  23.842  -4.387  1.00  0.00    +0.000 C 
ATOM     24  C16 UNL A   1      23.096  24.773  -3.951  1.00  0.00    +0.000 C 
ATOM     25  C17 UNL A   1      23.003  26.051  -4.546  1.00  0.00    +0.000 C 
ATOM    119  H19 UNL A   1      22.451  24.521  -3.186  1.00  0.00    +0.000 H 
ATOM    118  H18 UNL A   1      24.100  22.915  -3.936  1.00  0.00    +0.000 H 
ATOM     22  C14 UNL A   1      24.919  24.155  -5.417  1.00  0.00    +0.000 C 
ATOM    117  H17 UNL A   1      25.612  23.458  -5.734  1.00  0.00    +0.000 H 
BRANCH    6    7
ATOM      7  C5  UNL A   1      24.301  28.301  -7.065  1.00  0.00    +0.000 C 
ATOM      8  N3  UNL A   1      24.998  29.395  -6.781  1.00  0.00    +0.000 N 
ATOM      9  C6  UNL A   1      25.649  29.859  -7.835  1.00  0.00    +0.000 C 
ATOM     10 Cl1  UNL A   1      26.613  31.243  -7.566  1.00  0.00    +0.000 Cl
ATOM     11  N4  UNL A   1      25.610  29.404  -9.078  1.00  0.00    +0.000 N 
ATOM     12  C7  UNL A   1      24.787  28.383  -9.267  1.00  0.00    +0.000 C 
ATOM     19  N6  UNL A   1      24.164  27.754  -8.276  1.00  0.00    +0.000 N 
BRANCH   12   13
ATOM    108  H8  UNL A   1      22.923  27.178 -11.621  1.00  0.00    +0.000 H 
ATOM    109  H9  UNL A   1      23.048  26.735  -9.916  1.00  0.00    +0.000 H 
ATOM     13  N5  UNL A   1      24.472  28.077 -10.573  1.00  0.00    +0.000 N 
ATOM     14  C8  UNL A   1      23.587  26.934 -10.818  1.00  0.00    +0.000 C 
ATOM     15  C9  UNL A   1      24.370  25.672 -11.190  1.00  0.00    +0.000 C 
ATOM     17  C10 UNL A   1      26.219  26.937 -11.916  1.00  0.00    +0.000 C 
ATOM     18  C11 UNL A   1      25.537  28.271 -11.561  1.00  0.00    +0.000 C 
ATOM    114  H14 UNL A   1      26.269  28.939 -11.159  1.00  0.00    +0.000 H 
ATOM    115  H15 UNL A   1      25.103  28.676 -12.452  1.00  0.00    +0.000 H 
ATOM    110  H10 UNL A   1      23.681  24.904 -11.474  1.00  0.00    +0.000 H 
ATOM    111  H11 UNL A   1      24.945  25.365 -10.342  1.00  0.00    +0.000 H 
ATOM     16  O1  UNL A   1      25.266  25.926 -12.283  1.00  0.00    +0.000 O 
ATOM    112  H12 UNL A   1      26.886  27.097 -12.737  1.00  0.00    +0.000 H 
ATOM    113  H13 UNL A   1      26.747  26.594 -11.051  1.00  0.00    +0.000 H 
ENDBRANCH   12   13
ENDBRANCH    6    7
ENDBRANCH    3    4
ENDBRANCH    2    3
ENDBRANCH   26    2
ENDBRANCH   28   26
ENDBRANCH   29   28
ENDBRANCH   30   29
ENDBRANCH   31   30
ENDBRANCH   32   31
ENDBRANCH   33   32
ENDBRANCH   34   33
ENDBRANCH   35   34
ENDBRANCH   36   35
ENDBRANCH   38   36
ENDBRANCH   42   41
BRANCH   46   47
ATOM     47  C34 UNL A   1       8.852  33.298  -3.669  1.00  0.00    +0.000 C 
ATOM     48  C35 UNL A   1       8.363  34.618  -3.702  1.00  0.00    +0.000 C 
ATOM     49  F1  UNL A   1       8.633  35.470  -2.702  1.00  0.00    +0.000 F 
ATOM     50  C36 UNL A   1       7.533  35.070  -4.732  1.00  0.00    +0.000 C 
ATOM     51  F2  UNL A   1       7.022  36.308  -4.682  1.00  0.00    +0.000 F 
ATOM     52  C37 UNL A   1       7.193  34.232  -5.779  1.00  0.00    +0.000 C 
ATOM     53  F3  UNL A   1       6.370  34.652  -6.749  1.00  0.00    +0.000 F 
ATOM     54  C38 UNL A   1       7.674  32.937  -5.793  1.00  0.00    +0.000 C 
ATOM     55  F4  UNL A   1       7.333  32.104  -6.787  1.00  0.00    +0.000 F 
ATOM     56  C39 UNL A   1       8.464  32.470  -4.743  1.00  0.00    +0.000 C 
ATOM     57  F5  UNL A   1       8.762  31.163  -4.758  1.00  0.00    +0.000 F 
ENDBRANCH   46   47
BRANCH   63   64
ATOM     65  C46 UNL A   1       9.458  28.511   1.943  1.00  0.00    +0.000 C 
ATOM     66  F6  UNL A   1      10.576  28.830   1.275  1.00  0.00    +0.000 F 
ATOM     67  C47 UNL A   1       9.585  28.059   3.255  1.00  0.00    +0.000 C 
ATOM     68  F7  UNL A   1      10.803  27.885   3.791  1.00  0.00    +0.000 F 
ATOM     69  C48 UNL A   1       8.455  27.822   4.019  1.00  0.00    +0.000 C 
ATOM     70  F8  UNL A   1       8.575  27.429   5.296  1.00  0.00    +0.000 F 
ATOM     71  C49 UNL A   1       7.198  28.021   3.471  1.00  0.00    +0.000 C 
ATOM     72  F9  UNL A   1       6.103  27.842   4.224  1.00  0.00    +0.000 F 
ATOM     73  C50 UNL A   1       7.068  28.435   2.147  1.00  0.00    +0.000 C 
ATOM     74  F10 UNL A   1       5.837  28.646   1.655  1.00  0.00    +0.000 F 
ATOM     64  C45 UNL A   1       8.195  28.686   1.353  1.00  0.00    +0.000 C 
ENDBRANCH   63   64
BRANCH   78   79
ATOM     79  C54 UNL A   1      10.384  24.851  -3.179  1.00  0.00    +0.000 C 
ATOM     80  C55 UNL A   1      10.869  24.933  -4.492  1.00  0.00    +0.000 C 
ATOM     81  F11 UNL A   1      11.148  26.126  -5.035  1.00  0.00    +0.000 F 
ATOM     82  C56 UNL A   1      11.140  23.785  -5.245  1.00  0.00    +0.000 C 
ATOM     83  F12 UNL A   1      11.661  23.900  -6.473  1.00  0.00    +0.000 F 
ATOM     84  C57 UNL A   1      10.922  22.527  -4.707  1.00  0.00    +0.000 C 
ATOM     85  F13 UNL A   1      11.233  21.428  -5.408  1.00  0.00    +0.000 F 
ATOM     86  C58 UNL A   1      10.421  22.413  -3.425  1.00  0.00    +0.000 C 
ATOM     87  F14 UNL A   1      10.236  21.201  -2.881  1.00  0.00    +0.000 F 
ATOM     88  C59 UNL A   1      10.162  23.555  -2.669  1.00  0.00    +0.000 C 
ATOM     89  F15 UNL A   1       9.779  23.369  -1.398  1.00  0.00    +0.000 F 
ENDBRANCH   78   79
TORSDOF 20
ENDMDL
MODEL 8
REMARK VINA RESULT:      -8.4     38.220     44.655
ROOT
ATOM    136  H36 UNL A   1      25.103  20.758   9.040  1.00  0.00    +0.000 H 
ATOM    137  H37 UNL A   1      26.723  19.737   7.190  1.00  0.00    +0.000 H 
ATOM    138  H38 UNL A   1      25.728  16.853   9.808  1.00  0.00    +0.000 H 
ATOM    139  H39 UNL A   1      21.408  14.137   3.248  1.00  0.00    +0.000 H 
ATOM    140  H40 UNL A   1      20.388  16.464   3.443  1.00  0.00    +0.000 H 
ATOM    141  H41 UNL A   1      23.076  16.025   6.582  1.00  0.00    +0.000 H 
ATOM    142  H42 UNL A   1      23.567  13.242   8.262  1.00  0.00    +0.000 H 
ATOM    143  H43 UNL A   1      25.130  15.075   9.175  1.00  0.00    +0.000 H 
ATOM    144  H44 UNL A   1      20.567  18.499  10.440  1.00  0.00    +0.000 H 
ATOM    145  H45 UNL A   1      19.292  17.997   8.267  1.00  0.00    +0.000 H 
ATOM     42  C30 UNL A   1      20.983  17.743   5.978  1.00  0.00    +0.000 C 
ATOM     43  C31 UNL A   1      21.381  18.058   7.387  1.00  0.00    +0.000 C 
ATOM     44  N9  UNL A   1      22.562  18.315   7.862  1.00  0.00    +0.000 N 
ATOM     45  C32 UNL A   1      22.410  18.419   9.246  1.00  0.00    +0.000 C 
ATOM     46  C33 UNL A   1      23.455  18.409  10.119  1.00  0.00    +0.000 C 
ATOM     58  C40 UNL A   1      24.712  18.673   9.485  1.00  0.00    +0.000 C 
ATOM     59  C41 UNL A   1      25.274  19.759   8.846  1.00  0.00    +0.000 C 
ATOM     60  C42 UNL A   1      26.140  19.207   7.858  1.00  0.00    +0.000 C 
ATOM     61  C43 UNL A   1      26.052  17.818   7.960  1.00  0.00    +0.000 C 
ATOM     62  N10 UNL A   1      25.539  17.615   9.215  1.00  0.00    +0.000 N 
ATOM     63  C44 UNL A   1      26.234  16.768   6.988  1.00  0.00    +0.000 C 
ATOM     75  C51 UNL A   1      25.686  15.523   7.090  1.00  0.00    +0.000 C 
ATOM     76  N11 UNL A   1      25.391  14.781   5.956  1.00  0.00    +0.000 N 
ATOM     77  C52 UNL A   1      24.393  14.018   6.306  1.00  0.00    +0.000 C 
ATOM     78  C53 UNL A   1      23.323  13.570   5.383  1.00  0.00    +0.000 C 
ATOM     90  C60 UNL A   1      22.580  14.652   5.055  1.00  0.00    +0.000 C 
ATOM     91  C61 UNL A   1      21.619  14.826   3.986  1.00  0.00    +0.000 C 
ATOM     92  C62 UNL A   1      21.047  16.040   4.115  1.00  0.00    +0.000 C 
ATOM     93  C63 UNL A   1      21.505  16.664   5.359  1.00  0.00    +0.000 C 
ATOM     94  N12 UNL A   1      22.494  15.824   5.813  1.00  0.00    +0.000 N 
ATOM     95  C64 UNL A   1      24.178  13.888   7.738  1.00  0.00    +0.000 C 
ATOM     96  C65 UNL A   1      24.997  14.844   8.179  1.00  0.00    +0.000 C 
ATOM     97  C66 UNL A   1      20.994  18.365   9.510  1.00  0.00    +0.000 C 
ATOM     98  C67 UNL A   1      20.309  18.117   8.393  1.00  0.00    +0.000 C 
ENDROOT
BRANCH   42   41
ATOM     99  C68 UNL A   1      20.117  19.776   4.818  1.00  0.00    +0.000 C 
ATOM    100  C69 UNL A   1      19.041  20.525   4.351  1.00  0.00    +0.000 C 
ATOM     38  C26 UNL A   1      17.728  20.025   4.411  1.00  0.00    +0.000 C 
ATOM     39  C27 UNL A   1      17.534  18.727   4.885  1.00  0.00    +0.000 C 
ATOM    134  H34 UNL A   1      16.589  18.311   4.863  1.00  0.00    +0.000 H 
ATOM     40  C28 UNL A   1      18.604  17.984   5.386  1.00  0.00    +0.000 C 
ATOM    135  H35 UNL A   1      18.443  17.034   5.756  1.00  0.00    +0.000 H 
ATOM     41  C29 UNL A   1      19.892  18.524   5.389  1.00  0.00    +0.000 C 
ATOM    146  H46 UNL A   1      21.077  20.146   4.743  1.00  0.00    +0.000 H 
ATOM    147  H47 UNL A   1      19.210  21.463   3.954  1.00  0.00    +0.000 H 
BRANCH   38   36
ATOM     36  C25 UNL A   1      16.662  20.962   3.956  1.00  0.00    +0.000 C 
ATOM     37  O3  UNL A   1      15.668  20.502   3.410  1.00  0.00    +0.000 O 
BRANCH   36   35
ATOM     35  N8  UNL A   1      16.730  22.327   4.053  1.00  0.00    +0.000 N 
ATOM    133  H33 UNL A   1      16.152  22.680   4.768  1.00  0.00    +0.000 H 
BRANCH   35   34
ATOM     34  C24 UNL A   1      17.447  23.374   3.359  1.00  0.00    +0.000 C 
ATOM    131  H31 UNL A   1      16.864  24.269   3.414  1.00  0.00    +0.000 H 
ATOM    132  H32 UNL A   1      18.398  23.456   3.841  1.00  0.00    +0.000 H 
BRANCH   34   33
ATOM     33  C23 UNL A   1      17.739  23.089   1.885  1.00  0.00    +0.000 C 
ATOM    130  H30 UNL A   1      16.784  22.962   1.419  1.00  0.00    +0.000 H 
ATOM    129  H29 UNL A   1      18.365  22.223   1.836  1.00  0.00    +0.000 H 
BRANCH   33   32
ATOM    128  H28 UNL A   1      18.767  24.907   1.865  1.00  0.00    +0.000 H 
ATOM    127  H27 UNL A   1      17.727  24.622   0.421  1.00  0.00    +0.000 H 
ATOM     32  C22 UNL A   1      18.434  24.219   1.115  1.00  0.00    +0.000 C 
BRANCH   32   31
ATOM    125  H25 UNL A   1      20.403  23.425   1.016  1.00  0.00    +0.000 H 
ATOM    126  H26 UNL A   1      19.376  23.154  -0.428  1.00  0.00    +0.000 H 
ATOM     31  C21 UNL A   1      19.696  23.841   0.327  1.00  0.00    +0.000 C 
BRANCH   31   30
ATOM    123  H23 UNL A   1      19.844  25.894  -0.205  1.00  0.00    +0.000 H 
ATOM    124  H24 UNL A   1      21.393  25.021  -0.067  1.00  0.00    +0.000 H 
ATOM     30  C20 UNL A   1      20.383  24.993  -0.415  1.00  0.00    +0.000 C 
BRANCH   30   29
ATOM    121  H21 UNL A   1      19.495  24.482  -2.283  1.00  0.00    +0.000 H 
ATOM    122  H22 UNL A   1      20.708  25.765  -2.360  1.00  0.00    +0.000 H 
ATOM     29  C19 UNL A   1      20.448  24.819  -1.934  1.00  0.00    +0.000 C 
BRANCH   29   28
ATOM     28  N7  UNL A   1      21.458  23.860  -2.336  1.00  0.00    +0.000 N 
ATOM    120  H20 UNL A   1      21.754  23.287  -1.593  1.00  0.00    +0.000 H 
BRANCH   28   26
ATOM     26  C18 UNL A   1      22.088  23.573  -3.497  1.00  0.00    +0.000 C 
ATOM     27  O2  UNL A   1      22.062  22.371  -3.814  1.00  0.00    +0.000 O 
BRANCH   26    2
ATOM      2  C1  UNL A   1      22.759  24.564  -4.484  1.00  0.00    +0.000 C 
ATOM    104  H4  UNL A   1      21.898  25.018  -4.930  1.00  0.00    +0.000 H 
BRANCH    2    1
ATOM      1  N1  UNL A   1      23.566  25.557  -3.749  1.00  0.00    +0.000 N 
ATOM    101  H1  UNL A   1      22.947  26.209  -3.267  1.00  0.00    +0.000 H 
ATOM    102  H2  UNL A   1      24.155  26.070  -4.404  1.00  0.00    +0.000 H 
ATOM    103  H3  UNL A   1      24.154  25.080  -3.066  1.00  0.00    +0.000 H 
ENDBRANCH    2    1
BRANCH    2    3
ATOM    105  H5  UNL A   1      22.415  23.939  -6.448  1.00  0.00    +0.000 H 
ATOM    106  H6  UNL A   1      23.964  23.367  -5.583  1.00  0.00    +0.000 H 
ATOM      3  C2  UNL A   1      23.283  24.146  -5.858  1.00  0.00    +0.000 C 
BRANCH    3    4
ATOM      4  C3  UNL A   1      24.169  25.001  -6.726  1.00  0.00    +0.000 C 
ATOM      5  C4  UNL A   1      25.306  24.464  -7.316  1.00  0.00    +0.000 C 
ATOM      6  N2  UNL A   1      26.050  25.474  -7.867  1.00  0.00    +0.000 N 
ATOM    107  H7  UNL A   1      25.552  23.462  -7.336  1.00  0.00    +0.000 H 
ATOM     20  C12 UNL A   1      25.352  26.662  -7.777  1.00  0.00    +0.000 C 
ATOM     21  C13 UNL A   1      25.694  27.949  -8.235  1.00  0.00    +0.000 C 
ATOM    116  H16 UNL A   1      26.600  28.122  -8.697  1.00  0.00    +0.000 H 
ATOM     23  C15 UNL A   1      23.564  28.747  -7.431  1.00  0.00    +0.000 C 
ATOM     24  C16 UNL A   1      23.238  27.463  -6.971  1.00  0.00    +0.000 C 
ATOM     25  C17 UNL A   1      24.136  26.384  -7.131  1.00  0.00    +0.000 C 
ATOM    119  H19 UNL A   1      22.330  27.304  -6.508  1.00  0.00    +0.000 H 
ATOM    118  H18 UNL A   1      22.891  29.520  -7.307  1.00  0.00    +0.000 H 
ATOM     22  C14 UNL A   1      24.779  28.985  -8.050  1.00  0.00    +0.000 C 
ATOM    117  H17 UNL A   1      25.010  29.936  -8.378  1.00  0.00    +0.000 H 
BRANCH    6    7
ATOM      7  C5  UNL A   1      27.368  25.313  -8.354  1.00  0.00    +0.000 C 
ATOM      8  N3  UNL A   1      27.518  25.235  -9.671  1.00  0.00    +0.000 N 
ATOM      9  C6  UNL A   1      28.792  25.225 -10.028  1.00  0.00    +0.000 C 
ATOM     10 Cl1  UNL A   1      29.093  25.172 -11.709  1.00  0.00    +0.000 Cl
ATOM     11  N4  UNL A   1      29.855  25.211  -9.240  1.00  0.00    +0.000 N 
ATOM     12  C7  UNL A   1      29.582  25.167  -7.944  1.00  0.00    +0.000 C 
ATOM     19  N6  UNL A   1      28.354  25.286  -7.452  1.00  0.00    +0.000 N 
BRANCH   12   13
ATOM    108  H8  UNL A   1      32.617  24.283  -7.256  1.00  0.00    +0.000 H 
ATOM    109  H9  UNL A   1      31.631  23.979  -8.688  1.00  0.00    +0.000 H 
ATOM     13  N5  UNL A   1      30.624  24.837  -7.104  1.00  0.00    +0.000 N 
ATOM     14  C8  UNL A   1      31.668  23.948  -7.620  1.00  0.00    +0.000 C 
ATOM     15  C9  UNL A   1      31.455  22.497  -7.180  1.00  0.00    +0.000 C 
ATOM     17  C10 UNL A   1      30.156  23.164  -5.333  1.00  0.00    +0.000 C 
ATOM     18  C11 UNL A   1      30.286  24.656  -5.690  1.00  0.00    +0.000 C 
ATOM    114  H14 UNL A   1      29.355  25.144  -5.488  1.00  0.00    +0.000 H 
ATOM    115  H15 UNL A   1      31.070  25.078  -5.097  1.00  0.00    +0.000 H 
ATOM    110  H10 UNL A   1      32.301  21.913  -7.479  1.00  0.00    +0.000 H 
ATOM    111  H11 UNL A   1      30.564  22.128  -7.643  1.00  0.00    +0.000 H 
ATOM     16  O1  UNL A   1      31.302  22.409  -5.755  1.00  0.00    +0.000 O 
ATOM    112  H12 UNL A   1      30.051  23.069  -4.272  1.00  0.00    +0.000 H 
ATOM    113  H13 UNL A   1      29.298  22.775  -5.841  1.00  0.00    +0.000 H 
ENDBRANCH   12   13
ENDBRANCH    6    7
ENDBRANCH    3    4
ENDBRANCH    2    3
ENDBRANCH   26    2
ENDBRANCH   28   26
ENDBRANCH   29   28
ENDBRANCH   30   29
ENDBRANCH   31   30
ENDBRANCH   32   31
ENDBRANCH   33   32
ENDBRANCH   34   33
ENDBRANCH   35   34
ENDBRANCH   36   35
ENDBRANCH   38   36
ENDBRANCH   42   41
BRANCH   46   47
ATOM     47  C34 UNL A   1      23.370  17.928  11.541  1.00  0.00    +0.000 C 
ATOM     48  C35 UNL A   1      23.473  16.556  11.843  1.00  0.00    +0.000 C 
ATOM     49  F1  UNL A   1      23.830  15.675  10.897  1.00  0.00    +0.000 F 
ATOM     50  C36 UNL A   1      23.149  16.054  13.107  1.00  0.00    +0.000 C 
ATOM     51  F2  UNL A   1      23.181  14.732  13.328  1.00  0.00    +0.000 F 
ATOM     52  C37 UNL A   1      22.745  16.907  14.119  1.00  0.00    +0.000 C 
ATOM     53  F3  UNL A   1      22.402  16.423  15.319  1.00  0.00    +0.000 F 
ATOM     54  C38 UNL A   1      22.656  18.262  13.866  1.00  0.00    +0.000 C 
ATOM     55  F4  UNL A   1      22.242  19.099  14.829  1.00  0.00    +0.000 F 
ATOM     56  C39 UNL A   1      22.934  18.759  12.594  1.00  0.00    +0.000 C 
ATOM     57  F5  UNL A   1      22.677  20.059  12.394  1.00  0.00    +0.000 F 
ENDBRANCH   46   47
BRANCH   63   64
ATOM     65  C46 UNL A   1      26.009  17.772   4.648  1.00  0.00    +0.000 C 
ATOM     66  F6  UNL A   1      24.696  17.973   4.827  1.00  0.00    +0.000 F 
ATOM     67  C47 UNL A   1      26.586  18.226   3.463  1.00  0.00    +0.000 C 
ATOM     68  F7  UNL A   1      25.820  18.779   2.511  1.00  0.00    +0.000 F 
ATOM     69  C48 UNL A   1      27.956  18.138   3.281  1.00  0.00    +0.000 C 
ATOM     70  F8  UNL A   1      28.518  18.614   2.160  1.00  0.00    +0.000 F 
ATOM     71  C49 UNL A   1      28.749  17.584   4.273  1.00  0.00    +0.000 C 
ATOM     72  F9  UNL A   1      30.081  17.545   4.121  1.00  0.00    +0.000 F 
ATOM     73  C50 UNL A   1      28.171  17.095   5.441  1.00  0.00    +0.000 C 
ATOM     74  F10 UNL A   1      28.970  16.591   6.395  1.00  0.00    +0.000 F 
ATOM     64  C45 UNL A   1      26.788  17.174   5.653  1.00  0.00    +0.000 C 
ENDBRANCH   63   64
BRANCH   78   79
ATOM     79  C54 UNL A   1      22.978  12.143   5.191  1.00  0.00    +0.000 C 
ATOM     80  C55 UNL A   1      22.004  11.523   5.987  1.00  0.00    +0.000 C 
ATOM     81  F11 UNL A   1      21.512  12.152   7.064  1.00  0.00    +0.000 F 
ATOM     82  C56 UNL A   1      21.473  10.273   5.651  1.00  0.00    +0.000 C 
ATOM     83  F12 UNL A   1      20.500   9.739   6.401  1.00  0.00    +0.000 F 
ATOM     84  C57 UNL A   1      21.908   9.609   4.516  1.00  0.00    +0.000 C 
ATOM     85  F13 UNL A   1      21.359   8.438   4.164  1.00  0.00    +0.000 F 
ATOM     86  C58 UNL A   1      22.884  10.182   3.724  1.00  0.00    +0.000 C 
ATOM     87  F14 UNL A   1      23.291   9.565   2.605  1.00  0.00    +0.000 F 
ATOM     88  C59 UNL A   1      23.406  11.433   4.051  1.00  0.00    +0.000 C 
ATOM     89  F15 UNL A   1      24.270  11.976   3.182  1.00  0.00    +0.000 F 
ENDBRANCH   78   79
TORSDOF 20
ENDMDL
MODEL 9
REMARK VINA RESULT:      -8.4     45.680     51.171
ROOT
ATOM    136  H36 UNL A   1      17.931  35.416  49.621  1.00  0.00    +0.000 H 
ATOM    137  H37 UNL A   1      18.885  34.054  47.542  1.00  0.00    +0.000 H 
ATOM    138  H38 UNL A   1      19.555  37.975  46.968  1.00  0.00    +0.000 H 
ATOM    139  H39 UNL A   1      27.386  35.553  48.342  1.00  0.00    +0.000 H 
ATOM    140  H40 UNL A   1      26.342  34.727  50.515  1.00  0.00    +0.000 H 
ATOM    141  H41 UNL A   1      23.356  36.659  48.363  1.00  0.00    +0.000 H 
ATOM    142  H42 UNL A   1      23.798  39.360  46.542  1.00  0.00    +0.000 H 
ATOM    143  H43 UNL A   1      21.334  38.624  46.389  1.00  0.00    +0.000 H 
ATOM    144  H44 UNL A   1      20.722  39.060  52.184  1.00  0.00    +0.000 H 
ATOM    145  H45 UNL A   1      22.993  37.995  52.737  1.00  0.00    +0.000 H 
ATOM     42  C30 UNL A   1      23.708  35.847  50.993  1.00  0.00    +0.000 C 
ATOM     43  C31 UNL A   1      22.455  36.667  50.979  1.00  0.00    +0.000 C 
ATOM     44  N9  UNL A   1      21.419  36.559  50.204  1.00  0.00    +0.000 N 
ATOM     45  C32 UNL A   1      20.585  37.633  50.518  1.00  0.00    +0.000 C 
ATOM     46  C33 UNL A   1      19.537  38.024  49.740  1.00  0.00    +0.000 C 
ATOM     58  C40 UNL A   1      19.137  37.018  48.801  1.00  0.00    +0.000 C 
ATOM     59  C41 UNL A   1      18.580  35.760  48.897  1.00  0.00    +0.000 C 
ATOM     60  C42 UNL A   1      19.093  35.036  47.781  1.00  0.00    +0.000 C 
ATOM     61  C43 UNL A   1      19.929  35.902  47.075  1.00  0.00    +0.000 C 
ATOM     62  N10 UNL A   1      19.542  37.147  47.498  1.00  0.00    +0.000 N 
ATOM     63  C44 UNL A   1      21.080  35.660  46.239  1.00  0.00    +0.000 C 
ATOM     75  C51 UNL A   1      22.057  36.579  45.991  1.00  0.00    +0.000 C 
ATOM     76  N11 UNL A   1      23.353  36.179  45.704  1.00  0.00    +0.000 N 
ATOM     77  C52 UNL A   1      24.105  37.160  46.122  1.00  0.00    +0.000 C 
ATOM     78  C53 UNL A   1      25.477  36.988  46.655  1.00  0.00    +0.000 C 
ATOM     90  C60 UNL A   1      25.381  36.354  47.846  1.00  0.00    +0.000 C 
ATOM     91  C61 UNL A   1      26.405  35.695  48.630  1.00  0.00    +0.000 C 
ATOM     92  C62 UNL A   1      25.864  35.297  49.799  1.00  0.00    +0.000 C 
ATOM     93  C63 UNL A   1      24.491  35.801  49.896  1.00  0.00    +0.000 C 
ATOM     94  N12 UNL A   1      24.239  36.332  48.652  1.00  0.00    +0.000 N 
ATOM     95  C64 UNL A   1      23.417  38.418  46.359  1.00  0.00    +0.000 C 
ATOM     96  C65 UNL A   1      22.151  38.005  46.272  1.00  0.00    +0.000 C 
ATOM     97  C66 UNL A   1      21.161  38.279  51.671  1.00  0.00    +0.000 C 
ATOM     98  C67 UNL A   1      22.337  37.735  51.984  1.00  0.00    +0.000 C 
ENDROOT
BRANCH   42   41
ATOM     99  C68 UNL A   1      23.427  34.225  52.869  1.00  0.00    +0.000 C 
ATOM    100  C69 UNL A   1      23.807  33.768  54.127  1.00  0.00    +0.000 C 
ATOM     38  C26 UNL A   1      24.914  34.320  54.797  1.00  0.00    +0.000 C 
ATOM     39  C27 UNL A   1      25.671  35.290  54.139  1.00  0.00    +0.000 C 
ATOM    134  H34 UNL A   1      26.532  35.651  54.578  1.00  0.00    +0.000 H 
ATOM     40  C28 UNL A   1      25.275  35.777  52.892  1.00  0.00    +0.000 C 
ATOM    135  H35 UNL A   1      25.830  36.512  52.427  1.00  0.00    +0.000 H 
ATOM     41  C29 UNL A   1      24.131  35.272  52.273  1.00  0.00    +0.000 C 
ATOM    146  H46 UNL A   1      22.629  33.793  52.379  1.00  0.00    +0.000 H 
ATOM    147  H47 UNL A   1      23.267  33.012  54.576  1.00  0.00    +0.000 H 
BRANCH   38   36
ATOM     36  C25 UNL A   1      25.159  33.797  56.171  1.00  0.00    +0.000 C 
ATOM     37  O3  UNL A   1      25.075  34.569  57.117  1.00  0.00    +0.000 O 
BRANCH   36   35
ATOM     35  N8  UNL A   1      25.529  32.511  56.462  1.00  0.00    +0.000 N 
ATOM    133  H33 UNL A   1      24.939  32.094  57.130  1.00  0.00    +0.000 H 
BRANCH   35   34
ATOM     34  C24 UNL A   1      26.578  31.618  56.022  1.00  0.00    +0.000 C 
ATOM    131  H31 UNL A   1      27.513  32.127  56.126  1.00  0.00    +0.000 H 
ATOM    132  H32 UNL A   1      26.502  30.743  56.633  1.00  0.00    +0.000 H 
BRANCH   34   33
ATOM     33  C23 UNL A   1      26.457  31.140  54.575  1.00  0.00    +0.000 C 
ATOM    130  H30 UNL A   1      25.598  31.638  54.175  1.00  0.00    +0.000 H 
ATOM    129  H29 UNL A   1      26.373  30.073  54.587  1.00  0.00    +0.000 H 
BRANCH   33   32
ATOM    128  H28 UNL A   1      27.873  32.522  53.906  1.00  0.00    +0.000 H 
ATOM    127  H27 UNL A   1      27.296  31.373  52.643  1.00  0.00    +0.000 H 
ATOM     32  C22 UNL A   1      27.624  31.512  53.652  1.00  0.00    +0.000 C 
BRANCH   32   31
ATOM    125  H25 UNL A   1      29.432  31.107  54.692  1.00  0.00    +0.000 H 
ATOM    126  H26 UNL A   1      28.633  29.694  53.931  1.00  0.00    +0.000 H 
ATOM     31  C21 UNL A   1      28.925  30.718  53.833  1.00  0.00    +0.000 C 
BRANCH   31   30
ATOM    123  H23 UNL A   1      29.919  29.797  52.194  1.00  0.00    +0.000 H 
ATOM    124  H24 UNL A   1      29.542  31.528  51.991  1.00  0.00    +0.000 H 
ATOM     30  C20 UNL A   1      29.899  30.766  52.649  1.00  0.00    +0.000 C 
BRANCH   30   29
ATOM    121  H21 UNL A   1      31.503  32.164  52.738  1.00  0.00    +0.000 H 
ATOM    122  H22 UNL A   1      31.441  31.014  54.080  1.00  0.00    +0.000 H 
ATOM     29  C19 UNL A   1      31.333  31.147  53.023  1.00  0.00    +0.000 C 
BRANCH   29   28
ATOM     28  N7  UNL A   1      32.315  30.308  52.369  1.00  0.00    +0.000 N 
ATOM    120  H20 UNL A   1      32.969  30.826  51.846  1.00  0.00    +0.000 H 
BRANCH   28   26
ATOM     26  C18 UNL A   1      32.540  28.977  52.309  1.00  0.00    +0.000 C 
ATOM     27  O2  UNL A   1      32.616  28.416  53.417  1.00  0.00    +0.000 O 
BRANCH   26    2
ATOM      2  C1  UNL A   1      32.639  28.085  51.043  1.00  0.00    +0.000 C 
ATOM    104  H4  UNL A   1      32.387  28.791  50.279  1.00  0.00    +0.000 H 
BRANCH    2    1
ATOM      1  N1  UNL A   1      34.017  27.582  50.874  1.00  0.00    +0.000 N 
ATOM    101  H1  UNL A   1      34.674  28.248  51.280  1.00  0.00    +0.000 H 
ATOM    102  H2  UNL A   1      34.218  27.469  49.880  1.00  0.00    +0.000 H 
ATOM    103  H3  UNL A   1      34.111  26.682  51.343  1.00  0.00    +0.000 H 
ENDBRANCH    2    1
BRANCH    2    3
ATOM    105  H5  UNL A   1      31.528  26.330  51.274  1.00  0.00    +0.000 H 
ATOM    106  H6  UNL A   1      31.769  27.020  49.559  1.00  0.00    +0.000 H 
ATOM      3  C2  UNL A   1      31.515  27.153  50.590  1.00  0.00    +0.000 C 
BRANCH    3    4
ATOM      4  C3  UNL A   1      30.069  27.561  50.472  1.00  0.00    +0.000 C 
ATOM      5  C4  UNL A   1      29.581  28.092  49.286  1.00  0.00    +0.000 C 
ATOM      6  N2  UNL A   1      28.318  28.578  49.493  1.00  0.00    +0.000 N 
ATOM    107  H7  UNL A   1      30.092  28.117  48.389  1.00  0.00    +0.000 H 
ATOM     20  C12 UNL A   1      27.901  28.249  50.767  1.00  0.00    +0.000 C 
ATOM     21  C13 UNL A   1      26.673  28.499  51.411  1.00  0.00    +0.000 C 
ATOM    116  H16 UNL A   1      25.926  29.028  50.934  1.00  0.00    +0.000 H 
ATOM     23  C15 UNL A   1      27.497  27.306  53.338  1.00  0.00    +0.000 C 
ATOM     24  C16 UNL A   1      28.718  27.071  52.692  1.00  0.00    +0.000 C 
ATOM     25  C17 UNL A   1      28.951  27.546  51.381  1.00  0.00    +0.000 C 
ATOM    119  H19 UNL A   1      29.459  26.544  53.180  1.00  0.00    +0.000 H 
ATOM    118  H18 UNL A   1      27.348  26.947  54.294  1.00  0.00    +0.000 H 
ATOM     22  C14 UNL A   1      26.491  28.017  52.705  1.00  0.00    +0.000 C 
ATOM    117  H17 UNL A   1      25.599  28.190  53.195  1.00  0.00    +0.000 H 
BRANCH    6    7
ATOM      7  C5  UNL A   1      27.614  29.378  48.562  1.00  0.00    +0.000 C 
ATOM      8  N3  UNL A   1      26.672  28.777  47.844  1.00  0.00    +0.000 N 
ATOM      9  C6  UNL A   1      25.983  29.635  47.109  1.00  0.00    +0.000 C 
ATOM     10 Cl1  UNL A   1      24.716  28.967  46.178  1.00  0.00    +0.000 Cl
ATOM     11  N4  UNL A   1      26.184  30.937  46.978  1.00  0.00    +0.000 N 
ATOM     12  C7  UNL A   1      27.228  31.405  47.648  1.00  0.00    +0.000 C 
ATOM     19  N6  UNL A   1      27.931  30.675  48.507  1.00  0.00    +0.000 N 
BRANCH   12   13
ATOM    108  H8  UNL A   1      27.022  34.269  46.158  1.00  0.00    +0.000 H 
ATOM    109  H9  UNL A   1      26.341  32.699  45.724  1.00  0.00    +0.000 H 
ATOM     13  N5  UNL A   1      27.667  32.665  47.306  1.00  0.00    +0.000 N 
ATOM     14  C8  UNL A   1      27.221  33.225  46.027  1.00  0.00    +0.000 C 
ATOM     15  C9  UNL A   1      28.274  33.057  44.928  1.00  0.00    +0.000 C 
ATOM     17  C10 UNL A   1      30.009  32.865  46.510  1.00  0.00    +0.000 C 
ATOM     18  C11 UNL A   1      29.038  33.005  47.697  1.00  0.00    +0.000 C 
ATOM    114  H14 UNL A   1      29.350  32.346  48.480  1.00  0.00    +0.000 H 
ATOM    115  H15 UNL A   1      29.054  34.021  48.029  1.00  0.00    +0.000 H 
ATOM    110  H10 UNL A   1      27.954  33.584  44.053  1.00  0.00    +0.000 H 
ATOM    111  H11 UNL A   1      28.384  32.014  44.718  1.00  0.00    +0.000 H 
ATOM     16  O1  UNL A   1      29.545  33.576  45.350  1.00  0.00    +0.000 O 
ATOM    112  H12 UNL A   1      30.963  33.256  46.795  1.00  0.00    +0.000 H 
ATOM    113  H13 UNL A   1      30.076  31.828  46.257  1.00  0.00    +0.000 H 
ENDBRANCH   12   13
ENDBRANCH    6    7
ENDBRANCH    3    4
ENDBRANCH    2    3
ENDBRANCH   26    2
ENDBRANCH   28   26
ENDBRANCH   29   28
ENDBRANCH   30   29
ENDBRANCH   31   30
ENDBRANCH   32   31
ENDBRANCH   33   32
ENDBRANCH   34   33
ENDBRANCH   35   34
ENDBRANCH   36   35
ENDBRANCH   38   36
ENDBRANCH   42   41
BRANCH   46   47
ATOM     47  C34 UNL A   1      19.007  39.429  49.671  1.00  0.00    +0.000 C 
ATOM     48  C35 UNL A   1      19.743  40.444  49.030  1.00  0.00    +0.000 C 
ATOM     49  F1  UNL A   1      20.836  40.146  48.313  1.00  0.00    +0.000 F 
ATOM     50  C36 UNL A   1      19.406  41.795  49.165  1.00  0.00    +0.000 C 
ATOM     51  F2  UNL A   1      20.182  42.735  48.607  1.00  0.00    +0.000 F 
ATOM     52  C37 UNL A   1      18.306  42.173  49.915  1.00  0.00    +0.000 C 
ATOM     53  F3  UNL A   1      18.004  43.467  50.074  1.00  0.00    +0.000 F 
ATOM     54  C38 UNL A   1      17.547  41.202  50.538  1.00  0.00    +0.000 C 
ATOM     55  F4  UNL A   1      16.493  41.553  51.289  1.00  0.00    +0.000 F 
ATOM     56  C39 UNL A   1      17.907  39.859  50.443  1.00  0.00    +0.000 C 
ATOM     57  F5  UNL A   1      17.209  39.000  51.198  1.00  0.00    +0.000 F 
ENDBRANCH   46   47
BRANCH   63   64
ATOM     65  C46 UNL A   1      21.997  33.334  46.774  1.00  0.00    +0.000 C 
ATOM     66  F6  UNL A   1      22.410  33.742  47.982  1.00  0.00    +0.000 F 
ATOM     67  C47 UNL A   1      22.155  31.990  46.447  1.00  0.00    +0.000 C 
ATOM     68  F7  UNL A   1      22.771  31.158  47.300  1.00  0.00    +0.000 F 
ATOM     69  C48 UNL A   1      21.646  31.501  45.254  1.00  0.00    +0.000 C 
ATOM     70  F8  UNL A   1      21.758  30.198  44.958  1.00  0.00    +0.000 F 
ATOM     71  C49 UNL A   1      20.993  32.357  44.382  1.00  0.00    +0.000 C 
ATOM     72  F9  UNL A   1      20.453  31.877  43.252  1.00  0.00    +0.000 F 
ATOM     73  C50 UNL A   1      20.867  33.709  44.690  1.00  0.00    +0.000 C 
ATOM     74  F10 UNL A   1      20.204  34.506  43.837  1.00  0.00    +0.000 F 
ATOM     64  C45 UNL A   1      21.370  34.229  45.890  1.00  0.00    +0.000 C 
ENDBRANCH   63   64
BRANCH   78   79
ATOM     79  C54 UNL A   1      26.645  37.718  46.111  1.00  0.00    +0.000 C 
ATOM     80  C55 UNL A   1      27.149  38.857  46.755  1.00  0.00    +0.000 C 
ATOM     81  F11 UNL A   1      26.466  39.421  47.762  1.00  0.00    +0.000 F 
ATOM     82  C56 UNL A   1      28.397  39.394  46.420  1.00  0.00    +0.000 C 
ATOM     83  F12 UNL A   1      28.874  40.445  47.099  1.00  0.00    +0.000 F 
ATOM     84  C57 UNL A   1      29.166  38.813  45.425  1.00  0.00    +0.000 C 
ATOM     85  F13 UNL A   1      30.384  39.294  45.142  1.00  0.00    +0.000 F 
ATOM     86  C58 UNL A   1      28.685  37.705  44.754  1.00  0.00    +0.000 C 
ATOM     87  F14 UNL A   1      29.434  37.113  43.812  1.00  0.00    +0.000 F 
ATOM     88  C59 UNL A   1      27.448  37.161  45.096  1.00  0.00    +0.000 C 
ATOM     89  F15 UNL A   1      27.094  36.025  44.478  1.00  0.00    +0.000 F 
ENDBRANCH   78   79
TORSDOF 20
ENDMDL
MODEL 10
REMARK VINA RESULT:      -8.4     21.283     27.014
ROOT
ATOM    136  H36 UNL A   1      11.980  -2.928  26.054  1.00  0.00    +0.000 H 
ATOM    137  H37 UNL A   1       9.401  -3.043  26.708  1.00  0.00    +0.000 H 
ATOM    138  H38 UNL A   1      10.942   0.428  28.027  1.00  0.00    +0.000 H 
ATOM    139  H39 UNL A   1       6.188   3.415  21.898  1.00  0.00    +0.000 H 
ATOM    140  H40 UNL A   1       7.615   1.807  20.529  1.00  0.00    +0.000 H 
ATOM    141  H41 UNL A   1       9.003   1.665  24.444  1.00  0.00    +0.000 H 
ATOM    142  H42 UNL A   1       9.195   4.250  26.466  1.00  0.00    +0.000 H 
ATOM    143  H43 UNL A   1      10.002   2.140  27.703  1.00  0.00    +0.000 H 
ATOM    144  H44 UNL A   1      14.156   1.235  23.695  1.00  0.00    +0.000 H 
ATOM    145  H45 UNL A   1      12.664   1.805  21.683  1.00  0.00    +0.000 H 
ATOM     42  C30 UNL A   1       9.970   0.896  21.959  1.00  0.00    +0.000 C 
ATOM     43  C31 UNL A   1      11.106   0.715  22.918  1.00  0.00    +0.000 C 
ATOM     44  N9  UNL A   1      11.122   0.083  24.052  1.00  0.00    +0.000 N 
ATOM     45  C32 UNL A   1      12.382   0.313  24.607  1.00  0.00    +0.000 C 
ATOM     46  C33 UNL A   1      12.689   0.050  25.908  1.00  0.00    +0.000 C 
ATOM     58  C40 UNL A   1      11.747  -0.828  26.535  1.00  0.00    +0.000 C 
ATOM     59  C41 UNL A   1      11.382  -2.148  26.368  1.00  0.00    +0.000 C 
ATOM     60  C42 UNL A   1      10.002  -2.204  26.720  1.00  0.00    +0.000 C 
ATOM     61  C43 UNL A   1       9.615  -0.913  27.081  1.00  0.00    +0.000 C 
ATOM     62  N10 UNL A   1      10.800  -0.283  27.361  1.00  0.00    +0.000 N 
ATOM     63  C44 UNL A   1       8.342  -0.237  27.020  1.00  0.00    +0.000 C 
ATOM     75  C51 UNL A   1       8.192   1.118  26.967  1.00  0.00    +0.000 C 
ATOM     76  N11 UNL A   1       7.089   1.688  26.351  1.00  0.00    +0.000 N 
ATOM     77  C52 UNL A   1       7.506   2.849  25.926  1.00  0.00    +0.000 C 
ATOM     78  C53 UNL A   1       6.999   3.520  24.705  1.00  0.00    +0.000 C 
ATOM     90  C60 UNL A   1       7.420   2.807  23.635  1.00  0.00    +0.000 C 
ATOM     91  C61 UNL A   1       6.975   2.852  22.258  1.00  0.00    +0.000 C 
ATOM     92  C62 UNL A   1       7.758   2.035  21.526  1.00  0.00    +0.000 C 
ATOM     93  C63 UNL A   1       8.845   1.522  22.363  1.00  0.00    +0.000 C 
ATOM     94  N12 UNL A   1       8.519   1.942  23.632  1.00  0.00    +0.000 N 
ATOM     95  C64 UNL A   1       8.746   3.323  26.518  1.00  0.00    +0.000 C 
ATOM     96  C65 UNL A   1       9.135   2.214  27.149  1.00  0.00    +0.000 C 
ATOM     97  C66 UNL A   1      13.154   1.002  23.603  1.00  0.00    +0.000 C 
ATOM     98  C67 UNL A   1      12.403   1.298  22.543  1.00  0.00    +0.000 C 
ENDROOT
BRANCH   42   41
ATOM     99  C68 UNL A   1      10.540   1.515  19.610  1.00  0.00    +0.000 C 
ATOM    100  C69 UNL A   1      10.661   1.159  18.270  1.00  0.00    +0.000 C 
ATOM     38  C26 UNL A   1      10.483  -0.173  17.855  1.00  0.00    +0.000 C 
ATOM     39  C27 UNL A   1      10.252  -1.146  18.828  1.00  0.00    +0.000 C 
ATOM    134  H34 UNL A   1      10.197  -2.140  18.554  1.00  0.00    +0.000 H 
ATOM     40  C28 UNL A   1      10.095  -0.790  20.169  1.00  0.00    +0.000 C 
ATOM    135  H35 UNL A   1       9.901  -1.516  20.875  1.00  0.00    +0.000 H 
ATOM     41  C29 UNL A   1      10.201   0.547  20.555  1.00  0.00    +0.000 C 
ATOM    146  H46 UNL A   1      10.699   2.491  19.903  1.00  0.00    +0.000 H 
ATOM    147  H47 UNL A   1      10.886   1.883  17.571  1.00  0.00    +0.000 H 
BRANCH   38   36
ATOM     36  C25 UNL A   1      10.558  -0.403  16.384  1.00  0.00    +0.000 C 
ATOM     37  O3  UNL A   1      11.659  -0.469  15.854  1.00  0.00    +0.000 O 
BRANCH   36   35
ATOM     35  N8  UNL A   1       9.472  -0.495  15.553  1.00  0.00    +0.000 N 
ATOM    133  H33 UNL A   1       9.672  -0.182  14.641  1.00  0.00    +0.000 H 
BRANCH   35   34
ATOM     34  C24 UNL A   1       8.104  -0.942  15.693  1.00  0.00    +0.000 C 
ATOM    131  H31 UNL A   1       7.878  -1.584  14.868  1.00  0.00    +0.000 H 
ATOM    132  H32 UNL A   1       8.046  -1.434  16.642  1.00  0.00    +0.000 H 
BRANCH   34   33
ATOM     33  C23 UNL A   1       7.059   0.174  15.726  1.00  0.00    +0.000 C 
ATOM    130  H30 UNL A   1       6.165  -0.276  16.104  1.00  0.00    +0.000 H 
ATOM    129  H29 UNL A   1       6.963   0.563  14.734  1.00  0.00    +0.000 H 
BRANCH   33   32
ATOM    128  H28 UNL A   1       8.117   1.921  16.161  1.00  0.00    +0.000 H 
ATOM    127  H27 UNL A   1       7.677   0.937  17.604  1.00  0.00    +0.000 H 
ATOM     32  C22 UNL A   1       7.368   1.346  16.665  1.00  0.00    +0.000 C 
BRANCH   32   31
ATOM    125  H25 UNL A   1       5.418   2.093  16.274  1.00  0.00    +0.000 H 
ATOM    126  H26 UNL A   1       5.975   2.210  17.974  1.00  0.00    +0.000 H 
ATOM     31  C21 UNL A   1       6.222   2.330  16.940  1.00  0.00    +0.000 C 
BRANCH   31   30
ATOM    123  H23 UNL A   1       6.262   4.107  15.775  1.00  0.00    +0.000 H 
ATOM    124  H24 UNL A   1       6.047   4.342  17.530  1.00  0.00    +0.000 H 
ATOM     30  C20 UNL A   1       6.565   3.813  16.759  1.00  0.00    +0.000 C 
BRANCH   30   29
ATOM    121  H21 UNL A   1       8.557   3.277  17.287  1.00  0.00    +0.000 H 
ATOM    122  H22 UNL A   1       8.424   4.443  15.964  1.00  0.00    +0.000 H 
ATOM     29  C19 UNL A   1       8.049   4.145  16.922  1.00  0.00    +0.000 C 
BRANCH   29   28
ATOM     28  N7  UNL A   1       8.272   5.239  17.845  1.00  0.00    +0.000 N 
ATOM    120  H20 UNL A   1       7.682   5.197  18.631  1.00  0.00    +0.000 H 
BRANCH   28   26
ATOM     26  C18 UNL A   1       9.103   6.304  17.874  1.00  0.00    +0.000 C 
ATOM     27  O2  UNL A   1       8.574   7.380  17.541  1.00  0.00    +0.000 O 
BRANCH   26    2
ATOM      2  C1  UNL A   1      10.584   6.342  18.334  1.00  0.00    +0.000 C 
ATOM    104  H4  UNL A   1      11.024   6.919  17.546  1.00  0.00    +0.000 H 
BRANCH    2    1
ATOM      1  N1  UNL A   1      10.702   7.032  19.633  1.00  0.00    +0.000 N 
ATOM    101  H1  UNL A   1      10.501   6.375  20.387  1.00  0.00    +0.000 H 
ATOM    102  H2  UNL A   1      10.038   7.805  19.670  1.00  0.00    +0.000 H 
ATOM    103  H3  UNL A   1      11.649   7.394  19.742  1.00  0.00    +0.000 H 
ENDBRANCH    2    1
BRANCH    2    3
ATOM    105  H5  UNL A   1      11.033   4.301  18.321  1.00  0.00    +0.000 H 
ATOM    106  H6  UNL A   1      12.403   5.519  18.663  1.00  0.00    +0.000 H 
ATOM      3  C2  UNL A   1      11.565   5.198  18.080  1.00  0.00    +0.000 C 
BRANCH    3    4
ATOM      4  C3  UNL A   1      12.233   4.928  16.756  1.00  0.00    +0.000 C 
ATOM      5  C4  UNL A   1      13.399   5.596  16.407  1.00  0.00    +0.000 C 
ATOM      6  N2  UNL A   1      13.687   5.347  15.091  1.00  0.00    +0.000 N 
ATOM    107  H7  UNL A   1      13.960   6.188  17.039  1.00  0.00    +0.000 H 
ATOM     20  C12 UNL A   1      12.806   4.407  14.597  1.00  0.00    +0.000 C 
ATOM     21  C13 UNL A   1      12.734   3.815  13.320  1.00  0.00    +0.000 C 
ATOM    116  H16 UNL A   1      13.389   4.093  12.573  1.00  0.00    +0.000 H 
ATOM     23  C15 UNL A   1      10.883   2.478  14.098  1.00  0.00    +0.000 C 
ATOM     24  C16 UNL A   1      10.958   3.079  15.361  1.00  0.00    +0.000 C 
ATOM     25  C17 UNL A   1      11.926   4.070  15.640  1.00  0.00    +0.000 C 
ATOM    119  H19 UNL A   1      10.295   2.795  16.099  1.00  0.00    +0.000 H 
ATOM    118  H18 UNL A   1      10.170   1.754  13.917  1.00  0.00    +0.000 H 
ATOM     22  C14 UNL A   1      11.758   2.847  13.089  1.00  0.00    +0.000 C 
ATOM    117  H17 UNL A   1      11.689   2.402  12.161  1.00  0.00    +0.000 H 
BRANCH    6    7
ATOM      7  C5  UNL A   1      14.675   6.038  14.351  1.00  0.00    +0.000 C 
ATOM      8  N3  UNL A   1      14.256   7.006  13.544  1.00  0.00    +0.000 N 
ATOM      9  C6  UNL A   1      15.261   7.677  13.007  1.00  0.00    +0.000 C 
ATOM     10 Cl1  UNL A   1      14.828   8.975  11.984  1.00  0.00    +0.000 Cl
ATOM     11  N4  UNL A   1      16.557   7.439  13.136  1.00  0.00    +0.000 N 
ATOM     12  C7  UNL A   1      16.853   6.374  13.866  1.00  0.00    +0.000 C 
ATOM     19  N6  UNL A   1      15.948   5.683  14.551  1.00  0.00    +0.000 N 
BRANCH   12   13
ATOM    108  H8  UNL A   1      19.987   6.560  13.085  1.00  0.00    +0.000 H 
ATOM    109  H9  UNL A   1      18.580   7.358  12.378  1.00  0.00    +0.000 H 
ATOM     13  N5  UNL A   1      18.144   5.902  13.776  1.00  0.00    +0.000 N 
ATOM     14  C8  UNL A   1      18.995   6.428  12.705  1.00  0.00    +0.000 C 
ATOM     15  C9  UNL A   1      19.051   5.485  11.500  1.00  0.00    +0.000 C 
ATOM     17  C10 UNL A   1      18.449   3.631  12.822  1.00  0.00    +0.000 C 
ATOM     18  C11 UNL A   1      18.343   4.486  14.099  1.00  0.00    +0.000 C 
ATOM    114  H14 UNL A   1      17.514   4.141  14.680  1.00  0.00    +0.000 H 
ATOM    115  H15 UNL A   1      19.256   4.388  14.647  1.00  0.00    +0.000 H 
ATOM    110  H10 UNL A   1      19.773   5.852  10.800  1.00  0.00    +0.000 H 
ATOM    111  H11 UNL A   1      18.080   5.448  11.051  1.00  0.00    +0.000 H 
ATOM     16  O1  UNL A   1      19.420   4.157  11.902  1.00  0.00    +0.000 O 
ATOM    112  H12 UNL A   1      18.735   2.636  13.094  1.00  0.00    +0.000 H 
ATOM    113  H13 UNL A   1      17.495   3.640  12.337  1.00  0.00    +0.000 H 
ENDBRANCH   12   13
ENDBRANCH    6    7
ENDBRANCH    3    4
ENDBRANCH    2    3
ENDBRANCH   26    2
ENDBRANCH   28   26
ENDBRANCH   29   28
ENDBRANCH   30   29
ENDBRANCH   31   30
ENDBRANCH   32   31
ENDBRANCH   33   32
ENDBRANCH   34   33
ENDBRANCH   35   34
ENDBRANCH   36   35
ENDBRANCH   38   36
ENDBRANCH   42   41
BRANCH   46   47
ATOM     47  C34 UNL A   1      13.740   0.780  26.697  1.00  0.00    +0.000 C 
ATOM     48  C35 UNL A   1      13.502   2.082  27.178  1.00  0.00    +0.000 C 
ATOM     49  F1  UNL A   1      12.277   2.624  27.103  1.00  0.00    +0.000 F 
ATOM     50  C36 UNL A   1      14.531   2.878  27.690  1.00  0.00    +0.000 C 
ATOM     51  F2  UNL A   1      14.277   4.141  28.060  1.00  0.00    +0.000 F 
ATOM     52  C37 UNL A   1      15.823   2.389  27.768  1.00  0.00    +0.000 C 
ATOM     53  F3  UNL A   1      16.817   3.163  28.225  1.00  0.00    +0.000 F 
ATOM     54  C38 UNL A   1      16.090   1.108  27.328  1.00  0.00    +0.000 C 
ATOM     55  F4  UNL A   1      17.341   0.628  27.374  1.00  0.00    +0.000 F 
ATOM     56  C39 UNL A   1      15.074   0.329  26.775  1.00  0.00    +0.000 C 
ATOM     57  F5  UNL A   1      15.447  -0.839  26.236  1.00  0.00    +0.000 F 
ENDBRANCH   46   47
BRANCH   63   64
ATOM     65  C46 UNL A   1       6.779  -1.389  25.357  1.00  0.00    +0.000 C 
ATOM     66  F6  UNL A   1       7.472  -0.898  24.320  1.00  0.00    +0.000 F 
ATOM     67  C47 UNL A   1       5.723  -2.257  25.088  1.00  0.00    +0.000 C 
ATOM     68  F7  UNL A   1       5.379  -2.525  23.819  1.00  0.00    +0.000 F 
ATOM     69  C48 UNL A   1       5.049  -2.873  26.130  1.00  0.00    +0.000 C 
ATOM     70  F8  UNL A   1       4.062  -3.744  25.872  1.00  0.00    +0.000 F 
ATOM     71  C49 UNL A   1       5.418  -2.611  27.440  1.00  0.00    +0.000 C 
ATOM     72  F9  UNL A   1       4.802  -3.245  28.448  1.00  0.00    +0.000 F 
ATOM     73  C50 UNL A   1       6.447  -1.714  27.712  1.00  0.00    +0.000 C 
ATOM     74  F10 UNL A   1       6.799  -1.504  28.990  1.00  0.00    +0.000 F 
ATOM     64  C45 UNL A   1       7.147  -1.079  26.677  1.00  0.00    +0.000 C 
ENDBRANCH   63   64
BRANCH   78   79
ATOM     79  C54 UNL A   1       6.455   4.897  24.717  1.00  0.00    +0.000 C 
ATOM     80  C55 UNL A   1       7.206   5.974  24.224  1.00  0.00    +0.000 C 
ATOM     81  F11 UNL A   1       8.501   5.810  23.918  1.00  0.00    +0.000 F 
ATOM     82  C56 UNL A   1       6.620   7.220  23.975  1.00  0.00    +0.000 C 
ATOM     83  F12 UNL A   1       7.354   8.208  23.446  1.00  0.00    +0.000 F 
ATOM     84  C57 UNL A   1       5.273   7.423  24.221  1.00  0.00    +0.000 C 
ATOM     85  F13 UNL A   1       4.701   8.599  23.930  1.00  0.00    +0.000 F 
ATOM     86  C58 UNL A   1       4.511   6.389  24.730  1.00  0.00    +0.000 C 
ATOM     87  F14 UNL A   1       3.198   6.562  24.942  1.00  0.00    +0.000 F 
ATOM     88  C59 UNL A   1       5.090   5.143  24.968  1.00  0.00    +0.000 C 
ATOM     89  F15 UNL A   1       4.270   4.158  25.360  1.00  0.00    +0.000 F 
ENDBRANCH   78   79
TORSDOF 20
ENDMDL
