MODEL 1
REMARK VINA RESULT:      -9.5      0.000      0.000
ROOT
ATOM    145  H37 UNL A   1      13.454  46.639   3.130  1.00  0.00    +0.000 H 
ATOM    146  H38 UNL A   1      15.101  46.789   1.114  1.00  0.00    +0.000 H 
ATOM    147  H39 UNL A   1      14.811  50.544   2.839  1.00  0.00    +0.000 H 
ATOM    148  H40 UNL A   1      16.207  56.759   2.764  1.00  0.00    +0.000 H 
ATOM    149  H41 UNL A   1      14.680  56.592   4.786  1.00  0.00    +0.000 H 
ATOM    150  H42 UNL A   1      14.872  52.833   3.022  1.00  0.00    +0.000 H 
ATOM    151  H43 UNL A   1      18.224  53.256  -0.728  1.00  0.00    +0.000 H 
ATOM    152  H44 UNL A   1      17.867  50.757  -1.160  1.00  0.00    +0.000 H 
ATOM    153  H45 UNL A   1      11.715  50.168   6.769  1.00  0.00    +0.000 H 
ATOM    154  H46 UNL A   1      11.738  52.722   6.972  1.00  0.00    +0.000 H 
ATOM     36  C30 UNL A   1      13.614  53.987   5.240  1.00  0.00    +0.000 C 
ATOM     37  C31 UNL A   1      13.229  52.533   5.273  1.00  0.00    +0.000 C 
ATOM     38  N4  UNL A   1      13.657  51.544   4.529  1.00  0.00    +0.000 N 
ATOM     39  C32 UNL A   1      13.042  50.404   5.028  1.00  0.00    +0.000 C 
ATOM     40  C33 UNL A   1      13.127  49.132   4.571  1.00  0.00    +0.000 C 
ATOM     52  C40 UNL A   1      13.880  48.735   3.411  1.00  0.00    +0.000 C 
ATOM     53  C41 UNL A   1      13.956  47.487   2.821  1.00  0.00    +0.000 C 
ATOM     54  C42 UNL A   1      14.828  47.571   1.732  1.00  0.00    +0.000 C 
ATOM     55  C43 UNL A   1      15.266  48.880   1.621  1.00  0.00    +0.000 C 
ATOM     56  N5  UNL A   1      14.680  49.584   2.661  1.00  0.00    +0.000 N 
ATOM     57  C44 UNL A   1      16.158  49.446   0.642  1.00  0.00    +0.000 C 
ATOM     69  C51 UNL A   1      16.522  50.749   0.583  1.00  0.00    +0.000 C 
ATOM     70  N6  UNL A   1      16.134  51.797   1.405  1.00  0.00    +0.000 N 
ATOM     71  C52 UNL A   1      16.748  52.861   0.950  1.00  0.00    +0.000 C 
ATOM     72  C53 UNL A   1      16.685  54.275   1.453  1.00  0.00    +0.000 C 
ATOM     84  C60 UNL A   1      15.879  54.576   2.489  1.00  0.00    +0.000 C 
ATOM     85  C61 UNL A   1      15.746  55.899   3.096  1.00  0.00    +0.000 C 
ATOM     86  C62 UNL A   1      14.926  55.813   4.156  1.00  0.00    +0.000 C 
ATOM     87  C63 UNL A   1      14.438  54.439   4.275  1.00  0.00    +0.000 C 
ATOM     88  N7  UNL A   1      15.035  53.782   3.226  1.00  0.00    +0.000 N 
ATOM     89  C64 UNL A   1      17.620  52.600  -0.206  1.00  0.00    +0.000 C 
ATOM     90  C65 UNL A   1      17.428  51.303  -0.402  1.00  0.00    +0.000 C 
ATOM     91  C66 UNL A   1      12.238  50.815   6.158  1.00  0.00    +0.000 C 
ATOM     92  C67 UNL A   1      12.261  52.132   6.306  1.00  0.00    +0.000 C 
ENDROOT
BRANCH   36   35
ATOM     33  C27 UNL A   1      13.384  55.727   8.623  1.00  0.00    +0.000 C 
ATOM     34  C28 UNL A   1      13.874  54.934   7.576  1.00  0.00    +0.000 C 
ATOM     35  C29 UNL A   1      13.200  54.891   6.345  1.00  0.00    +0.000 C 
ATOM    143  H35 UNL A   1      13.866  55.737   9.534  1.00  0.00    +0.000 H 
ATOM    144  H36 UNL A   1      14.733  54.380   7.712  1.00  0.00    +0.000 H 
ATOM    155  H47 UNL A   1      11.593  55.709   5.244  1.00  0.00    +0.000 H 
ATOM    156  H48 UNL A   1      10.861  57.210   6.997  1.00  0.00    +0.000 H 
ATOM     93  C68 UNL A   1      12.086  55.719   6.151  1.00  0.00    +0.000 C 
ATOM     94  C69 UNL A   1      11.638  56.554   7.170  1.00  0.00    +0.000 C 
ATOM     32  C26 UNL A   1      12.239  56.503   8.427  1.00  0.00    +0.000 C 
BRANCH   32   30
ATOM     30  C25 UNL A   1      11.681  57.292   9.549  1.00  0.00    +0.000 C 
ATOM     31  O2  UNL A   1      11.810  58.502   9.566  1.00  0.00    +0.000 O 
BRANCH   30   29
ATOM     29  N3  UNL A   1      11.006  56.642  10.564  1.00  0.00    +0.000 N 
ATOM    142  H34 UNL A   1      11.166  56.992  11.470  1.00  0.00    +0.000 H 
BRANCH   29   28
ATOM    141  H33 UNL A   1       9.782  55.412   9.462  1.00  0.00    +0.000 H 
ATOM     28  C24 UNL A   1      10.091  55.513  10.481  1.00  0.00    +0.000 C 
ATOM    140  H32 UNL A   1       9.256  55.696  11.122  1.00  0.00    +0.000 H 
BRANCH   28   27
ATOM    138  H30 UNL A   1      11.429  53.906  10.123  1.00  0.00    +0.000 H 
ATOM     27  C23 UNL A   1      10.760  54.204  10.903  1.00  0.00    +0.000 C 
ATOM    139  H31 UNL A   1      11.254  54.404  11.830  1.00  0.00    +0.000 H 
BRANCH   27   26
ATOM    137  H29 UNL A   1       8.848  53.359  10.779  1.00  0.00    +0.000 H 
ATOM     26  C22 UNL A   1       9.794  53.044  11.170  1.00  0.00    +0.000 C 
ATOM    136  H28 UNL A   1       9.788  52.858  12.224  1.00  0.00    +0.000 H 
BRANCH   26   25
ATOM     25  C21 UNL A   1      10.120  51.724  10.460  1.00  0.00    +0.000 C 
ATOM    134  H26 UNL A   1      11.170  51.543  10.563  1.00  0.00    +0.000 H 
ATOM    135  H27 UNL A   1       9.508  50.979  10.924  1.00  0.00    +0.000 H 
BRANCH   25   24
ATOM    132  H24 UNL A   1      10.028  52.629   8.540  1.00  0.00    +0.000 H 
ATOM    133  H25 UNL A   1      10.340  50.872   8.551  1.00  0.00    +0.000 H 
ATOM     24  C20 UNL A   1       9.778  51.681   8.967  1.00  0.00    +0.000 C 
BRANCH   24   23
ATOM    130  H22 UNL A   1       7.692  52.002   9.290  1.00  0.00    +0.000 H 
ATOM    131  H23 UNL A   1       8.131  51.608   7.626  1.00  0.00    +0.000 H 
ATOM     23  C19 UNL A   1       8.303  51.391   8.659  1.00  0.00    +0.000 C 
BRANCH   23   22
ATOM    129  H21 UNL A   1       7.347  49.860   9.641  1.00  0.00    +0.000 H 
ATOM     22  N2  UNL A   1       7.963  49.999   8.885  1.00  0.00    +0.000 N 
BRANCH   22   20
ATOM     20  C18 UNL A   1       8.327  48.845   8.259  1.00  0.00    +0.000 C 
ATOM     21  O1  UNL A   1       8.379  48.896   7.023  1.00  0.00    +0.000 O 
BRANCH   20   18
ATOM     18  C16 UNL A   1       8.660  47.524   8.978  1.00  0.00    +0.000 C 
ATOM    125  H17 UNL A   1       9.099  46.901   8.227  1.00  0.00    +0.000 H 
BRANCH   18   17
ATOM     14  C12 UNL A   1      11.657  48.298  12.074  1.00  0.00    +0.000 C 
ATOM     15  C13 UNL A   1      10.455  47.620  12.338  1.00  0.00    +0.000 C 
ATOM     16  C14 UNL A   1       9.558  47.259  11.337  1.00  0.00    +0.000 C 
ATOM     17  C15 UNL A   1       9.744  47.676  10.031  1.00  0.00    +0.000 C 
ATOM    123  H15 UNL A   1      10.228  47.378  13.316  1.00  0.00    +0.000 H 
ATOM    124  H16 UNL A   1       8.743  46.671  11.573  1.00  0.00    +0.000 H 
ATOM    157  H49 UNL A   1      11.159  48.551   8.744  1.00  0.00    +0.000 H 
ATOM     95  C70 UNL A   1      10.971  48.279   9.722  1.00  0.00    +0.000 C 
ATOM     96  C71 UNL A   1      11.964  48.531  10.704  1.00  0.00    +0.000 C 
BRANCH   14    6
ATOM    118  H10 UNL A   1      13.530  48.310  12.850  1.00  0.00    +0.000 H 
ATOM      6  C5  UNL A   1      12.616  48.718  13.227  1.00  0.00    +0.000 C 
BRANCH    6    5
ATOM      2  C2  UNL A   1      11.121  46.092  16.266  1.00  0.00    +0.000 C 
ATOM      3  C3  UNL A   1      12.588  45.906  15.890  1.00  0.00    +0.000 C 
ATOM      4  C4  UNL A   1      12.980  46.722  14.653  1.00  0.00    +0.000 C 
ATOM    164  H56 UNL A   1      11.551  47.925  17.262  1.00  0.00    +0.000 H 
ATOM    165  H57 UNL A   1       9.872  47.730  16.799  1.00  0.00    +0.000 H 
ATOM    162  H54 UNL A   1      10.368  48.124  14.519  1.00  0.00    +0.000 H 
ATOM    163  H55 UNL A   1      11.172  49.391  15.492  1.00  0.00    +0.000 H 
ATOM      5  N1  UNL A   1      12.430  48.077  14.569  1.00  0.00    +0.000 N 
ATOM    107  C79 UNL A   1      11.147  48.358  15.214  1.00  0.00    +0.000 C 
ATOM    108  C80 UNL A   1      10.888  47.578  16.498  1.00  0.00    +0.000 C 
ATOM    112  H4  UNL A   1      10.495  45.735  15.475  1.00  0.00    +0.000 H 
ATOM    113  H5  UNL A   1      12.764  44.871  15.689  1.00  0.00    +0.000 H 
ATOM    114  H6  UNL A   1      13.182  46.251  16.711  1.00  0.00    +0.000 H 
ATOM    115  H7  UNL A   1      12.652  46.182  13.790  1.00  0.00    +0.000 H 
ATOM    116  H8  UNL A   1      14.040  46.848  14.718  1.00  0.00    +0.000 H 
ATOM    117  H9  UNL A   1      13.043  48.574  15.215  1.00  0.00    +0.000 H 
BRANCH    2    1
ATOM      1  C1  UNL A   1      10.761  45.290  17.506  1.00  0.00    +0.000 C 
ATOM    109  H1  UNL A   1       9.884  45.706  17.957  1.00  0.00    +0.000 H 
ATOM    110  H2  UNL A   1      11.572  45.327  18.202  1.00  0.00    +0.000 H 
ATOM    111  H3  UNL A   1      10.571  44.273  17.231  1.00  0.00    +0.000 H 
ENDBRANCH    2    1
ENDBRANCH    6    5
BRANCH    6    7
ATOM      7  C6  UNL A   1      12.750  50.245  13.405  1.00  0.00    +0.000 C 
ATOM      8  C7  UNL A   1      11.667  51.047  13.817  1.00  0.00    +0.000 C 
ATOM      9  C8  UNL A   1      11.822  52.425  13.980  1.00  0.00    +0.000 C 
ATOM     10  C9  UNL A   1      13.054  53.010  13.717  1.00  0.00    +0.000 C 
ATOM     11  F1  UNL A   1      13.198  54.335  13.864  1.00  0.00    +0.000 F 
ATOM     12  C10 UNL A   1      14.137  52.246  13.307  1.00  0.00    +0.000 C 
ATOM     13  C11 UNL A   1      13.992  50.865  13.164  1.00  0.00    +0.000 C 
ATOM    119  H11 UNL A   1      10.750  50.612  13.999  1.00  0.00    +0.000 H 
ATOM    120  H12 UNL A   1      11.027  53.003  14.294  1.00  0.00    +0.000 H 
ATOM    121  H13 UNL A   1      15.045  52.696  13.109  1.00  0.00    +0.000 H 
ATOM    122  H14 UNL A   1      14.802  50.293  12.881  1.00  0.00    +0.000 H 
ENDBRANCH    6    7
ENDBRANCH   14    6
BRANCH   96   97
ATOM     97  C72 UNL A   1      13.291  48.970  10.231  1.00  0.00    +0.000 C 
ATOM     98  C73 UNL A   1      13.454  50.152   9.493  1.00  0.00    +0.000 C 
ATOM     99  C74 UNL A   1      14.719  50.552   9.048  1.00  0.00    +0.000 C 
ATOM    161  H53 UNL A   1      14.326  47.294  10.994  1.00  0.00    +0.000 H 
ATOM    100  C75 UNL A   1      15.854  49.777   9.329  1.00  0.00    +0.000 C 
ATOM    101  C76 UNL A   1      17.213  50.213   8.844  1.00  0.00    +0.000 C 
ATOM    102  F17 UNL A   1      17.367  50.038   7.502  1.00  0.00    +0.000 F 
ATOM    103  F18 UNL A   1      17.462  51.531   9.080  1.00  0.00    +0.000 F 
ATOM    105  C77 UNL A   1      15.693  48.582  10.042  1.00  0.00    +0.000 C 
ATOM    106  C78 UNL A   1      14.428  48.182  10.479  1.00  0.00    +0.000 C 
ATOM    104  F19 UNL A   1      18.240  49.534   9.428  1.00  0.00    +0.000 F 
ATOM    158  H50 UNL A   1      12.630  50.734   9.275  1.00  0.00    +0.000 H 
ATOM    159  H51 UNL A   1      14.818  51.426   8.508  1.00  0.00    +0.000 H 
ATOM    160  H52 UNL A   1      16.516  47.992  10.246  1.00  0.00    +0.000 H 
ENDBRANCH   96   97
ENDBRANCH   18   17
BRANCH   18   19
ATOM     19  C17 UNL A   1       7.444  46.706   9.409  1.00  0.00    +0.000 C 
ATOM    126  H18 UNL A   1       7.670  45.663   9.332  1.00  0.00    +0.000 H 
ATOM    127  H19 UNL A   1       6.614  46.939   8.776  1.00  0.00    +0.000 H 
ATOM    128  H20 UNL A   1       7.197  46.943  10.423  1.00  0.00    +0.000 H 
ENDBRANCH   18   19
ENDBRANCH   20   18
ENDBRANCH   22   20
ENDBRANCH   23   22
ENDBRANCH   24   23
ENDBRANCH   25   24
ENDBRANCH   26   25
ENDBRANCH   27   26
ENDBRANCH   28   27
ENDBRANCH   29   28
ENDBRANCH   30   29
ENDBRANCH   32   30
ENDBRANCH   36   35
BRANCH   40   41
ATOM     41  C34 UNL A   1      12.376  48.069   5.316  1.00  0.00    +0.000 C 
ATOM     42  C35 UNL A   1      12.922  47.492   6.472  1.00  0.00    +0.000 C 
ATOM     43  F2  UNL A   1      14.100  47.919   6.951  1.00  0.00    +0.000 F 
ATOM     44  C36 UNL A   1      12.265  46.458   7.136  1.00  0.00    +0.000 C 
ATOM     45  F3  UNL A   1      12.817  45.904   8.224  1.00  0.00    +0.000 F 
ATOM     46  C37 UNL A   1      11.042  46.000   6.670  1.00  0.00    +0.000 C 
ATOM     47  F4  UNL A   1      10.404  45.015   7.317  1.00  0.00    +0.000 F 
ATOM     48  C38 UNL A   1      10.479  46.564   5.535  1.00  0.00    +0.000 C 
ATOM     49  F5  UNL A   1       9.287  46.138   5.097  1.00  0.00    +0.000 F 
ATOM     50  C39 UNL A   1      11.147  47.578   4.855  1.00  0.00    +0.000 C 
ATOM     51  F6  UNL A   1      10.580  48.103   3.758  1.00  0.00    +0.000 F 
ENDBRANCH   40   41
BRANCH   57   58
ATOM     65  C49 UNL A   1      18.451  47.011  -1.172  1.00  0.00    +0.000 C 
ATOM     66  F10 UNL A   1      19.685  46.504  -1.042  1.00  0.00    +0.000 F 
ATOM     67  C50 UNL A   1      17.993  47.965  -0.269  1.00  0.00    +0.000 C 
ATOM     68  F11 UNL A   1      18.801  48.358   0.729  1.00  0.00    +0.000 F 
ATOM     58  C45 UNL A   1      16.710  48.515  -0.393  1.00  0.00    +0.000 C 
ATOM     59  C46 UNL A   1      15.907  48.084  -1.459  1.00  0.00    +0.000 C 
ATOM     60  F7  UNL A   1      14.668  48.578  -1.615  1.00  0.00    +0.000 F 
ATOM     61  C47 UNL A   1      16.359  47.114  -2.348  1.00  0.00    +0.000 C 
ATOM     62  F8  UNL A   1      15.561  46.687  -3.337  1.00  0.00    +0.000 F 
ATOM     63  C48 UNL A   1      17.630  46.577  -2.204  1.00  0.00    +0.000 C 
ATOM     64  F9  UNL A   1      18.063  45.640  -3.058  1.00  0.00    +0.000 F 
ENDBRANCH   57   58
BRANCH   72   73
ATOM     73  C54 UNL A   1      17.471  55.354   0.806  1.00  0.00    +0.000 C 
ATOM     74  C55 UNL A   1      17.004  56.021  -0.336  1.00  0.00    +0.000 C 
ATOM     75  F12 UNL A   1      15.800  55.717  -0.844  1.00  0.00    +0.000 F 
ATOM     76  C56 UNL A   1      17.784  56.982  -0.976  1.00  0.00    +0.000 C 
ATOM     77  F13 UNL A   1      17.329  57.579  -2.087  1.00  0.00    +0.000 F 
ATOM     78  C57 UNL A   1      19.034  57.309  -0.476  1.00  0.00    +0.000 C 
ATOM     79  F14 UNL A   1      19.785  58.234  -1.092  1.00  0.00    +0.000 F 
ATOM     80  C58 UNL A   1      19.509  56.677   0.663  1.00  0.00    +0.000 C 
ATOM     81  F15 UNL A   1      20.710  57.003   1.161  1.00  0.00    +0.000 F 
ATOM     82  C59 UNL A   1      18.738  55.702   1.294  1.00  0.00    +0.000 C 
ATOM     83  F16 UNL A   1      19.219  55.103   2.393  1.00  0.00    +0.000 F 
ENDBRANCH   72   73
TORSDOF 22
ENDMDL
MODEL 2
REMARK VINA RESULT:      -9.3      1.268      7.229
ROOT
ATOM    145  H37 UNL A   1      18.347  53.043  -0.790  1.00  0.00    +0.000 H 
ATOM    146  H38 UNL A   1      17.784  50.590  -1.472  1.00  0.00    +0.000 H 
ATOM    147  H39 UNL A   1      15.620  51.523   1.934  1.00  0.00    +0.000 H 
ATOM    148  H40 UNL A   1      11.729  49.727   6.648  1.00  0.00    +0.000 H 
ATOM    149  H41 UNL A   1      12.202  52.147   7.256  1.00  0.00    +0.000 H 
ATOM    150  H42 UNL A   1      14.462  51.213   3.894  1.00  0.00    +0.000 H 
ATOM    151  H43 UNL A   1      13.120  46.521   2.609  1.00  0.00    +0.000 H 
ATOM    152  H44 UNL A   1      14.709  46.748   0.613  1.00  0.00    +0.000 H 
ATOM    153  H45 UNL A   1      16.664  56.281   3.134  1.00  0.00    +0.000 H 
ATOM    154  H46 UNL A   1      15.410  55.951   5.343  1.00  0.00    +0.000 H 
ATOM     36  C30 UNL A   1      14.045  53.455   5.517  1.00  0.00    +0.000 C 
ATOM     37  C31 UNL A   1      14.995  53.910   4.444  1.00  0.00    +0.000 C 
ATOM     38  N4  UNL A   1      15.402  53.276   3.373  1.00  0.00    +0.000 N 
ATOM     39  C32 UNL A   1      16.206  54.175   2.685  1.00  0.00    +0.000 C 
ATOM     40  C33 UNL A   1      16.898  53.980   1.538  1.00  0.00    +0.000 C 
ATOM     52  C40 UNL A   1      16.947  52.734   0.821  1.00  0.00    +0.000 C 
ATOM     53  C41 UNL A   1      17.690  52.415  -0.301  1.00  0.00    +0.000 C 
ATOM     54  C42 UNL A   1      17.398  51.096  -0.658  1.00  0.00    +0.000 C 
ATOM     55  C43 UNL A   1      16.502  50.580   0.264  1.00  0.00    +0.000 C 
ATOM     56  N5  UNL A   1      16.230  51.597   1.165  1.00  0.00    +0.000 N 
ATOM     57  C44 UNL A   1      15.933  49.258   0.316  1.00  0.00    +0.000 C 
ATOM     69  C51 UNL A   1      15.077  48.817   1.268  1.00  0.00    +0.000 C 
ATOM     70  N6  UNL A   1      14.580  49.497   2.372  1.00  0.00    +0.000 N 
ATOM     71  C52 UNL A   1      13.794  48.653   2.993  1.00  0.00    +0.000 C 
ATOM     72  C53 UNL A   1      13.002  48.854   4.253  1.00  0.00    +0.000 C 
ATOM     84  C60 UNL A   1      13.089  50.025   4.913  1.00  0.00    +0.000 C 
ATOM     85  C61 UNL A   1      12.351  50.364   6.128  1.00  0.00    +0.000 C 
ATOM     86  C62 UNL A   1      12.613  51.639   6.457  1.00  0.00    +0.000 C 
ATOM     87  C63 UNL A   1      13.575  52.193   5.504  1.00  0.00    +0.000 C 
ATOM     88  N7  UNL A   1      13.821  51.154   4.639  1.00  0.00    +0.000 N 
ATOM     89  C64 UNL A   1      13.686  47.341   2.336  1.00  0.00    +0.000 C 
ATOM     90  C65 UNL A   1      14.505  47.487   1.304  1.00  0.00    +0.000 C 
ATOM     91  C66 UNL A   1      16.203  55.409   3.439  1.00  0.00    +0.000 C 
ATOM     92  C67 UNL A   1      15.529  55.275   4.573  1.00  0.00    +0.000 C 
ENDROOT
BRANCH   36   35
ATOM     33  C27 UNL A   1      13.519  55.482   8.701  1.00  0.00    +0.000 C 
ATOM     34  C28 UNL A   1      14.113  54.627   7.764  1.00  0.00    +0.000 C 
ATOM     35  C29 UNL A   1      13.518  54.432   6.507  1.00  0.00    +0.000 C 
ATOM    143  H35 UNL A   1      13.944  55.604   9.633  1.00  0.00    +0.000 H 
ATOM    144  H36 UNL A   1      14.990  54.139   7.999  1.00  0.00    +0.000 H 
ATOM    155  H47 UNL A   1      11.939  55.050   5.246  1.00  0.00    +0.000 H 
ATOM    156  H48 UNL A   1      11.024  56.660   6.805  1.00  0.00    +0.000 H 
ATOM     93  C68 UNL A   1      12.375  55.172   6.174  1.00  0.00    +0.000 C 
ATOM     94  C69 UNL A   1      11.823  56.069   7.082  1.00  0.00    +0.000 C 
ATOM     32  C26 UNL A   1      12.349  56.169   8.370  1.00  0.00    +0.000 C 
BRANCH   32   30
ATOM     30  C25 UNL A   1      11.683  57.024   9.379  1.00  0.00    +0.000 C 
ATOM     31  O2  UNL A   1      11.492  58.204   9.148  1.00  0.00    +0.000 O 
BRANCH   30   29
ATOM     29  N3  UNL A   1      11.273  56.467  10.575  1.00  0.00    +0.000 N 
ATOM    142  H34 UNL A   1      11.850  56.656  11.350  1.00  0.00    +0.000 H 
BRANCH   29   28
ATOM    141  H33 UNL A   1       9.252  56.122  10.426  1.00  0.00    +0.000 H 
ATOM     28  C24 UNL A   1      10.107  55.639  10.849  1.00  0.00    +0.000 C 
ATOM    140  H32 UNL A   1      10.004  55.526  11.907  1.00  0.00    +0.000 H 
BRANCH   28   27
ATOM    138  H30 UNL A   1      11.215  54.159   9.808  1.00  0.00    +0.000 H 
ATOM     27  C23 UNL A   1      10.229  54.253  10.214  1.00  0.00    +0.000 C 
ATOM    139  H31 UNL A   1      10.023  53.548  10.991  1.00  0.00    +0.000 H 
BRANCH   27   26
ATOM    137  H29 UNL A   1       8.855  54.924   8.784  1.00  0.00    +0.000 H 
ATOM     26  C22 UNL A   1       9.223  53.968   9.093  1.00  0.00    +0.000 C 
ATOM    136  H28 UNL A   1       8.470  53.318   9.486  1.00  0.00    +0.000 H 
BRANCH   26   25
ATOM     25  C21 UNL A   1       9.797  53.314   7.829  1.00  0.00    +0.000 C 
ATOM    134  H26 UNL A   1      10.705  53.821   7.577  1.00  0.00    +0.000 H 
ATOM    135  H27 UNL A   1       9.934  52.280   8.067  1.00  0.00    +0.000 H 
BRANCH   25   24
ATOM    132  H24 UNL A   1       7.881  53.152   6.925  1.00  0.00    +0.000 H 
ATOM    133  H25 UNL A   1       8.998  54.315   6.162  1.00  0.00    +0.000 H 
ATOM     24  C20 UNL A   1       8.881  53.347   6.601  1.00  0.00    +0.000 C 
BRANCH   24   23
ATOM    130  H22 UNL A   1       8.917  52.707   4.565  1.00  0.00    +0.000 H 
ATOM    131  H23 UNL A   1      10.299  52.182   5.530  1.00  0.00    +0.000 H 
ATOM     23  C19 UNL A   1       9.239  52.328   5.511  1.00  0.00    +0.000 C 
BRANCH   23   22
ATOM    129  H21 UNL A   1       9.107  50.283   5.358  1.00  0.00    +0.000 H 
ATOM     22  N2  UNL A   1       8.608  51.041   5.740  1.00  0.00    +0.000 N 
BRANCH   22   20
ATOM     20  C18 UNL A   1       7.462  50.675   6.377  1.00  0.00    +0.000 C 
ATOM     21  O1  UNL A   1       6.423  50.754   5.707  1.00  0.00    +0.000 O 
BRANCH   20   18
ATOM     18  C16 UNL A   1       7.386  50.189   7.837  1.00  0.00    +0.000 C 
ATOM    125  H17 UNL A   1       6.696  49.372   7.824  1.00  0.00    +0.000 H 
BRANCH   18   17
ATOM     14  C12 UNL A   1      10.961  48.343   9.563  1.00  0.00    +0.000 C 
ATOM     15  C13 UNL A   1      10.121  47.666   8.662  1.00  0.00    +0.000 C 
ATOM     16  C14 UNL A   1       9.057  48.287   8.013  1.00  0.00    +0.000 C 
ATOM     17  C15 UNL A   1       8.688  49.582   8.331  1.00  0.00    +0.000 C 
ATOM    123  H15 UNL A   1      10.300  46.667   8.474  1.00  0.00    +0.000 H 
ATOM    124  H16 UNL A   1       8.538  47.774   7.284  1.00  0.00    +0.000 H 
ATOM    157  H49 UNL A   1       9.333  51.294   9.369  1.00  0.00    +0.000 H 
ATOM     95  C70 UNL A   1       9.555  50.308   9.159  1.00  0.00    +0.000 C 
ATOM     96  C71 UNL A   1      10.726  49.737   9.722  1.00  0.00    +0.000 C 
BRANCH   14    6
ATOM    118  H10 UNL A   1      11.976  46.620   9.897  1.00  0.00    +0.000 H 
ATOM      6  C5  UNL A   1      12.117  47.602  10.298  1.00  0.00    +0.000 C 
BRANCH    6    5
ATOM      2  C2  UNL A   1      11.043  45.940  14.099  1.00  0.00    +0.000 C 
ATOM      3  C3  UNL A   1      12.529  45.905  13.755  1.00  0.00    +0.000 C 
ATOM      4  C4  UNL A   1      12.799  46.309  12.301  1.00  0.00    +0.000 C 
ATOM    164  H56 UNL A   1      11.106  48.048  14.400  1.00  0.00    +0.000 H 
ATOM    165  H57 UNL A   1       9.503  47.408  14.092  1.00  0.00    +0.000 H 
ATOM    162  H54 UNL A   1       9.980  47.087  11.797  1.00  0.00    +0.000 H 
ATOM    163  H55 UNL A   1      10.514  48.732  12.253  1.00  0.00    +0.000 H 
ATOM      5  N1  UNL A   1      12.015  47.432  11.784  1.00  0.00    +0.000 N 
ATOM    107  C79 UNL A   1      10.685  47.680  12.342  1.00  0.00    +0.000 C 
ATOM    108  C80 UNL A   1      10.537  47.349  13.823  1.00  0.00    +0.000 C 
ATOM    112  H4  UNL A   1      10.514  45.229  13.500  1.00  0.00    +0.000 H 
ATOM    113  H5  UNL A   1      12.895  44.913  13.910  1.00  0.00    +0.000 H 
ATOM    114  H6  UNL A   1      13.028  46.609  14.388  1.00  0.00    +0.000 H 
ATOM    115  H7  UNL A   1      12.598  45.458  11.685  1.00  0.00    +0.000 H 
ATOM    116  H8  UNL A   1      13.817  46.638  12.281  1.00  0.00    +0.000 H 
ATOM    117  H9  UNL A   1      12.509  48.220  12.200  1.00  0.00    +0.000 H 
BRANCH    2    1
ATOM      1  C1  UNL A   1      10.801  45.557  15.551  1.00  0.00    +0.000 C 
ATOM    109  H1  UNL A   1      11.502  46.070  16.176  1.00  0.00    +0.000 H 
ATOM    110  H2  UNL A   1      10.927  44.500  15.666  1.00  0.00    +0.000 H 
ATOM    111  H3  UNL A   1       9.806  45.830  15.832  1.00  0.00    +0.000 H 
ENDBRANCH    2    1
ENDBRANCH    6    5
BRANCH    6    7
ATOM      7  C6  UNL A   1      13.524  48.125   9.939  1.00  0.00    +0.000 C 
ATOM      8  C7  UNL A   1      14.440  48.541  10.926  1.00  0.00    +0.000 C 
ATOM      9  C8  UNL A   1      15.710  48.999  10.570  1.00  0.00    +0.000 C 
ATOM     10  C9  UNL A   1      16.065  49.058   9.229  1.00  0.00    +0.000 C 
ATOM     11  F1  UNL A   1      17.281  49.508   8.889  1.00  0.00    +0.000 F 
ATOM     12  C10 UNL A   1      15.182  48.658   8.236  1.00  0.00    +0.000 C 
ATOM     13  C11 UNL A   1      13.919  48.178   8.589  1.00  0.00    +0.000 C 
ATOM    119  H11 UNL A   1      14.170  48.508  11.921  1.00  0.00    +0.000 H 
ATOM    120  H12 UNL A   1      16.380  49.290  11.299  1.00  0.00    +0.000 H 
ATOM    121  H13 UNL A   1      15.458  48.713   7.242  1.00  0.00    +0.000 H 
ATOM    122  H14 UNL A   1      13.270  47.860   7.853  1.00  0.00    +0.000 H 
ENDBRANCH    6    7
ENDBRANCH   14    6
BRANCH   96   97
ATOM     97  C72 UNL A   1      11.668  50.649  10.399  1.00  0.00    +0.000 C 
ATOM     98  C73 UNL A   1      12.684  51.311   9.695  1.00  0.00    +0.000 C 
ATOM     99  C74 UNL A   1      13.572  52.169  10.353  1.00  0.00    +0.000 C 
ATOM    161  H53 UNL A   1      10.869  50.344  12.331  1.00  0.00    +0.000 H 
ATOM    100  C75 UNL A   1      13.466  52.385  11.734  1.00  0.00    +0.000 C 
ATOM    101  C76 UNL A   1      14.428  53.310  12.437  1.00  0.00    +0.000 C 
ATOM    102  F17 UNL A   1      15.669  52.765  12.569  1.00  0.00    +0.000 F 
ATOM    103  F18 UNL A   1      14.605  54.489  11.779  1.00  0.00    +0.000 F 
ATOM    105  C77 UNL A   1      12.470  51.706  12.448  1.00  0.00    +0.000 C 
ATOM    106  C78 UNL A   1      11.589  50.845  11.789  1.00  0.00    +0.000 C 
ATOM    104  F19 UNL A   1      14.034  53.646  13.697  1.00  0.00    +0.000 F 
ATOM    158  H50 UNL A   1      12.779  51.162   8.678  1.00  0.00    +0.000 H 
ATOM    159  H51 UNL A   1      14.312  52.648   9.816  1.00  0.00    +0.000 H 
ATOM    160  H52 UNL A   1      12.386  51.843  13.468  1.00  0.00    +0.000 H 
ENDBRANCH   96   97
ENDBRANCH   18   17
BRANCH   18   19
ATOM     19  C17 UNL A   1       6.717  51.166   8.802  1.00  0.00    +0.000 C 
ATOM    126  H18 UNL A   1       7.372  51.357   9.627  1.00  0.00    +0.000 H 
ATOM    127  H19 UNL A   1       5.803  50.742   9.163  1.00  0.00    +0.000 H 
ATOM    128  H20 UNL A   1       6.508  52.084   8.293  1.00  0.00    +0.000 H 
ENDBRANCH   18   19
ENDBRANCH   20   18
ENDBRANCH   22   20
ENDBRANCH   23   22
ENDBRANCH   24   23
ENDBRANCH   25   24
ENDBRANCH   26   25
ENDBRANCH   27   26
ENDBRANCH   28   27
ENDBRANCH   29   28
ENDBRANCH   30   29
ENDBRANCH   32   30
ENDBRANCH   36   35
BRANCH   40   41
ATOM     41  C34 UNL A   1      17.675  55.137   0.984  1.00  0.00    +0.000 C 
ATOM     42  C35 UNL A   1      17.198  55.846  -0.129  1.00  0.00    +0.000 C 
ATOM     43  F2  UNL A   1      16.017  55.526  -0.680  1.00  0.00    +0.000 F 
ATOM     44  C36 UNL A   1      17.942  56.879  -0.694  1.00  0.00    +0.000 C 
ATOM     45  F3  UNL A   1      17.479  57.526  -1.772  1.00  0.00    +0.000 F 
ATOM     46  C37 UNL A   1      19.163  57.238  -0.142  1.00  0.00    +0.000 C 
ATOM     47  F4  UNL A   1      19.871  58.242  -0.676  1.00  0.00    +0.000 F 
ATOM     48  C38 UNL A   1      19.648  56.559   0.966  1.00  0.00    +0.000 C 
ATOM     49  F5  UNL A   1      20.816  56.919   1.514  1.00  0.00    +0.000 F 
ATOM     50  C39 UNL A   1      18.919  55.508   1.514  1.00  0.00    +0.000 C 
ATOM     51  F6  UNL A   1      19.414  54.866   2.584  1.00  0.00    +0.000 F 
ENDBRANCH   40   41
BRANCH   57   58
ATOM     65  C49 UNL A   1      15.941  47.274  -2.931  1.00  0.00    +0.000 C 
ATOM     66  F10 UNL A   1      15.135  47.058  -3.980  1.00  0.00    +0.000 F 
ATOM     67  C50 UNL A   1      15.509  48.072  -1.876  1.00  0.00    +0.000 C 
ATOM     68  F11 UNL A   1      14.285  48.619  -1.932  1.00  0.00    +0.000 F 
ATOM     58  C45 UNL A   1      16.332  48.302  -0.765  1.00  0.00    +0.000 C 
ATOM     59  C46 UNL A   1      17.599  47.699  -0.745  1.00  0.00    +0.000 C 
ATOM     60  F7  UNL A   1      18.424  47.896   0.295  1.00  0.00    +0.000 F 
ATOM     61  C47 UNL A   1      18.036  46.919  -1.810  1.00  0.00    +0.000 C 
ATOM     62  F8  UNL A   1      19.265  46.383  -1.789  1.00  0.00    +0.000 F 
ATOM     63  C48 UNL A   1      17.209  46.708  -2.903  1.00  0.00    +0.000 C 
ATOM     64  F9  UNL A   1      17.632  45.961  -3.932  1.00  0.00    +0.000 F 
ENDBRANCH   57   58
BRANCH   72   73
ATOM     73  C54 UNL A   1      12.150  47.771   4.804  1.00  0.00    +0.000 C 
ATOM     74  C55 UNL A   1      12.693  46.720   5.557  1.00  0.00    +0.000 C 
ATOM     75  F12 UNL A   1      14.006  46.700   5.831  1.00  0.00    +0.000 F 
ATOM     76  C56 UNL A   1      11.893  45.671   6.006  1.00  0.00    +0.000 C 
ATOM     77  F13 UNL A   1      12.442  44.660   6.694  1.00  0.00    +0.000 F 
ATOM     78  C57 UNL A   1      10.534  45.664   5.730  1.00  0.00    +0.000 C 
ATOM     79  F14 UNL A   1       9.765  44.655   6.162  1.00  0.00    +0.000 F 
ATOM     80  C58 UNL A   1       9.972  46.704   5.003  1.00  0.00    +0.000 C 
ATOM     81  F15 UNL A   1       8.656  46.710   4.749  1.00  0.00    +0.000 F 
ATOM     82  C59 UNL A   1      10.774  47.743   4.537  1.00  0.00    +0.000 C 
ATOM     83  F16 UNL A   1      10.209  48.736   3.835  1.00  0.00    +0.000 F 
ENDBRANCH   72   73
TORSDOF 22
ENDMDL
MODEL 3
REMARK VINA RESULT:      -9.2     22.561     30.832
ROOT
ATOM    145  H37 UNL A   1      20.050  31.241  -0.425  1.00  0.00    +0.000 H 
ATOM    146  H38 UNL A   1      17.500  31.755  -0.606  1.00  0.00    +0.000 H 
ATOM    147  H39 UNL A   1      18.094  27.770  -1.564  1.00  0.00    +0.000 H 
ATOM    148  H40 UNL A   1      15.792  22.207  -3.648  1.00  0.00    +0.000 H 
ATOM    149  H41 UNL A   1      18.262  21.680  -3.378  1.00  0.00    +0.000 H 
ATOM    150  H42 UNL A   1      17.715  25.708  -2.505  1.00  0.00    +0.000 H 
ATOM    151  H43 UNL A   1      12.733  26.485  -2.719  1.00  0.00    +0.000 H 
ATOM    152  H44 UNL A   1      13.207  28.903  -2.020  1.00  0.00    +0.000 H 
ATOM    153  H45 UNL A   1      22.997  26.816  -1.099  1.00  0.00    +0.000 H 
ATOM    154  H46 UNL A   1      22.608  24.525  -2.178  1.00  0.00    +0.000 H 
ATOM     36  C30 UNL A   1      19.854  23.904  -2.571  1.00  0.00    +0.000 C 
ATOM     37  C31 UNL A   1      20.445  25.209  -2.113  1.00  0.00    +0.000 C 
ATOM     38  N4  UNL A   1      19.843  26.329  -1.800  1.00  0.00    +0.000 N 
ATOM     39  C32 UNL A   1      20.844  27.187  -1.367  1.00  0.00    +0.000 C 
ATOM     40  C33 UNL A   1      20.736  28.479  -0.976  1.00  0.00    +0.000 C 
ATOM     52  C40 UNL A   1      19.507  29.228  -0.977  1.00  0.00    +0.000 C 
ATOM     53  C41 UNL A   1      19.313  30.565  -0.682  1.00  0.00    +0.000 C 
ATOM     54  C42 UNL A   1      17.948  30.843  -0.792  1.00  0.00    +0.000 C 
ATOM     55  C43 UNL A   1      17.296  29.688  -1.193  1.00  0.00    +0.000 C 
ATOM     56  N5  UNL A   1      18.264  28.703  -1.299  1.00  0.00    +0.000 N 
ATOM     57  C44 UNL A   1      15.892  29.498  -1.454  1.00  0.00    +0.000 C 
ATOM     69  C51 UNL A   1      15.329  28.339  -1.869  1.00  0.00    +0.000 C 
ATOM     70  N6  UNL A   1      15.943  27.123  -2.138  1.00  0.00    +0.000 N 
ATOM     71  C52 UNL A   1      14.985  26.309  -2.509  1.00  0.00    +0.000 C 
ATOM     72  C53 UNL A   1      15.080  24.870  -2.926  1.00  0.00    +0.000 C 
ATOM     84  C60 UNL A   1      16.286  24.273  -2.988  1.00  0.00    +0.000 C 
ATOM     85  C61 UNL A   1      16.517  22.875  -3.346  1.00  0.00    +0.000 C 
ATOM     86  C62 UNL A   1      17.825  22.602  -3.218  1.00  0.00    +0.000 C 
ATOM     87  C63 UNL A   1      18.532  23.817  -2.814  1.00  0.00    +0.000 C 
ATOM     88  N7  UNL A   1      17.541  24.765  -2.729  1.00  0.00    +0.000 N 
ATOM     89  C64 UNL A   1      13.645  26.916  -2.496  1.00  0.00    +0.000 C 
ATOM     90  C65 UNL A   1      13.914  28.159  -2.120  1.00  0.00    +0.000 C 
ATOM     91  C66 UNL A   1      22.088  26.452  -1.424  1.00  0.00    +0.000 C 
ATOM     92  C67 UNL A   1      21.907  25.248  -1.948  1.00  0.00    +0.000 C 
ENDROOT
BRANCH   36   35
ATOM     33  C27 UNL A   1      22.097  20.990  -1.571  1.00  0.00    +0.000 C 
ATOM     34  C28 UNL A   1      21.222  22.079  -1.465  1.00  0.00    +0.000 C 
ATOM     35  C29 UNL A   1      20.699  22.682  -2.621  1.00  0.00    +0.000 C 
ATOM    143  H35 UNL A   1      22.500  20.565  -0.722  1.00  0.00    +0.000 H 
ATOM    144  H36 UNL A   1      20.962  22.439  -0.535  1.00  0.00    +0.000 H 
ATOM    155  H47 UNL A   1      20.601  22.546  -4.727  1.00  0.00    +0.000 H 
ATOM    156  H48 UNL A   1      21.968  20.555  -4.888  1.00  0.00    +0.000 H 
ATOM     93  C68 UNL A   1      20.994  22.122  -3.872  1.00  0.00    +0.000 C 
ATOM     94  C69 UNL A   1      21.812  21.002  -3.972  1.00  0.00    +0.000 C 
ATOM     32  C26 UNL A   1      22.423  20.482  -2.831  1.00  0.00    +0.000 C 
BRANCH   32   30
ATOM     30  C25 UNL A   1      23.396  19.373  -2.951  1.00  0.00    +0.000 C 
ATOM     31  O2  UNL A   1      23.164  18.298  -2.428  1.00  0.00    +0.000 O 
BRANCH   30   29
ATOM     29  N3  UNL A   1      24.560  19.568  -3.669  1.00  0.00    +0.000 N 
ATOM    142  H34 UNL A   1      24.491  19.411  -4.639  1.00  0.00    +0.000 H 
BRANCH   29   28
ATOM    141  H33 UNL A   1      25.898  21.041  -3.153  1.00  0.00    +0.000 H 
ATOM     28  C24 UNL A   1      25.875  19.972  -3.192  1.00  0.00    +0.000 C 
ATOM    140  H32 UNL A   1      26.617  19.594  -3.863  1.00  0.00    +0.000 H 
BRANCH   28   27
ATOM    138  H30 UNL A   1      25.408  19.821  -1.129  1.00  0.00    +0.000 H 
ATOM     27  C23 UNL A   1      26.161  19.442  -1.787  1.00  0.00    +0.000 C 
ATOM    139  H31 UNL A   1      26.159  18.375  -1.863  1.00  0.00    +0.000 H 
BRANCH   27   26
ATOM    137  H29 UNL A   1      27.930  18.936  -0.788  1.00  0.00    +0.000 H 
ATOM     26  C22 UNL A   1      27.531  19.831  -1.219  1.00  0.00    +0.000 C 
ATOM    136  H28 UNL A   1      27.381  20.624  -0.516  1.00  0.00    +0.000 H 
BRANCH   26   25
ATOM     25  C21 UNL A   1      28.572  20.301  -2.244  1.00  0.00    +0.000 C 
ATOM    134  H26 UNL A   1      29.493  19.796  -2.034  1.00  0.00    +0.000 H 
ATOM    135  H27 UNL A   1      28.165  20.070  -3.206  1.00  0.00    +0.000 H 
BRANCH   25   24
ATOM    132  H24 UNL A   1      28.480  22.220  -1.338  1.00  0.00    +0.000 H 
ATOM    133  H25 UNL A   1      29.907  21.920  -2.366  1.00  0.00    +0.000 H 
ATOM     24  C20 UNL A   1      28.850  21.807  -2.252  1.00  0.00    +0.000 C 
BRANCH   24   23
ATOM    130  H22 UNL A   1      27.780  21.861  -4.099  1.00  0.00    +0.000 H 
ATOM    131  H23 UNL A   1      27.452  23.215  -3.015  1.00  0.00    +0.000 H 
ATOM     23  C19 UNL A   1      28.203  22.568  -3.418  1.00  0.00    +0.000 C 
BRANCH   23   22
ATOM    129  H21 UNL A   1      29.318  24.268  -3.716  1.00  0.00    +0.000 H 
ATOM     22  N2  UNL A   1      29.163  23.389  -4.132  1.00  0.00    +0.000 N 
BRANCH   22   20
ATOM     20  C18 UNL A   1      29.893  23.184  -5.263  1.00  0.00    +0.000 C 
ATOM     21  O1  UNL A   1      31.113  23.375  -5.160  1.00  0.00    +0.000 O 
BRANCH   20   18
ATOM     18  C16 UNL A   1      29.306  22.751  -6.620  1.00  0.00    +0.000 C 
ATOM    125  H17 UNL A   1      28.671  21.919  -6.396  1.00  0.00    +0.000 H 
BRANCH   18   17
ATOM     14  C12 UNL A   1      26.420  25.709  -8.067  1.00  0.00    +0.000 C 
ATOM     15  C13 UNL A   1      27.604  26.071  -7.400  1.00  0.00    +0.000 C 
ATOM     16  C14 UNL A   1      28.584  25.146  -7.052  1.00  0.00    +0.000 C 
ATOM     17  C15 UNL A   1      28.376  23.789  -7.225  1.00  0.00    +0.000 C 
ATOM    123  H15 UNL A   1      27.753  27.063  -7.160  1.00  0.00    +0.000 H 
ATOM    124  H16 UNL A   1      29.479  25.478  -6.659  1.00  0.00    +0.000 H 
ATOM    157  H49 UNL A   1      27.096  22.402  -8.153  1.00  0.00    +0.000 H 
ATOM     95  C70 UNL A   1      27.247  23.405  -7.961  1.00  0.00    +0.000 C 
ATOM     96  C71 UNL A   1      26.302  24.344  -8.451  1.00  0.00    +0.000 C 
BRANCH   14    6
ATOM    118  H10 UNL A   1      24.956  26.349  -9.315  1.00  0.00    +0.000 H 
ATOM      6  C5  UNL A   1      25.330  26.769  -8.405  1.00  0.00    +0.000 C 
BRANCH    6    5
ATOM      2  C2  UNL A   1      25.176  30.976  -9.207  1.00  0.00    +0.000 C 
ATOM      3  C3  UNL A   1      25.985  30.562  -7.981  1.00  0.00    +0.000 C 
ATOM      4  C4  UNL A   1      25.806  29.079  -7.639  1.00  0.00    +0.000 C 
ATOM    164  H56 UNL A   1      26.666  30.203 -10.519  1.00  0.00    +0.000 H 
ATOM    165  H57 UNL A   1      25.084  30.390 -11.250  1.00  0.00    +0.000 H 
ATOM    162  H54 UNL A   1      24.233  28.511 -10.090  1.00  0.00    +0.000 H 
ATOM    163  H55 UNL A   1      25.806  28.057 -10.809  1.00  0.00    +0.000 H 
ATOM      5  N1  UNL A   1      25.779  28.151  -8.772  1.00  0.00    +0.000 N 
ATOM    107  C79 UNL A   1      25.296  28.633 -10.066  1.00  0.00    +0.000 C 
ATOM    108  C80 UNL A   1      25.612  30.093 -10.368  1.00  0.00    +0.000 C 
ATOM    112  H4  UNL A   1      24.131  30.849  -9.013  1.00  0.00    +0.000 H 
ATOM    113  H5  UNL A   1      25.668  31.148  -7.145  1.00  0.00    +0.000 H 
ATOM    114  H6  UNL A   1      27.020  30.724  -8.202  1.00  0.00    +0.000 H 
ATOM    115  H7  UNL A   1      24.882  28.976  -7.110  1.00  0.00    +0.000 H 
ATOM    116  H8  UNL A   1      26.672  28.810  -7.071  1.00  0.00    +0.000 H 
ATOM    117  H9  UNL A   1      26.772  28.084  -8.990  1.00  0.00    +0.000 H 
BRANCH    2    1
ATOM      1  C1  UNL A   1      25.385  32.445  -9.539  1.00  0.00    +0.000 C 
ATOM    109  H1  UNL A   1      24.920  32.668 -10.476  1.00  0.00    +0.000 H 
ATOM    110  H2  UNL A   1      26.433  32.650  -9.603  1.00  0.00    +0.000 H 
ATOM    111  H3  UNL A   1      24.949  33.050  -8.772  1.00  0.00    +0.000 H 
ENDBRANCH    2    1
ENDBRANCH    6    5
BRANCH    6    7
ATOM      7  C6  UNL A   1      24.200  26.859  -7.359  1.00  0.00    +0.000 C 
ATOM      8  C7  UNL A   1      24.351  26.359  -6.050  1.00  0.00    +0.000 C 
ATOM      9  C8  UNL A   1      23.314  26.466  -5.122  1.00  0.00    +0.000 C 
ATOM     10  C9  UNL A   1      22.116  27.058  -5.499  1.00  0.00    +0.000 C 
ATOM     11  F1  UNL A   1      21.118  27.151  -4.610  1.00  0.00    +0.000 F 
ATOM     12  C10 UNL A   1      21.938  27.558  -6.782  1.00  0.00    +0.000 C 
ATOM     13  C11 UNL A   1      22.980  27.472  -7.706  1.00  0.00    +0.000 C 
ATOM    119  H11 UNL A   1      25.237  25.907  -5.775  1.00  0.00    +0.000 H 
ATOM    120  H12 UNL A   1      23.438  26.108  -4.162  1.00  0.00    +0.000 H 
ATOM    121  H13 UNL A   1      21.040  27.990  -7.051  1.00  0.00    +0.000 H 
ATOM    122  H14 UNL A   1      22.857  27.862  -8.653  1.00  0.00    +0.000 H 
ENDBRANCH    6    7
ENDBRANCH   14    6
BRANCH   96   97
ATOM     97  C72 UNL A   1      25.276  23.849  -9.388  1.00  0.00    +0.000 C 
ATOM     98  C73 UNL A   1      23.907  24.040  -9.149  1.00  0.00    +0.000 C 
ATOM     99  C74 UNL A   1      22.947  23.559 -10.046  1.00  0.00    +0.000 C 
ATOM    161  H53 UNL A   1      26.653  22.952 -10.717  1.00  0.00    +0.000 H 
ATOM    100  C75 UNL A   1      23.333  22.873 -11.207  1.00  0.00    +0.000 C 
ATOM    101  C76 UNL A   1      22.293  22.357 -12.167  1.00  0.00    +0.000 C 
ATOM    102  F17 UNL A   1      21.635  21.266 -11.684  1.00  0.00    +0.000 F 
ATOM    103  F18 UNL A   1      21.331  23.278 -12.453  1.00  0.00    +0.000 F 
ATOM    105  C77 UNL A   1      24.697  22.656 -11.438  1.00  0.00    +0.000 C 
ATOM    106  C78 UNL A   1      25.653  23.131 -10.537  1.00  0.00    +0.000 C 
ATOM    104  F19 UNL A   1      22.808  21.977 -13.371  1.00  0.00    +0.000 F 
ATOM    158  H50 UNL A   1      23.604  24.540  -8.299  1.00  0.00    +0.000 H 
ATOM    159  H51 UNL A   1      21.945  23.712  -9.852  1.00  0.00    +0.000 H 
ATOM    160  H52 UNL A   1      24.999  22.140 -12.281  1.00  0.00    +0.000 H 
ENDBRANCH   96   97
ENDBRANCH   18   17
BRANCH   18   19
ATOM     19  C17 UNL A   1      30.316  22.139  -7.588  1.00  0.00    +0.000 C 
ATOM    126  H18 UNL A   1      30.081  21.107  -7.744  1.00  0.00    +0.000 H 
ATOM    127  H19 UNL A   1      31.300  22.223  -7.178  1.00  0.00    +0.000 H 
ATOM    128  H20 UNL A   1      30.274  22.659  -8.523  1.00  0.00    +0.000 H 
ENDBRANCH   18   19
ENDBRANCH   20   18
ENDBRANCH   22   20
ENDBRANCH   23   22
ENDBRANCH   24   23
ENDBRANCH   25   24
ENDBRANCH   26   25
ENDBRANCH   27   26
ENDBRANCH   28   27
ENDBRANCH   29   28
ENDBRANCH   30   29
ENDBRANCH   32   30
ENDBRANCH   36   35
BRANCH   40   41
ATOM     41  C34 UNL A   1      21.982  29.181  -0.524  1.00  0.00    +0.000 C 
ATOM     42  C35 UNL A   1      22.911  29.654  -1.463  1.00  0.00    +0.000 C 
ATOM     43  F2  UNL A   1      22.669  29.528  -2.777  1.00  0.00    +0.000 F 
ATOM     44  C36 UNL A   1      24.103  30.247  -1.055  1.00  0.00    +0.000 C 
ATOM     45  F3  UNL A   1      24.987  30.670  -1.970  1.00  0.00    +0.000 F 
ATOM     46  C37 UNL A   1      24.377  30.400   0.295  1.00  0.00    +0.000 C 
ATOM     47  F4  UNL A   1      25.518  30.984   0.686  1.00  0.00    +0.000 F 
ATOM     48  C38 UNL A   1      23.468  29.949   1.241  1.00  0.00    +0.000 C 
ATOM     49  F5  UNL A   1      23.721  30.115   2.545  1.00  0.00    +0.000 F 
ATOM     50  C39 UNL A   1      22.289  29.330   0.835  1.00  0.00    +0.000 C 
ATOM     51  F6  UNL A   1      21.429  28.901   1.772  1.00  0.00    +0.000 F 
ENDBRANCH   40   41
BRANCH   57   58
ATOM     65  C49 UNL A   1      14.097  32.445   0.148  1.00  0.00    +0.000 C 
ATOM     66  F10 UNL A   1      13.945  32.992   1.362  1.00  0.00    +0.000 F 
ATOM     67  C50 UNL A   1      14.835  31.276  -0.000  1.00  0.00    +0.000 C 
ATOM     68  F11 UNL A   1      15.393  30.715   1.084  1.00  0.00    +0.000 F 
ATOM     58  C45 UNL A   1      14.997  30.683  -1.260  1.00  0.00    +0.000 C 
ATOM     59  C46 UNL A   1      14.386  31.297  -2.363  1.00  0.00    +0.000 C 
ATOM     60  F7  UNL A   1      14.518  30.769  -3.590  1.00  0.00    +0.000 F 
ATOM     61  C47 UNL A   1      13.665  32.478  -2.215  1.00  0.00    +0.000 C 
ATOM     62  F8  UNL A   1      13.122  33.070  -3.288  1.00  0.00    +0.000 F 
ATOM     63  C48 UNL A   1      13.522  33.052  -0.961  1.00  0.00    +0.000 C 
ATOM     64  F9  UNL A   1      12.833  34.193  -0.820  1.00  0.00    +0.000 F 
ENDBRANCH   57   58
BRANCH   72   73
ATOM     73  C54 UNL A   1      13.868  24.100  -3.306  1.00  0.00    +0.000 C 
ATOM     74  C55 UNL A   1      13.231  24.295  -4.540  1.00  0.00    +0.000 C 
ATOM     75  F12 UNL A   1      13.739  25.162  -5.428  1.00  0.00    +0.000 F 
ATOM     76  C56 UNL A   1      12.053  23.619  -4.854  1.00  0.00    +0.000 C 
ATOM     77  F13 UNL A   1      11.444  23.849  -6.025  1.00  0.00    +0.000 F 
ATOM     78  C57 UNL A   1      11.503  22.723  -3.951  1.00  0.00    +0.000 C 
ATOM     79  F14 UNL A   1      10.370  22.073  -4.253  1.00  0.00    +0.000 F 
ATOM     80  C58 UNL A   1      12.127  22.500  -2.732  1.00  0.00    +0.000 C 
ATOM     81  F15 UNL A   1      11.609  21.621  -1.863  1.00  0.00    +0.000 F 
ATOM     82  C59 UNL A   1      13.294  23.189  -2.409  1.00  0.00    +0.000 C 
ATOM     83  F16 UNL A   1      13.879  22.959  -1.224  1.00  0.00    +0.000 F 
ENDBRANCH   72   73
TORSDOF 22
ENDMDL
MODEL 4
REMARK VINA RESULT:      -8.9     27.168     32.444
ROOT
ATOM    145  H37 UNL A   1      17.964  27.320  -2.971  1.00  0.00    +0.000 H 
ATOM    146  H38 UNL A   1      15.549  26.460  -3.445  1.00  0.00    +0.000 H 
ATOM    147  H39 UNL A   1      17.435  23.734  -0.962  1.00  0.00    +0.000 H 
ATOM    148  H40 UNL A   1      17.427  18.138   2.083  1.00  0.00    +0.000 H 
ATOM    149  H41 UNL A   1      19.745  19.023   2.624  1.00  0.00    +0.000 H 
ATOM    150  H42 UNL A   1      17.917  21.731   0.054  1.00  0.00    +0.000 H 
ATOM    151  H43 UNL A   1      13.215  20.020  -0.610  1.00  0.00    +0.000 H 
ATOM    152  H44 UNL A   1      12.799  22.093  -2.055  1.00  0.00    +0.000 H 
ATOM    153  H45 UNL A   1      22.034  25.492  -0.002  1.00  0.00    +0.000 H 
ATOM    154  H46 UNL A   1      22.610  23.254   1.104  1.00  0.00    +0.000 H 
ATOM     36  C30 UNL A   1      20.372  21.511   1.380  1.00  0.00    +0.000 C 
ATOM     37  C31 UNL A   1      20.430  22.823   0.646  1.00  0.00    +0.000 C 
ATOM     38  N4  UNL A   1      19.487  23.444  -0.017  1.00  0.00    +0.000 N 
ATOM     39  C32 UNL A   1      20.046  24.647  -0.427  1.00  0.00    +0.000 C 
ATOM     40  C33 UNL A   1      19.488  25.622  -1.183  1.00  0.00    +0.000 C 
ATOM     52  C40 UNL A   1      18.166  25.555  -1.746  1.00  0.00    +0.000 C 
ATOM     53  C41 UNL A   1      17.546  26.453  -2.596  1.00  0.00    +0.000 C 
ATOM     54  C42 UNL A   1      16.256  25.985  -2.861  1.00  0.00    +0.000 C 
ATOM     55  C43 UNL A   1      16.086  24.777  -2.206  1.00  0.00    +0.000 C 
ATOM     56  N5  UNL A   1      17.263  24.526  -1.522  1.00  0.00    +0.000 N 
ATOM     57  C44 UNL A   1      14.930  23.917  -2.202  1.00  0.00    +0.000 C 
ATOM     69  C51 UNL A   1      14.846  22.731  -1.554  1.00  0.00    +0.000 C 
ATOM     70  N6  UNL A   1      15.810  22.089  -0.788  1.00  0.00    +0.000 N 
ATOM     71  C52 UNL A   1      15.260  20.974  -0.375  1.00  0.00    +0.000 C 
ATOM     72  C53 UNL A   1      15.853  19.891   0.479  1.00  0.00    +0.000 C 
ATOM     84  C60 UNL A   1      17.134  19.990   0.886  1.00  0.00    +0.000 C 
ATOM     85  C61 UNL A   1      17.823  19.027   1.743  1.00  0.00    +0.000 C 
ATOM     86  C62 UNL A   1      19.053  19.489   2.016  1.00  0.00    +0.000 C 
ATOM     87  C63 UNL A   1      19.258  20.756   1.315  1.00  0.00    +0.000 C 
ATOM     88  N7  UNL A   1      18.074  20.961   0.647  1.00  0.00    +0.000 N 
ATOM     89  C64 UNL A   1      13.869  20.792  -0.817  1.00  0.00    +0.000 C 
ATOM     90  C65 UNL A   1      13.674  21.880  -1.551  1.00  0.00    +0.000 C 
ATOM     91  C66 UNL A   1      21.397  24.686   0.090  1.00  0.00    +0.000 C 
ATOM     92  C67 UNL A   1      21.708  23.550   0.698  1.00  0.00    +0.000 C 
ENDROOT
BRANCH   36   35
ATOM     33  C27 UNL A   1      22.576  21.079   4.459  1.00  0.00    +0.000 C 
ATOM     34  C28 UNL A   1      21.461  21.378   3.665  1.00  0.00    +0.000 C 
ATOM     35  C29 UNL A   1      21.483  21.116   2.286  1.00  0.00    +0.000 C 
ATOM    143  H35 UNL A   1      22.567  21.296   5.467  1.00  0.00    +0.000 H 
ATOM    144  H36 UNL A   1      20.621  21.792   4.097  1.00  0.00    +0.000 H 
ATOM    155  H47 UNL A   1      22.619  20.258   0.725  1.00  0.00    +0.000 H 
ATOM    156  H48 UNL A   1      24.466  19.582   2.136  1.00  0.00    +0.000 H 
ATOM     93  C68 UNL A   1      22.599  20.472   1.735  1.00  0.00    +0.000 C 
ATOM     94  C69 UNL A   1      23.680  20.118   2.535  1.00  0.00    +0.000 C 
ATOM     32  C26 UNL A   1      23.701  20.488   3.880  1.00  0.00    +0.000 C 
BRANCH   32   30
ATOM     30  C25 UNL A   1      24.905  20.229   4.701  1.00  0.00    +0.000 C 
ATOM     31  O2  UNL A   1      24.825  20.224   5.916  1.00  0.00    +0.000 O 
BRANCH   30   29
ATOM     29  N3  UNL A   1      26.112  19.984   4.075  1.00  0.00    +0.000 N 
ATOM    142  H34 UNL A   1      26.538  19.125   4.299  1.00  0.00    +0.000 H 
BRANCH   29   28
ATOM    141  H33 UNL A   1      27.668  21.258   3.651  1.00  0.00    +0.000 H 
ATOM     28  C24 UNL A   1      26.842  20.819   3.132  1.00  0.00    +0.000 C 
ATOM    140  H32 UNL A   1      26.182  21.568   2.751  1.00  0.00    +0.000 H 
BRANCH   28   27
ATOM    138  H30 UNL A   1      26.876  20.304   1.075  1.00  0.00    +0.000 H 
ATOM     27  C23 UNL A   1      27.397  20.007   1.961  1.00  0.00    +0.000 C 
ATOM    139  H31 UNL A   1      28.446  20.212   1.924  1.00  0.00    +0.000 H 
BRANCH   27   26
ATOM    137  H29 UNL A   1      26.930  18.132   1.154  1.00  0.00    +0.000 H 
ATOM     26  C22 UNL A   1      27.258  18.488   2.109  1.00  0.00    +0.000 C 
ATOM    136  H28 UNL A   1      26.569  18.297   2.905  1.00  0.00    +0.000 H 
BRANCH   26   25
ATOM     25  C21 UNL A   1      28.554  17.724   2.414  1.00  0.00    +0.000 C 
ATOM    134  H26 UNL A   1      28.472  16.748   1.981  1.00  0.00    +0.000 H 
ATOM    135  H27 UNL A   1      29.348  18.311   2.002  1.00  0.00    +0.000 H 
BRANCH   25   24
ATOM    132  H24 UNL A   1      27.965  17.379   4.426  1.00  0.00    +0.000 H 
ATOM    133  H25 UNL A   1      29.567  16.738   3.970  1.00  0.00    +0.000 H 
ATOM     24  C20 UNL A   1      28.880  17.555   3.901  1.00  0.00    +0.000 C 
BRANCH   24   23
ATOM    130  H22 UNL A   1      30.609  18.754   4.267  1.00  0.00    +0.000 H 
ATOM    131  H23 UNL A   1      29.089  19.650   4.191  1.00  0.00    +0.000 H 
ATOM     23  C19 UNL A   1      29.575  18.764   4.542  1.00  0.00    +0.000 C 
BRANCH   23   22
ATOM    129  H21 UNL A   1      28.857  19.420   6.352  1.00  0.00    +0.000 H 
ATOM     22  N2  UNL A   1      29.476  18.745   5.990  1.00  0.00    +0.000 N 
BRANCH   22   20
ATOM     20  C18 UNL A   1      30.070  17.979   6.946  1.00  0.00    +0.000 C 
ATOM     21  O1  UNL A   1      31.299  18.093   7.043  1.00  0.00    +0.000 O 
BRANCH   20   18
ATOM     18  C16 UNL A   1      29.324  17.005   7.879  1.00  0.00    +0.000 C 
ATOM    125  H17 UNL A   1      30.000  16.820   8.687  1.00  0.00    +0.000 H 
BRANCH   18   17
ATOM     14  C12 UNL A   1      25.768  18.490   9.959  1.00  0.00    +0.000 C 
ATOM     15  C13 UNL A   1      27.074  18.766  10.402  1.00  0.00    +0.000 C 
ATOM     16  C14 UNL A   1      28.206  18.406   9.677  1.00  0.00    +0.000 C 
ATOM     17  C15 UNL A   1      28.105  17.628   8.537  1.00  0.00    +0.000 C 
ATOM    123  H15 UNL A   1      27.197  19.256  11.302  1.00  0.00    +0.000 H 
ATOM    124  H16 UNL A   1      29.135  18.725   9.995  1.00  0.00    +0.000 H 
ATOM    157  H49 UNL A   1      26.715  16.879   7.147  1.00  0.00    +0.000 H 
ATOM     95  C70 UNL A   1      26.818  17.410   8.027  1.00  0.00    +0.000 C 
ATOM     96  C71 UNL A   1      25.650  17.889   8.675  1.00  0.00    +0.000 C 
BRANCH   14    6
ATOM    118  H10 UNL A   1      23.807  18.996  10.038  1.00  0.00    +0.000 H 
ATOM      6  C5  UNL A   1      24.528  18.875  10.819  1.00  0.00    +0.000 C 
BRANCH    6    5
ATOM      2  C2  UNL A   1      23.717  22.985  11.719  1.00  0.00    +0.000 C 
ATOM      3  C3  UNL A   1      23.132  21.964  12.691  1.00  0.00    +0.000 C 
ATOM      4  C4  UNL A   1      23.275  20.526  12.180  1.00  0.00    +0.000 C 
ATOM    164  H56 UNL A   1      25.688  22.625  12.442  1.00  0.00    +0.000 H 
ATOM    165  H57 UNL A   1      25.622  23.354  10.849  1.00  0.00    +0.000 H 
ATOM    162  H54 UNL A   1      24.938  21.320   9.854  1.00  0.00    +0.000 H 
ATOM    163  H55 UNL A   1      26.327  20.976  10.925  1.00  0.00    +0.000 H 
ATOM      5  N1  UNL A   1      24.547  20.191  11.536  1.00  0.00    +0.000 N 
ATOM    107  C79 UNL A   1      25.295  21.250  10.860  1.00  0.00    +0.000 C 
ATOM    108  C80 UNL A   1      25.180  22.629  11.500  1.00  0.00    +0.000 C 
ATOM    112  H4  UNL A   1      23.181  22.954  10.793  1.00  0.00    +0.000 H 
ATOM    113  H5  UNL A   1      22.093  22.177  12.831  1.00  0.00    +0.000 H 
ATOM    114  H6  UNL A   1      23.674  22.040  13.611  1.00  0.00    +0.000 H 
ATOM    115  H7  UNL A   1      22.494  20.354  11.470  1.00  0.00    +0.000 H 
ATOM    116  H8  UNL A   1      23.225  19.907  13.051  1.00  0.00    +0.000 H 
ATOM    117  H9  UNL A   1      25.148  20.068  12.350  1.00  0.00    +0.000 H 
BRANCH    2    1
ATOM      1  C1  UNL A   1      23.581  24.401  12.256  1.00  0.00    +0.000 C 
ATOM    109  H1  UNL A   1      23.500  24.371  13.323  1.00  0.00    +0.000 H 
ATOM    110  H2  UNL A   1      22.705  24.856  11.844  1.00  0.00    +0.000 H 
ATOM    111  H3  UNL A   1      24.444  24.971  11.981  1.00  0.00    +0.000 H 
ENDBRANCH    2    1
ENDBRANCH    6    5
BRANCH    6    7
ATOM      7  C6  UNL A   1      24.074  17.768  11.793  1.00  0.00    +0.000 C 
ATOM      8  C7  UNL A   1      23.418  16.603  11.348  1.00  0.00    +0.000 C 
ATOM      9  C8  UNL A   1      23.030  15.613  12.253  1.00  0.00    +0.000 C 
ATOM     10  C9  UNL A   1      23.281  15.789  13.607  1.00  0.00    +0.000 C 
ATOM     11  F1  UNL A   1      22.899  14.842  14.476  1.00  0.00    +0.000 F 
ATOM     12  C10 UNL A   1      23.923  16.927  14.075  1.00  0.00    +0.000 C 
ATOM     13  C11 UNL A   1      24.332  17.909  13.171  1.00  0.00    +0.000 C 
ATOM    119  H11 UNL A   1      23.222  16.481  10.342  1.00  0.00    +0.000 H 
ATOM    120  H12 UNL A   1      22.562  14.758  11.917  1.00  0.00    +0.000 H 
ATOM    121  H13 UNL A   1      24.097  17.047  15.086  1.00  0.00    +0.000 H 
ATOM    122  H14 UNL A   1      24.828  18.745  13.515  1.00  0.00    +0.000 H 
ENDBRANCH    6    7
ENDBRANCH   14    6
BRANCH   96   97
ATOM     97  C72 UNL A   1      24.374  17.786   7.940  1.00  0.00    +0.000 C 
ATOM     98  C73 UNL A   1      24.243  16.970   6.807  1.00  0.00    +0.000 C 
ATOM     99  C74 UNL A   1      23.027  16.887   6.119  1.00  0.00    +0.000 C 
ATOM    161  H53 UNL A   1      23.345  19.173   9.156  1.00  0.00    +0.000 H 
ATOM    100  C75 UNL A   1      21.911  17.620   6.548  1.00  0.00    +0.000 C 
ATOM    101  C76 UNL A   1      20.606  17.527   5.800  1.00  0.00    +0.000 C 
ATOM    102  F17 UNL A   1      20.641  18.186   4.609  1.00  0.00    +0.000 F 
ATOM    103  F18 UNL A   1      20.253  16.244   5.508  1.00  0.00    +0.000 F 
ATOM    105  C77 UNL A   1      22.044  18.457   7.663  1.00  0.00    +0.000 C 
ATOM    106  C78 UNL A   1      23.261  18.543   8.343  1.00  0.00    +0.000 C 
ATOM    104  F19 UNL A   1      19.551  18.053   6.484  1.00  0.00    +0.000 F 
ATOM    158  H50 UNL A   1      25.054  16.425   6.475  1.00  0.00    +0.000 H 
ATOM    159  H51 UNL A   1      22.950  16.279   5.288  1.00  0.00    +0.000 H 
ATOM    160  H52 UNL A   1      21.236  19.015   7.984  1.00  0.00    +0.000 H 
ENDBRANCH   96   97
ENDBRANCH   18   17
BRANCH   18   19
ATOM     19  C17 UNL A   1      29.109  15.607   7.305  1.00  0.00    +0.000 C 
ATOM    126  H18 UNL A   1      29.450  14.876   8.009  1.00  0.00    +0.000 H 
ATOM    127  H19 UNL A   1      29.660  15.506   6.393  1.00  0.00    +0.000 H 
ATOM    128  H20 UNL A   1      28.068  15.457   7.112  1.00  0.00    +0.000 H 
ENDBRANCH   18   19
ENDBRANCH   20   18
ENDBRANCH   22   20
ENDBRANCH   23   22
ENDBRANCH   24   23
ENDBRANCH   25   24
ENDBRANCH   26   25
ENDBRANCH   27   26
ENDBRANCH   28   27
ENDBRANCH   29   28
ENDBRANCH   30   29
ENDBRANCH   32   30
ENDBRANCH   36   35
BRANCH   40   41
ATOM     41  C34 UNL A   1      20.307  26.847  -1.462  1.00  0.00    +0.000 C 
ATOM     42  C35 UNL A   1      20.209  27.972  -0.629  1.00  0.00    +0.000 C 
ATOM     43  F2  UNL A   1      19.419  27.945   0.455  1.00  0.00    +0.000 F 
ATOM     44  C36 UNL A   1      20.914  29.139  -0.915  1.00  0.00    +0.000 C 
ATOM     45  F3  UNL A   1      20.786  30.210  -0.118  1.00  0.00    +0.000 F 
ATOM     46  C37 UNL A   1      21.745  29.195  -2.023  1.00  0.00    +0.000 C 
ATOM     47  F4  UNL A   1      22.434  30.313  -2.289  1.00  0.00    +0.000 F 
ATOM     48  C38 UNL A   1      21.865  28.091  -2.854  1.00  0.00    +0.000 C 
ATOM     49  F5  UNL A   1      22.685  28.135  -3.912  1.00  0.00    +0.000 F 
ATOM     50  C39 UNL A   1      21.140  26.933  -2.586  1.00  0.00    +0.000 C 
ATOM     51  F6  UNL A   1      21.273  25.882  -3.409  1.00  0.00    +0.000 F 
ENDBRANCH   40   41
BRANCH   57   58
ATOM     65  C49 UNL A   1      11.807  25.823  -3.247  1.00  0.00    +0.000 C 
ATOM     66  F10 UNL A   1      10.954  26.717  -2.730  1.00  0.00    +0.000 F 
ATOM     67  C50 UNL A   1      12.842  25.317  -2.467  1.00  0.00    +0.000 C 
ATOM     68  F11 UNL A   1      12.971  25.744  -1.201  1.00  0.00    +0.000 F 
ATOM     58  C45 UNL A   1      13.738  24.373  -2.986  1.00  0.00    +0.000 C 
ATOM     59  C46 UNL A   1      13.557  23.948  -4.310  1.00  0.00    +0.000 C 
ATOM     60  F7  UNL A   1      14.394  23.050  -4.852  1.00  0.00    +0.000 F 
ATOM     61  C47 UNL A   1      12.534  24.470  -5.095  1.00  0.00    +0.000 C 
ATOM     62  F8  UNL A   1      12.401  24.079  -6.370  1.00  0.00    +0.000 F 
ATOM     63  C48 UNL A   1      11.661  25.409  -4.564  1.00  0.00    +0.000 C 
ATOM     64  F9  UNL A   1      10.679  25.916  -5.322  1.00  0.00    +0.000 F 
ENDBRANCH   57   58
BRANCH   72   73
ATOM     73  C54 UNL A   1      15.062  18.692   0.856  1.00  0.00    +0.000 C 
ATOM     74  C55 UNL A   1      15.021  17.553   0.041  1.00  0.00    +0.000 C 
ATOM     75  F12 UNL A   1      15.742  17.511  -1.090  1.00  0.00    +0.000 F 
ATOM     76  C56 UNL A   1      14.217  16.463   0.370  1.00  0.00    +0.000 C 
ATOM     77  F13 UNL A   1      14.168  15.400  -0.444  1.00  0.00    +0.000 F 
ATOM     78  C57 UNL A   1      13.457  16.484   1.529  1.00  0.00    +0.000 C 
ATOM     79  F14 UNL A   1      12.684  15.436   1.846  1.00  0.00    +0.000 F 
ATOM     80  C58 UNL A   1      13.497  17.593   2.361  1.00  0.00    +0.000 C 
ATOM     81  F15 UNL A   1      12.778  17.610   3.492  1.00  0.00    +0.000 F 
ATOM     82  C59 UNL A   1      14.286  18.691   2.023  1.00  0.00    +0.000 C 
ATOM     83  F16 UNL A   1      14.308  19.753   2.842  1.00  0.00    +0.000 F 
ENDBRANCH   72   73
TORSDOF 22
ENDMDL
MODEL 5
REMARK VINA RESULT:      -8.5     42.253     45.137
ROOT
ATOM    145  H37 UNL A   1      28.137  46.159  49.108  1.00  0.00    +0.000 H 
ATOM    146  H38 UNL A   1      29.928  48.042  48.901  1.00  0.00    +0.000 H 
ATOM    147  H39 UNL A   1      31.338  44.685  46.928  1.00  0.00    +0.000 H 
ATOM    148  H40 UNL A   1      36.025  41.684  43.828  1.00  0.00    +0.000 H 
ATOM    149  H41 UNL A   1      34.240  39.882  43.945  1.00  0.00    +0.000 H 
ATOM    150  H42 UNL A   1      32.837  43.201  46.018  1.00  0.00    +0.000 H 
ATOM    151  H43 UNL A   1      36.322  46.792  45.363  1.00  0.00    +0.000 H 
ATOM    152  H44 UNL A   1      34.792  48.345  46.707  1.00  0.00    +0.000 H 
ATOM    153  H45 UNL A   1      27.809  41.136  47.271  1.00  0.00    +0.000 H 
ATOM    154  H46 UNL A   1      29.473  39.451  46.292  1.00  0.00    +0.000 H 
ATOM     36  C30 UNL A   1      31.897  40.642  45.382  1.00  0.00    +0.000 C 
ATOM     37  C31 UNL A   1      30.780  41.300  46.143  1.00  0.00    +0.000 C 
ATOM     38  N4  UNL A   1      30.672  42.540  46.552  1.00  0.00    +0.000 N 
ATOM     39  C32 UNL A   1      29.413  42.637  47.130  1.00  0.00    +0.000 C 
ATOM     40  C33 UNL A   1      28.846  43.705  47.739  1.00  0.00    +0.000 C 
ATOM     52  C40 UNL A   1      29.500  44.973  47.930  1.00  0.00    +0.000 C 
ATOM     53  C41 UNL A   1      29.039  46.084  48.611  1.00  0.00    +0.000 C 
ATOM     54  C42 UNL A   1      30.005  47.089  48.512  1.00  0.00    +0.000 C 
ATOM     55  C43 UNL A   1      31.084  46.590  47.800  1.00  0.00    +0.000 C 
ATOM     56  N5  UNL A   1      30.759  45.292  47.445  1.00  0.00    +0.000 N 
ATOM     57  C44 UNL A   1      32.318  47.254  47.465  1.00  0.00    +0.000 C 
ATOM     69  C51 UNL A   1      33.343  46.689  46.784  1.00  0.00    +0.000 C 
ATOM     70  N6  UNL A   1      33.447  45.399  46.282  1.00  0.00    +0.000 N 
ATOM     71  C52 UNL A   1      34.622  45.329  45.706  1.00  0.00    +0.000 C 
ATOM     72  C53 UNL A   1      35.261  44.163  45.008  1.00  0.00    +0.000 C 
ATOM     84  C60 UNL A   1      34.615  42.982  44.958  1.00  0.00    +0.000 C 
ATOM     85  C61 UNL A   1      35.107  41.781  44.286  1.00  0.00    +0.000 C 
ATOM     86  C62 UNL A   1      34.169  40.823  44.362  1.00  0.00    +0.000 C 
ATOM     87  C63 UNL A   1      33.029  41.327  45.128  1.00  0.00    +0.000 C 
ATOM     88  N7  UNL A   1      33.395  42.608  45.465  1.00  0.00    +0.000 N 
ATOM     89  C64 UNL A   1      35.391  46.582  45.759  1.00  0.00    +0.000 C 
ATOM     90  C65 UNL A   1      34.576  47.371  46.446  1.00  0.00    +0.000 C 
ATOM     91  C66 UNL A   1      28.780  41.344  46.990  1.00  0.00    +0.000 C 
ATOM     92  C67 UNL A   1      29.611  40.462  46.453  1.00  0.00    +0.000 C 
ENDROOT
BRANCH   36   35
ATOM     33  C27 UNL A   1      30.829  37.799  43.079  1.00  0.00    +0.000 C 
ATOM     34  C28 UNL A   1      31.085  39.095  43.545  1.00  0.00    +0.000 C 
ATOM     35  C29 UNL A   1      31.701  39.291  44.792  1.00  0.00    +0.000 C 
ATOM    143  H35 UNL A   1      30.353  37.659  42.175  1.00  0.00    +0.000 H 
ATOM    144  H36 UNL A   1      30.818  39.909  42.970  1.00  0.00    +0.000 H 
ATOM    155  H47 UNL A   1      32.605  38.306  46.428  1.00  0.00    +0.000 H 
ATOM    156  H48 UNL A   1      32.321  36.075  45.531  1.00  0.00    +0.000 H 
ATOM     93  C68 UNL A   1      32.134  38.173  45.518  1.00  0.00    +0.000 C 
ATOM     94  C69 UNL A   1      31.937  36.888  45.025  1.00  0.00    +0.000 C 
ATOM     32  C26 UNL A   1      31.219  36.698  43.844  1.00  0.00    +0.000 C 
BRANCH   32   30
ATOM     30  C25 UNL A   1      30.894  35.328  43.387  1.00  0.00    +0.000 C 
ATOM     31  O2  UNL A   1      31.702  34.429  43.533  1.00  0.00    +0.000 O 
BRANCH   30   29
ATOM     29  N3  UNL A   1      29.666  35.081  42.805  1.00  0.00    +0.000 N 
ATOM    142  H34 UNL A   1      29.677  34.955  41.829  1.00  0.00    +0.000 H 
BRANCH   29   28
ATOM    141  H33 UNL A   1      27.792  34.243  42.908  1.00  0.00    +0.000 H 
ATOM     28  C24 UNL A   1      28.357  34.983  43.434  1.00  0.00    +0.000 C 
ATOM    140  H32 UNL A   1      27.879  35.939  43.389  1.00  0.00    +0.000 H 
BRANCH   28   27
ATOM    138  H30 UNL A   1      28.912  33.581  44.925  1.00  0.00    +0.000 H 
ATOM     27  C23 UNL A   1      28.457  34.549  44.897  1.00  0.00    +0.000 C 
ATOM    139  H31 UNL A   1      29.032  35.301  45.395  1.00  0.00    +0.000 H 
BRANCH   27   26
ATOM    137  H29 UNL A   1      26.641  33.579  45.278  1.00  0.00    +0.000 H 
ATOM     26  C22 UNL A   1      27.117  34.468  45.637  1.00  0.00    +0.000 C 
ATOM    136  H28 UNL A   1      26.574  35.367  45.432  1.00  0.00    +0.000 H 
BRANCH   26   25
ATOM     25  C21 UNL A   1      27.203  34.308  47.161  1.00  0.00    +0.000 C 
ATOM    134  H26 UNL A   1      26.657  33.428  47.432  1.00  0.00    +0.000 H 
ATOM    135  H27 UNL A   1      28.246  34.255  47.395  1.00  0.00    +0.000 H 
BRANCH   25   24
ATOM    132  H24 UNL A   1      25.753  35.824  47.498  1.00  0.00    +0.000 H 
ATOM    133  H25 UNL A   1      26.478  35.108  48.964  1.00  0.00    +0.000 H 
ATOM     24  C20 UNL A   1      26.646  35.480  47.975  1.00  0.00    +0.000 C 
BRANCH   24   23
ATOM    130  H22 UNL A   1      27.828  36.814  49.151  1.00  0.00    +0.000 H 
ATOM    131  H23 UNL A   1      28.488  36.452  47.554  1.00  0.00    +0.000 H 
ATOM     23  C19 UNL A   1      27.604  36.671  48.115  1.00  0.00    +0.000 C 
BRANCH   23   22
ATOM    129  H21 UNL A   1      26.943  38.611  48.257  1.00  0.00    +0.000 H 
ATOM     22  N2  UNL A   1      27.032  37.895  47.587  1.00  0.00    +0.000 N 
BRANCH   22   20
ATOM     20  C18 UNL A   1      26.593  38.250  46.348  1.00  0.00    +0.000 C 
ATOM     21  O1  UNL A   1      27.356  37.984  45.408  1.00  0.00    +0.000 O 
BRANCH   20   18
ATOM     18  C16 UNL A   1      25.250  38.947  46.059  1.00  0.00    +0.000 C 
ATOM    125  H17 UNL A   1      25.256  39.139  45.006  1.00  0.00    +0.000 H 
BRANCH   18   17
ATOM     14  C12 UNL A   1      21.892  36.310  47.032  1.00  0.00    +0.000 C 
ATOM     15  C13 UNL A   1      21.767  37.709  46.991  1.00  0.00    +0.000 C 
ATOM     16  C14 UNL A   1      22.793  38.545  46.559  1.00  0.00    +0.000 C 
ATOM     17  C15 UNL A   1      24.050  38.040  46.275  1.00  0.00    +0.000 C 
ATOM    123  H15 UNL A   1      20.877  38.136  47.293  1.00  0.00    +0.000 H 
ATOM    124  H16 UNL A   1      22.614  39.555  46.449  1.00  0.00    +0.000 H 
ATOM    157  H49 UNL A   1      25.094  36.241  45.962  1.00  0.00    +0.000 H 
ATOM     95  C70 UNL A   1      24.181  36.645  46.226  1.00  0.00    +0.000 C 
ATOM     96  C71 UNL A   1      23.106  35.768  46.525  1.00  0.00    +0.000 C 
BRANCH   14    6
ATOM    118  H10 UNL A   1      21.308  34.671  48.072  1.00  0.00    +0.000 H 
ATOM      6  C5  UNL A   1      20.733  35.412  47.558  1.00  0.00    +0.000 C 
BRANCH    6    5
ATOM      2  C2  UNL A   1      19.776  32.841  44.267  1.00  0.00    +0.000 C 
ATOM      3  C3  UNL A   1      19.357  32.339  45.646  1.00  0.00    +0.000 C 
ATOM      4  C4  UNL A   1      19.929  33.201  46.777  1.00  0.00    +0.000 C 
ATOM    164  H56 UNL A   1      18.252  34.329  44.285  1.00  0.00    +0.000 H 
ATOM    165  H57 UNL A   1      19.562  34.647  43.164  1.00  0.00    +0.000 H 
ATOM    162  H54 UNL A   1      21.034  35.235  44.921  1.00  0.00    +0.000 H 
ATOM    163  H55 UNL A   1      19.485  36.090  45.182  1.00  0.00    +0.000 H 
ATOM      5  N1  UNL A   1      19.921  34.648  46.556  1.00  0.00    +0.000 N 
ATOM    107  C79 UNL A   1      20.001  35.153  45.185  1.00  0.00    +0.000 C 
ATOM    108  C80 UNL A   1      19.311  34.284  44.140  1.00  0.00    +0.000 C 
ATOM    112  H4  UNL A   1      20.840  32.780  44.165  1.00  0.00    +0.000 H 
ATOM    113  H5  UNL A   1      19.706  31.336  45.768  1.00  0.00    +0.000 H 
ATOM    114  H6  UNL A   1      18.289  32.391  45.703  1.00  0.00    +0.000 H 
ATOM    115  H7  UNL A   1      20.943  32.900  46.934  1.00  0.00    +0.000 H 
ATOM    116  H8  UNL A   1      19.285  33.036  47.615  1.00  0.00    +0.000 H 
ATOM    117  H9  UNL A   1      18.944  34.867  46.748  1.00  0.00    +0.000 H 
BRANCH    2    1
ATOM      1  C1  UNL A   1      19.181  31.983  43.161  1.00  0.00    +0.000 C 
ATOM    109  H1  UNL A   1      19.476  30.964  43.303  1.00  0.00    +0.000 H 
ATOM    110  H2  UNL A   1      19.535  32.329  42.213  1.00  0.00    +0.000 H 
ATOM    111  H3  UNL A   1      18.113  32.052  43.192  1.00  0.00    +0.000 H 
ENDBRANCH    2    1
ENDBRANCH    6    5
BRANCH    6    7
ATOM      7  C6  UNL A   1      19.787  36.128  48.544  1.00  0.00    +0.000 C 
ATOM      8  C7  UNL A   1      20.116  36.303  49.903  1.00  0.00    +0.000 C 
ATOM      9  C8  UNL A   1      19.244  36.965  50.769  1.00  0.00    +0.000 C 
ATOM     10  C9  UNL A   1      18.032  37.442  50.286  1.00  0.00    +0.000 C 
ATOM     11  F1  UNL A   1      17.192  38.069  51.121  1.00  0.00    +0.000 F 
ATOM     12  C10 UNL A   1      17.680  37.282  48.953  1.00  0.00    +0.000 C 
ATOM     13  C11 UNL A   1      18.560  36.640  48.080  1.00  0.00    +0.000 C 
ATOM    119  H11 UNL A   1      21.011  35.936  50.263  1.00  0.00    +0.000 H 
ATOM    120  H12 UNL A   1      19.499  37.099  51.759  1.00  0.00    +0.000 H 
ATOM    121  H13 UNL A   1      16.773  37.637  48.609  1.00  0.00    +0.000 H 
ATOM    122  H14 UNL A   1      18.309  36.540  47.084  1.00  0.00    +0.000 H 
ENDBRANCH    6    7
ENDBRANCH   14    6
BRANCH   96   97
ATOM     97  C72 UNL A   1      23.299  34.335  46.234  1.00  0.00    +0.000 C 
ATOM     98  C73 UNL A   1      23.585  33.410  47.250  1.00  0.00    +0.000 C 
ATOM     99  C74 UNL A   1      23.769  32.054  46.955  1.00  0.00    +0.000 C 
ATOM    161  H53 UNL A   1      23.059  34.534  44.145  1.00  0.00    +0.000 H 
ATOM    100  C75 UNL A   1      23.673  31.590  45.635  1.00  0.00    +0.000 C 
ATOM    101  C76 UNL A   1      23.874  30.128  45.326  1.00  0.00    +0.000 C 
ATOM    102  F17 UNL A   1      25.181  29.754  45.413  1.00  0.00    +0.000 F 
ATOM    103  F18 UNL A   1      23.193  29.308  46.174  1.00  0.00    +0.000 F 
ATOM    105  C77 UNL A   1      23.414  32.513  44.614  1.00  0.00    +0.000 C 
ATOM    106  C78 UNL A   1      23.237  33.866  44.910  1.00  0.00    +0.000 C 
ATOM    104  F19 UNL A   1      23.470  29.779  44.071  1.00  0.00    +0.000 F 
ATOM    158  H50 UNL A   1      23.661  33.734  48.226  1.00  0.00    +0.000 H 
ATOM    159  H51 UNL A   1      23.976  31.389  47.717  1.00  0.00    +0.000 H 
ATOM    160  H52 UNL A   1      23.353  32.190  43.635  1.00  0.00    +0.000 H 
ENDBRANCH   96   97
ENDBRANCH   18   17
BRANCH   18   19
ATOM     19  C17 UNL A   1      25.117  40.351  46.645  1.00  0.00    +0.000 C 
ATOM    126  H18 UNL A   1      26.081  40.702  46.950  1.00  0.00    +0.000 H 
ATOM    127  H19 UNL A   1      24.463  40.324  47.491  1.00  0.00    +0.000 H 
ATOM    128  H20 UNL A   1      24.715  41.010  45.904  1.00  0.00    +0.000 H 
ENDBRANCH   18   19
ENDBRANCH   20   18
ENDBRANCH   22   20
ENDBRANCH   23   22
ENDBRANCH   24   23
ENDBRANCH   25   24
ENDBRANCH   26   25
ENDBRANCH   27   26
ENDBRANCH   28   27
ENDBRANCH   29   28
ENDBRANCH   30   29
ENDBRANCH   32   30
ENDBRANCH   36   35
BRANCH   40   41
ATOM     41  C34 UNL A   1      27.448  43.553  48.260  1.00  0.00    +0.000 C 
ATOM     42  C35 UNL A   1      26.351  43.942  47.476  1.00  0.00    +0.000 C 
ATOM     43  F2  UNL A   1      26.539  44.409  46.233  1.00  0.00    +0.000 F 
ATOM     44  C36 UNL A   1      25.052  43.867  47.974  1.00  0.00    +0.000 C 
ATOM     45  F3  UNL A   1      24.021  44.268  47.217  1.00  0.00    +0.000 F 
ATOM     46  C37 UNL A   1      24.825  43.381  49.253  1.00  0.00    +0.000 C 
ATOM     47  F4  UNL A   1      23.574  43.297  49.725  1.00  0.00    +0.000 F 
ATOM     48  C38 UNL A   1      25.894  42.981  50.041  1.00  0.00    +0.000 C 
ATOM     49  F5  UNL A   1      25.674  42.491  51.268  1.00  0.00    +0.000 F 
ATOM     50  C39 UNL A   1      27.194  43.081  49.556  1.00  0.00    +0.000 C 
ATOM     51  F6  UNL A   1      28.210  42.689  50.341  1.00  0.00    +0.000 F 
ENDBRANCH   40   41
BRANCH   57   58
ATOM     65  C49 UNL A   1      32.106  51.050  47.591  1.00  0.00    +0.000 C 
ATOM     66  F10 UNL A   1      31.722  52.064  46.802  1.00  0.00    +0.000 F 
ATOM     67  C50 UNL A   1      32.067  49.744  47.113  1.00  0.00    +0.000 C 
ATOM     68  F11 UNL A   1      31.636  49.521  45.862  1.00  0.00    +0.000 F 
ATOM     58  C45 UNL A   1      32.474  48.672  47.919  1.00  0.00    +0.000 C 
ATOM     59  C46 UNL A   1      32.929  48.955  49.215  1.00  0.00    +0.000 C 
ATOM     60  F7  UNL A   1      33.323  47.960  50.026  1.00  0.00    +0.000 F 
ATOM     61  C47 UNL A   1      32.947  50.260  49.698  1.00  0.00    +0.000 C 
ATOM     62  F8  UNL A   1      33.349  50.504  50.953  1.00  0.00    +0.000 F 
ATOM     63  C48 UNL A   1      32.534  51.306  48.887  1.00  0.00    +0.000 C 
ATOM     64  F9  UNL A   1      32.547  52.563  49.354  1.00  0.00    +0.000 F 
ENDBRANCH   57   58
BRANCH   72   73
ATOM     73  C54 UNL A   1      36.611  44.279  44.400  1.00  0.00    +0.000 C 
ATOM     74  C55 UNL A   1      37.756  43.815  45.061  1.00  0.00    +0.000 C 
ATOM     75  F12 UNL A   1      37.645  43.210  46.253  1.00  0.00    +0.000 F 
ATOM     76  C56 UNL A   1      39.025  43.996  44.513  1.00  0.00    +0.000 C 
ATOM     77  F13 UNL A   1      40.108  43.575  45.180  1.00  0.00    +0.000 F 
ATOM     78  C57 UNL A   1      39.169  44.625  43.285  1.00  0.00    +0.000 C 
ATOM     79  F14 UNL A   1      40.389  44.799  42.757  1.00  0.00    +0.000 F 
ATOM     80  C58 UNL A   1      38.047  45.075  42.604  1.00  0.00    +0.000 C 
ATOM     81  F15 UNL A   1      38.180  45.667  41.409  1.00  0.00    +0.000 F 
ATOM     82  C59 UNL A   1      36.780  44.911  43.161  1.00  0.00    +0.000 C 
ATOM     83  F16 UNL A   1      35.711  45.356  42.485  1.00  0.00    +0.000 F 
ENDBRANCH   72   73
TORSDOF 22
ENDMDL
MODEL 6
REMARK VINA RESULT:      -8.4      1.559      7.793
ROOT
ATOM    145  H37 UNL A   1      18.588  53.141  -0.823  1.00  0.00    +0.000 H 
ATOM    146  H38 UNL A   1      18.064  50.635  -1.318  1.00  0.00    +0.000 H 
ATOM    147  H39 UNL A   1      15.903  51.779   2.025  1.00  0.00    +0.000 H 
ATOM    148  H40 UNL A   1      12.071  50.270   6.885  1.00  0.00    +0.000 H 
ATOM    149  H41 UNL A   1      12.505  52.735   7.310  1.00  0.00    +0.000 H 
ATOM    150  H42 UNL A   1      14.762  51.595   4.010  1.00  0.00    +0.000 H 
ATOM    151  H43 UNL A   1      13.495  46.799   3.083  1.00  0.00    +0.000 H 
ATOM    152  H44 UNL A   1      15.069  46.905   1.065  1.00  0.00    +0.000 H 
ATOM    153  H45 UNL A   1      16.871  56.630   2.865  1.00  0.00    +0.000 H 
ATOM    154  H46 UNL A   1      15.635  56.442   5.101  1.00  0.00    +0.000 H 
ATOM     36  C30 UNL A   1      14.315  53.943   5.467  1.00  0.00    +0.000 C 
ATOM     37  C31 UNL A   1      15.251  54.334   4.357  1.00  0.00    +0.000 C 
ATOM     38  N4  UNL A   1      15.663  53.629   3.332  1.00  0.00    +0.000 N 
ATOM     39  C32 UNL A   1      16.447  54.489   2.575  1.00  0.00    +0.000 C 
ATOM     40  C33 UNL A   1      17.136  54.222   1.440  1.00  0.00    +0.000 C 
ATOM     52  C40 UNL A   1      17.203  52.927   0.817  1.00  0.00    +0.000 C 
ATOM     53  C41 UNL A   1      17.945  52.539  -0.284  1.00  0.00    +0.000 C 
ATOM     54  C42 UNL A   1      17.674  51.192  -0.541  1.00  0.00    +0.000 C 
ATOM     55  C43 UNL A   1      16.793  50.731   0.423  1.00  0.00    +0.000 C 
ATOM     56  N5  UNL A   1      16.508  51.807   1.248  1.00  0.00    +0.000 N 
ATOM     57  C44 UNL A   1      16.247  49.407   0.576  1.00  0.00    +0.000 C 
ATOM     69  C51 UNL A   1      15.404  49.023   1.564  1.00  0.00    +0.000 C 
ATOM     70  N6  UNL A   1      14.902  49.774   2.617  1.00  0.00    +0.000 N 
ATOM     71  C52 UNL A   1      14.134  48.964   3.304  1.00  0.00    +0.000 C 
ATOM     72  C53 UNL A   1      13.346  49.244   4.552  1.00  0.00    +0.000 C 
ATOM     84  C60 UNL A   1      13.415  50.462   5.123  1.00  0.00    +0.000 C 
ATOM     85  C61 UNL A   1      12.678  50.877   6.315  1.00  0.00    +0.000 C 
ATOM     86  C62 UNL A   1      12.921  52.177   6.548  1.00  0.00    +0.000 C 
ATOM     87  C63 UNL A   1      13.867  52.675   5.550  1.00  0.00    +0.000 C 
ATOM     88  N7  UNL A   1      14.126  51.580   4.762  1.00  0.00    +0.000 N 
ATOM     89  C64 UNL A   1      14.045  47.606   2.747  1.00  0.00    +0.000 C 
ATOM     90  C65 UNL A   1      14.856  47.690   1.701  1.00  0.00    +0.000 C 
ATOM     91  C66 UNL A   1      16.427  55.775   3.236  1.00  0.00    +0.000 C 
ATOM     92  C67 UNL A   1      15.762  55.713   4.381  1.00  0.00    +0.000 C 
ENDROOT
BRANCH   36   35
ATOM     33  C27 UNL A   1      13.668  56.091   8.548  1.00  0.00    +0.000 C 
ATOM     34  C28 UNL A   1      14.277  55.171   7.684  1.00  0.00    +0.000 C 
ATOM     35  C29 UNL A   1      13.777  54.981   6.386  1.00  0.00    +0.000 C 
ATOM    143  H35 UNL A   1      14.021  56.210   9.510  1.00  0.00    +0.000 H 
ATOM    144  H36 UNL A   1      15.096  54.631   8.004  1.00  0.00    +0.000 H 
ATOM    155  H47 UNL A   1      12.355  55.667   4.982  1.00  0.00    +0.000 H 
ATOM    156  H48 UNL A   1      11.427  57.379   6.420  1.00  0.00    +0.000 H 
ATOM     93  C68 UNL A   1      12.720  55.786   5.940  1.00  0.00    +0.000 C 
ATOM     94  C69 UNL A   1      12.157  56.744   6.778  1.00  0.00    +0.000 C 
ATOM     32  C26 UNL A   1      12.580  56.845   8.103  1.00  0.00    +0.000 C 
BRANCH   32   30
ATOM     30  C25 UNL A   1      11.893  57.771   9.032  1.00  0.00    +0.000 C 
ATOM     31  O2  UNL A   1      12.017  58.975   8.895  1.00  0.00    +0.000 O 
BRANCH   30   29
ATOM     29  N3  UNL A   1      11.106  57.256  10.043  1.00  0.00    +0.000 N 
ATOM    142  H34 UNL A   1      11.415  57.444  10.958  1.00  0.00    +0.000 H 
BRANCH   29   28
ATOM    141  H33 UNL A   1       9.240  56.952   9.234  1.00  0.00    +0.000 H 
ATOM     28  C24 UNL A   1       9.882  56.474   9.944  1.00  0.00    +0.000 C 
ATOM    140  H32 UNL A   1       9.423  56.426  10.909  1.00  0.00    +0.000 H 
BRANCH   28   27
ATOM    138  H30 UNL A   1      11.135  55.025   9.034  1.00  0.00    +0.000 H 
ATOM     27  C23 UNL A   1      10.152  55.051   9.454  1.00  0.00    +0.000 C 
ATOM    139  H31 UNL A   1      10.038  54.413  10.305  1.00  0.00    +0.000 H 
BRANCH   27   26
ATOM    137  H29 UNL A   1       8.869  55.399   7.836  1.00  0.00    +0.000 H 
ATOM     26  C22 UNL A   1       9.169  54.537   8.396  1.00  0.00    +0.000 C 
ATOM    136  H28 UNL A   1       8.365  54.048   8.905  1.00  0.00    +0.000 H 
BRANCH   26   25
ATOM     25  C21 UNL A   1       9.744  53.553   7.369  1.00  0.00    +0.000 C 
ATOM    134  H26 UNL A   1      10.560  54.034   6.871  1.00  0.00    +0.000 H 
ATOM    135  H27 UNL A   1      10.031  52.683   7.921  1.00  0.00    +0.000 H 
BRANCH   25   24
ATOM    132  H24 UNL A   1       7.895  52.678   6.796  1.00  0.00    +0.000 H 
ATOM    133  H25 UNL A   1       8.540  53.916   5.685  1.00  0.00    +0.000 H 
ATOM     24  C20 UNL A   1       8.758  53.070   6.301  1.00  0.00    +0.000 C 
BRANCH   24   23
ATOM    130  H22 UNL A   1       8.943  52.158   4.379  1.00  0.00    +0.000 H 
ATOM    131  H23 UNL A   1      10.379  52.032   5.399  1.00  0.00    +0.000 H 
ATOM     23  C19 UNL A   1       9.310  51.983   5.368  1.00  0.00    +0.000 C 
BRANCH   23   22
ATOM    129  H21 UNL A   1       9.588  49.960   5.599  1.00  0.00    +0.000 H 
ATOM     22  N2  UNL A   1       8.912  50.652   5.786  1.00  0.00    +0.000 N 
BRANCH   22   20
ATOM     20  C18 UNL A   1       7.789  50.170   6.387  1.00  0.00    +0.000 C 
ATOM     21  O1  UNL A   1       6.773  50.132   5.679  1.00  0.00    +0.000 O 
BRANCH   20   18
ATOM     18  C16 UNL A   1       7.712  49.691   7.849  1.00  0.00    +0.000 C 
ATOM    125  H17 UNL A   1       7.556  48.634   7.789  1.00  0.00    +0.000 H 
BRANCH   18   17
ATOM     14  C12 UNL A   1      11.370  49.893  10.247  1.00  0.00    +0.000 C 
ATOM     15  C13 UNL A   1      11.232  49.025   9.150  1.00  0.00    +0.000 C 
ATOM     16  C14 UNL A   1      10.124  49.046   8.308  1.00  0.00    +0.000 C 
ATOM     17  C15 UNL A   1       9.027  49.840   8.594  1.00  0.00    +0.000 C 
ATOM    123  H15 UNL A   1      11.985  48.345   8.961  1.00  0.00    +0.000 H 
ATOM    124  H16 UNL A   1      10.121  48.461   7.458  1.00  0.00    +0.000 H 
ATOM    157  H49 UNL A   1       8.386  51.417   9.829  1.00  0.00    +0.000 H 
ATOM     95  C70 UNL A   1       9.169  50.774   9.629  1.00  0.00    +0.000 C 
ATOM     96  C71 UNL A   1      10.347  50.869  10.414  1.00  0.00    +0.000 C 
BRANCH   14    6
ATOM    118  H10 UNL A   1      12.491  50.740  11.709  1.00  0.00    +0.000 H 
ATOM      6  C5  UNL A   1      12.608  49.812  11.189  1.00  0.00    +0.000 C 
BRANCH    6    5
ATOM      2  C2  UNL A   1      15.672  49.965   8.197  1.00  0.00    +0.000 C 
ATOM      3  C3  UNL A   1      15.507  51.223   9.044  1.00  0.00    +0.000 C 
ATOM      4  C4  UNL A   1      14.257  51.170   9.929  1.00  0.00    +0.000 C 
ATOM    164  H56 UNL A   1      16.532  48.909   9.835  1.00  0.00    +0.000 H 
ATOM    165  H57 UNL A   1      15.879  47.881   8.574  1.00  0.00    +0.000 H 
ATOM    162  H54 UNL A   1      13.654  48.350   9.228  1.00  0.00    +0.000 H 
ATOM    163  H55 UNL A   1      14.593  47.946  10.695  1.00  0.00    +0.000 H 
ATOM      5  N1  UNL A   1      13.971  49.884  10.570  1.00  0.00    +0.000 N 
ATOM    107  C79 UNL A   1      14.416  48.655   9.914  1.00  0.00    +0.000 C 
ATOM    108  C80 UNL A   1      15.726  48.774   9.144  1.00  0.00    +0.000 C 
ATOM    112  H4  UNL A   1      14.847  49.869   7.523  1.00  0.00    +0.000 H 
ATOM    113  H5  UNL A   1      15.432  52.069   8.394  1.00  0.00    +0.000 H 
ATOM    114  H6  UNL A   1      16.360  51.299   9.687  1.00  0.00    +0.000 H 
ATOM    115  H7  UNL A   1      13.416  51.424   9.319  1.00  0.00    +0.000 H 
ATOM    116  H8  UNL A   1      14.444  51.853  10.731  1.00  0.00    +0.000 H 
ATOM    117  H9  UNL A   1      14.638  49.901  11.341  1.00  0.00    +0.000 H 
BRANCH    2    1
ATOM      1  C1  UNL A   1      16.929  50.032   7.344  1.00  0.00    +0.000 C 
ATOM    109  H1  UNL A   1      17.712  49.478   7.819  1.00  0.00    +0.000 H 
ATOM    110  H2  UNL A   1      17.231  51.053   7.234  1.00  0.00    +0.000 H 
ATOM    111  H3  UNL A   1      16.729  49.612   6.380  1.00  0.00    +0.000 H 
ENDBRANCH    2    1
ENDBRANCH    6    5
BRANCH    6    7
ATOM      7  C6  UNL A   1      12.560  48.635  12.185  1.00  0.00    +0.000 C 
ATOM      8  C7  UNL A   1      12.604  47.292  11.758  1.00  0.00    +0.000 C 
ATOM      9  C8  UNL A   1      12.571  46.248  12.684  1.00  0.00    +0.000 C 
ATOM     10  C9  UNL A   1      12.478  46.538  14.039  1.00  0.00    +0.000 C 
ATOM     11  F1  UNL A   1      12.436  45.535  14.926  1.00  0.00    +0.000 F 
ATOM     12  C10 UNL A   1      12.431  47.851  14.488  1.00  0.00    +0.000 C 
ATOM     13  C11 UNL A   1      12.486  48.898  13.566  1.00  0.00    +0.000 C 
ATOM    119  H11 UNL A   1      12.660  47.079  10.750  1.00  0.00    +0.000 H 
ATOM    120  H12 UNL A   1      12.616  45.269  12.363  1.00  0.00    +0.000 H 
ATOM    121  H13 UNL A   1      12.356  48.051  15.498  1.00  0.00    +0.000 H 
ATOM    122  H14 UNL A   1      12.473  49.873  13.900  1.00  0.00    +0.000 H 
ENDBRANCH    6    7
ENDBRANCH   14    6
BRANCH   96   97
ATOM     97  C72 UNL A   1      10.465  52.022  11.327  1.00  0.00    +0.000 C 
ATOM     98  C73 UNL A   1      11.704  52.620  11.601  1.00  0.00    +0.000 C 
ATOM     99  C74 UNL A   1      11.797  53.711  12.473  1.00  0.00    +0.000 C 
ATOM    161  H53 UNL A   1       8.410  52.083  11.816  1.00  0.00    +0.000 H 
ATOM    100  C75 UNL A   1      10.652  54.230  13.094  1.00  0.00    +0.000 C 
ATOM    101  C76 UNL A   1      10.762  55.404  14.033  1.00  0.00    +0.000 C 
ATOM    102  F17 UNL A   1      11.314  55.062  15.230  1.00  0.00    +0.000 F 
ATOM    103  F18 UNL A   1      11.536  56.409  13.537  1.00  0.00    +0.000 F 
ATOM    105  C77 UNL A   1       9.416  53.621  12.845  1.00  0.00    +0.000 C 
ATOM    106  C78 UNL A   1       9.327  52.528  11.980  1.00  0.00    +0.000 C 
ATOM    104  F19 UNL A   1       9.560  55.976  14.328  1.00  0.00    +0.000 F 
ATOM    158  H50 UNL A   1      12.557  52.250  11.155  1.00  0.00    +0.000 H 
ATOM    159  H51 UNL A   1      12.718  54.138  12.660  1.00  0.00    +0.000 H 
ATOM    160  H52 UNL A   1       8.565  53.981  13.305  1.00  0.00    +0.000 H 
ENDBRANCH   96   97
ENDBRANCH   18   17
BRANCH   18   19
ATOM     19  C17 UNL A   1       6.476  50.160   8.612  1.00  0.00    +0.000 C 
ATOM    126  H18 UNL A   1       6.778  50.649   9.515  1.00  0.00    +0.000 H 
ATOM    127  H19 UNL A   1       5.862  49.317   8.852  1.00  0.00    +0.000 H 
ATOM    128  H20 UNL A   1       5.921  50.844   8.005  1.00  0.00    +0.000 H 
ENDBRANCH   18   19
ENDBRANCH   20   18
ENDBRANCH   22   20
ENDBRANCH   23   22
ENDBRANCH   24   23
ENDBRANCH   25   24
ENDBRANCH   26   25
ENDBRANCH   27   26
ENDBRANCH   28   27
ENDBRANCH   29   28
ENDBRANCH   30   29
ENDBRANCH   32   30
ENDBRANCH   36   35
BRANCH   40   41
ATOM     41  C34 UNL A   1      17.889  55.348   0.798  1.00  0.00    +0.000 C 
ATOM     42  C35 UNL A   1      17.386  55.975  -0.352  1.00  0.00    +0.000 C 
ATOM     43  F2  UNL A   1      16.200  55.607  -0.860  1.00  0.00    +0.000 F 
ATOM     44  C36 UNL A   1      18.108  56.978  -0.996  1.00  0.00    +0.000 C 
ATOM     45  F3  UNL A   1      17.618  57.546  -2.108  1.00  0.00    +0.000 F 
ATOM     46  C37 UNL A   1      19.332  57.386  -0.491  1.00  0.00    +0.000 C 
ATOM     47  F4  UNL A   1      20.019  58.360  -1.103  1.00  0.00    +0.000 F 
ATOM     48  C38 UNL A   1      19.844  56.787   0.651  1.00  0.00    +0.000 C 
ATOM     49  F5  UNL A   1      21.016  57.196   1.153  1.00  0.00    +0.000 F 
ATOM     50  C39 UNL A   1      19.137  55.767   1.280  1.00  0.00    +0.000 C 
ATOM     51  F6  UNL A   1      19.658  55.203   2.381  1.00  0.00    +0.000 F 
ENDBRANCH   40   41
BRANCH   57   58
ATOM     65  C49 UNL A   1      16.249  47.159  -2.494  1.00  0.00    +0.000 C 
ATOM     66  F10 UNL A   1      15.424  46.822  -3.495  1.00  0.00    +0.000 F 
ATOM     67  C50 UNL A   1      15.813  48.024  -1.496  1.00  0.00    +0.000 C 
ATOM     68  F11 UNL A   1      14.565  48.514  -1.557  1.00  0.00    +0.000 F 
ATOM     58  C45 UNL A   1      16.657  48.381  -0.435  1.00  0.00    +0.000 C 
ATOM     59  C46 UNL A   1      17.948  47.835  -0.406  1.00  0.00    +0.000 C 
ATOM     60  F7  UNL A   1      18.794  48.152   0.587  1.00  0.00    +0.000 F 
ATOM     61  C47 UNL A   1      18.389  46.986  -1.417  1.00  0.00    +0.000 C 
ATOM     62  F8  UNL A   1      19.640  46.506  -1.390  1.00  0.00    +0.000 F 
ATOM     63  C48 UNL A   1      17.541  46.651  -2.461  1.00  0.00    +0.000 C 
ATOM     64  F9  UNL A   1      17.967  45.838  -3.438  1.00  0.00    +0.000 F 
ENDBRANCH   57   58
BRANCH   72   73
ATOM     73  C54 UNL A   1      12.516  48.190   5.187  1.00  0.00    +0.000 C 
ATOM     74  C55 UNL A   1      13.027  47.359   6.193  1.00  0.00    +0.000 C 
ATOM     75  F12 UNL A   1      14.282  47.534   6.634  1.00  0.00    +0.000 F 
ATOM     76  C56 UNL A   1      12.261  46.325   6.729  1.00  0.00    +0.000 C 
ATOM     77  F13 UNL A   1      12.785  45.522   7.665  1.00  0.00    +0.000 F 
ATOM     78  C57 UNL A   1      10.964  46.118   6.286  1.00  0.00    +0.000 C 
ATOM     79  F14 UNL A   1      10.227  45.125   6.802  1.00  0.00    +0.000 F 
ATOM     80  C58 UNL A   1      10.430  46.941   5.305  1.00  0.00    +0.000 C 
ATOM     81  F15 UNL A   1       9.171  46.756   4.886  1.00  0.00    +0.000 F 
ATOM     82  C59 UNL A   1      11.202  47.962   4.754  1.00  0.00    +0.000 C 
ATOM     83  F16 UNL A   1      10.665  48.744   3.806  1.00  0.00    +0.000 F 
ENDBRANCH   72   73
TORSDOF 22
ENDMDL
MODEL 7
REMARK VINA RESULT:      -8.2      2.615      7.513
ROOT
ATOM    145  H37 UNL A   1      18.356  50.762  -2.551  1.00  0.00    +0.000 H 
ATOM    146  H38 UNL A   1      18.777  53.333  -2.457  1.00  0.00    +0.000 H 
ATOM    147  H39 UNL A   1      16.522  52.263   0.848  1.00  0.00    +0.000 H 
ATOM    148  H40 UNL A   1      13.202  53.933   6.022  1.00  0.00    +0.000 H 
ATOM    149  H41 UNL A   1      12.875  51.415   5.984  1.00  0.00    +0.000 H 
ATOM    150  H42 UNL A   1      15.055  52.468   2.605  1.00  0.00    +0.000 H 
ATOM    151  H43 UNL A   1      15.935  57.419   3.037  1.00  0.00    +0.000 H 
ATOM    152  H44 UNL A   1      17.273  57.244   0.861  1.00  0.00    +0.000 H 
ATOM    153  H45 UNL A   1      15.835  47.297   0.667  1.00  0.00    +0.000 H 
ATOM    154  H46 UNL A   1      14.168  47.503   2.601  1.00  0.00    +0.000 H 
ATOM     36  C30 UNL A   1      14.065  50.111   3.744  1.00  0.00    +0.000 C 
ATOM     37  C31 UNL A   1      14.807  49.678   2.510  1.00  0.00    +0.000 C 
ATOM     38  N4  UNL A   1      15.554  50.385   1.700  1.00  0.00    +0.000 N 
ATOM     39  C32 UNL A   1      16.062  49.484   0.773  1.00  0.00    +0.000 C 
ATOM     40  C33 UNL A   1      16.854  49.732  -0.297  1.00  0.00    +0.000 C 
ATOM     52  C40 UNL A   1      17.295  51.042  -0.694  1.00  0.00    +0.000 C 
ATOM     53  C41 UNL A   1      18.026  51.402  -1.811  1.00  0.00    +0.000 C 
ATOM     54  C42 UNL A   1      18.240  52.783  -1.768  1.00  0.00    +0.000 C 
ATOM     55  C43 UNL A   1      17.609  53.288  -0.643  1.00  0.00    +0.000 C 
ATOM     56  N5  UNL A   1      17.037  52.209   0.010  1.00  0.00    +0.000 N 
ATOM     57  C44 UNL A   1      17.540  54.655  -0.194  1.00  0.00    +0.000 C 
ATOM     69  C51 UNL A   1      16.880  55.078   0.910  1.00  0.00    +0.000 C 
ATOM     70  N6  UNL A   1      16.141  54.334   1.819  1.00  0.00    +0.000 N 
ATOM     71  C52 UNL A   1      15.698  55.187   2.709  1.00  0.00    +0.000 C 
ATOM     72  C53 UNL A   1      14.837  54.931   3.913  1.00  0.00    +0.000 C 
ATOM     84  C60 UNL A   1      14.389  53.685   4.158  1.00  0.00    +0.000 C 
ATOM     85  C61 UNL A   1      13.574  53.292   5.306  1.00  0.00    +0.000 C 
ATOM     86  C62 UNL A   1      13.389  51.963   5.276  1.00  0.00    +0.000 C 
ATOM     87  C63 UNL A   1      14.031  51.415   4.082  1.00  0.00    +0.000 C 
ATOM     88  N7  UNL A   1      14.577  52.515   3.464  1.00  0.00    +0.000 N 
ATOM     89  C64 UNL A   1      16.127  56.574   2.475  1.00  0.00    +0.000 C 
ATOM     90  C65 UNL A   1      16.825  56.456   1.354  1.00  0.00    +0.000 C 
ATOM     91  C66 UNL A   1      15.568  48.175   1.140  1.00  0.00    +0.000 C 
ATOM     92  C67 UNL A   1      14.728  48.250   2.163  1.00  0.00    +0.000 C 
ENDROOT
BRANCH   36   35
ATOM     33  C27 UNL A   1      13.675  47.499   6.492  1.00  0.00    +0.000 C 
ATOM     34  C28 UNL A   1      14.225  48.530   5.719  1.00  0.00    +0.000 C 
ATOM     35  C29 UNL A   1      13.491  49.093   4.663  1.00  0.00    +0.000 C 
ATOM    143  H35 UNL A   1      14.226  47.070   7.250  1.00  0.00    +0.000 H 
ATOM    144  H36 UNL A   1      15.175  48.875   5.926  1.00  0.00    +0.000 H 
ATOM    155  H47 UNL A   1      11.614  49.091   3.692  1.00  0.00    +0.000 H 
ATOM    156  H48 UNL A   1      10.609  47.439   5.147  1.00  0.00    +0.000 H 
ATOM     93  C68 UNL A   1      12.170  48.671   4.454  1.00  0.00    +0.000 C 
ATOM     94  C69 UNL A   1      11.602  47.693   5.263  1.00  0.00    +0.000 C 
ATOM     32  C26 UNL A   1      12.376  47.055   6.231  1.00  0.00    +0.000 C 
BRANCH   32   30
ATOM     30  C25 UNL A   1      11.814  45.924   7.003  1.00  0.00    +0.000 C 
ATOM     31  O2  UNL A   1      11.664  44.838   6.473  1.00  0.00    +0.000 O 
BRANCH   30   29
ATOM     29  N3  UNL A   1      11.473  46.111   8.329  1.00  0.00    +0.000 N 
ATOM    142  H34 UNL A   1      11.028  46.965   8.535  1.00  0.00    +0.000 H 
BRANCH   29   28
ATOM    141  H33 UNL A   1      12.239  44.375   9.122  1.00  0.00    +0.000 H 
ATOM     28  C24 UNL A   1      11.680  45.222   9.463  1.00  0.00    +0.000 C 
ATOM    140  H32 UNL A   1      10.728  44.927   9.849  1.00  0.00    +0.000 H 
BRANCH   28   27
ATOM    138  H30 UNL A   1      13.339  45.293  10.782  1.00  0.00    +0.000 H 
ATOM     27  C23 UNL A   1      12.479  45.896  10.579  1.00  0.00    +0.000 C 
ATOM    139  H31 UNL A   1      12.723  46.875  10.224  1.00  0.00    +0.000 H 
BRANCH   27   26
ATOM    137  H29 UNL A   1      10.825  45.500  11.799  1.00  0.00    +0.000 H 
ATOM     26  C22 UNL A   1      11.713  46.091  11.892  1.00  0.00    +0.000 C 
ATOM    136  H28 UNL A   1      11.529  47.138  12.012  1.00  0.00    +0.000 H 
BRANCH   26   25
ATOM     25  C21 UNL A   1      12.417  45.588  13.159  1.00  0.00    +0.000 C 
ATOM    134  H26 UNL A   1      11.919  44.697  13.482  1.00  0.00    +0.000 H 
ATOM    135  H27 UNL A   1      13.440  45.434  12.888  1.00  0.00    +0.000 H 
BRANCH   25   24
ATOM    132  H24 UNL A   1      13.336  46.416  14.886  1.00  0.00    +0.000 H 
ATOM    133  H25 UNL A   1      12.365  47.551  13.909  1.00  0.00    +0.000 H 
ATOM     24  C20 UNL A   1      12.434  46.572  14.333  1.00  0.00    +0.000 C 
BRANCH   24   23
ATOM    130  H22 UNL A   1      10.340  46.576  14.754  1.00  0.00    +0.000 H 
ATOM    131  H23 UNL A   1      11.290  45.456  15.733  1.00  0.00    +0.000 H 
ATOM     23  C19 UNL A   1      11.249  46.432  15.299  1.00  0.00    +0.000 C 
BRANCH   23   22
ATOM    129  H21 UNL A   1      12.020  47.222  17.033  1.00  0.00    +0.000 H 
ATOM     22  N2  UNL A   1      11.308  47.403  16.376  1.00  0.00    +0.000 N 
BRANCH   22   20
ATOM     20  C18 UNL A   1      10.573  48.513  16.660  1.00  0.00    +0.000 C 
ATOM     21  O1  UNL A   1       9.390  48.314  16.967  1.00  0.00    +0.000 O 
BRANCH   20   18
ATOM     18  C16 UNL A   1      11.111  49.957  16.616  1.00  0.00    +0.000 C 
ATOM    125  H17 UNL A   1      12.137  49.881  16.911  1.00  0.00    +0.000 H 
BRANCH   18   17
ATOM     14  C12 UNL A   1      11.074  51.312  12.453  1.00  0.00    +0.000 C 
ATOM     15  C13 UNL A   1      10.108  51.719  13.389  1.00  0.00    +0.000 C 
ATOM     16  C14 UNL A   1      10.185  51.395  14.740  1.00  0.00    +0.000 C 
ATOM     17  C15 UNL A   1      11.159  50.531  15.210  1.00  0.00    +0.000 C 
ATOM    123  H15 UNL A   1       9.307  52.282  13.060  1.00  0.00    +0.000 H 
ATOM    124  H16 UNL A   1       9.508  51.807  15.401  1.00  0.00    +0.000 H 
ATOM    157  H49 UNL A   1      12.951  49.578  14.659  1.00  0.00    +0.000 H 
ATOM     95  C70 UNL A   1      12.182  50.178  14.320  1.00  0.00    +0.000 C 
ATOM     96  C71 UNL A   1      12.200  50.612  12.969  1.00  0.00    +0.000 C 
BRANCH   14    6
ATOM    118  H10 UNL A   1      10.008  52.205  10.977  1.00  0.00    +0.000 H 
ATOM      6  C5  UNL A   1      10.930  51.663  10.942  1.00  0.00    +0.000 C 
BRANCH    6    5
ATOM      2  C2  UNL A   1       8.851  48.990   8.316  1.00  0.00    +0.000 C 
ATOM      3  C3  UNL A   1       9.851  49.930   7.651  1.00  0.00    +0.000 C 
ATOM      4  C4  UNL A   1      10.381  50.995   8.618  1.00  0.00    +0.000 C 
ATOM    164  H56 UNL A   1      10.423  47.835   9.172  1.00  0.00    +0.000 H 
ATOM    165  H57 UNL A   1       8.873  47.652   9.970  1.00  0.00    +0.000 H 
ATOM    162  H54 UNL A   1       9.044  49.787  10.975  1.00  0.00    +0.000 H 
ATOM    163  H55 UNL A   1      10.594  48.929  11.222  1.00  0.00    +0.000 H 
ATOM      5  N1  UNL A   1      10.684  50.542   9.977  1.00  0.00    +0.000 N 
ATOM    107  C79 UNL A   1       9.938  49.409  10.526  1.00  0.00    +0.000 C 
ATOM    108  C80 UNL A   1       9.545  48.345   9.508  1.00  0.00    +0.000 C 
ATOM    112  H4  UNL A   1       7.991  49.541   8.637  1.00  0.00    +0.000 H 
ATOM    113  H5  UNL A   1       9.371  50.420   6.830  1.00  0.00    +0.000 H 
ATOM    114  H6  UNL A   1      10.684  49.343   7.322  1.00  0.00    +0.000 H 
ATOM    115  H7  UNL A   1       9.644  51.767   8.687  1.00  0.00    +0.000 H 
ATOM    116  H8  UNL A   1      11.317  51.313   8.208  1.00  0.00    +0.000 H 
ATOM    117  H9  UNL A   1      11.583  50.084   9.832  1.00  0.00    +0.000 H 
BRANCH    2    1
ATOM      1  C1  UNL A   1       8.355  47.931   7.344  1.00  0.00    +0.000 C 
ATOM    109  H1  UNL A   1       9.064  47.816   6.551  1.00  0.00    +0.000 H 
ATOM    110  H2  UNL A   1       7.412  48.233   6.939  1.00  0.00    +0.000 H 
ATOM    111  H3  UNL A   1       8.242  46.999   7.858  1.00  0.00    +0.000 H 
ENDBRANCH    2    1
ENDBRANCH    6    5
BRANCH    6    7
ATOM      7  C6  UNL A   1      12.057  52.566  10.399  1.00  0.00    +0.000 C 
ATOM      8  C7  UNL A   1      12.864  52.182   9.310  1.00  0.00    +0.000 C 
ATOM      9  C8  UNL A   1      13.869  53.027   8.834  1.00  0.00    +0.000 C 
ATOM     10  C9  UNL A   1      14.083  54.251   9.453  1.00  0.00    +0.000 C 
ATOM     11  F1  UNL A   1      15.055  55.056   9.002  1.00  0.00    +0.000 F 
ATOM     12  C10 UNL A   1      13.306  54.654  10.530  1.00  0.00    +0.000 C 
ATOM     13  C11 UNL A   1      12.286  53.822  10.994  1.00  0.00    +0.000 C 
ATOM    119  H11 UNL A   1      12.711  51.267   8.859  1.00  0.00    +0.000 H 
ATOM    120  H12 UNL A   1      14.447  52.743   8.028  1.00  0.00    +0.000 H 
ATOM    121  H13 UNL A   1      13.481  55.565  10.985  1.00  0.00    +0.000 H 
ATOM    122  H14 UNL A   1      11.693  54.130  11.781  1.00  0.00    +0.000 H 
ENDBRANCH    6    7
ENDBRANCH   14    6
BRANCH   96   97
ATOM     97  C72 UNL A   1      13.427  50.358  12.190  1.00  0.00    +0.000 C 
ATOM     98  C73 UNL A   1      14.552  51.190  12.297  1.00  0.00    +0.000 C 
ATOM     99  C74 UNL A   1      15.706  50.937  11.547  1.00  0.00    +0.000 C 
ATOM    161  H53 UNL A   1      12.655  48.678  11.168  1.00  0.00    +0.000 H 
ATOM    100  C75 UNL A   1      15.763  49.844  10.670  1.00  0.00    +0.000 C 
ATOM    101  C76 UNL A   1      17.010  49.578   9.865  1.00  0.00    +0.000 C 
ATOM    102  F17 UNL A   1      17.167  50.467   8.844  1.00  0.00    +0.000 F 
ATOM    103  F18 UNL A   1      18.148  49.657  10.609  1.00  0.00    +0.000 F 
ATOM    105  C77 UNL A   1      14.634  49.025  10.540  1.00  0.00    +0.000 C 
ATOM    106  C78 UNL A   1      13.481  49.284  11.284  1.00  0.00    +0.000 C 
ATOM    104  F19 UNL A   1      17.030  48.343   9.289  1.00  0.00    +0.000 F 
ATOM    158  H50 UNL A   1      14.527  52.000  12.935  1.00  0.00    +0.000 H 
ATOM    159  H51 UNL A   1      16.523  51.559  11.641  1.00  0.00    +0.000 H 
ATOM    160  H52 UNL A   1      14.654  48.224   9.888  1.00  0.00    +0.000 H 
ENDBRANCH   96   97
ENDBRANCH   18   17
BRANCH   18   19
ATOM     19  C17 UNL A   1      10.533  50.888  17.679  1.00  0.00    +0.000 C 
ATOM    126  H18 UNL A   1      10.963  51.862  17.571  1.00  0.00    +0.000 H 
ATOM    127  H19 UNL A   1      10.761  50.504  18.652  1.00  0.00    +0.000 H 
ATOM    128  H20 UNL A   1       9.472  50.951  17.560  1.00  0.00    +0.000 H 
ENDBRANCH   18   19
ENDBRANCH   20   18
ENDBRANCH   22   20
ENDBRANCH   23   22
ENDBRANCH   24   23
ENDBRANCH   25   24
ENDBRANCH   26   25
ENDBRANCH   27   26
ENDBRANCH   28   27
ENDBRANCH   29   28
ENDBRANCH   30   29
ENDBRANCH   32   30
ENDBRANCH   36   35
BRANCH   40   41
ATOM     41  C34 UNL A   1      17.289  48.563  -1.131  1.00  0.00    +0.000 C 
ATOM     42  C35 UNL A   1      16.620  48.255  -2.324  1.00  0.00    +0.000 C 
ATOM     43  F2  UNL A   1      15.615  49.031  -2.758  1.00  0.00    +0.000 F 
ATOM     44  C36 UNL A   1      16.971  47.134  -3.074  1.00  0.00    +0.000 C 
ATOM     45  F3  UNL A   1      16.302  46.845  -4.198  1.00  0.00    +0.000 F 
ATOM     46  C37 UNL A   1      18.011  46.318  -2.657  1.00  0.00    +0.000 C 
ATOM     47  F4  UNL A   1      18.358  45.248  -3.386  1.00  0.00    +0.000 F 
ATOM     48  C38 UNL A   1      18.694  46.610  -1.485  1.00  0.00    +0.000 C 
ATOM     49  F5  UNL A   1      19.713  45.835  -1.092  1.00  0.00    +0.000 F 
ATOM     50  C39 UNL A   1      18.326  47.714  -0.720  1.00  0.00    +0.000 C 
ATOM     51  F6  UNL A   1      19.001  47.971   0.410  1.00  0.00    +0.000 F 
ENDBRANCH   40   41
BRANCH   57   58
ATOM     65  C49 UNL A   1      20.273  56.858  -1.662  1.00  0.00    +0.000 C 
ATOM     66  F10 UNL A   1      21.560  57.152  -1.432  1.00  0.00    +0.000 F 
ATOM     67  C50 UNL A   1      19.595  55.993  -0.809  1.00  0.00    +0.000 C 
ATOM     68  F11 UNL A   1      20.251  55.458   0.233  1.00  0.00    +0.000 F 
ATOM     58  C45 UNL A   1      18.246  55.681  -1.026  1.00  0.00    +0.000 C 
ATOM     59  C46 UNL A   1      17.598  56.273  -2.120  1.00  0.00    +0.000 C 
ATOM     60  F7  UNL A   1      16.308  56.000  -2.371  1.00  0.00    +0.000 F 
ATOM     61  C47 UNL A   1      18.284  57.122  -2.983  1.00  0.00    +0.000 C 
ATOM     62  F8  UNL A   1      17.657  57.648  -4.045  1.00  0.00    +0.000 F 
ATOM     63  C48 UNL A   1      19.621  57.413  -2.755  1.00  0.00    +0.000 C 
ATOM     64  F9  UNL A   1      20.283  58.227  -3.589  1.00  0.00    +0.000 F 
ENDBRANCH   57   58
BRANCH   72   73
ATOM     73  C54 UNL A   1      14.442  56.037   4.822  1.00  0.00    +0.000 C 
ATOM     74  C55 UNL A   1      15.314  56.528   5.803  1.00  0.00    +0.000 C 
ATOM     75  F12 UNL A   1      16.555  56.028   5.910  1.00  0.00    +0.000 F 
ATOM     76  C56 UNL A   1      14.906  57.516   6.697  1.00  0.00    +0.000 C 
ATOM     77  F13 UNL A   1      15.746  57.945   7.649  1.00  0.00    +0.000 F 
ATOM     78  C57 UNL A   1      13.627  58.045   6.613  1.00  0.00    +0.000 C 
ATOM     79  F14 UNL A   1      13.234  58.996   7.472  1.00  0.00    +0.000 F 
ATOM     80  C58 UNL A   1      12.753  57.587   5.637  1.00  0.00    +0.000 C 
ATOM     81  F15 UNL A   1      11.523  58.108   5.540  1.00  0.00    +0.000 F 
ATOM     82  C59 UNL A   1      13.155  56.586   4.755  1.00  0.00    +0.000 C 
ATOM     83  F16 UNL A   1      12.293  56.158   3.821  1.00  0.00    +0.000 F 
ENDBRANCH   72   73
TORSDOF 22
ENDMDL
MODEL 8
REMARK VINA RESULT:      -8.2     51.165     59.748
ROOT
ATOM    145  H37 UNL A   1       2.978  -3.310  34.577  1.00  0.00    +0.000 H 
ATOM    146  H38 UNL A   1       3.859  -5.748  34.857  1.00  0.00    +0.000 H 
ATOM    147  H39 UNL A   1       4.564  -4.550  30.955  1.00  0.00    +0.000 H 
ATOM    148  H40 UNL A   1       6.505  -5.914  25.043  1.00  0.00    +0.000 H 
ATOM    149  H41 UNL A   1       5.737  -3.506  24.796  1.00  0.00    +0.000 H 
ATOM    150  H42 UNL A   1       4.925  -4.710  28.692  1.00  0.00    +0.000 H 
ATOM    151  H43 UNL A   1       6.850  -9.356  29.113  1.00  0.00    +0.000 H 
ATOM    152  H44 UNL A   1       6.105  -9.307  31.562  1.00  0.00    +0.000 H 
ATOM    153  H45 UNL A   1       2.945   0.177  30.508  1.00  0.00    +0.000 H 
ATOM    154  H46 UNL A   1       3.305   0.013  27.977  1.00  0.00    +0.000 H 
ATOM     36  C30 UNL A   1       4.614  -2.385  27.166  1.00  0.00    +0.000 C 
ATOM     37  C31 UNL A   1       4.111  -2.032  28.538  1.00  0.00    +0.000 C 
ATOM     38  N4  UNL A   1       4.158  -2.732  29.644  1.00  0.00    +0.000 N 
ATOM     39  C32 UNL A   1       3.628  -1.912  30.631  1.00  0.00    +0.000 C 
ATOM     40  C33 UNL A   1       3.420  -2.194  31.939  1.00  0.00    +0.000 C 
ATOM     52  C40 UNL A   1       3.693  -3.468  32.548  1.00  0.00    +0.000 C 
ATOM     53  C41 UNL A   1       3.434  -3.876  33.844  1.00  0.00    +0.000 C 
ATOM     54  C42 UNL A   1       3.894  -5.188  33.990  1.00  0.00    +0.000 C 
ATOM     55  C43 UNL A   1       4.405  -5.610  32.773  1.00  0.00    +0.000 C 
ATOM     56  N5  UNL A   1       4.280  -4.544  31.898  1.00  0.00    +0.000 N 
ATOM     57  C44 UNL A   1       4.972  -6.891  32.438  1.00  0.00    +0.000 C 
ATOM     69  C51 UNL A   1       5.431  -7.241  31.213  1.00  0.00    +0.000 C 
ATOM     70  N6  UNL A   1       5.454  -6.488  30.046  1.00  0.00    +0.000 N 
ATOM     71  C52 UNL A   1       5.990  -7.257  29.131  1.00  0.00    +0.000 C 
ATOM     72  C53 UNL A   1       6.249  -6.958  27.682  1.00  0.00    +0.000 C 
ATOM     84  C60 UNL A   1       5.874  -5.770  27.171  1.00  0.00    +0.000 C 
ATOM     85  C61 UNL A   1       6.093  -5.338  25.792  1.00  0.00    +0.000 C 
ATOM     86  C62 UNL A   1       5.673  -4.070  25.659  1.00  0.00    +0.000 C 
ATOM     87  C63 UNL A   1       5.110  -3.615  26.930  1.00  0.00    +0.000 C 
ATOM     88  N7  UNL A   1       5.247  -4.700  27.762  1.00  0.00    +0.000 N 
ATOM     89  C64 UNL A   1       6.390  -8.585  29.622  1.00  0.00    +0.000 C 
ATOM     90  C65 UNL A   1       6.007  -8.530  30.891  1.00  0.00    +0.000 C 
ATOM     91  C66 UNL A   1       3.298  -0.651  30.004  1.00  0.00    +0.000 C 
ATOM     92  C67 UNL A   1       3.508  -0.699  28.696  1.00  0.00    +0.000 C 
ENDROOT
BRANCH   36   35
ATOM     33  C27 UNL A   1       5.767   0.572  25.054  1.00  0.00    +0.000 C 
ATOM     34  C28 UNL A   1       5.785  -0.463  25.998  1.00  0.00    +0.000 C 
ATOM     35  C29 UNL A   1       4.694  -1.339  26.111  1.00  0.00    +0.000 C 
ATOM    143  H35 UNL A   1       6.559   1.229  24.991  1.00  0.00    +0.000 H 
ATOM    144  H36 UNL A   1       6.605  -0.582  26.614  1.00  0.00    +0.000 H 
ATOM    155  H47 UNL A   1       2.829  -1.866  25.270  1.00  0.00    +0.000 H 
ATOM    156  H48 UNL A   1       2.887  -0.189  23.525  1.00  0.00    +0.000 H 
ATOM     93  C68 UNL A   1       3.629  -1.217  25.208  1.00  0.00    +0.000 C 
ATOM     94  C69 UNL A   1       3.640  -0.229  24.229  1.00  0.00    +0.000 C 
ATOM     32  C26 UNL A   1       4.671   0.711  24.200  1.00  0.00    +0.000 C 
BRANCH   32   30
ATOM     30  C25 UNL A   1       4.618   1.840  23.244  1.00  0.00    +0.000 C 
ATOM     31  O2  UNL A   1       3.596   2.064  22.621  1.00  0.00    +0.000 O 
BRANCH   30   29
ATOM     29  N3  UNL A   1       5.731   2.640  23.078  1.00  0.00    +0.000 N 
ATOM    142  H34 UNL A   1       5.675   3.535  23.484  1.00  0.00    +0.000 H 
BRANCH   29   28
ATOM    141  H33 UNL A   1       7.052   3.001  21.545  1.00  0.00    +0.000 H 
ATOM     28  C24 UNL A   1       6.977   2.344  22.386  1.00  0.00    +0.000 C 
ATOM    140  H32 UNL A   1       6.967   1.320  22.077  1.00  0.00    +0.000 H 
BRANCH   28   27
ATOM    138  H30 UNL A   1       8.668   3.486  22.965  1.00  0.00    +0.000 H 
ATOM     27  C23 UNL A   1       8.196   2.578  23.278  1.00  0.00    +0.000 C 
ATOM    139  H31 UNL A   1       7.830   2.617  24.282  1.00  0.00    +0.000 H 
BRANCH   27   26
ATOM    137  H29 UNL A   1       9.683   1.505  22.267  1.00  0.00    +0.000 H 
ATOM     26  C22 UNL A   1       9.244   1.460  23.243  1.00  0.00    +0.000 C 
ATOM    136  H28 UNL A   1       8.747   0.537  23.455  1.00  0.00    +0.000 H 
BRANCH   26   25
ATOM     25  C21 UNL A   1      10.411   1.604  24.230  1.00  0.00    +0.000 C 
ATOM    134  H26 UNL A   1      10.803   0.627  24.423  1.00  0.00    +0.000 H 
ATOM    135  H27 UNL A   1      11.112   2.265  23.765  1.00  0.00    +0.000 H 
BRANCH   25   24
ATOM    132  H24 UNL A   1       9.936   3.296  25.424  1.00  0.00    +0.000 H 
ATOM    133  H25 UNL A   1       9.159   1.765  25.911  1.00  0.00    +0.000 H 
ATOM     24  C20 UNL A   1      10.054   2.244  25.576  1.00  0.00    +0.000 C 
BRANCH   24   23
ATOM    130  H22 UNL A   1      12.048   2.386  26.328  1.00  0.00    +0.000 H 
ATOM    131  H23 UNL A   1      10.782   2.574  27.545  1.00  0.00    +0.000 H 
ATOM     23  C19 UNL A   1      11.101   2.033  26.679  1.00  0.00    +0.000 C 
BRANCH   23   22
ATOM    129  H21 UNL A   1      10.546   0.331  27.687  1.00  0.00    +0.000 H 
ATOM     22  N2  UNL A   1      11.230   0.636  27.047  1.00  0.00    +0.000 N 
BRANCH   22   20
ATOM     20  C18 UNL A   1      12.109  -0.338  26.683  1.00  0.00    +0.000 C 
ATOM     21  O1  UNL A   1      13.304  -0.010  26.673  1.00  0.00    +0.000 O 
BRANCH   20   18
ATOM     18  C16 UNL A   1      11.716  -1.775  26.290  1.00  0.00    +0.000 C 
ATOM    125  H17 UNL A   1      10.790  -1.958  26.795  1.00  0.00    +0.000 H 
BRANCH   18   17
ATOM     14  C12 UNL A   1      10.665  -1.834  22.040  1.00  0.00    +0.000 C 
ATOM     15  C13 UNL A   1      11.986  -1.670  22.490  1.00  0.00    +0.000 C 
ATOM     16  C14 UNL A   1      12.344  -1.777  23.831  1.00  0.00    +0.000 C 
ATOM     17  C15 UNL A   1      11.382  -1.918  24.816  1.00  0.00    +0.000 C 
ATOM    123  H15 UNL A   1      12.723  -1.462  21.797  1.00  0.00    +0.000 H 
ATOM    124  H16 UNL A   1      13.342  -1.753  24.094  1.00  0.00    +0.000 H 
ATOM    157  H49 UNL A   1       9.340  -2.331  25.106  1.00  0.00    +0.000 H 
ATOM     95  C70 UNL A   1      10.069  -2.168  24.393  1.00  0.00    +0.000 C 
ATOM     96  C71 UNL A   1       9.704  -2.203  23.022  1.00  0.00    +0.000 C 
BRANCH   14    6
ATOM    118  H10 UNL A   1       9.244  -1.520  20.628  1.00  0.00    +0.000 H 
ATOM      6  C5  UNL A   1      10.300  -1.667  20.535  1.00  0.00    +0.000 C 
BRANCH    6    5
ATOM      2  C2  UNL A   1       9.793  -5.627  18.978  1.00  0.00    +0.000 C 
ATOM      3  C3  UNL A   1       9.226  -4.499  18.122  1.00  0.00    +0.000 C 
ATOM      4  C4  UNL A   1       9.248  -3.149  18.848  1.00  0.00    +0.000 C 
ATOM    164  H56 UNL A   1      11.789  -5.075  18.482  1.00  0.00    +0.000 H 
ATOM    165  H57 UNL A   1      11.646  -6.037  19.940  1.00  0.00    +0.000 H 
ATOM    162  H54 UNL A   1      10.774  -4.209  21.162  1.00  0.00    +0.000 H 
ATOM    163  H55 UNL A   1      12.218  -3.646  20.271  1.00  0.00    +0.000 H 
ATOM      5  N1  UNL A   1      10.447  -2.858  19.637  1.00  0.00    +0.000 N 
ATOM    107  C79 UNL A   1      11.202  -3.973  20.211  1.00  0.00    +0.000 C 
ATOM    108  C80 UNL A   1      11.213  -5.243  19.368  1.00  0.00    +0.000 C 
ATOM    112  H4  UNL A   1       9.189  -5.760  19.851  1.00  0.00    +0.000 H 
ATOM    113  H5  UNL A   1       8.215  -4.735  17.866  1.00  0.00    +0.000 H 
ATOM    114  H6  UNL A   1       9.839  -4.411  17.248  1.00  0.00    +0.000 H 
ATOM    115  H7  UNL A   1       8.407  -3.121  19.508  1.00  0.00    +0.000 H 
ATOM    116  H8  UNL A   1       9.229  -2.409  18.075  1.00  0.00    +0.000 H 
ATOM    117  H9  UNL A   1      11.100  -2.587  18.903  1.00  0.00    +0.000 H 
BRANCH    2    1
ATOM      1  C1  UNL A   1       9.779  -6.951  18.230  1.00  0.00    +0.000 C 
ATOM    109  H1  UNL A   1       9.424  -6.793  17.233  1.00  0.00    +0.000 H 
ATOM    110  H2  UNL A   1       9.133  -7.639  18.734  1.00  0.00    +0.000 H 
ATOM    111  H3  UNL A   1      10.770  -7.352  18.196  1.00  0.00    +0.000 H 
ENDBRANCH    2    1
ENDBRANCH    6    5
BRANCH    6    7
ATOM      7  C6  UNL A   1      10.950  -0.439  19.866  1.00  0.00    +0.000 C 
ATOM      8  C7  UNL A   1      11.527  -0.505  18.582  1.00  0.00    +0.000 C 
ATOM      9  C8  UNL A   1      12.097   0.628  17.998  1.00  0.00    +0.000 C 
ATOM     10  C9  UNL A   1      12.109   1.827  18.698  1.00  0.00    +0.000 C 
ATOM     11  F1  UNL A   1      12.666   2.910  18.140  1.00  0.00    +0.000 F 
ATOM     12  C10 UNL A   1      11.550   1.921  19.966  1.00  0.00    +0.000 C 
ATOM     13  C11 UNL A   1      10.959   0.796  20.544  1.00  0.00    +0.000 C 
ATOM    119  H11 UNL A   1      11.528  -1.400  18.069  1.00  0.00    +0.000 H 
ATOM    120  H12 UNL A   1      12.506   0.573  17.052  1.00  0.00    +0.000 H 
ATOM    121  H13 UNL A   1      11.572   2.817  20.477  1.00  0.00    +0.000 H 
ATOM    122  H14 UNL A   1      10.525   0.870  21.476  1.00  0.00    +0.000 H 
ENDBRANCH    6    7
ENDBRANCH   14    6
BRANCH   96   97
ATOM     97  C72 UNL A   1       8.348  -2.684  22.693  1.00  0.00    +0.000 C 
ATOM     98  C73 UNL A   1       8.107  -4.020  22.339  1.00  0.00    +0.000 C 
ATOM     99  C74 UNL A   1       6.816  -4.457  22.025  1.00  0.00    +0.000 C 
ATOM    161  H53 UNL A   1       7.422  -0.798  22.916  1.00  0.00    +0.000 H 
ATOM    100  C75 UNL A   1       5.732  -3.568  22.056  1.00  0.00    +0.000 C 
ATOM    101  C76 UNL A   1       4.343  -4.047  21.715  1.00  0.00    +0.000 C 
ATOM    102  F17 UNL A   1       4.184  -4.270  20.381  1.00  0.00    +0.000 F 
ATOM    103  F18 UNL A   1       4.020  -5.218  22.331  1.00  0.00    +0.000 F 
ATOM    105  C77 UNL A   1       5.970  -2.227  22.383  1.00  0.00    +0.000 C 
ATOM    106  C78 UNL A   1       7.262  -1.791  22.689  1.00  0.00    +0.000 C 
ATOM    104  F19 UNL A   1       3.365  -3.164  22.064  1.00  0.00    +0.000 F 
ATOM    158  H50 UNL A   1       8.892  -4.688  22.309  1.00  0.00    +0.000 H 
ATOM    159  H51 UNL A   1       6.658  -5.445  21.769  1.00  0.00    +0.000 H 
ATOM    160  H52 UNL A   1       5.186  -1.555  22.397  1.00  0.00    +0.000 H 
ENDBRANCH   96   97
ENDBRANCH   18   17
BRANCH   18   19
ATOM     19  C17 UNL A   1      12.620  -2.865  26.861  1.00  0.00    +0.000 C 
ATOM    126  H18 UNL A   1      13.176  -2.472  27.686  1.00  0.00    +0.000 H 
ATOM    127  H19 UNL A   1      13.296  -3.201  26.103  1.00  0.00    +0.000 H 
ATOM    128  H20 UNL A   1      12.021  -3.687  27.194  1.00  0.00    +0.000 H 
ENDBRANCH   18   19
ENDBRANCH   20   18
ENDBRANCH   22   20
ENDBRANCH   23   22
ENDBRANCH   24   23
ENDBRANCH   25   24
ENDBRANCH   26   25
ENDBRANCH   27   26
ENDBRANCH   28   27
ENDBRANCH   29   28
ENDBRANCH   30   29
ENDBRANCH   32   30
ENDBRANCH   36   35
BRANCH   40   41
ATOM     41  C34 UNL A   1       2.854  -1.110  32.807  1.00  0.00    +0.000 C 
ATOM     42  C35 UNL A   1       1.477  -0.838  32.798  1.00  0.00    +0.000 C 
ATOM     43  F2  UNL A   1       0.646  -1.579  32.048  1.00  0.00    +0.000 F 
ATOM     44  C36 UNL A   1       0.948   0.209  33.549  1.00  0.00    +0.000 C 
ATOM     45  F3  UNL A   1      -0.367   0.466  33.505  1.00  0.00    +0.000 F 
ATOM     46  C37 UNL A   1       1.780   0.986  34.340  1.00  0.00    +0.000 C 
ATOM     47  F4  UNL A   1       1.268   1.984  35.073  1.00  0.00    +0.000 F 
ATOM     48  C38 UNL A   1       3.142   0.729  34.373  1.00  0.00    +0.000 C 
ATOM     49  F5  UNL A   1       3.944   1.464  35.153  1.00  0.00    +0.000 F 
ATOM     50  C39 UNL A   1       3.677  -0.300  33.601  1.00  0.00    +0.000 C 
ATOM     51  F6  UNL A   1       4.999  -0.524  33.650  1.00  0.00    +0.000 F 
ENDBRANCH   40   41
BRANCH   57   58
ATOM     65  C49 UNL A   1       4.218  -9.933  34.596  1.00  0.00    +0.000 C 
ATOM     66  F10 UNL A   1       3.279 -10.884  34.702  1.00  0.00    +0.000 F 
ATOM     67  C50 UNL A   1       4.078  -8.921  33.651  1.00  0.00    +0.000 C 
ATOM     68  F11 UNL A   1       2.999  -8.920  32.852  1.00  0.00    +0.000 F 
ATOM     58  C45 UNL A   1       5.043  -7.912  33.531  1.00  0.00    +0.000 C 
ATOM     59  C46 UNL A   1       6.147  -7.947  34.396  1.00  0.00    +0.000 C 
ATOM     60  F7  UNL A   1       7.100  -7.005  34.314  1.00  0.00    +0.000 F 
ATOM     61  C47 UNL A   1       6.295  -8.972  35.325  1.00  0.00    +0.000 C 
ATOM     62  F8  UNL A   1       7.376  -9.008  36.116  1.00  0.00    +0.000 F 
ATOM     63  C48 UNL A   1       5.332  -9.965  35.424  1.00  0.00    +0.000 C 
ATOM     64  F9  UNL A   1       5.477 -10.955  36.315  1.00  0.00    +0.000 F 
ENDBRANCH   57   58
BRANCH   72   73
ATOM     73  C54 UNL A   1       6.882  -7.964  26.793  1.00  0.00    +0.000 C 
ATOM     74  C55 UNL A   1       8.266  -8.190  26.808  1.00  0.00    +0.000 C 
ATOM     75  F12 UNL A   1       9.046  -7.521  27.670  1.00  0.00    +0.000 F 
ATOM     76  C56 UNL A   1       8.857  -9.085  25.918  1.00  0.00    +0.000 C 
ATOM     77  F13 UNL A   1      10.186  -9.257  25.928  1.00  0.00    +0.000 F 
ATOM     78  C57 UNL A   1       8.074  -9.784  25.012  1.00  0.00    +0.000 C 
ATOM     79  F14 UNL A   1       8.643 -10.645  24.155  1.00  0.00    +0.000 F 
ATOM     80  C58 UNL A   1       6.701  -9.590  24.992  1.00  0.00    +0.000 C 
ATOM     81  F15 UNL A   1       5.939 -10.277  24.130  1.00  0.00    +0.000 F 
ATOM     82  C59 UNL A   1       6.112  -8.682  25.869  1.00  0.00    +0.000 C 
ATOM     83  F16 UNL A   1       4.782  -8.510  25.831  1.00  0.00    +0.000 F 
ENDBRANCH   72   73
TORSDOF 22
ENDMDL
MODEL 9
REMARK VINA RESULT:      -8.1      1.814      3.333
ROOT
ATOM    145  H37 UNL A   1      13.793  46.746   2.299  1.00  0.00    +0.000 H 
ATOM    146  H38 UNL A   1      15.485  47.048   0.338  1.00  0.00    +0.000 H 
ATOM    147  H39 UNL A   1      15.126  50.670   2.314  1.00  0.00    +0.000 H 
ATOM    148  H40 UNL A   1      16.476  56.883   2.709  1.00  0.00    +0.000 H 
ATOM    149  H41 UNL A   1      14.905  56.565   4.678  1.00  0.00    +0.000 H 
ATOM    150  H42 UNL A   1      15.166  52.941   2.659  1.00  0.00    +0.000 H 
ATOM    151  H43 UNL A   1      18.600  53.646  -0.972  1.00  0.00    +0.000 H 
ATOM    152  H44 UNL A   1      18.272  51.182  -1.587  1.00  0.00    +0.000 H 
ATOM    153  H45 UNL A   1      11.944  50.000   6.134  1.00  0.00    +0.000 H 
ATOM    154  H46 UNL A   1      11.942  52.533   6.517  1.00  0.00    +0.000 H 
ATOM     36  C30 UNL A   1      13.848  53.928   4.922  1.00  0.00    +0.000 C 
ATOM     37  C31 UNL A   1      13.473  52.474   4.844  1.00  0.00    +0.000 C 
ATOM     38  N4  UNL A   1      13.926  51.542   4.043  1.00  0.00    +0.000 N 
ATOM     39  C32 UNL A   1      13.308  50.366   4.446  1.00  0.00    +0.000 C 
ATOM     40  C33 UNL A   1      13.414  49.130   3.903  1.00  0.00    +0.000 C 
ATOM     52  C40 UNL A   1      14.196  48.820   2.736  1.00  0.00    +0.000 C 
ATOM     53  C41 UNL A   1      14.295  47.616   2.062  1.00  0.00    +0.000 C 
ATOM     54  C42 UNL A   1      15.192  47.782   1.002  1.00  0.00    +0.000 C 
ATOM     55  C43 UNL A   1      15.622  49.099   0.994  1.00  0.00    +0.000 C 
ATOM     56  N5  UNL A   1      15.007  49.724   2.066  1.00  0.00    +0.000 N 
ATOM     57  C44 UNL A   1      16.532  49.737   0.078  1.00  0.00    +0.000 C 
ATOM     69  C51 UNL A   1      16.888  51.043   0.120  1.00  0.00    +0.000 C 
ATOM     70  N6  UNL A   1      16.472  52.029   1.004  1.00  0.00    +0.000 N 
ATOM     71  C52 UNL A   1      17.089  53.125   0.639  1.00  0.00    +0.000 C 
ATOM     72  C53 UNL A   1      17.004  54.500   1.238  1.00  0.00    +0.000 C 
ATOM     84  C60 UNL A   1      16.171  54.723   2.273  1.00  0.00    +0.000 C 
ATOM     85  C61 UNL A   1      16.014  55.999   2.969  1.00  0.00    +0.000 C 
ATOM     86  C62 UNL A   1      15.171  55.834   4.000  1.00  0.00    +0.000 C 
ATOM     87  C63 UNL A   1      14.691  54.452   4.011  1.00  0.00    +0.000 C 
ATOM     88  N7  UNL A   1      15.317  53.874   2.932  1.00  0.00    +0.000 N 
ATOM     89  C64 UNL A   1      17.989  52.952  -0.512  1.00  0.00    +0.000 C 
ATOM     90  C65 UNL A   1      17.811  51.670  -0.803  1.00  0.00    +0.000 C 
ATOM     91  C66 UNL A   1      12.475  50.692   5.582  1.00  0.00    +0.000 C 
ATOM     92  C67 UNL A   1      12.484  51.995   5.823  1.00  0.00    +0.000 C 
ENDROOT
BRANCH   36   35
ATOM     33  C27 UNL A   1      13.545  55.445   8.405  1.00  0.00    +0.000 C 
ATOM     34  C28 UNL A   1      14.065  54.733   7.316  1.00  0.00    +0.000 C 
ATOM     35  C29 UNL A   1      13.402  54.750   6.078  1.00  0.00    +0.000 C 
ATOM    143  H35 UNL A   1      14.021  55.410   9.320  1.00  0.00    +0.000 H 
ATOM    144  H36 UNL A   1      14.937  54.194   7.424  1.00  0.00    +0.000 H 
ATOM    155  H47 UNL A   1      11.782  55.593   5.016  1.00  0.00    +0.000 H 
ATOM    156  H48 UNL A   1      10.996  56.961   6.852  1.00  0.00    +0.000 H 
ATOM     93  C68 UNL A   1      12.267  55.559   5.926  1.00  0.00    +0.000 C 
ATOM     94  C69 UNL A   1      11.789  56.316   6.991  1.00  0.00    +0.000 C 
ATOM     32  C26 UNL A   1      12.382  56.201   8.248  1.00  0.00    +0.000 C 
BRANCH   32   30
ATOM     30  C25 UNL A   1      11.795  56.903   9.412  1.00  0.00    +0.000 C 
ATOM     31  O2  UNL A   1      11.735  58.120   9.424  1.00  0.00    +0.000 O 
BRANCH   30   29
ATOM     29  N3  UNL A   1      11.307  56.166  10.473  1.00  0.00    +0.000 N 
ATOM    142  H34 UNL A   1      11.964  55.945  11.172  1.00  0.00    +0.000 H 
BRANCH   29   28
ATOM    141  H33 UNL A   1       9.269  56.418  10.372  1.00  0.00    +0.000 H 
ATOM     28  C24 UNL A   1       9.958  55.668  10.700  1.00  0.00    +0.000 C 
ATOM    140  H32 UNL A   1       9.837  55.462  11.742  1.00  0.00    +0.000 H 
BRANCH   28   27
ATOM    138  H30 UNL A   1      10.618  53.943   9.659  1.00  0.00    +0.000 H 
ATOM     27  C23 UNL A   1       9.679  54.390   9.908  1.00  0.00    +0.000 C 
ATOM    139  H31 UNL A   1       9.070  53.775  10.535  1.00  0.00    +0.000 H 
BRANCH   27   26
ATOM    137  H29 UNL A   1       9.507  55.221   7.993  1.00  0.00    +0.000 H 
ATOM     26  C22 UNL A   1       8.891  54.598   8.610  1.00  0.00    +0.000 C 
ATOM    136  H28 UNL A   1       7.948  55.033   8.864  1.00  0.00    +0.000 H 
BRANCH   26   25
ATOM     25  C21 UNL A   1       8.619  53.334   7.783  1.00  0.00    +0.000 C 
ATOM    134  H26 UNL A   1       8.921  52.487   8.364  1.00  0.00    +0.000 H 
ATOM    135  H27 UNL A   1       7.573  53.348   7.556  1.00  0.00    +0.000 H 
BRANCH   25   24
ATOM    132  H24 UNL A   1      10.016  54.093   6.374  1.00  0.00    +0.000 H 
ATOM    133  H25 UNL A   1       9.840  52.317   6.406  1.00  0.00    +0.000 H 
ATOM     24  C20 UNL A   1       9.343  53.264   6.435  1.00  0.00    +0.000 C 
BRANCH   24   23
ATOM    130  H22 UNL A   1       7.529  53.844   5.469  1.00  0.00    +0.000 H 
ATOM    131  H23 UNL A   1       8.944  53.791   4.415  1.00  0.00    +0.000 H 
ATOM     23  C19 UNL A   1       8.418  53.308   5.211  1.00  0.00    +0.000 C 
BRANCH   23   22
ATOM    129  H21 UNL A   1       7.085  51.791   4.834  1.00  0.00    +0.000 H 
ATOM     22  N2  UNL A   1       8.048  51.979   4.760  1.00  0.00    +0.000 N 
BRANCH   22   20
ATOM     20  C18 UNL A   1       8.770  50.941   4.254  1.00  0.00    +0.000 C 
ATOM     21  O1  UNL A   1       9.718  51.251   3.518  1.00  0.00    +0.000 O 
BRANCH   20   18
ATOM     18  C16 UNL A   1       8.481  49.454   4.531  1.00  0.00    +0.000 C 
ATOM    125  H17 UNL A   1       9.256  48.919   4.021  1.00  0.00    +0.000 H 
BRANCH   18   17
ATOM     14  C12 UNL A   1       8.777  48.656   8.825  1.00  0.00    +0.000 C 
ATOM     15  C13 UNL A   1       7.822  48.032   8.005  1.00  0.00    +0.000 C 
ATOM     16  C14 UNL A   1       7.803  48.183   6.622  1.00  0.00    +0.000 C 
ATOM     17  C15 UNL A   1       8.654  49.076   5.991  1.00  0.00    +0.000 C 
ATOM    123  H15 UNL A   1       7.103  47.437   8.447  1.00  0.00    +0.000 H 
ATOM    124  H16 UNL A   1       7.147  47.622   6.058  1.00  0.00    +0.000 H 
ATOM    157  H49 UNL A   1      10.352  50.273   6.315  1.00  0.00    +0.000 H 
ATOM     95  C70 UNL A   1       9.670  49.646   6.770  1.00  0.00    +0.000 C 
ATOM     96  C71 UNL A   1       9.795  49.395   8.161  1.00  0.00    +0.000 C 
BRANCH   14    6
ATOM    118  H10 UNL A   1       7.933  47.793  10.455  1.00  0.00    +0.000 H 
ATOM      6  C5  UNL A   1       8.740  48.492  10.374  1.00  0.00    +0.000 C 
BRANCH    6    5
ATOM      2  C2  UNL A   1       6.204  51.368  12.288  1.00  0.00    +0.000 C 
ATOM      3  C3  UNL A   1       6.969  50.432  13.219  1.00  0.00    +0.000 C 
ATOM      4  C4  UNL A   1       7.670  49.301  12.460  1.00  0.00    +0.000 C 
ATOM    164  H56 UNL A   1       7.988  52.424  11.796  1.00  0.00    +0.000 H 
ATOM    165  H57 UNL A   1       6.690  52.615  10.633  1.00  0.00    +0.000 H 
ATOM    162  H54 UNL A   1       7.005  50.425   9.795  1.00  0.00    +0.000 H 
ATOM    163  H55 UNL A   1       8.605  51.216   9.901  1.00  0.00    +0.000 H 
ATOM      5  N1  UNL A   1       8.316  49.670  11.199  1.00  0.00    +0.000 N 
ATOM    107  C79 UNL A   1       7.779  50.796  10.434  1.00  0.00    +0.000 C 
ATOM    108  C80 UNL A   1       7.197  51.925  11.276  1.00  0.00    +0.000 C 
ATOM    112  H4  UNL A   1       5.426  50.830  11.789  1.00  0.00    +0.000 H 
ATOM    113  H5  UNL A   1       6.281  50.003  13.917  1.00  0.00    +0.000 H 
ATOM    114  H6  UNL A   1       7.722  51.008  13.717  1.00  0.00    +0.000 H 
ATOM    115  H7  UNL A   1       6.939  48.550  12.245  1.00  0.00    +0.000 H 
ATOM    116  H8  UNL A   1       8.462  48.974  13.101  1.00  0.00    +0.000 H 
ATOM    117  H9  UNL A   1       9.172  50.106  11.541  1.00  0.00    +0.000 H 
BRANCH    2    1
ATOM      1  C1  UNL A   1       5.534  52.493  13.060  1.00  0.00    +0.000 C 
ATOM    109  H1  UNL A   1       4.688  52.107  13.589  1.00  0.00    +0.000 H 
ATOM    110  H2  UNL A   1       5.213  53.252  12.378  1.00  0.00    +0.000 H 
ATOM    111  H3  UNL A   1       6.230  52.911  13.758  1.00  0.00    +0.000 H 
ENDBRANCH    2    1
ENDBRANCH    6    5
BRANCH    6    7
ATOM      7  C6  UNL A   1      10.028  47.887  10.970  1.00  0.00    +0.000 C 
ATOM      8  C7  UNL A   1      10.740  48.521  12.008  1.00  0.00    +0.000 C 
ATOM      9  C8  UNL A   1      11.896  47.942  12.535  1.00  0.00    +0.000 C 
ATOM     10  C9  UNL A   1      12.356  46.738  12.019  1.00  0.00    +0.000 C 
ATOM     11  F1  UNL A   1      13.472  46.190  12.519  1.00  0.00    +0.000 F 
ATOM     12  C10 UNL A   1      11.676  46.093  10.994  1.00  0.00    +0.000 C 
ATOM     13  C11 UNL A   1      10.507  46.657  10.480  1.00  0.00    +0.000 C 
ATOM    119  H11 UNL A   1      10.404  49.422  12.382  1.00  0.00    +0.000 H 
ATOM    120  H12 UNL A   1      12.405  48.407  13.304  1.00  0.00    +0.000 H 
ATOM    121  H13 UNL A   1      12.033  45.201  10.616  1.00  0.00    +0.000 H 
ATOM    122  H14 UNL A   1       9.990  46.168   9.734  1.00  0.00    +0.000 H 
ENDBRANCH    6    7
ENDBRANCH   14    6
BRANCH   96   97
ATOM     97  C72 UNL A   1      11.020  49.875   8.830  1.00  0.00    +0.000 C 
ATOM     98  C73 UNL A   1      11.063  51.115   9.485  1.00  0.00    +0.000 C 
ATOM     99  C74 UNL A   1      12.235  51.556  10.109  1.00  0.00    +0.000 C 
ATOM    161  H53 UNL A   1      12.196  48.205   8.288  1.00  0.00    +0.000 H 
ATOM    100  C75 UNL A   1      13.395  50.768  10.094  1.00  0.00    +0.000 C 
ATOM    101  C76 UNL A   1      14.653  51.252  10.768  1.00  0.00    +0.000 C 
ATOM    102  F17 UNL A   1      15.265  52.250  10.072  1.00  0.00    +0.000 F 
ATOM    103  F18 UNL A   1      14.429  51.749  12.016  1.00  0.00    +0.000 F 
ATOM    105  C77 UNL A   1      13.365  49.541   9.419  1.00  0.00    +0.000 C 
ATOM    106  C78 UNL A   1      12.196  49.106   8.790  1.00  0.00    +0.000 C 
ATOM    104  F19 UNL A   1      15.594  50.277  10.923  1.00  0.00    +0.000 F 
ATOM    158  H50 UNL A   1      10.220  51.709   9.505  1.00  0.00    +0.000 H 
ATOM    159  H51 UNL A   1      12.245  52.471  10.588  1.00  0.00    +0.000 H 
ATOM    160  H52 UNL A   1      14.215  48.954   9.386  1.00  0.00    +0.000 H 
ENDBRANCH   96   97
ENDBRANCH   18   17
BRANCH   18   19
ATOM     19  C17 UNL A   1       7.218  48.912   3.864  1.00  0.00    +0.000 C 
ATOM    126  H18 UNL A   1       6.500  48.657   4.615  1.00  0.00    +0.000 H 
ATOM    127  H19 UNL A   1       7.462  48.041   3.292  1.00  0.00    +0.000 H 
ATOM    128  H20 UNL A   1       6.808  49.660   3.217  1.00  0.00    +0.000 H 
ENDBRANCH   18   19
ENDBRANCH   20   18
ENDBRANCH   22   20
ENDBRANCH   23   22
ENDBRANCH   24   23
ENDBRANCH   25   24
ENDBRANCH   26   25
ENDBRANCH   27   26
ENDBRANCH   28   27
ENDBRANCH   29   28
ENDBRANCH   30   29
ENDBRANCH   32   30
ENDBRANCH   36   35
BRANCH   40   41
ATOM     41  C34 UNL A   1      12.653  48.013   4.554  1.00  0.00    +0.000 C 
ATOM     42  C35 UNL A   1      11.445  47.561   4.003  1.00  0.00    +0.000 C 
ATOM     43  F2  UNL A   1      10.981  48.091   2.861  1.00  0.00    +0.000 F 
ATOM     44  C36 UNL A   1      10.696  46.570   4.634  1.00  0.00    +0.000 C 
ATOM     45  F3  UNL A   1       9.531  46.172   4.102  1.00  0.00    +0.000 F 
ATOM     46  C37 UNL A   1      11.152  45.997   5.811  1.00  0.00    +0.000 C 
ATOM     47  F4  UNL A   1      10.438  45.034   6.409  1.00  0.00    +0.000 F 
ATOM     48  C38 UNL A   1      12.350  46.421   6.367  1.00  0.00    +0.000 C 
ATOM     49  F5  UNL A   1      12.804  45.853   7.492  1.00  0.00    +0.000 F 
ATOM     50  C39 UNL A   1      13.086  47.431   5.753  1.00  0.00    +0.000 C 
ATOM     51  F6  UNL A   1      14.240  47.823   6.315  1.00  0.00    +0.000 F 
ENDBRANCH   40   41
BRANCH   57   58
ATOM     65  C49 UNL A   1      18.653  47.154  -1.740  1.00  0.00    +0.000 C 
ATOM     66  F10 UNL A   1      19.693  46.347  -1.487  1.00  0.00    +0.000 F 
ATOM     67  C50 UNL A   1      18.195  48.027  -0.758  1.00  0.00    +0.000 C 
ATOM     68  F11 UNL A   1      18.806  48.041   0.437  1.00  0.00    +0.000 F 
ATOM     58  C45 UNL A   1      17.116  48.885  -1.006  1.00  0.00    +0.000 C 
ATOM     59  C46 UNL A   1      16.517  48.844  -2.274  1.00  0.00    +0.000 C 
ATOM     60  F7  UNL A   1      15.476  49.643  -2.556  1.00  0.00    +0.000 F 
ATOM     61  C47 UNL A   1      16.963  47.956  -3.247  1.00  0.00    +0.000 C 
ATOM     62  F8  UNL A   1      16.352  47.905  -4.439  1.00  0.00    +0.000 F 
ATOM     63  C48 UNL A   1      18.029  47.109  -2.979  1.00  0.00    +0.000 C 
ATOM     64  F9  UNL A   1      18.455  46.250  -3.915  1.00  0.00    +0.000 F 
ENDBRANCH   57   58
BRANCH   72   73
ATOM     73  C54 UNL A   1      17.796  55.627   0.687  1.00  0.00    +0.000 C 
ATOM     74  C55 UNL A   1      17.325  56.403  -0.381  1.00  0.00    +0.000 C 
ATOM     75  F12 UNL A   1      16.113  56.162  -0.903  1.00  0.00    +0.000 F 
ATOM     76  C56 UNL A   1      18.110  57.412  -0.937  1.00  0.00    +0.000 C 
ATOM     77  F13 UNL A   1      17.652  58.116  -1.981  1.00  0.00    +0.000 F 
ATOM     78  C57 UNL A   1      19.370  57.677  -0.422  1.00  0.00    +0.000 C 
ATOM     79  F14 UNL A   1      20.125  58.647  -0.956  1.00  0.00    +0.000 F 
ATOM     80  C58 UNL A   1      19.848  56.934   0.648  1.00  0.00    +0.000 C 
ATOM     81  F15 UNL A   1      21.058  57.199   1.161  1.00  0.00    +0.000 F 
ATOM     82  C59 UNL A   1      19.072  55.913   1.192  1.00  0.00    +0.000 C 
ATOM     83  F16 UNL A   1      19.556  55.208   2.225  1.00  0.00    +0.000 F 
ENDBRANCH   72   73
TORSDOF 22
ENDMDL
MODEL 10
REMARK VINA RESULT:      -8.1     34.291     39.026
ROOT
ATOM    145  H37 UNL A   1      49.905  55.642  15.357  1.00  0.00    +0.000 H 
ATOM    146  H38 UNL A   1      51.704  56.024  17.204  1.00  0.00    +0.000 H 
ATOM    147  H39 UNL A   1      49.547  52.624  18.174  1.00  0.00    +0.000 H 
ATOM    148  H40 UNL A   1      48.223  47.926  22.268  1.00  0.00    +0.000 H 
ATOM    149  H41 UNL A   1      46.536  47.497  20.419  1.00  0.00    +0.000 H 
ATOM    150  H42 UNL A   1      48.615  50.968  19.466  1.00  0.00    +0.000 H 
ATOM    151  H43 UNL A   1      52.160  51.456  23.025  1.00  0.00    +0.000 H 
ATOM    152  H44 UNL A   1      52.965  53.533  21.762  1.00  0.00    +0.000 H 
ATOM    153  H45 UNL A   1      46.175  51.883  14.535  1.00  0.00    +0.000 H 
ATOM    154  H46 UNL A   1      45.095  50.056  15.970  1.00  0.00    +0.000 H 
ATOM     36  C30 UNL A   1      46.580  49.426  18.320  1.00  0.00    +0.000 C 
ATOM     37  C31 UNL A   1      46.834  50.542  17.344  1.00  0.00    +0.000 C 
ATOM     38  N4  UNL A   1      47.773  51.455  17.353  1.00  0.00    +0.000 N 
ATOM     39  C32 UNL A   1      47.600  52.185  16.185  1.00  0.00    +0.000 C 
ATOM     40  C33 UNL A   1      48.294  53.266  15.756  1.00  0.00    +0.000 C 
ATOM     52  C40 UNL A   1      49.358  53.893  16.495  1.00  0.00    +0.000 C 
ATOM     53  C41 UNL A   1      50.060  55.043  16.183  1.00  0.00    +0.000 C 
ATOM     54  C42 UNL A   1      51.015  55.255  17.181  1.00  0.00    +0.000 C 
ATOM     55  C43 UNL A   1      50.883  54.258  18.134  1.00  0.00    +0.000 C 
ATOM     56  N5  UNL A   1      49.864  53.426  17.699  1.00  0.00    +0.000 N 
ATOM     57  C44 UNL A   1      51.634  54.077  19.349  1.00  0.00    +0.000 C 
ATOM     69  C51 UNL A   1      51.429  53.086  20.249  1.00  0.00    +0.000 C 
ATOM     70  N6  UNL A   1      50.486  52.068  20.220  1.00  0.00    +0.000 N 
ATOM     71  C52 UNL A   1      50.681  51.363  21.307  1.00  0.00    +0.000 C 
ATOM     72  C53 UNL A   1      49.938  50.151  21.791  1.00  0.00    +0.000 C 
ATOM     84  C60 UNL A   1      48.892  49.685  21.083  1.00  0.00    +0.000 C 
ATOM     85  C61 UNL A   1      48.105  48.501  21.421  1.00  0.00    +0.000 C 
ATOM     86  C62 UNL A   1      47.203  48.285  20.451  1.00  0.00    +0.000 C 
ATOM     87  C63 UNL A   1      47.315  49.341  19.446  1.00  0.00    +0.000 C 
ATOM     88  N7  UNL A   1      48.326  50.143  19.918  1.00  0.00    +0.000 N 
ATOM     89  C64 UNL A   1      51.792  51.845  22.142  1.00  0.00    +0.000 C 
ATOM     90  C65 UNL A   1      52.199  52.909  21.463  1.00  0.00    +0.000 C 
ATOM     91  C66 UNL A   1      46.492  51.589  15.472  1.00  0.00    +0.000 C 
ATOM     92  C67 UNL A   1      45.936  50.616  16.180  1.00  0.00    +0.000 C 
ENDROOT
BRANCH   36   35
ATOM     33  C27 UNL A   1      43.397  47.351  18.015  1.00  0.00    +0.000 C 
ATOM     34  C28 UNL A   1      44.246  48.439  18.260  1.00  0.00    +0.000 C 
ATOM     35  C29 UNL A   1      45.618  48.345  17.979  1.00  0.00    +0.000 C 
ATOM    143  H35 UNL A   1      42.394  47.415  18.246  1.00  0.00    +0.000 H 
ATOM    144  H36 UNL A   1      43.860  49.313  18.649  1.00  0.00    +0.000 H 
ATOM    155  H47 UNL A   1      47.112  47.107  17.142  1.00  0.00    +0.000 H 
ATOM    156  H48 UNL A   1      45.608  45.303  16.556  1.00  0.00    +0.000 H 
ATOM     93  C68 UNL A   1      46.108  47.181  17.369  1.00  0.00    +0.000 C 
ATOM     94  C69 UNL A   1      45.253  46.126  17.067  1.00  0.00    +0.000 C 
ATOM     32  C26 UNL A   1      43.915  46.181  17.457  1.00  0.00    +0.000 C 
BRANCH   32   30
ATOM     30  C25 UNL A   1      43.036  45.007  17.256  1.00  0.00    +0.000 C 
ATOM     31  O2  UNL A   1      42.432  44.870  16.207  1.00  0.00    +0.000 O 
BRANCH   30   29
ATOM     29  N3  UNL A   1      42.919  44.067  18.261  1.00  0.00    +0.000 N 
ATOM    142  H34 UNL A   1      42.405  43.260  18.029  1.00  0.00    +0.000 H 
BRANCH   29   28
ATOM    141  H33 UNL A   1      43.062  44.974  20.101  1.00  0.00    +0.000 H 
ATOM     28  C24 UNL A   1      43.450  44.103  19.616  1.00  0.00    +0.000 C 
ATOM    140  H32 UNL A   1      44.518  44.131  19.568  1.00  0.00    +0.000 H 
BRANCH   28   27
ATOM    138  H30 UNL A   1      41.966  42.764  20.323  1.00  0.00    +0.000 H 
ATOM     27  C23 UNL A   1      43.024  42.881  20.430  1.00  0.00    +0.000 C 
ATOM    139  H31 UNL A   1      43.582  42.054  20.044  1.00  0.00    +0.000 H 
BRANCH   27   26
ATOM    137  H29 UNL A   1      43.773  42.010  22.180  1.00  0.00    +0.000 H 
ATOM     26  C22 UNL A   1      43.347  42.959  21.926  1.00  0.00    +0.000 C 
ATOM    136  H28 UNL A   1      42.440  43.182  22.446  1.00  0.00    +0.000 H 
BRANCH   26   25
ATOM     25  C21 UNL A   1      44.393  44.006  22.332  1.00  0.00    +0.000 C 
ATOM    134  H26 UNL A   1      44.647  44.574  21.461  1.00  0.00    +0.000 H 
ATOM    135  H27 UNL A   1      43.942  44.589  23.108  1.00  0.00    +0.000 H 
BRANCH   25   24
ATOM    132  H24 UNL A   1      45.429  42.726  23.674  1.00  0.00    +0.000 H 
ATOM    133  H25 UNL A   1      46.235  43.018  22.108  1.00  0.00    +0.000 H 
ATOM     24  C20 UNL A   1      45.689  43.443  22.924  1.00  0.00    +0.000 C 
BRANCH   24   23
ATOM    130  H22 UNL A   1      46.007  45.303  23.924  1.00  0.00    +0.000 H 
ATOM    131  H23 UNL A   1      47.144  44.024  24.359  1.00  0.00    +0.000 H 
ATOM     23  C19 UNL A   1      46.607  44.494  23.562  1.00  0.00    +0.000 C 
BRANCH   23   22
ATOM    129  H21 UNL A   1      47.819  45.957  22.780  1.00  0.00    +0.000 H 
ATOM     22  N2  UNL A   1      47.576  45.017  22.617  1.00  0.00    +0.000 N 
BRANCH   22   20
ATOM     20  C18 UNL A   1      48.217  44.464  21.550  1.00  0.00    +0.000 C 
ATOM     21  O1  UNL A   1      49.250  43.832  21.809  1.00  0.00    +0.000 O 
BRANCH   20   18
ATOM     18  C16 UNL A   1      47.748  44.583  20.087  1.00  0.00    +0.000 C 
ATOM    125  H17 UNL A   1      46.961  45.308  20.104  1.00  0.00    +0.000 H 
BRANCH   18   17
ATOM     14  C12 UNL A   1      50.510  46.471  17.262  1.00  0.00    +0.000 C 
ATOM     15  C13 UNL A   1      50.191  47.044  18.505  1.00  0.00    +0.000 C 
ATOM     16  C14 UNL A   1      49.416  46.391  19.459  1.00  0.00    +0.000 C 
ATOM     17  C15 UNL A   1      48.801  45.185  19.172  1.00  0.00    +0.000 C 
ATOM    123  H15 UNL A   1      50.547  47.989  18.720  1.00  0.00    +0.000 H 
ATOM    124  H16 UNL A   1      49.300  46.812  20.394  1.00  0.00    +0.000 H 
ATOM    157  H49 UNL A   1      48.765  43.624  17.763  1.00  0.00    +0.000 H 
ATOM     95  C70 UNL A   1      49.167  44.551  17.977  1.00  0.00    +0.000 C 
ATOM     96  C71 UNL A   1      50.068  45.135  17.050  1.00  0.00    +0.000 C 
BRANCH   14    6
ATOM    118  H10 UNL A   1      51.955  46.449  15.840  1.00  0.00    +0.000 H 
ATOM      6  C5  UNL A   1      51.349  47.251  16.206  1.00  0.00    +0.000 C 
BRANCH    6    5
ATOM      2  C2  UNL A   1      53.490  49.814  18.891  1.00  0.00    +0.000 C 
ATOM      3  C3  UNL A   1      54.312  48.716  18.222  1.00  0.00    +0.000 C 
ATOM      4  C4  UNL A   1      53.437  47.716  17.460  1.00  0.00    +0.000 C 
ATOM    164  H56 UNL A   1      53.350  50.899  17.063  1.00  0.00    +0.000 H 
ATOM    165  H57 UNL A   1      52.125  51.313  18.246  1.00  0.00    +0.000 H 
ATOM    162  H54 UNL A   1      50.956  49.292  17.868  1.00  0.00    +0.000 H 
ATOM    163  H55 UNL A   1      51.340  50.019  16.280  1.00  0.00    +0.000 H 
ATOM      5  N1  UNL A   1      52.321  48.280  16.698  1.00  0.00    +0.000 N 
ATOM    107  C79 UNL A   1      51.716  49.531  17.155  1.00  0.00    +0.000 C 
ATOM    108  C80 UNL A   1      52.683  50.513  17.806  1.00  0.00    +0.000 C 
ATOM    112  H4  UNL A   1      52.838  49.386  19.623  1.00  0.00    +0.000 H 
ATOM    113  H5  UNL A   1      54.861  48.190  18.975  1.00  0.00    +0.000 H 
ATOM    114  H6  UNL A   1      54.968  49.182  17.516  1.00  0.00    +0.000 H 
ATOM    115  H7  UNL A   1      53.031  47.029  18.173  1.00  0.00    +0.000 H 
ATOM    116  H8  UNL A   1      54.081  47.268  16.733  1.00  0.00    +0.000 H 
ATOM    117  H9  UNL A   1      52.809  48.633  15.875  1.00  0.00    +0.000 H 
BRANCH    2    1
ATOM      1  C1  UNL A   1      54.381  50.805  19.623  1.00  0.00    +0.000 C 
ATOM    109  H1  UNL A   1      54.883  50.307  20.426  1.00  0.00    +0.000 H 
ATOM    110  H2  UNL A   1      53.782  51.600  20.016  1.00  0.00    +0.000 H 
ATOM    111  H3  UNL A   1      55.104  51.205  18.944  1.00  0.00    +0.000 H 
ENDBRANCH    2    1
ENDBRANCH    6    5
BRANCH    6    7
ATOM      7  C6  UNL A   1      50.509  47.848  15.058  1.00  0.00    +0.000 C 
ATOM      8  C7  UNL A   1      49.158  48.212  15.232  1.00  0.00    +0.000 C 
ATOM      9  C8  UNL A   1      48.427  48.762  14.177  1.00  0.00    +0.000 C 
ATOM     10  C9  UNL A   1      49.036  48.935  12.940  1.00  0.00    +0.000 C 
ATOM     11  F1  UNL A   1      48.329  49.453  11.926  1.00  0.00    +0.000 F 
ATOM     12  C10 UNL A   1      50.363  48.583  12.740  1.00  0.00    +0.000 C 
ATOM     13  C11 UNL A   1      51.104  48.054  13.799  1.00  0.00    +0.000 C 
ATOM    119  H11 UNL A   1      48.705  48.071  16.147  1.00  0.00    +0.000 H 
ATOM    120  H12 UNL A   1      47.443  49.037  14.316  1.00  0.00    +0.000 H 
ATOM    121  H13 UNL A   1      50.801  48.712  11.814  1.00  0.00    +0.000 H 
ATOM    122  H14 UNL A   1      52.096  47.812  13.657  1.00  0.00    +0.000 H 
ENDBRANCH    6    7
ENDBRANCH   14    6
BRANCH   96   97
ATOM     97  C72 UNL A   1      50.543  44.288  15.938  1.00  0.00    +0.000 C 
ATOM     98  C73 UNL A   1      49.877  44.253  14.704  1.00  0.00    +0.000 C 
ATOM     99  C74 UNL A   1      50.338  43.441  13.663  1.00  0.00    +0.000 C 
ATOM    161  H53 UNL A   1      52.152  43.446  17.019  1.00  0.00    +0.000 H 
ATOM    100  C75 UNL A   1      51.478  42.641  13.830  1.00  0.00    +0.000 C 
ATOM    101  C76 UNL A   1      51.967  41.767  12.704  1.00  0.00    +0.000 C 
ATOM    102  F17 UNL A   1      51.173  40.678  12.509  1.00  0.00    +0.000 F 
ATOM    103  F18 UNL A   1      52.009  42.418  11.508  1.00  0.00    +0.000 F 
ATOM    105  C77 UNL A   1      52.132  42.652  15.069  1.00  0.00    +0.000 C 
ATOM    106  C78 UNL A   1      51.665  43.459  16.109  1.00  0.00    +0.000 C 
ATOM    104  F19 UNL A   1      53.224  41.279  12.903  1.00  0.00    +0.000 F 
ATOM    158  H50 UNL A   1      49.035  44.833  14.564  1.00  0.00    +0.000 H 
ATOM    159  H51 UNL A   1      49.834  43.430  12.762  1.00  0.00    +0.000 H 
ATOM    160  H52 UNL A   1      52.964  42.059  15.214  1.00  0.00    +0.000 H 
ENDBRANCH   96   97
ENDBRANCH   18   17
BRANCH   18   19
ATOM     19  C17 UNL A   1      47.041  43.346  19.539  1.00  0.00    +0.000 C 
ATOM    126  H18 UNL A   1      47.151  42.536  20.230  1.00  0.00    +0.000 H 
ATOM    127  H19 UNL A   1      47.474  43.074  18.599  1.00  0.00    +0.000 H 
ATOM    128  H20 UNL A   1      46.001  43.560  19.403  1.00  0.00    +0.000 H 
ENDBRANCH   18   19
ENDBRANCH   20   18
ENDBRANCH   22   20
ENDBRANCH   23   22
ENDBRANCH   24   23
ENDBRANCH   25   24
ENDBRANCH   26   25
ENDBRANCH   27   26
ENDBRANCH   28   27
ENDBRANCH   29   28
ENDBRANCH   30   29
ENDBRANCH   32   30
ENDBRANCH   36   35
BRANCH   40   41
ATOM     41  C34 UNL A   1      47.920  53.856  14.429  1.00  0.00    +0.000 C 
ATOM     42  C35 UNL A   1      47.058  54.960  14.361  1.00  0.00    +0.000 C 
ATOM     43  F2  UNL A   1      46.598  55.531  15.485  1.00  0.00    +0.000 F 
ATOM     44  C36 UNL A   1      46.650  55.477  13.133  1.00  0.00    +0.000 C 
ATOM     45  F3  UNL A   1      45.806  56.517  13.092  1.00  0.00    +0.000 F 
ATOM     46  C37 UNL A   1      47.115  54.914  11.954  1.00  0.00    +0.000 C 
ATOM     47  F4  UNL A   1      46.734  55.421  10.774  1.00  0.00    +0.000 F 
ATOM     48  C38 UNL A   1      47.977  53.828  11.998  1.00  0.00    +0.000 C 
ATOM     49  F5  UNL A   1      48.445  53.298  10.861  1.00  0.00    +0.000 F 
ATOM     50  C39 UNL A   1      48.363  53.294  13.224  1.00  0.00    +0.000 C 
ATOM     51  F6  UNL A   1      49.196  52.241  13.237  1.00  0.00    +0.000 F 
ENDBRANCH   40   41
BRANCH   57   58
ATOM     65  C49 UNL A   1      53.547  57.001  20.854  1.00  0.00    +0.000 C 
ATOM     66  F10 UNL A   1      53.321  58.034  21.677  1.00  0.00    +0.000 F 
ATOM     67  C50 UNL A   1      52.503  56.152  20.502  1.00  0.00    +0.000 C 
ATOM     68  F11 UNL A   1      51.279  56.382  21.003  1.00  0.00    +0.000 F 
ATOM     58  C45 UNL A   1      52.716  55.071  19.636  1.00  0.00    +0.000 C 
ATOM     59  C46 UNL A   1      54.009  54.877  19.127  1.00  0.00    +0.000 C 
ATOM     60  F7  UNL A   1      54.263  53.852  18.298  1.00  0.00    +0.000 F 
ATOM     61  C47 UNL A   1      55.056  55.716  19.497  1.00  0.00    +0.000 C 
ATOM     62  F8  UNL A   1      56.292  55.490  19.031  1.00  0.00    +0.000 F 
ATOM     63  C48 UNL A   1      54.825  56.775  20.362  1.00  0.00    +0.000 C 
ATOM     64  F9  UNL A   1      55.835  57.580  20.722  1.00  0.00    +0.000 F 
ENDBRANCH   57   58
BRANCH   72   73
ATOM     73  C54 UNL A   1      50.317  49.475  23.057  1.00  0.00    +0.000 C 
ATOM     74  C55 UNL A   1      51.077  48.297  23.062  1.00  0.00    +0.000 C 
ATOM     75  F12 UNL A   1      51.518  47.778  21.907  1.00  0.00    +0.000 F 
ATOM     76  C56 UNL A   1      51.364  47.633  24.254  1.00  0.00    +0.000 C 
ATOM     77  F13 UNL A   1      52.063  46.489  24.229  1.00  0.00    +0.000 F 
ATOM     78  C57 UNL A   1      50.915  48.144  25.461  1.00  0.00    +0.000 C 
ATOM     79  F14 UNL A   1      51.190  47.505  26.607  1.00  0.00    +0.000 F 
ATOM     80  C58 UNL A   1      50.177  49.319  25.482  1.00  0.00    +0.000 C 
ATOM     81  F15 UNL A   1      49.756  49.826  26.648  1.00  0.00    +0.000 F 
ATOM     82  C59 UNL A   1      49.874  49.973  24.290  1.00  0.00    +0.000 C 
ATOM     83  F16 UNL A   1      49.158  51.107  24.334  1.00  0.00    +0.000 F 
ENDBRANCH   72   73
TORSDOF 22
ENDMDL
