MODEL 1
REMARK VINA RESULT:      -9.4      0.000      0.000
ROOT
ATOM     24  C18 UNL A   1      13.591  53.391   5.859  1.00  0.00    +0.000 C 
ATOM     25  C19 UNL A   1      14.517  53.934   4.808  1.00  0.00    +0.000 C 
ATOM     26  N4  UNL A   1      15.007  53.340   3.750  1.00  0.00    +0.000 N 
ATOM     27  C20 UNL A   1      15.764  54.302   3.093  1.00  0.00    +0.000 C 
ATOM     28  C21 UNL A   1      16.513  54.167   1.972  1.00  0.00    +0.000 C 
ATOM     40  C28 UNL A   1      16.671  52.934   1.246  1.00  0.00    +0.000 C 
ATOM     41  C29 UNL A   1      17.463  52.680   0.139  1.00  0.00    +0.000 C 
ATOM     42  C30 UNL A   1      17.267  51.349  -0.241  1.00  0.00    +0.000 C 
ATOM     43  C31 UNL A   1      16.385  50.763   0.652  1.00  0.00    +0.000 C 
ATOM     44  N5  UNL A   1      16.024  51.748   1.557  1.00  0.00    +0.000 N 
ATOM     45  C32 UNL A   1      15.905  49.406   0.679  1.00  0.00    +0.000 C 
ATOM     57  C39 UNL A   1      15.042  48.903   1.595  1.00  0.00    +0.000 C 
ATOM     58  N6  UNL A   1      14.453  49.539   2.679  1.00  0.00    +0.000 N 
ATOM     59  C40 UNL A   1      13.694  48.640   3.255  1.00  0.00    +0.000 C 
ATOM     60  C41 UNL A   1      12.844  48.765   4.490  1.00  0.00    +0.000 C 
ATOM     72  C48 UNL A   1      12.825  49.932   5.160  1.00  0.00    +0.000 C 
ATOM     73  C49 UNL A   1      12.057  50.200   6.372  1.00  0.00    +0.000 C 
ATOM     74  C50 UNL A   1      12.245  51.480   6.736  1.00  0.00    +0.000 C 
ATOM     75  C51 UNL A   1      13.176  52.111   5.800  1.00  0.00    +0.000 C 
ATOM     76  N7  UNL A   1      13.473  51.115   4.903  1.00  0.00    +0.000 N 
ATOM     77  C52 UNL A   1      13.692  47.334   2.579  1.00  0.00    +0.000 C 
ATOM     78  C53 UNL A   1      14.559  47.538   1.598  1.00  0.00    +0.000 C 
ATOM     79  C54 UNL A   1      15.635  55.530   3.847  1.00  0.00    +0.000 C 
ATOM     80  C55 UNL A   1      14.926  55.341   4.951  1.00  0.00    +0.000 C 
ATOM    105  H22 UNL A   1      18.089  53.356  -0.324  1.00  0.00    +0.000 H 
ATOM    106  H23 UNL A   1      17.706  50.882  -1.051  1.00  0.00    +0.000 H 
ATOM    107  H24 UNL A   1      15.400  51.624   2.309  1.00  0.00    +0.000 H 
ATOM    108  H25 UNL A   1      11.464  49.518   6.870  1.00  0.00    +0.000 H 
ATOM    109  H26 UNL A   1      11.804  51.944   7.546  1.00  0.00    +0.000 H 
ATOM    110  H27 UNL A   1      14.093  51.237   4.148  1.00  0.00    +0.000 H 
ATOM    111  H28 UNL A   1      13.156  46.483   2.809  1.00  0.00    +0.000 H 
ATOM    112  H29 UNL A   1      14.854  46.816   0.922  1.00  0.00    +0.000 H 
ATOM    113  H30 UNL A   1      16.043  56.435   3.564  1.00  0.00    +0.000 H 
ATOM    114  H31 UNL A   1      14.716  56.006   5.711  1.00  0.00    +0.000 H 
ENDROOT
BRANCH   24   23
ATOM    103  H20 UNL A   1      13.863  55.553   9.939  1.00  0.00    +0.000 H 
ATOM    104  H21 UNL A   1      14.784  54.174   8.166  1.00  0.00    +0.000 H 
ATOM     81  C56 UNL A   1      11.800  54.860   6.789  1.00  0.00    +0.000 C 
ATOM     82  C57 UNL A   1      11.304  55.710   7.775  1.00  0.00    +0.000 C 
ATOM    115  H32 UNL A   1      11.231  54.655   5.954  1.00  0.00    +0.000 H 
ATOM     20  C14 UNL A   1      12.032  55.919   8.949  1.00  0.00    +0.000 C 
ATOM     21  C15 UNL A   1      13.309  55.367   9.089  1.00  0.00    +0.000 C 
ATOM    116  H33 UNL A   1      10.398  56.185   7.638  1.00  0.00    +0.000 H 
ATOM     22  C16 UNL A   1      13.833  54.563   8.074  1.00  0.00    +0.000 C 
ATOM     23  C17 UNL A   1      13.072  54.282   6.928  1.00  0.00    +0.000 C 
BRANCH   20   18
ATOM     18  C13 UNL A   1      11.491  56.751  10.048  1.00  0.00    +0.000 C 
ATOM     19  O3  UNL A   1      11.533  57.970   9.965  1.00  0.00    +0.000 O 
BRANCH   18   17
ATOM     17  N3  UNL A   1      10.947  56.151  11.159  1.00  0.00    +0.000 N 
ATOM    102  H19 UNL A   1      10.336  56.713  11.687  1.00  0.00    +0.000 H 
BRANCH   17   16
ATOM    100  H17 UNL A   1      10.223  54.435  12.051  1.00  0.00    +0.000 H 
ATOM    101  H18 UNL A   1      11.497  54.195  10.853  1.00  0.00    +0.000 H 
ATOM     16  C12 UNL A   1      11.150  54.802  11.663  1.00  0.00    +0.000 C 
BRANCH   16   15
ATOM     98  H15 UNL A   1      12.567  55.753  12.920  1.00  0.00    +0.000 H 
ATOM     99  H16 UNL A   1      11.713  54.359  13.635  1.00  0.00    +0.000 H 
ATOM     15  C11 UNL A   1      12.200  54.760  12.769  1.00  0.00    +0.000 C 
BRANCH   15   14
ATOM     97  H14 UNL A   1      13.680  53.425  13.420  1.00  0.00    +0.000 H 
ATOM     14  C10 UNL A   1      13.394  53.846  12.480  1.00  0.00    +0.000 C 
ATOM     96  H13 UNL A   1      14.160  54.438  12.024  1.00  0.00    +0.000 H 
BRANCH   14   13
ATOM     13  C9  UNL A   1      13.098  52.659  11.553  1.00  0.00    +0.000 C 
ATOM     94  H11 UNL A   1      12.046  52.464  11.590  1.00  0.00    +0.000 H 
ATOM     95  H12 UNL A   1      13.444  52.946  10.582  1.00  0.00    +0.000 H 
BRANCH   13   12
ATOM     92  H9  UNL A   1      13.251  50.815  12.616  1.00  0.00    +0.000 H 
ATOM     12  C8  UNL A   1      13.836  51.357  11.903  1.00  0.00    +0.000 C 
ATOM     93  H10 UNL A   1      13.968  50.813  10.991  1.00  0.00    +0.000 H 
BRANCH   12   11
ATOM     90  H7  UNL A   1      15.227  52.507  13.049  1.00  0.00    +0.000 H 
ATOM     11  C7  UNL A   1      15.228  51.591  12.496  1.00  0.00    +0.000 C 
ATOM     91  H8  UNL A   1      15.475  50.777  13.146  1.00  0.00    +0.000 H 
BRANCH   11   10
ATOM     89  H6  UNL A   1      16.355  52.587  11.107  1.00  0.00    +0.000 H 
ATOM     10  N2  UNL A   1      16.212  51.670  11.436  1.00  0.00    +0.000 N 
BRANCH   10    8
ATOM      9  O2  UNL A   1      18.051  50.431  11.342  1.00  0.00    +0.000 O 
ATOM      8  C6  UNL A   1      16.989  50.744  10.793  1.00  0.00    +0.000 C 
BRANCH    8    7
ATOM      2  C1  UNL A   1      16.731  50.151   7.014  1.00  0.00    +0.000 C 
ATOM      3  C2  UNL A   1      16.134  48.890   7.006  1.00  0.00    +0.000 C 
ATOM      4  C3  UNL A   1      15.830  48.246   8.203  1.00  0.00    +0.000 C 
ATOM      5  C4  UNL A   1      16.117  48.869   9.415  1.00  0.00    +0.000 C 
ATOM      7  C5  UNL A   1      16.693  50.153   9.457  1.00  0.00    +0.000 C 
ATOM     83  C58 UNL A   1      16.918  50.808   8.240  1.00  0.00    +0.000 C 
ATOM    117  H34 UNL A   1      17.228  51.792   8.244  1.00  0.00    +0.000 H 
ATOM     86  H3  UNL A   1      15.915  48.433   6.108  1.00  0.00    +0.000 H 
ATOM     87  H4  UNL A   1      15.397  47.310   8.192  1.00  0.00    +0.000 H 
BRANCH    2    1
ATOM      1  N1  UNL A   1      16.931  50.837   5.808  1.00  0.00    +0.000 N 
ATOM     84  H1  UNL A   1      17.634  50.544   5.186  1.00  0.00    +0.000 H 
ATOM     85  H2  UNL A   1      16.366  51.611   5.584  1.00  0.00    +0.000 H 
ENDBRANCH    2    1
BRANCH    5    6
ATOM      6  O1  UNL A   1      15.777  48.155  10.536  1.00  0.00    +0.000 O 
ATOM     88  H5  UNL A   1      15.864  47.223  10.541  1.00  0.00    +0.000 H 
ENDBRANCH    5    6
ENDBRANCH    8    7
ENDBRANCH   10    8
ENDBRANCH   11   10
ENDBRANCH   12   11
ENDBRANCH   13   12
ENDBRANCH   14   13
ENDBRANCH   15   14
ENDBRANCH   16   15
ENDBRANCH   17   16
ENDBRANCH   18   17
ENDBRANCH   20   18
ENDBRANCH   24   23
BRANCH   28   29
ATOM     33  F2  UNL A   1      16.654  58.290  -0.673  1.00  0.00    +0.000 F 
ATOM     34  C25 UNL A   1      18.561  57.698   0.588  1.00  0.00    +0.000 C 
ATOM     35  F3  UNL A   1      19.199  58.798   0.166  1.00  0.00    +0.000 F 
ATOM     36  C26 UNL A   1      19.199  56.807   1.439  1.00  0.00    +0.000 C 
ATOM     37  F4  UNL A   1      20.450  57.058   1.853  1.00  0.00    +0.000 F 
ATOM     38  C27 UNL A   1      18.544  55.655   1.864  1.00  0.00    +0.000 C 
ATOM     39  F5  UNL A   1      19.191  54.809   2.679  1.00  0.00    +0.000 F 
ATOM     29  C22 UNL A   1      17.228  55.383   1.462  1.00  0.00    +0.000 C 
ATOM     30  C23 UNL A   1      16.596  56.305   0.614  1.00  0.00    +0.000 C 
ATOM     31  F1  UNL A   1      15.342  56.084   0.192  1.00  0.00    +0.000 F 
ATOM     32  C24 UNL A   1      17.264  57.443   0.169  1.00  0.00    +0.000 C 
ENDBRANCH   28   29
BRANCH   45   46
ATOM     46  C33 UNL A   1      16.411  48.465  -0.375  1.00  0.00    +0.000 C 
ATOM     47  C34 UNL A   1      17.683  47.882  -0.288  1.00  0.00    +0.000 C 
ATOM     48  F6  UNL A   1      18.504  48.200   0.725  1.00  0.00    +0.000 F 
ATOM     49  C35 UNL A   1      18.130  46.996  -1.265  1.00  0.00    +0.000 C 
ATOM     50  F7  UNL A   1      19.365  46.482  -1.186  1.00  0.00    +0.000 F 
ATOM     51  C36 UNL A   1      17.305  46.656  -2.326  1.00  0.00    +0.000 C 
ATOM     52  F8  UNL A   1      17.735  45.798  -3.263  1.00  0.00    +0.000 F 
ATOM     53  C37 UNL A   1      16.037  47.209  -2.422  1.00  0.00    +0.000 C 
ATOM     54  F9  UNL A   1      15.234  46.872  -3.441  1.00  0.00    +0.000 F 
ATOM     55  C38 UNL A   1      15.596  48.115  -1.462  1.00  0.00    +0.000 C 
ATOM     56  F10 UNL A   1      14.370  48.642  -1.585  1.00  0.00    +0.000 F 
ENDBRANCH   45   46
BRANCH   60   61
ATOM     65  F12 UNL A   1       8.671  46.260   4.750  1.00  0.00    +0.000 F 
ATOM     66  C45 UNL A   1      10.538  45.443   5.944  1.00  0.00    +0.000 C 
ATOM     67  F13 UNL A   1       9.811  44.417   6.410  1.00  0.00    +0.000 F 
ATOM     68  C46 UNL A   1      11.867  45.580   6.318  1.00  0.00    +0.000 C 
ATOM     69  F14 UNL A   1      12.431  44.676   7.130  1.00  0.00    +0.000 F 
ATOM     70  C47 UNL A   1      12.616  46.659   5.853  1.00  0.00    +0.000 C 
ATOM     71  F15 UNL A   1      13.895  46.774   6.242  1.00  0.00    +0.000 F 
ATOM     61  C42 UNL A   1      12.056  47.609   4.987  1.00  0.00    +0.000 C 
ATOM     62  C43 UNL A   1      10.718  47.438   4.608  1.00  0.00    +0.000 C 
ATOM     63  F11 UNL A   1      10.133  48.333   3.798  1.00  0.00    +0.000 F 
ATOM     64  C44 UNL A   1       9.962  46.373   5.094  1.00  0.00    +0.000 C 
ENDBRANCH   60   61
TORSDOF 17
ENDMDL
MODEL 2
REMARK VINA RESULT:      -9.2      3.572      7.397
ROOT
ATOM     24  C18 UNL A   1      13.182  49.970   3.483  1.00  0.00    +0.000 C 
ATOM     25  C19 UNL A   1      13.221  51.429   3.843  1.00  0.00    +0.000 C 
ATOM     26  N4  UNL A   1      13.926  52.394   3.309  1.00  0.00    +0.000 N 
ATOM     27  C20 UNL A   1      13.550  53.551   3.980  1.00  0.00    +0.000 C 
ATOM     28  C21 UNL A   1      14.030  54.809   3.828  1.00  0.00    +0.000 C 
ATOM     40  C28 UNL A   1      15.078  55.172   2.910  1.00  0.00    +0.000 C 
ATOM     41  C29 UNL A   1      15.680  56.406   2.733  1.00  0.00    +0.000 C 
ATOM     42  C30 UNL A   1      16.621  56.288   1.705  1.00  0.00    +0.000 C 
ATOM     43  C31 UNL A   1      16.634  54.972   1.270  1.00  0.00    +0.000 C 
ATOM     44  N5  UNL A   1      15.679  54.300   2.015  1.00  0.00    +0.000 N 
ATOM     45  C32 UNL A   1      17.453  54.373   0.250  1.00  0.00    +0.000 C 
ATOM     57  C39 UNL A   1      17.411  53.068  -0.116  1.00  0.00    +0.000 C 
ATOM     58  N6  UNL A   1      16.616  52.048   0.387  1.00  0.00    +0.000 N 
ATOM     59  C40 UNL A   1      16.935  50.974  -0.295  1.00  0.00    +0.000 C 
ATOM     60  C41 UNL A   1      16.411  49.571  -0.157  1.00  0.00    +0.000 C 
ATOM     72  C48 UNL A   1      15.495  49.301   0.791  1.00  0.00    +0.000 C 
ATOM     73  C49 UNL A   1      14.901  47.993   1.047  1.00  0.00    +0.000 C 
ATOM     74  C50 UNL A   1      13.996  48.107   2.034  1.00  0.00    +0.000 C 
ATOM     75  C51 UNL A   1      13.973  49.493   2.503  1.00  0.00    +0.000 C 
ATOM     76  N7  UNL A   1      14.900  50.127   1.713  1.00  0.00    +0.000 N 
ATOM     77  C52 UNL A   1      17.951  51.203  -1.333  1.00  0.00    +0.000 C 
ATOM     78  C53 UNL A   1      18.235  52.485  -1.154  1.00  0.00    +0.000 C 
ATOM     79  C54 UNL A   1      12.526  53.176   4.930  1.00  0.00    +0.000 C 
ATOM     80  C55 UNL A   1      12.330  51.865   4.929  1.00  0.00    +0.000 C 
ATOM    105  H22 UNL A   1      15.471  57.263   3.267  1.00  0.00    +0.000 H 
ATOM    106  H23 UNL A   1      17.208  57.052   1.333  1.00  0.00    +0.000 H 
ATOM    107  H24 UNL A   1      15.459  53.344   1.923  1.00  0.00    +0.000 H 
ATOM    108  H25 UNL A   1      15.136  47.120   0.550  1.00  0.00    +0.000 H 
ATOM    109  H26 UNL A   1      13.411  47.341   2.402  1.00  0.00    +0.000 H 
ATOM    110  H27 UNL A   1      15.119  51.083   1.800  1.00  0.00    +0.000 H 
ATOM    111  H28 UNL A   1      18.341  50.539  -2.019  1.00  0.00    +0.000 H 
ATOM    112  H29 UNL A   1      18.952  53.003  -1.687  1.00  0.00    +0.000 H 
ATOM    113  H30 UNL A   1      12.014  53.842   5.530  1.00  0.00    +0.000 H 
ATOM    114  H31 UNL A   1      11.714  51.299   5.532  1.00  0.00    +0.000 H 
ENDROOT
BRANCH   24   23
ATOM    103  H20 UNL A   1      11.998  46.812   6.648  1.00  0.00    +0.000 H 
ATOM    104  H21 UNL A   1      13.568  48.361   5.633  1.00  0.00    +0.000 H 
ATOM     81  C56 UNL A   1      10.900  48.984   3.693  1.00  0.00    +0.000 C 
ATOM     82  C57 UNL A   1       9.981  48.148   4.323  1.00  0.00    +0.000 C 
ATOM    115  H32 UNL A   1      10.607  49.548   2.880  1.00  0.00    +0.000 H 
ATOM     20  C14 UNL A   1      10.395  47.314   5.366  1.00  0.00    +0.000 C 
ATOM     21  C15 UNL A   1      11.703  47.399   5.852  1.00  0.00    +0.000 C 
ATOM    116  H33 UNL A   1       8.994  48.144   4.020  1.00  0.00    +0.000 H 
ATOM     22  C16 UNL A   1      12.609  48.282   5.259  1.00  0.00    +0.000 C 
ATOM     23  C17 UNL A   1      12.222  49.062   4.158  1.00  0.00    +0.000 C 
BRANCH   20   18
ATOM     18  C13 UNL A   1       9.459  46.357   5.998  1.00  0.00    +0.000 C 
ATOM     19  O3  UNL A   1       8.813  45.588   5.301  1.00  0.00    +0.000 O 
BRANCH   18   17
ATOM     17  N3  UNL A   1       9.316  46.338   7.365  1.00  0.00    +0.000 N 
ATOM    102  H19 UNL A   1       8.452  46.662   7.704  1.00  0.00    +0.000 H 
BRANCH   17   16
ATOM    100  H17 UNL A   1       9.914  44.996   8.816  1.00  0.00    +0.000 H 
ATOM    101  H18 UNL A   1      11.215  45.766   7.905  1.00  0.00    +0.000 H 
ATOM     16  C12 UNL A   1      10.266  45.907   8.378  1.00  0.00    +0.000 C 
BRANCH   16   15
ATOM     98  H15 UNL A   1       9.688  47.703   9.345  1.00  0.00    +0.000 H 
ATOM     99  H16 UNL A   1      10.343  46.428  10.409  1.00  0.00    +0.000 H 
ATOM     15  C11 UNL A   1      10.436  46.950   9.479  1.00  0.00    +0.000 C 
BRANCH   15   14
ATOM     97  H14 UNL A   1      11.775  48.336  10.308  1.00  0.00    +0.000 H 
ATOM     14  C10 UNL A   1      11.806  47.635   9.501  1.00  0.00    +0.000 C 
ATOM     96  H13 UNL A   1      11.964  48.089   8.545  1.00  0.00    +0.000 H 
BRANCH   14   13
ATOM     13  C9  UNL A   1      12.995  46.708   9.788  1.00  0.00    +0.000 C 
ATOM     94  H11 UNL A   1      13.197  46.744  10.839  1.00  0.00    +0.000 H 
ATOM     95  H12 UNL A   1      12.705  45.737   9.443  1.00  0.00    +0.000 H 
BRANCH   13   12
ATOM     92  H9  UNL A   1      14.944  46.212   9.076  1.00  0.00    +0.000 H 
ATOM     12  C8  UNL A   1      14.292  47.059   9.040  1.00  0.00    +0.000 C 
ATOM     93  H10 UNL A   1      14.019  47.317   8.039  1.00  0.00    +0.000 H 
BRANCH   12   11
ATOM     90  H7  UNL A   1      14.319  48.910  10.109  1.00  0.00    +0.000 H 
ATOM     11  C7  UNL A   1      15.026  48.262   9.636  1.00  0.00    +0.000 C 
ATOM     91  H8  UNL A   1      15.740  47.918  10.356  1.00  0.00    +0.000 H 
BRANCH   11   10
ATOM     89  H6  UNL A   1      16.694  49.022   8.722  1.00  0.00    +0.000 H 
ATOM     10  N2  UNL A   1      15.718  48.988   8.590  1.00  0.00    +0.000 N 
BRANCH   10    8
ATOM      9  O2  UNL A   1      14.216  50.211   7.507  1.00  0.00    +0.000 O 
ATOM      8  C6  UNL A   1      15.308  49.636   7.456  1.00  0.00    +0.000 C 
BRANCH    8    7
ATOM      2  C1  UNL A   1      17.269  50.707   4.340  1.00  0.00    +0.000 C 
ATOM      3  C2  UNL A   1      17.437  49.468   3.721  1.00  0.00    +0.000 C 
ATOM      4  C3  UNL A   1      16.932  48.312   4.310  1.00  0.00    +0.000 C 
ATOM      5  C4  UNL A   1      16.247  48.395   5.519  1.00  0.00    +0.000 C 
ATOM      7  C5  UNL A   1      16.034  49.633   6.154  1.00  0.00    +0.000 C 
ATOM     83  C58 UNL A   1      16.487  50.787   5.502  1.00  0.00    +0.000 C 
ATOM    117  H34 UNL A   1      16.242  51.714   5.885  1.00  0.00    +0.000 H 
ATOM     86  H3  UNL A   1      17.939  49.409   2.822  1.00  0.00    +0.000 H 
ATOM     87  H4  UNL A   1      17.067  47.397   3.852  1.00  0.00    +0.000 H 
BRANCH    2    1
ATOM      1  N1  UNL A   1      17.683  51.876   3.687  1.00  0.00    +0.000 N 
ATOM     84  H1  UNL A   1      18.361  52.457   4.100  1.00  0.00    +0.000 H 
ATOM     85  H2  UNL A   1      17.295  52.115   2.814  1.00  0.00    +0.000 H 
ENDBRANCH    2    1
BRANCH    5    6
ATOM      6  O1  UNL A   1      15.785  47.201   6.014  1.00  0.00    +0.000 O 
ATOM     88  H5  UNL A   1      15.050  46.781   5.615  1.00  0.00    +0.000 H 
ENDBRANCH    5    6
ENDBRANCH    8    7
ENDBRANCH   10    8
ENDBRANCH   11   10
ENDBRANCH   12   11
ENDBRANCH   13   12
ENDBRANCH   14   13
ENDBRANCH   15   14
ENDBRANCH   16   15
ENDBRANCH   17   16
ENDBRANCH   18   17
ENDBRANCH   20   18
ENDBRANCH   24   23
BRANCH   28   29
ATOM     33  F2  UNL A   1      13.936  57.519   7.910  1.00  0.00    +0.000 F 
ATOM     34  C25 UNL A   1      12.348  57.974   6.222  1.00  0.00    +0.000 C 
ATOM     35  F3  UNL A   1      11.827  58.964   6.959  1.00  0.00    +0.000 F 
ATOM     36  C26 UNL A   1      11.807  57.672   4.980  1.00  0.00    +0.000 C 
ATOM     37  F4  UNL A   1      10.771  58.384   4.512  1.00  0.00    +0.000 F 
ATOM     38  C27 UNL A   1      12.336  56.633   4.221  1.00  0.00    +0.000 C 
ATOM     39  F5  UNL A   1      11.784  56.359   3.030  1.00  0.00    +0.000 F 
ATOM     29  C22 UNL A   1      13.433  55.889   4.680  1.00  0.00    +0.000 C 
ATOM     30  C23 UNL A   1      13.975  56.222   5.931  1.00  0.00    +0.000 C 
ATOM     31  F1  UNL A   1      15.017  55.533   6.420  1.00  0.00    +0.000 F 
ATOM     32  C24 UNL A   1      13.427  57.245   6.700  1.00  0.00    +0.000 C 
ENDBRANCH   28   29
BRANCH   45   46
ATOM     46  C33 UNL A   1      18.448  55.250  -0.451  1.00  0.00    +0.000 C 
ATOM     47  C34 UNL A   1      19.644  55.643   0.165  1.00  0.00    +0.000 C 
ATOM     48  F6  UNL A   1      19.901  55.282   1.432  1.00  0.00    +0.000 F 
ATOM     49  C35 UNL A   1      20.566  56.441  -0.507  1.00  0.00    +0.000 C 
ATOM     50  F7  UNL A   1      21.683  56.841   0.116  1.00  0.00    +0.000 F 
ATOM     51  C36 UNL A   1      20.322  56.835  -1.815  1.00  0.00    +0.000 C 
ATOM     52  F8  UNL A   1      21.214  57.599  -2.462  1.00  0.00    +0.000 F 
ATOM     53  C37 UNL A   1      19.153  56.444  -2.449  1.00  0.00    +0.000 C 
ATOM     54  F9  UNL A   1      18.922  56.813  -3.716  1.00  0.00    +0.000 F 
ATOM     55  C38 UNL A   1      18.218  55.667  -1.771  1.00  0.00    +0.000 C 
ATOM     56  F10 UNL A   1      17.091  55.312  -2.406  1.00  0.00    +0.000 F 
ENDBRANCH   45   46
BRANCH   60   61
ATOM     65  F12 UNL A   1      15.964  46.724  -4.087  1.00  0.00    +0.000 F 
ATOM     66  C45 UNL A   1      17.841  46.407  -2.689  1.00  0.00    +0.000 C 
ATOM     67  F13 UNL A   1      18.275  45.409  -3.471  1.00  0.00    +0.000 F 
ATOM     68  C46 UNL A   1      18.556  46.764  -1.555  1.00  0.00    +0.000 C 
ATOM     69  F14 UNL A   1      19.693  46.123  -1.252  1.00  0.00    +0.000 F 
ATOM     70  C47 UNL A   1      18.092  47.785  -0.729  1.00  0.00    +0.000 C 
ATOM     71  F15 UNL A   1      18.797  48.099   0.369  1.00  0.00    +0.000 F 
ATOM     61  C42 UNL A   1      16.916  48.484  -1.033  1.00  0.00    +0.000 C 
ATOM     62  C43 UNL A   1      16.222  48.120  -2.195  1.00  0.00    +0.000 C 
ATOM     63  F11 UNL A   1      15.081  48.746  -2.517  1.00  0.00    +0.000 F 
ATOM     64  C44 UNL A   1      16.673  47.081  -3.007  1.00  0.00    +0.000 C 
ENDBRANCH   60   61
TORSDOF 17
ENDMDL
MODEL 3
REMARK VINA RESULT:      -9.2      2.997      7.320
ROOT
ATOM     24  C18 UNL A   1      14.460  50.008   4.562  1.00  0.00    +0.000 C 
ATOM     25  C19 UNL A   1      14.485  51.481   4.863  1.00  0.00    +0.000 C 
ATOM     26  N4  UNL A   1      14.915  52.470   4.123  1.00  0.00    +0.000 N 
ATOM     27  C20 UNL A   1      14.663  53.625   4.852  1.00  0.00    +0.000 C 
ATOM     28  C21 UNL A   1      14.971  54.906   4.538  1.00  0.00    +0.000 C 
ATOM     40  C28 UNL A   1      15.661  55.304   3.339  1.00  0.00    +0.000 C 
ATOM     41  C29 UNL A   1      16.079  56.569   2.963  1.00  0.00    +0.000 C 
ATOM     42  C30 UNL A   1      16.675  56.474   1.701  1.00  0.00    +0.000 C 
ATOM     43  C31 UNL A   1      16.665  55.145   1.310  1.00  0.00    +0.000 C 
ATOM     44  N5  UNL A   1      16.036  54.438   2.321  1.00  0.00    +0.000 N 
ATOM     45  C32 UNL A   1      17.188  54.563   0.102  1.00  0.00    +0.000 C 
ATOM     57  C39 UNL A   1      17.145  53.244  -0.208  1.00  0.00    +0.000 C 
ATOM     58  N6  UNL A   1      16.625  52.191   0.531  1.00  0.00    +0.000 N 
ATOM     59  C40 UNL A   1      16.812  51.115  -0.193  1.00  0.00    +0.000 C 
ATOM     60  C41 UNL A   1      16.471  49.685   0.125  1.00  0.00    +0.000 C 
ATOM     72  C48 UNL A   1      15.906  49.391   1.311  1.00  0.00    +0.000 C 
ATOM     73  C49 UNL A   1      15.526  48.055   1.760  1.00  0.00    +0.000 C 
ATOM     74  C50 UNL A   1      14.952  48.147   2.971  1.00  0.00    +0.000 C 
ATOM     75  C51 UNL A   1      14.957  49.547   3.398  1.00  0.00    +0.000 C 
ATOM     76  N7  UNL A   1      15.549  50.212   2.352  1.00  0.00    +0.000 N 
ATOM     77  C52 UNL A   1      17.448  51.371  -1.494  1.00  0.00    +0.000 C 
ATOM     78  C53 UNL A   1      17.665  52.677  -1.435  1.00  0.00    +0.000 C 
ATOM     79  C54 UNL A   1      14.005  53.219   6.075  1.00  0.00    +0.000 C 
ATOM     80  C55 UNL A   1      13.927  51.898   6.160  1.00  0.00    +0.000 C 
ATOM    105  H22 UNL A   1      15.970  57.431   3.518  1.00  0.00    +0.000 H 
ATOM    106  H23 UNL A   1      17.058  57.262   1.154  1.00  0.00    +0.000 H 
ATOM    107  H24 UNL A   1      15.879  53.467   2.319  1.00  0.00    +0.000 H 
ATOM    108  H25 UNL A   1      15.673  47.181   1.233  1.00  0.00    +0.000 H 
ATOM    109  H26 UNL A   1      14.570  47.358   3.515  1.00  0.00    +0.000 H 
ATOM    110  H27 UNL A   1      15.704  51.184   2.350  1.00  0.00    +0.000 H 
ATOM    111  H28 UNL A   1      17.667  50.708  -2.253  1.00  0.00    +0.000 H 
ATOM    112  H29 UNL A   1      18.144  53.221  -2.170  1.00  0.00    +0.000 H 
ATOM    113  H30 UNL A   1      13.644  53.871   6.788  1.00  0.00    +0.000 H 
ATOM    114  H31 UNL A   1      13.569  51.316   6.932  1.00  0.00    +0.000 H 
ENDROOT
BRANCH   24   23
ATOM    103  H20 UNL A   1      14.522  47.031   8.101  1.00  0.00    +0.000 H 
ATOM    104  H21 UNL A   1      15.575  48.647   6.627  1.00  0.00    +0.000 H 
ATOM     81  C56 UNL A   1      12.449  48.800   5.412  1.00  0.00    +0.000 C 
ATOM     82  C57 UNL A   1      11.833  47.927   6.306  1.00  0.00    +0.000 C 
ATOM    115  H32 UNL A   1      11.892  49.254   4.672  1.00  0.00    +0.000 H 
ATOM     20  C14 UNL A   1      12.599  47.239   7.251  1.00  0.00    +0.000 C 
ATOM     21  C15 UNL A   1      13.965  47.510   7.377  1.00  0.00    +0.000 C 
ATOM    116  H33 UNL A   1      10.811  47.788   6.270  1.00  0.00    +0.000 H 
ATOM     22  C16 UNL A   1      14.572  48.430   6.520  1.00  0.00    +0.000 C 
ATOM     23  C17 UNL A   1      13.824  49.063   5.513  1.00  0.00    +0.000 C 
BRANCH   20   18
ATOM     18  C13 UNL A   1      11.982  46.244   8.158  1.00  0.00    +0.000 C 
ATOM     19  O3  UNL A   1      11.681  45.138   7.733  1.00  0.00    +0.000 O 
BRANCH   18   17
ATOM     17  N3  UNL A   1      11.746  46.568   9.473  1.00  0.00    +0.000 N 
ATOM    102  H19 UNL A   1      11.047  47.243   9.624  1.00  0.00    +0.000 H 
BRANCH   17   16
ATOM    100  H17 UNL A   1      11.700  45.407  11.181  1.00  0.00    +0.000 H 
ATOM    101  H18 UNL A   1      13.267  45.519  10.374  1.00  0.00    +0.000 H 
ATOM     16  C12 UNL A   1      12.387  46.051  10.672  1.00  0.00    +0.000 C 
BRANCH   16   15
ATOM     98  H15 UNL A   1      11.958  47.451  12.204  1.00  0.00    +0.000 H 
ATOM     99  H16 UNL A   1      13.612  46.780  12.212  1.00  0.00    +0.000 H 
ATOM     15  C11 UNL A   1      12.809  47.170  11.620  1.00  0.00    +0.000 C 
BRANCH   15   14
ATOM     97  H14 UNL A   1      13.514  48.150   9.905  1.00  0.00    +0.000 H 
ATOM     14  C10 UNL A   1      13.349  48.423  10.925  1.00  0.00    +0.000 C 
ATOM     96  H13 UNL A   1      14.240  48.726  11.437  1.00  0.00    +0.000 H 
BRANCH   14   13
ATOM     13  C9  UNL A   1      12.388  49.619  10.897  1.00  0.00    +0.000 C 
ATOM     94  H11 UNL A   1      11.439  49.290  11.267  1.00  0.00    +0.000 H 
ATOM     95  H12 UNL A   1      12.841  50.379  11.500  1.00  0.00    +0.000 H 
BRANCH   13   12
ATOM     92  H9  UNL A   1      13.001  49.997   8.888  1.00  0.00    +0.000 H 
ATOM     12  C8  UNL A   1      12.168  50.247   9.511  1.00  0.00    +0.000 C 
ATOM     93  H10 UNL A   1      11.247  49.858   9.130  1.00  0.00    +0.000 H 
BRANCH   12   11
ATOM     90  H7  UNL A   1      12.346  52.179   8.613  1.00  0.00    +0.000 H 
ATOM     11  C7  UNL A   1      12.035  51.771   9.552  1.00  0.00    +0.000 C 
ATOM     91  H8  UNL A   1      11.013  52.030   9.737  1.00  0.00    +0.000 H 
BRANCH   11   10
ATOM     89  H6  UNL A   1      12.392  52.386  11.472  1.00  0.00    +0.000 H 
ATOM     10  N2  UNL A   1      12.863  52.313  10.610  1.00  0.00    +0.000 N 
BRANCH   10    8
ATOM      9  O2  UNL A   1      14.338  53.943  10.916  1.00  0.00    +0.000 O 
ATOM      8  C6  UNL A   1      14.161  52.745  10.671  1.00  0.00    +0.000 C 
BRANCH    8    7
ATOM      2  C1  UNL A   1      16.958  50.820   8.892  1.00  0.00    +0.000 C 
ATOM      3  C2  UNL A   1      17.681  50.366   9.995  1.00  0.00    +0.000 C 
ATOM      4  C3  UNL A   1      17.271  50.688  11.287  1.00  0.00    +0.000 C 
ATOM      5  C4  UNL A   1      16.128  51.459  11.477  1.00  0.00    +0.000 C 
ATOM      7  C5  UNL A   1      15.360  51.907  10.386  1.00  0.00    +0.000 C 
ATOM     83  C58 UNL A   1      15.753  51.506   9.103  1.00  0.00    +0.000 C 
ATOM    117  H34 UNL A   1      15.145  51.721   8.297  1.00  0.00    +0.000 H 
ATOM     86  H3  UNL A   1      18.524  49.789   9.853  1.00  0.00    +0.000 H 
ATOM     87  H4  UNL A   1      17.814  50.357  12.099  1.00  0.00    +0.000 H 
BRANCH    2    1
ATOM      1  N1  UNL A   1      17.314  50.399   7.603  1.00  0.00    +0.000 N 
ATOM     84  H1  UNL A   1      18.171  50.682   7.212  1.00  0.00    +0.000 H 
ATOM     85  H2  UNL A   1      16.706  49.820   7.089  1.00  0.00    +0.000 H 
ENDBRANCH    2    1
BRANCH    5    6
ATOM      6  O1  UNL A   1      15.806  51.717  12.786  1.00  0.00    +0.000 O 
ATOM     88  H5  UNL A   1      15.750  51.015  13.402  1.00  0.00    +0.000 H 
ENDBRANCH    5    6
ENDBRANCH    8    7
ENDBRANCH   10    8
ENDBRANCH   11   10
ENDBRANCH   12   11
ENDBRANCH   13   12
ENDBRANCH   14   13
ENDBRANCH   15   14
ENDBRANCH   16   15
ENDBRANCH   17   16
ENDBRANCH   18   17
ENDBRANCH   20   18
ENDBRANCH   24   23
BRANCH   28   29
ATOM     33  F2  UNL A   1      16.057  58.281   7.920  1.00  0.00    +0.000 F 
ATOM     34  C25 UNL A   1      13.803  58.037   7.260  1.00  0.00    +0.000 C 
ATOM     35  F3  UNL A   1      13.436  59.015   8.099  1.00  0.00    +0.000 F 
ATOM     36  C26 UNL A   1      12.849  57.386   6.492  1.00  0.00    +0.000 C 
ATOM     37  F4  UNL A   1      11.560  57.748   6.578  1.00  0.00    +0.000 F 
ATOM     38  C27 UNL A   1      13.226  56.358   5.632  1.00  0.00    +0.000 C 
ATOM     39  F5  UNL A   1      12.279  55.740   4.911  1.00  0.00    +0.000 F 
ATOM     29  C22 UNL A   1      14.570  55.977   5.509  1.00  0.00    +0.000 C 
ATOM     30  C23 UNL A   1      15.521  56.660   6.283  1.00  0.00    +0.000 C 
ATOM     31  F1  UNL A   1      16.817  56.324   6.210  1.00  0.00    +0.000 F 
ATOM     32  C24 UNL A   1      15.137  57.669   7.161  1.00  0.00    +0.000 C 
ENDBRANCH   28   29
BRANCH   45   46
ATOM     46  C33 UNL A   1      17.851  55.478  -0.885  1.00  0.00    +0.000 C 
ATOM     47  C34 UNL A   1      17.137  56.059  -1.943  1.00  0.00    +0.000 C 
ATOM     48  F6  UNL A   1      15.841  55.760  -2.127  1.00  0.00    +0.000 F 
ATOM     49  C35 UNL A   1      17.763  56.921  -2.839  1.00  0.00    +0.000 C 
ATOM     50  F7  UNL A   1      17.072  57.431  -3.868  1.00  0.00    +0.000 F 
ATOM     51  C36 UNL A   1      19.103  57.240  -2.676  1.00  0.00    +0.000 C 
ATOM     52  F8  UNL A   1      19.702  58.076  -3.537  1.00  0.00    +0.000 F 
ATOM     53  C37 UNL A   1      19.823  56.690  -1.627  1.00  0.00    +0.000 C 
ATOM     54  F9  UNL A   1      21.114  57.008  -1.462  1.00  0.00    +0.000 F 
ATOM     55  C38 UNL A   1      19.207  55.808  -0.745  1.00  0.00    +0.000 C 
ATOM     56  F10 UNL A   1      19.931  55.282   0.254  1.00  0.00    +0.000 F 
ENDBRANCH   45   46
BRANCH   60   61
ATOM     65  F12 UNL A   1      19.401  46.151  -1.514  1.00  0.00    +0.000 F 
ATOM     66  C45 UNL A   1      17.389  46.562  -2.681  1.00  0.00    +0.000 C 
ATOM     67  F13 UNL A   1      17.687  45.600  -3.565  1.00  0.00    +0.000 F 
ATOM     68  C46 UNL A   1      16.218  47.293  -2.817  1.00  0.00    +0.000 C 
ATOM     69  F14 UNL A   1      15.373  47.023  -3.821  1.00  0.00    +0.000 F 
ATOM     70  C47 UNL A   1      15.920  48.310  -1.912  1.00  0.00    +0.000 C 
ATOM     71  F15 UNL A   1      14.787  49.009  -2.076  1.00  0.00    +0.000 F 
ATOM     61  C42 UNL A   1      16.777  48.600  -0.842  1.00  0.00    +0.000 C 
ATOM     62  C43 UNL A   1      17.945  47.835  -0.714  1.00  0.00    +0.000 C 
ATOM     63  F11 UNL A   1      18.806  48.091   0.282  1.00  0.00    +0.000 F 
ATOM     64  C44 UNL A   1      18.255  46.836  -1.634  1.00  0.00    +0.000 C 
ENDBRANCH   60   61
TORSDOF 17
ENDMDL
MODEL 4
REMARK VINA RESULT:      -9.2      1.075      7.573
ROOT
ATOM     24  C18 UNL A   1      13.619  53.999   5.461  1.00  0.00    +0.000 C 
ATOM     25  C19 UNL A   1      13.261  52.540   5.512  1.00  0.00    +0.000 C 
ATOM     26  N4  UNL A   1      13.659  51.563   4.738  1.00  0.00    +0.000 N 
ATOM     27  C20 UNL A   1      13.071  50.413   5.249  1.00  0.00    +0.000 C 
ATOM     28  C21 UNL A   1      13.134  49.147   4.769  1.00  0.00    +0.000 C 
ATOM     40  C28 UNL A   1      13.847  48.766   3.578  1.00  0.00    +0.000 C 
ATOM     41  C29 UNL A   1      13.914  47.522   2.973  1.00  0.00    +0.000 C 
ATOM     42  C30 UNL A   1      14.752  47.624   1.859  1.00  0.00    +0.000 C 
ATOM     43  C31 UNL A   1      15.174  48.938   1.746  1.00  0.00    +0.000 C 
ATOM     44  N5  UNL A   1      14.615  49.627   2.809  1.00  0.00    +0.000 N 
ATOM     45  C32 UNL A   1      16.026  49.523   0.744  1.00  0.00    +0.000 C 
ATOM     57  C39 UNL A   1      16.391  50.828   0.697  1.00  0.00    +0.000 C 
ATOM     58  N6  UNL A   1      16.040  51.862   1.554  1.00  0.00    +0.000 N 
ATOM     59  C40 UNL A   1      16.650  52.930   1.098  1.00  0.00    +0.000 C 
ATOM     60  C41 UNL A   1      16.607  54.341   1.615  1.00  0.00    +0.000 C 
ATOM     72  C48 UNL A   1      15.842  54.627   2.685  1.00  0.00    +0.000 C 
ATOM     73  C49 UNL A   1      15.696  55.946   3.295  1.00  0.00    +0.000 C 
ATOM     74  C50 UNL A   1      14.892  55.847   4.366  1.00  0.00    +0.000 C 
ATOM     75  C51 UNL A   1      14.437  54.462   4.497  1.00  0.00    +0.000 C 
ATOM     76  N7  UNL A   1      15.046  53.812   3.451  1.00  0.00    +0.000 N 
ATOM     77  C52 UNL A   1      17.485  52.683  -0.087  1.00  0.00    +0.000 C 
ATOM     78  C53 UNL A   1      17.261  51.396  -0.311  1.00  0.00    +0.000 C 
ATOM     79  C54 UNL A   1      12.323  50.805   6.423  1.00  0.00    +0.000 C 
ATOM     80  C55 UNL A   1      12.357  52.119   6.594  1.00  0.00    +0.000 C 
ATOM    105  H22 UNL A   1      13.429  46.669   3.291  1.00  0.00    +0.000 H 
ATOM    106  H23 UNL A   1      15.013  46.849   1.227  1.00  0.00    +0.000 H 
ATOM    107  H24 UNL A   1      14.744  50.586   2.993  1.00  0.00    +0.000 H 
ATOM    108  H25 UNL A   1      16.140  56.814   2.958  1.00  0.00    +0.000 H 
ATOM    109  H26 UNL A   1      14.634  56.622   4.996  1.00  0.00    +0.000 H 
ATOM    110  H27 UNL A   1      14.922  52.853   3.268  1.00  0.00    +0.000 H 
ATOM    111  H28 UNL A   1      18.088  53.339  -0.606  1.00  0.00    +0.000 H 
ATOM    112  H29 UNL A   1      17.655  50.867  -1.105  1.00  0.00    +0.000 H 
ATOM    113  H30 UNL A   1      11.827  50.149   7.046  1.00  0.00    +0.000 H 
ATOM    114  H31 UNL A   1      11.875  52.696   7.300  1.00  0.00    +0.000 H 
ENDROOT
BRANCH   24   23
ATOM    103  H20 UNL A   1      13.847  56.052   9.599  1.00  0.00    +0.000 H 
ATOM    104  H21 UNL A   1      14.731  54.608   7.859  1.00  0.00    +0.000 H 
ATOM     81  C56 UNL A   1      11.940  55.640   6.305  1.00  0.00    +0.000 C 
ATOM     82  C57 UNL A   1      11.472  56.524   7.275  1.00  0.00    +0.000 C 
ATOM    115  H32 UNL A   1      11.409  55.512   5.430  1.00  0.00    +0.000 H 
ATOM     20  C14 UNL A   1      12.138  56.633   8.500  1.00  0.00    +0.000 C 
ATOM     21  C15 UNL A   1      13.335  55.941   8.710  1.00  0.00    +0.000 C 
ATOM    116  H33 UNL A   1      10.635  57.098   7.091  1.00  0.00    +0.000 H 
ATOM     22  C16 UNL A   1      13.836  55.101   7.713  1.00  0.00    +0.000 C 
ATOM     23  C17 UNL A   1      13.129  54.923   6.513  1.00  0.00    +0.000 C 
BRANCH   20   18
ATOM     18  C13 UNL A   1      11.617  57.502   9.579  1.00  0.00    +0.000 C 
ATOM     19  O3  UNL A   1      11.893  58.693   9.588  1.00  0.00    +0.000 O 
BRANCH   18   17
ATOM     17  N3  UNL A   1      10.829  56.967  10.571  1.00  0.00    +0.000 N 
ATOM    102  H19 UNL A   1      10.057  57.514  10.839  1.00  0.00    +0.000 H 
BRANCH   17   16
ATOM    100  H17 UNL A   1      10.238  55.019  10.921  1.00  0.00    +0.000 H 
ATOM    101  H18 UNL A   1      11.966  55.337  11.094  1.00  0.00    +0.000 H 
ATOM     16  C12 UNL A   1      10.978  55.705  11.278  1.00  0.00    +0.000 C 
BRANCH   16   15
ATOM     98  H15 UNL A   1      10.577  56.899  12.983  1.00  0.00    +0.000 H 
ATOM     99  H16 UNL A   1      10.027  55.203  13.080  1.00  0.00    +0.000 H 
ATOM     15  C11 UNL A   1      10.808  55.873  12.785  1.00  0.00    +0.000 C 
BRANCH   15   14
ATOM     97  H14 UNL A   1      11.809  55.745  14.623  1.00  0.00    +0.000 H 
ATOM     14  C10 UNL A   1      12.041  55.492  13.611  1.00  0.00    +0.000 C 
ATOM     96  H13 UNL A   1      12.880  56.028  13.217  1.00  0.00    +0.000 H 
BRANCH   14   13
ATOM     13  C9  UNL A   1      12.390  53.998  13.612  1.00  0.00    +0.000 C 
ATOM     94  H11 UNL A   1      12.178  53.610  14.587  1.00  0.00    +0.000 H 
ATOM     95  H12 UNL A   1      11.798  53.553  12.839  1.00  0.00    +0.000 H 
BRANCH   13   12
ATOM     92  H9  UNL A   1      14.487  54.244  13.916  1.00  0.00    +0.000 H 
ATOM     12  C8  UNL A   1      13.853  53.668  13.275  1.00  0.00    +0.000 C 
ATOM     93  H10 UNL A   1      13.981  52.616  13.419  1.00  0.00    +0.000 H 
BRANCH   12   11
ATOM     90  H7  UNL A   1      13.878  54.956  11.569  1.00  0.00    +0.000 H 
ATOM     11  C7  UNL A   1      14.223  53.976  11.822  1.00  0.00    +0.000 C 
ATOM     91  H8  UNL A   1      15.286  53.927  11.712  1.00  0.00    +0.000 H 
BRANCH   11   10
ATOM     89  H6  UNL A   1      12.778  53.335  10.520  1.00  0.00    +0.000 H 
ATOM     10  N2  UNL A   1      13.608  53.007  10.938  1.00  0.00    +0.000 N 
BRANCH   10    8
ATOM      9  O2  UNL A   1      13.128  50.842  10.853  1.00  0.00    +0.000 O 
ATOM      8  C6  UNL A   1      13.931  51.733  10.556  1.00  0.00    +0.000 C 
BRANCH    8    7
ATOM      2  C1  UNL A   1      16.607  50.930   7.931  1.00  0.00    +0.000 C 
ATOM      3  C2  UNL A   1      17.681  50.619   8.765  1.00  0.00    +0.000 C 
ATOM      4  C3  UNL A   1      17.539  50.679  10.149  1.00  0.00    +0.000 C 
ATOM      5  C4  UNL A   1      16.314  51.042  10.702  1.00  0.00    +0.000 C 
ATOM      7  C5  UNL A   1      15.203  51.332   9.889  1.00  0.00    +0.000 C 
ATOM     83  C58 UNL A   1      15.354  51.192   8.503  1.00  0.00    +0.000 C 
ATOM    117  H34 UNL A   1      14.527  51.284   7.891  1.00  0.00    +0.000 H 
ATOM     86  H3  UNL A   1      18.586  50.344   8.354  1.00  0.00    +0.000 H 
ATOM     87  H4  UNL A   1      18.338  50.456  10.762  1.00  0.00    +0.000 H 
BRANCH    2    1
ATOM      1  N1  UNL A   1      16.729  50.760   6.544  1.00  0.00    +0.000 N 
ATOM     84  H1  UNL A   1      16.685  51.541   5.947  1.00  0.00    +0.000 H 
ATOM     85  H2  UNL A   1      16.858  49.859   6.169  1.00  0.00    +0.000 H 
ENDBRANCH    2    1
BRANCH    5    6
ATOM      6  O1  UNL A   1      16.274  51.067  12.074  1.00  0.00    +0.000 O 
ATOM     88  H5  UNL A   1      16.656  50.367  12.566  1.00  0.00    +0.000 H 
ENDBRANCH    5    6
ENDBRANCH    8    7
ENDBRANCH   10    8
ENDBRANCH   11   10
ENDBRANCH   12   11
ENDBRANCH   13   12
ENDBRANCH   14   13
ENDBRANCH   15   14
ENDBRANCH   16   15
ENDBRANCH   17   16
ENDBRANCH   18   17
ENDBRANCH   20   18
ENDBRANCH   24   23
BRANCH   28   29
ATOM     33  F2  UNL A   1       9.300  46.164   5.408  1.00  0.00    +0.000 F 
ATOM     34  C25 UNL A   1      11.105  46.014   6.923  1.00  0.00    +0.000 C 
ATOM     35  F3  UNL A   1      10.480  45.034   7.591  1.00  0.00    +0.000 F 
ATOM     36  C26 UNL A   1      12.345  46.466   7.350  1.00  0.00    +0.000 C 
ATOM     37  F4  UNL A   1      12.927  45.909   8.422  1.00  0.00    +0.000 F 
ATOM     38  C27 UNL A   1      12.986  47.495   6.667  1.00  0.00    +0.000 C 
ATOM     39  F5  UNL A   1      14.180  47.917   7.110  1.00  0.00    +0.000 F 
ATOM     29  C22 UNL A   1      12.408  48.078   5.530  1.00  0.00    +0.000 C 
ATOM     30  C23 UNL A   1      11.160  47.594   5.106  1.00  0.00    +0.000 C 
ATOM     31  F1  UNL A   1      10.560  48.126   4.032  1.00  0.00    +0.000 F 
ATOM     32  C24 UNL A   1      10.509  46.583   5.807  1.00  0.00    +0.000 C 
ENDBRANCH   28   29
BRANCH   45   46
ATOM     46  C33 UNL A   1      16.536  48.629  -0.348  1.00  0.00    +0.000 C 
ATOM     47  C34 UNL A   1      17.798  48.023  -0.271  1.00  0.00    +0.000 C 
ATOM     48  F6  UNL A   1      18.606  48.277   0.769  1.00  0.00    +0.000 F 
ATOM     49  C35 UNL A   1      18.248  47.181  -1.284  1.00  0.00    +0.000 C 
ATOM     50  F7  UNL A   1      19.475  46.645  -1.211  1.00  0.00    +0.000 F 
ATOM     51  C36 UNL A   1      17.436  46.907  -2.374  1.00  0.00    +0.000 C 
ATOM     52  F8  UNL A   1      17.869  46.091  -3.346  1.00  0.00    +0.000 F 
ATOM     53  C37 UNL A   1      16.178  47.484  -2.462  1.00  0.00    +0.000 C 
ATOM     54  F9  UNL A   1      15.387  47.210  -3.509  1.00  0.00    +0.000 F 
ATOM     55  C38 UNL A   1      15.735  48.346  -1.464  1.00  0.00    +0.000 C 
ATOM     56  F10 UNL A   1      14.518  48.898  -1.580  1.00  0.00    +0.000 F 
ENDBRANCH   45   46
BRANCH   60   61
ATOM     65  F12 UNL A   1      16.987  57.789  -1.809  1.00  0.00    +0.000 F 
ATOM     66  C45 UNL A   1      18.825  57.442  -0.368  1.00  0.00    +0.000 C 
ATOM     67  F13 UNL A   1      19.521  58.397  -1.000  1.00  0.00    +0.000 F 
ATOM     68  C46 UNL A   1      19.397  56.748   0.688  1.00  0.00    +0.000 C 
ATOM     69  F14 UNL A   1      20.640  57.046   1.090  1.00  0.00    +0.000 F 
ATOM     70  C47 UNL A   1      18.683  55.738   1.329  1.00  0.00    +0.000 C 
ATOM     71  F15 UNL A   1      19.267  55.074   2.338  1.00  0.00    +0.000 F 
ATOM     61  C42 UNL A   1      17.375  55.419   0.941  1.00  0.00    +0.000 C 
ATOM     62  C43 UNL A   1      16.811  56.147  -0.115  1.00  0.00    +0.000 C 
ATOM     63  F11 UNL A   1      15.569  55.863  -0.536  1.00  0.00    +0.000 F 
ATOM     64  C44 UNL A   1      17.535  57.139  -0.773  1.00  0.00    +0.000 C 
ENDBRANCH   60   61
TORSDOF 17
ENDMDL
MODEL 5
REMARK VINA RESULT:      -9.2      1.186      2.295
ROOT
ATOM     24  C18 UNL A   1      14.187  54.030   4.971  1.00  0.00    +0.000 C 
ATOM     25  C19 UNL A   1      15.123  54.451   3.873  1.00  0.00    +0.000 C 
ATOM     26  N4  UNL A   1      15.594  53.750   2.873  1.00  0.00    +0.000 N 
ATOM     27  C20 UNL A   1      16.371  54.628   2.129  1.00  0.00    +0.000 C 
ATOM     28  C21 UNL A   1      17.113  54.372   1.025  1.00  0.00    +0.000 C 
ATOM     40  C28 UNL A   1      17.237  53.074   0.414  1.00  0.00    +0.000 C 
ATOM     41  C29 UNL A   1      18.019  52.699  -0.665  1.00  0.00    +0.000 C 
ATOM     42  C30 UNL A   1      17.788  51.344  -0.921  1.00  0.00    +0.000 C 
ATOM     43  C31 UNL A   1      16.896  50.865   0.024  1.00  0.00    +0.000 C 
ATOM     44  N5  UNL A   1      16.562  51.938   0.834  1.00  0.00    +0.000 N 
ATOM     45  C32 UNL A   1      16.382  49.529   0.176  1.00  0.00    +0.000 C 
ATOM     57  C39 UNL A   1      15.511  49.134   1.136  1.00  0.00    +0.000 C 
ATOM     58  N6  UNL A   1      14.942  49.882   2.157  1.00  0.00    +0.000 N 
ATOM     59  C40 UNL A   1      14.163  49.058   2.815  1.00  0.00    +0.000 C 
ATOM     60  C41 UNL A   1      13.321  49.317   4.035  1.00  0.00    +0.000 C 
ATOM     72  C48 UNL A   1      13.333  50.541   4.595  1.00  0.00    +0.000 C 
ATOM     73  C49 UNL A   1      12.577  50.939   5.778  1.00  0.00    +0.000 C 
ATOM     74  C50 UNL A   1      12.798  52.241   6.022  1.00  0.00    +0.000 C 
ATOM     75  C51 UNL A   1      13.740  52.761   5.031  1.00  0.00    +0.000 C 
ATOM     76  N7  UNL A   1      14.010  51.679   4.229  1.00  0.00    +0.000 N 
ATOM     77  C52 UNL A   1      14.126  47.696   2.262  1.00  0.00    +0.000 C 
ATOM     78  C53 UNL A   1      14.994  47.787   1.265  1.00  0.00    +0.000 C 
ATOM     79  C54 UNL A   1      16.276  55.923   2.768  1.00  0.00    +0.000 C 
ATOM     80  C55 UNL A   1      15.567  55.854   3.885  1.00  0.00    +0.000 C 
ATOM    105  H22 UNL A   1      18.660  53.314  -1.189  1.00  0.00    +0.000 H 
ATOM    106  H23 UNL A   1      18.212  50.793  -1.685  1.00  0.00    +0.000 H 
ATOM    107  H24 UNL A   1      15.939  51.899   1.595  1.00  0.00    +0.000 H 
ATOM    108  H25 UNL A   1      11.969  50.320   6.337  1.00  0.00    +0.000 H 
ATOM    109  H26 UNL A   1      12.372  52.788   6.786  1.00  0.00    +0.000 H 
ATOM    110  H27 UNL A   1      14.629  51.715   3.465  1.00  0.00    +0.000 H 
ATOM    111  H28 UNL A   1      13.570  46.884   2.570  1.00  0.00    +0.000 H 
ATOM    112  H29 UNL A   1      15.269  46.999   0.658  1.00  0.00    +0.000 H 
ATOM    113  H30 UNL A   1      16.705  56.787   2.402  1.00  0.00    +0.000 H 
ATOM    114  H31 UNL A   1      15.376  56.590   4.581  1.00  0.00    +0.000 H 
ENDROOT
BRANCH   24   23
ATOM    103  H20 UNL A   1      11.362  57.413   6.372  1.00  0.00    +0.000 H 
ATOM    104  H21 UNL A   1      12.076  55.723   4.782  1.00  0.00    +0.000 H 
ATOM     81  C56 UNL A   1      14.346  55.159   7.191  1.00  0.00    +0.000 C 
ATOM     82  C57 UNL A   1      13.889  56.079   8.131  1.00  0.00    +0.000 C 
ATOM    115  H32 UNL A   1      15.167  54.571   7.404  1.00  0.00    +0.000 H 
ATOM     20  C14 UNL A   1      12.835  56.940   7.812  1.00  0.00    +0.000 C 
ATOM     21  C15 UNL A   1      12.165  56.804   6.592  1.00  0.00    +0.000 C 
ATOM    116  H33 UNL A   1      14.328  56.126   9.064  1.00  0.00    +0.000 H 
ATOM     22  C16 UNL A   1      12.585  55.840   5.672  1.00  0.00    +0.000 C 
ATOM     23  C17 UNL A   1      13.695  55.027   5.954  1.00  0.00    +0.000 C 
BRANCH   20   18
ATOM     18  C13 UNL A   1      12.384  57.983   8.761  1.00  0.00    +0.000 C 
ATOM     19  O3  UNL A   1      12.815  59.122   8.663  1.00  0.00    +0.000 O 
BRANCH   18   17
ATOM     17  N3  UNL A   1      11.486  57.666   9.752  1.00  0.00    +0.000 N 
ATOM    102  H19 UNL A   1      11.586  58.169  10.591  1.00  0.00    +0.000 H 
BRANCH   17   16
ATOM    100  H17 UNL A   1       9.476  57.201   9.848  1.00  0.00    +0.000 H 
ATOM    101  H18 UNL A   1      10.450  56.168   8.799  1.00  0.00    +0.000 H 
ATOM     16  C12 UNL A   1      10.408  56.689   9.733  1.00  0.00    +0.000 C 
BRANCH   16   15
ATOM     98  H15 UNL A   1      10.670  56.192  11.777  1.00  0.00    +0.000 H 
ATOM     99  H16 UNL A   1       9.664  55.062  10.830  1.00  0.00    +0.000 H 
ATOM     15  C11 UNL A   1      10.549  55.663  10.854  1.00  0.00    +0.000 C 
BRANCH   15   14
ATOM     97  H14 UNL A   1      12.439  55.204  10.069  1.00  0.00    +0.000 H 
ATOM     14  C10 UNL A   1      11.731  54.703  10.694  1.00  0.00    +0.000 C 
ATOM     96  H13 UNL A   1      11.361  53.790  10.274  1.00  0.00    +0.000 H 
BRANCH   14   13
ATOM     13  C9  UNL A   1      12.475  54.360  11.992  1.00  0.00    +0.000 C 
ATOM     94  H11 UNL A   1      12.345  55.176  12.673  1.00  0.00    +0.000 H 
ATOM     95  H12 UNL A   1      12.053  53.441  12.343  1.00  0.00    +0.000 H 
BRANCH   13   12
ATOM     92  H9  UNL A   1      14.232  54.176  10.796  1.00  0.00    +0.000 H 
ATOM     12  C8  UNL A   1      13.983  54.106  11.833  1.00  0.00    +0.000 C 
ATOM     93  H10 UNL A   1      14.490  54.842  12.422  1.00  0.00    +0.000 H 
BRANCH   12   11
ATOM     90  H7  UNL A   1      15.488  52.662  12.300  1.00  0.00    +0.000 H 
ATOM     11  C7  UNL A   1      14.422  52.733  12.346  1.00  0.00    +0.000 C 
ATOM     91  H8  UNL A   1      14.094  52.614  13.358  1.00  0.00    +0.000 H 
BRANCH   11   10
ATOM     89  H6  UNL A   1      12.863  51.788  11.414  1.00  0.00    +0.000 H 
ATOM     10  N2  UNL A   1      13.835  51.688  11.530  1.00  0.00    +0.000 N 
BRANCH   10    8
ATOM      9  O2  UNL A   1      13.817  49.504  11.139  1.00  0.00    +0.000 O 
ATOM      8  C6  UNL A   1      14.343  50.593  10.884  1.00  0.00    +0.000 C 
BRANCH    8    7
ATOM      2  C1  UNL A   1      16.582  50.820   7.781  1.00  0.00    +0.000 C 
ATOM      3  C2  UNL A   1      17.835  50.663   8.374  1.00  0.00    +0.000 C 
ATOM      4  C3  UNL A   1      17.948  50.496   9.752  1.00  0.00    +0.000 C 
ATOM      5  C4  UNL A   1      16.801  50.477  10.541  1.00  0.00    +0.000 C 
ATOM      7  C5  UNL A   1      15.520  50.603   9.971  1.00  0.00    +0.000 C 
ATOM     83  C58 UNL A   1      15.433  50.693   8.576  1.00  0.00    +0.000 C 
ATOM    117  H34 UNL A   1      14.505  50.668   8.123  1.00  0.00    +0.000 H 
ATOM     86  H3  UNL A   1      18.684  50.670   7.788  1.00  0.00    +0.000 H 
ATOM     87  H4  UNL A   1      18.877  50.390  10.186  1.00  0.00    +0.000 H 
BRANCH    2    1
ATOM      1  N1  UNL A   1      16.472  50.875   6.385  1.00  0.00    +0.000 N 
ATOM     84  H1  UNL A   1      15.592  50.781   5.957  1.00  0.00    +0.000 H 
ATOM     85  H2  UNL A   1      17.277  51.008   5.833  1.00  0.00    +0.000 H 
ENDBRANCH    2    1
BRANCH    5    6
ATOM      6  O1  UNL A   1      17.017  50.304  11.885  1.00  0.00    +0.000 O 
ATOM     88  H5  UNL A   1      17.413  50.988  12.387  1.00  0.00    +0.000 H 
ENDBRANCH    5    6
ENDBRANCH    8    7
ENDBRANCH   10    8
ENDBRANCH   11   10
ENDBRANCH   12   11
ENDBRANCH   13   12
ENDBRANCH   14   13
ENDBRANCH   15   14
ENDBRANCH   16   15
ENDBRANCH   17   16
ENDBRANCH   18   17
ENDBRANCH   20   18
ENDBRANCH   24   23
BRANCH   28   29
ATOM     33  F2  UNL A   1      21.026  57.305   0.711  1.00  0.00    +0.000 F 
ATOM     34  C25 UNL A   1      19.264  57.614  -0.831  1.00  0.00    +0.000 C 
ATOM     35  F3  UNL A   1      19.932  58.617  -1.415  1.00  0.00    +0.000 F 
ATOM     36  C26 UNL A   1      18.008  57.250  -1.295  1.00  0.00    +0.000 C 
ATOM     37  F4  UNL A   1      17.471  57.894  -2.342  1.00  0.00    +0.000 F 
ATOM     38  C27 UNL A   1      17.305  56.220  -0.678  1.00  0.00    +0.000 C 
ATOM     39  F5  UNL A   1      16.089  55.899  -1.144  1.00  0.00    +0.000 F 
ATOM     29  C22 UNL A   1      17.856  55.517   0.404  1.00  0.00    +0.000 C 
ATOM     30  C23 UNL A   1      19.134  55.891   0.848  1.00  0.00    +0.000 C 
ATOM     31  F1  UNL A   1      19.699  55.258   1.887  1.00  0.00    +0.000 F 
ATOM     32  C24 UNL A   1      19.823  56.939   0.245  1.00  0.00    +0.000 C 
ENDBRANCH   28   29
BRANCH   45   46
ATOM     46  C33 UNL A   1      16.861  48.483  -0.788  1.00  0.00    +0.000 C 
ATOM     47  C34 UNL A   1      18.040  47.759  -0.560  1.00  0.00    +0.000 C 
ATOM     48  F6  UNL A   1      18.802  48.030   0.511  1.00  0.00    +0.000 F 
ATOM     49  C35 UNL A   1      18.460  46.779  -1.455  1.00  0.00    +0.000 C 
ATOM     50  F7  UNL A   1      19.613  46.129  -1.241  1.00  0.00    +0.000 F 
ATOM     51  C36 UNL A   1      17.695  46.484  -2.574  1.00  0.00    +0.000 C 
ATOM     52  F8  UNL A   1      18.099  45.535  -3.431  1.00  0.00    +0.000 F 
ATOM     53  C37 UNL A   1      16.517  47.176  -2.809  1.00  0.00    +0.000 C 
ATOM     54  F9  UNL A   1      15.772  46.883  -3.883  1.00  0.00    +0.000 F 
ATOM     55  C38 UNL A   1      16.108  48.175  -1.931  1.00  0.00    +0.000 C 
ATOM     56  F10 UNL A   1      14.969  48.835  -2.189  1.00  0.00    +0.000 F 
ENDBRANCH   45   46
BRANCH   60   61
ATOM     65  F12 UNL A   1      12.733  45.762   7.317  1.00  0.00    +0.000 F 
ATOM     66  C45 UNL A   1      10.990  46.152   5.772  1.00  0.00    +0.000 C 
ATOM     67  F13 UNL A   1      10.273  45.153   6.304  1.00  0.00    +0.000 F 
ATOM     68  C46 UNL A   1      10.491  46.869   4.694  1.00  0.00    +0.000 C 
ATOM     69  F14 UNL A   1       9.282  46.575   4.196  1.00  0.00    +0.000 F 
ATOM     70  C47 UNL A   1      11.247  47.891   4.124  1.00  0.00    +0.000 C 
ATOM     71  F15 UNL A   1      10.746  48.558   3.074  1.00  0.00    +0.000 F 
ATOM     61  C42 UNL A   1      12.507  48.232   4.637  1.00  0.00    +0.000 C 
ATOM     62  C43 UNL A   1      12.980  47.507   5.740  1.00  0.00    +0.000 C 
ATOM     63  F11 UNL A   1      14.189  47.783   6.251  1.00  0.00    +0.000 F 
ATOM     64  C44 UNL A   1      12.235  46.468   6.291  1.00  0.00    +0.000 C 
ENDBRANCH   60   61
TORSDOF 17
ENDMDL
MODEL 6
REMARK VINA RESULT:      -9.1     65.752     71.293
ROOT
ATOM     24  C18 UNL A   1      29.531 -14.520  32.278  1.00  0.00    +0.000 C 
ATOM     25  C19 UNL A   1      28.856 -13.580  31.319  1.00  0.00    +0.000 C 
ATOM     26  N4  UNL A   1      27.810 -12.817  31.506  1.00  0.00    +0.000 N 
ATOM     27  C20 UNL A   1      27.636 -12.116  30.319  1.00  0.00    +0.000 C 
ATOM     28  C21 UNL A   1      26.659 -11.237  29.993  1.00  0.00    +0.000 C 
ATOM     40  C28 UNL A   1      25.571 -10.874  30.862  1.00  0.00    +0.000 C 
ATOM     41  C29 UNL A   1      24.494 -10.045  30.598  1.00  0.00    +0.000 C 
ATOM     42  C30 UNL A   1      23.712  -9.962  31.754  1.00  0.00    +0.000 C 
ATOM     43  C31 UNL A   1      24.279 -10.772  32.725  1.00  0.00    +0.000 C 
ATOM     44  N5  UNL A   1      25.421 -11.322  32.166  1.00  0.00    +0.000 N 
ATOM     45  C32 UNL A   1      23.816 -11.024  34.064  1.00  0.00    +0.000 C 
ATOM     57  C39 UNL A   1      24.426 -11.840  34.959  1.00  0.00    +0.000 C 
ATOM     58  N6  UNL A   1      25.578 -12.597  34.803  1.00  0.00    +0.000 N 
ATOM     59  C40 UNL A   1      25.767 -13.205  35.949  1.00  0.00    +0.000 C 
ATOM     60  C41 UNL A   1      26.847 -14.176  36.342  1.00  0.00    +0.000 C 
ATOM     72  C48 UNL A   1      27.776 -14.529  35.435  1.00  0.00    +0.000 C 
ATOM     73  C49 UNL A   1      28.877 -15.460  35.668  1.00  0.00    +0.000 C 
ATOM     74  C50 UNL A   1      29.628 -15.537  34.557  1.00  0.00    +0.000 C 
ATOM     75  C51 UNL A   1      29.040 -14.686  33.521  1.00  0.00    +0.000 C 
ATOM     76  N7  UNL A   1      27.940 -14.134  34.130  1.00  0.00    +0.000 N 
ATOM     77  C52 UNL A   1      24.767 -12.875  36.975  1.00  0.00    +0.000 C 
ATOM     78  C53 UNL A   1      23.952 -12.071  36.307  1.00  0.00    +0.000 C 
ATOM     79  C54 UNL A   1      28.709 -12.513  29.433  1.00  0.00    +0.000 C 
ATOM     80  C55 UNL A   1      29.455 -13.462  29.980  1.00  0.00    +0.000 C 
ATOM    105  H22 UNL A   1      24.303  -9.570  29.702  1.00  0.00    +0.000 H 
ATOM    106  H23 UNL A   1      22.857  -9.394  31.865  1.00  0.00    +0.000 H 
ATOM    107  H24 UNL A   1      26.035 -11.939  32.626  1.00  0.00    +0.000 H 
ATOM    108  H25 UNL A   1      29.051 -15.975  36.544  1.00  0.00    +0.000 H 
ATOM    109  H26 UNL A   1      30.482 -16.106  34.449  1.00  0.00    +0.000 H 
ATOM    110  H27 UNL A   1      27.326 -13.513  33.674  1.00  0.00    +0.000 H 
ATOM    111  H28 UNL A   1      24.714 -13.188  37.956  1.00  0.00    +0.000 H 
ATOM    112  H29 UNL A   1      23.089 -11.662  36.699  1.00  0.00    +0.000 H 
ATOM    113  H30 UNL A   1      28.872 -12.110  28.496  1.00  0.00    +0.000 H 
ATOM    114  H31 UNL A   1      30.247 -13.983  29.573  1.00  0.00    +0.000 H 
ENDROOT
BRANCH   24   23
ATOM    103  H20 UNL A   1      34.117 -14.810  31.754  1.00  0.00    +0.000 H 
ATOM    104  H21 UNL A   1      32.101 -13.683  32.502  1.00  0.00    +0.000 H 
ATOM     81  C56 UNL A   1      30.710 -16.505  31.332  1.00  0.00    +0.000 C 
ATOM     82  C57 UNL A   1      31.874 -17.180  30.970  1.00  0.00    +0.000 C 
ATOM    115  H32 UNL A   1      29.792 -16.954  31.192  1.00  0.00    +0.000 H 
ATOM     20  C14 UNL A   1      33.113 -16.540  31.073  1.00  0.00    +0.000 C 
ATOM     21  C15 UNL A   1      33.198 -15.266  31.643  1.00  0.00    +0.000 C 
ATOM    116  H33 UNL A   1      31.822 -18.152  30.627  1.00  0.00    +0.000 H 
ATOM     22  C16 UNL A   1      32.037 -14.613  32.061  1.00  0.00    +0.000 C 
ATOM     23  C17 UNL A   1      30.781 -15.217  31.885  1.00  0.00    +0.000 C 
BRANCH   20   18
ATOM     18  C13 UNL A   1      34.356 -17.203  30.619  1.00  0.00    +0.000 C 
ATOM     19  O3  UNL A   1      35.366 -17.138  31.305  1.00  0.00    +0.000 O 
BRANCH   18   17
ATOM     17  N3  UNL A   1      34.374 -17.886  29.425  1.00  0.00    +0.000 N 
ATOM    102  H19 UNL A   1      34.258 -18.860  29.493  1.00  0.00    +0.000 H 
BRANCH   17   16
ATOM    100  H17 UNL A   1      34.994 -16.399  28.133  1.00  0.00    +0.000 H 
ATOM    101  H18 UNL A   1      35.159 -18.051  27.533  1.00  0.00    +0.000 H 
ATOM     16  C12 UNL A   1      34.541 -17.367  28.077  1.00  0.00    +0.000 C 
BRANCH   16   15
ATOM     98  H15 UNL A   1      33.393 -17.362  26.296  1.00  0.00    +0.000 H 
ATOM     99  H16 UNL A   1      32.572 -18.008  27.743  1.00  0.00    +0.000 H 
ATOM     15  C11 UNL A   1      33.209 -17.246  27.344  1.00  0.00    +0.000 C 
BRANCH   15   14
ATOM     97  H14 UNL A   1      31.904 -16.033  28.450  1.00  0.00    +0.000 H 
ATOM     14  C10 UNL A   1      32.482 -15.915  27.559  1.00  0.00    +0.000 C 
ATOM     96  H13 UNL A   1      31.891 -15.717  26.689  1.00  0.00    +0.000 H 
BRANCH   14   13
ATOM     13  C9  UNL A   1      33.394 -14.705  27.798  1.00  0.00    +0.000 C 
ATOM     94  H11 UNL A   1      33.986 -14.903  28.668  1.00  0.00    +0.000 H 
ATOM     95  H12 UNL A   1      33.974 -14.587  26.906  1.00  0.00    +0.000 H 
BRANCH   13   12
ATOM     92  H9  UNL A   1      31.620 -13.519  27.835  1.00  0.00    +0.000 H 
ATOM     12  C8  UNL A   1      32.664 -13.369  28.013  1.00  0.00    +0.000 C 
ATOM     93  H10 UNL A   1      32.861 -13.059  29.018  1.00  0.00    +0.000 H 
BRANCH   12   11
ATOM     90  H7  UNL A   1      33.720 -11.544  27.659  1.00  0.00    +0.000 H 
ATOM     11  C7  UNL A   1      33.159 -12.254  27.089  1.00  0.00    +0.000 C 
ATOM     91  H8  UNL A   1      33.779 -12.678  26.327  1.00  0.00    +0.000 H 
BRANCH   11   10
ATOM     89  H6  UNL A   1      32.049 -11.633  25.484  1.00  0.00    +0.000 H 
ATOM     10  N2  UNL A   1      32.031 -11.588  26.468  1.00  0.00    +0.000 N 
BRANCH   10    8
ATOM      9  O2  UNL A   1      29.833 -11.306  26.589  1.00  0.00    +0.000 O 
ATOM      8  C6  UNL A   1      30.945 -10.910  26.954  1.00  0.00    +0.000 C 
BRANCH    8    7
ATOM      2  C1  UNL A   1      31.287  -8.546  29.952  1.00  0.00    +0.000 C 
ATOM      3  C2  UNL A   1      31.161  -7.316  29.307  1.00  0.00    +0.000 C 
ATOM      4  C3  UNL A   1      30.978  -7.258  27.928  1.00  0.00    +0.000 C 
ATOM      5  C4  UNL A   1      30.911  -8.437  27.190  1.00  0.00    +0.000 C 
ATOM      7  C5  UNL A   1      31.005  -9.695  27.815  1.00  0.00    +0.000 C 
ATOM     83  C58 UNL A   1      31.114  -9.724  29.211  1.00  0.00    +0.000 C 
ATOM    117  H34 UNL A   1      31.066 -10.630  29.704  1.00  0.00    +0.000 H 
ATOM     86  H3  UNL A   1      31.203  -6.443  29.856  1.00  0.00    +0.000 H 
ATOM     87  H4  UNL A   1      30.894  -6.346  27.455  1.00  0.00    +0.000 H 
BRANCH    2    1
ATOM      1  N1  UNL A   1      31.360  -8.597  31.351  1.00  0.00    +0.000 N 
ATOM     84  H1  UNL A   1      32.036  -9.162  31.789  1.00  0.00    +0.000 H 
ATOM     85  H2  UNL A   1      30.733  -8.067  31.896  1.00  0.00    +0.000 H 
ENDBRANCH    2    1
BRANCH    5    6
ATOM      6  O1  UNL A   1      30.725  -8.274  25.840  1.00  0.00    +0.000 O 
ATOM     88  H5  UNL A   1      30.188  -7.576  25.523  1.00  0.00    +0.000 H 
ENDBRANCH    5    6
ENDBRANCH    8    7
ENDBRANCH   10    8
ENDBRANCH   11   10
ENDBRANCH   12   11
ENDBRANCH   13   12
ENDBRANCH   14   13
ENDBRANCH   15   14
ENDBRANCH   16   15
ENDBRANCH   17   16
ENDBRANCH   18   17
ENDBRANCH   20   18
ENDBRANCH   24   23
BRANCH   28   29
ATOM     33  F2  UNL A   1      25.679 -11.256  25.192  1.00  0.00    +0.000 F 
ATOM     34  C25 UNL A   1      26.759  -9.368  26.110  1.00  0.00    +0.000 C 
ATOM     35  F3  UNL A   1      26.786  -8.780  24.906  1.00  0.00    +0.000 F 
ATOM     36  C26 UNL A   1      27.309  -8.725  27.210  1.00  0.00    +0.000 C 
ATOM     37  F4  UNL A   1      27.851  -7.507  27.070  1.00  0.00    +0.000 F 
ATOM     38  C27 UNL A   1      27.297  -9.343  28.458  1.00  0.00    +0.000 C 
ATOM     39  F5  UNL A   1      27.845  -8.700  29.500  1.00  0.00    +0.000 F 
ATOM     29  C22 UNL A   1      26.716 -10.607  28.632  1.00  0.00    +0.000 C 
ATOM     30  C23 UNL A   1      26.152 -11.232  27.510  1.00  0.00    +0.000 C 
ATOM     31  F1  UNL A   1      25.594 -12.446  27.622  1.00  0.00    +0.000 F 
ATOM     32  C24 UNL A   1      26.188 -10.623  26.258  1.00  0.00    +0.000 C 
ENDBRANCH   28   29
BRANCH   45   46
ATOM     46  C33 UNL A   1      22.548 -10.351  34.503  1.00  0.00    +0.000 C 
ATOM     47  C34 UNL A   1      21.294 -10.944  34.300  1.00  0.00    +0.000 C 
ATOM     48  F6  UNL A   1      21.198 -12.115  33.652  1.00  0.00    +0.000 F 
ATOM     49  C35 UNL A   1      20.129 -10.315  34.731  1.00  0.00    +0.000 C 
ATOM     50  F7  UNL A   1      18.937 -10.878  34.489  1.00  0.00    +0.000 F 
ATOM     51  C36 UNL A   1      20.199  -9.100  35.397  1.00  0.00    +0.000 C 
ATOM     52  F8  UNL A   1      19.076  -8.499  35.816  1.00  0.00    +0.000 F 
ATOM     53  C37 UNL A   1      21.431  -8.505  35.622  1.00  0.00    +0.000 C 
ATOM     54  F9  UNL A   1      21.501  -7.337  36.276  1.00  0.00    +0.000 F 
ATOM     55  C38 UNL A   1      22.596  -9.118  35.171  1.00  0.00    +0.000 C 
ATOM     56  F10 UNL A   1      23.772  -8.514  35.393  1.00  0.00    +0.000 F 
ENDBRANCH   45   46
BRANCH   60   61
ATOM     65  F12 UNL A   1      28.434 -14.154  40.950  1.00  0.00    +0.000 F 
ATOM     66  C45 UNL A   1      26.969 -15.883  40.284  1.00  0.00    +0.000 C 
ATOM     67  F13 UNL A   1      27.024 -16.423  41.510  1.00  0.00    +0.000 F 
ATOM     68  C46 UNL A   1      26.210 -16.485  39.292  1.00  0.00    +0.000 C 
ATOM     69  F14 UNL A   1      25.514 -17.597  39.563  1.00  0.00    +0.000 F 
ATOM     70  C47 UNL A   1      26.173 -15.938  38.011  1.00  0.00    +0.000 C 
ATOM     71  F15 UNL A   1      25.441 -16.549  37.067  1.00  0.00    +0.000 F 
ATOM     61  C42 UNL A   1      26.876 -14.764  37.705  1.00  0.00    +0.000 C 
ATOM     62  C43 UNL A   1      27.620 -14.163  38.729  1.00  0.00    +0.000 C 
ATOM     63  F11 UNL A   1      28.327 -13.051  38.478  1.00  0.00    +0.000 F 
ATOM     64  C44 UNL A   1      27.678 -14.725  40.002  1.00  0.00    +0.000 C 
ENDBRANCH   60   61
TORSDOF 17
ENDMDL
MODEL 7
REMARK VINA RESULT:      -9.1      0.811      1.874
ROOT
ATOM     24  C18 UNL A   1      13.836  53.610   5.294  1.00  0.00    +0.000 C 
ATOM     25  C19 UNL A   1      14.790  54.079   4.232  1.00  0.00    +0.000 C 
ATOM     26  N4  UNL A   1      15.278  53.424   3.210  1.00  0.00    +0.000 N 
ATOM     27  C20 UNL A   1      16.069  54.335   2.520  1.00  0.00    +0.000 C 
ATOM     28  C21 UNL A   1      16.829  54.129   1.418  1.00  0.00    +0.000 C 
ATOM     40  C28 UNL A   1      16.964  52.860   0.751  1.00  0.00    +0.000 C 
ATOM     41  C29 UNL A   1      17.763  52.534  -0.331  1.00  0.00    +0.000 C 
ATOM     42  C30 UNL A   1      17.537  51.192  -0.653  1.00  0.00    +0.000 C 
ATOM     43  C31 UNL A   1      16.628  50.671   0.254  1.00  0.00    +0.000 C 
ATOM     44  N5  UNL A   1      16.281  51.706   1.107  1.00  0.00    +0.000 N 
ATOM     45  C32 UNL A   1      16.112  49.330   0.336  1.00  0.00    +0.000 C 
ATOM     57  C39 UNL A   1      15.224  48.893   1.262  1.00  0.00    +0.000 C 
ATOM     58  N6  UNL A   1      14.638  49.593   2.307  1.00  0.00    +0.000 N 
ATOM     59  C40 UNL A   1      13.847  48.742   2.913  1.00  0.00    +0.000 C 
ATOM     60  C41 UNL A   1      12.985  48.945   4.128  1.00  0.00    +0.000 C 
ATOM     72  C48 UNL A   1      12.988  50.143   4.744  1.00  0.00    +0.000 C 
ATOM     73  C49 UNL A   1      12.211  50.487   5.931  1.00  0.00    +0.000 C 
ATOM     74  C50 UNL A   1      12.428  51.776   6.238  1.00  0.00    +0.000 C 
ATOM     75  C51 UNL A   1      13.388  52.339   5.288  1.00  0.00    +0.000 C 
ATOM     76  N7  UNL A   1      13.671  51.295   4.442  1.00  0.00    +0.000 N 
ATOM     77  C52 UNL A   1      13.820  47.407   2.297  1.00  0.00    +0.000 C 
ATOM     78  C53 UNL A   1      14.705  47.542   1.320  1.00  0.00    +0.000 C 
ATOM     79  C54 UNL A   1      15.963  55.599   3.215  1.00  0.00    +0.000 C 
ATOM     80  C55 UNL A   1      15.234  55.480   4.316  1.00  0.00    +0.000 C 
ATOM    105  H22 UNL A   1      18.413  53.172  -0.815  1.00  0.00    +0.000 H 
ATOM    106  H23 UNL A   1      17.973  50.677  -1.434  1.00  0.00    +0.000 H 
ATOM    107  H24 UNL A   1      15.645  51.634   1.855  1.00  0.00    +0.000 H 
ATOM    108  H25 UNL A   1      11.594  49.844   6.451  1.00  0.00    +0.000 H 
ATOM    109  H26 UNL A   1      11.989  52.288   7.019  1.00  0.00    +0.000 H 
ATOM    110  H27 UNL A   1      14.303  51.366   3.691  1.00  0.00    +0.000 H 
ATOM    111  H28 UNL A   1      13.258  46.581   2.558  1.00  0.00    +0.000 H 
ATOM    112  H29 UNL A   1      14.989  46.782   0.683  1.00  0.00    +0.000 H 
ATOM    113  H30 UNL A   1      16.398  56.479   2.897  1.00  0.00    +0.000 H 
ATOM    114  H31 UNL A   1      15.032  56.184   5.042  1.00  0.00    +0.000 H 
ENDROOT
BRANCH   24   23
ATOM    103  H20 UNL A   1      14.098  55.928   9.288  1.00  0.00    +0.000 H 
ATOM    104  H21 UNL A   1      15.007  54.444   7.594  1.00  0.00    +0.000 H 
ATOM     81  C56 UNL A   1      12.081  55.178   6.121  1.00  0.00    +0.000 C 
ATOM     82  C57 UNL A   1      11.594  56.086   7.059  1.00  0.00    +0.000 C 
ATOM    115  H32 UNL A   1      11.522  54.959   5.282  1.00  0.00    +0.000 H 
ATOM     20  C14 UNL A   1      12.304  56.317   8.241  1.00  0.00    +0.000 C 
ATOM     21  C15 UNL A   1      13.557  55.726   8.433  1.00  0.00    +0.000 C 
ATOM    116  H33 UNL A   1      10.710  56.587   6.882  1.00  0.00    +0.000 H 
ATOM     22  C16 UNL A   1      14.073  54.862   7.464  1.00  0.00    +0.000 C 
ATOM     23  C17 UNL A   1      13.327  54.562   6.313  1.00  0.00    +0.000 C 
BRANCH   20   18
ATOM     18  C13 UNL A   1      11.770  57.213   9.292  1.00  0.00    +0.000 C 
ATOM     19  O3  UNL A   1      11.717  58.419   9.095  1.00  0.00    +0.000 O 
BRANCH   18   17
ATOM     17  N3  UNL A   1      11.339  56.688  10.487  1.00  0.00    +0.000 N 
ATOM    102  H19 UNL A   1      11.867  56.943  11.277  1.00  0.00    +0.000 H 
BRANCH   17   16
ATOM    100  H17 UNL A   1       9.949  55.877  11.782  1.00  0.00    +0.000 H 
ATOM    101  H18 UNL A   1       9.398  56.117  10.122  1.00  0.00    +0.000 H 
ATOM     16  C12 UNL A   1      10.211  55.808  10.747  1.00  0.00    +0.000 C 
BRANCH   16   15
ATOM     98  H15 UNL A   1       9.624  53.794  10.445  1.00  0.00    +0.000 H 
ATOM     99  H16 UNL A   1      10.994  54.357   9.449  1.00  0.00    +0.000 H 
ATOM     15  C11 UNL A   1      10.535  54.354  10.417  1.00  0.00    +0.000 C 
BRANCH   15   14
ATOM     97  H14 UNL A   1      11.019  52.869  11.817  1.00  0.00    +0.000 H 
ATOM     14  C10 UNL A   1      11.535  53.693  11.370  1.00  0.00    +0.000 C 
ATOM     96  H13 UNL A   1      11.856  54.430  12.076  1.00  0.00    +0.000 H 
BRANCH   14   13
ATOM     13  C9  UNL A   1      12.783  53.102  10.700  1.00  0.00    +0.000 C 
ATOM     94  H11 UNL A   1      12.721  52.035  10.768  1.00  0.00    +0.000 H 
ATOM     95  H12 UNL A   1      12.781  53.465   9.694  1.00  0.00    +0.000 H 
BRANCH   13   12
ATOM     92  H9  UNL A   1      14.858  53.570  10.535  1.00  0.00    +0.000 H 
ATOM     12  C8  UNL A   1      14.123  53.542  11.312  1.00  0.00    +0.000 C 
ATOM     93  H10 UNL A   1      13.967  54.502  11.756  1.00  0.00    +0.000 H 
BRANCH   12   11
ATOM     90  H7  UNL A   1      14.640  53.134  13.346  1.00  0.00    +0.000 H 
ATOM     11  C7  UNL A   1      14.620  52.606  12.416  1.00  0.00    +0.000 C 
ATOM     91  H8  UNL A   1      13.958  51.767  12.491  1.00  0.00    +0.000 H 
BRANCH   11   10
ATOM     89  H6  UNL A   1      16.663  52.738  12.421  1.00  0.00    +0.000 H 
ATOM     10  N2  UNL A   1      15.954  52.133  12.103  1.00  0.00    +0.000 N 
BRANCH   10    8
ATOM      9  O2  UNL A   1      17.346  50.407  12.032  1.00  0.00    +0.000 O 
ATOM      8  C6  UNL A   1      16.441  51.026  11.462  1.00  0.00    +0.000 C 
BRANCH    8    7
ATOM      2  C1  UNL A   1      16.298  50.368   7.688  1.00  0.00    +0.000 C 
ATOM      3  C2  UNL A   1      15.156  49.569   7.624  1.00  0.00    +0.000 C 
ATOM      4  C3  UNL A   1      14.455  49.246   8.784  1.00  0.00    +0.000 C 
ATOM      5  C4  UNL A   1      14.893  49.732  10.013  1.00  0.00    +0.000 C 
ATOM      7  C5  UNL A   1      16.024  50.564  10.108  1.00  0.00    +0.000 C 
ATOM     83  C58 UNL A   1      16.664  50.933   8.919  1.00  0.00    +0.000 C 
ATOM    117  H34 UNL A   1      17.422  51.634   8.948  1.00  0.00    +0.000 H 
ATOM     86  H3  UNL A   1      14.828  49.216   6.712  1.00  0.00    +0.000 H 
ATOM     87  H4  UNL A   1      13.616  48.648   8.732  1.00  0.00    +0.000 H 
BRANCH    2    1
ATOM      1  N1  UNL A   1      16.930  50.778   6.507  1.00  0.00    +0.000 N 
ATOM     84  H1  UNL A   1      16.594  51.560   6.014  1.00  0.00    +0.000 H 
ATOM     85  H2  UNL A   1      17.712  50.283   6.170  1.00  0.00    +0.000 H 
ENDBRANCH    2    1
BRANCH    5    6
ATOM      6  O1  UNL A   1      14.133  49.361  11.094  1.00  0.00    +0.000 O 
ATOM     88  H5  UNL A   1      13.540  48.640  11.024  1.00  0.00    +0.000 H 
ENDBRANCH    5    6
ENDBRANCH    8    7
ENDBRANCH   10    8
ENDBRANCH   11   10
ENDBRANCH   12   11
ENDBRANCH   13   12
ENDBRANCH   14   13
ENDBRANCH   15   14
ENDBRANCH   16   15
ENDBRANCH   17   16
ENDBRANCH   18   17
ENDBRANCH   20   18
ENDBRANCH   24   23
BRANCH   28   29
ATOM     33  F2  UNL A   1      20.753  57.061   1.297  1.00  0.00    +0.000 F 
ATOM     34  C25 UNL A   1      19.011  57.450  -0.250  1.00  0.00    +0.000 C 
ATOM     35  F3  UNL A   1      19.690  58.478  -0.776  1.00  0.00    +0.000 F 
ATOM     36  C26 UNL A   1      17.761  57.114  -0.748  1.00  0.00    +0.000 C 
ATOM     37  F4  UNL A   1      17.239  57.809  -1.769  1.00  0.00    +0.000 F 
ATOM     38  C27 UNL A   1      17.048  56.056  -0.190  1.00  0.00    +0.000 C 
ATOM     39  F5  UNL A   1      15.837  55.763  -0.686  1.00  0.00    +0.000 F 
ATOM     29  C22 UNL A   1      17.583  55.301   0.863  1.00  0.00    +0.000 C 
ATOM     30  C23 UNL A   1      18.856  55.648   1.341  1.00  0.00    +0.000 C 
ATOM     31  F1  UNL A   1      19.406  54.963   2.354  1.00  0.00    +0.000 F 
ATOM     32  C24 UNL A   1      19.555  56.722   0.798  1.00  0.00    +0.000 C 
ENDBRANCH   28   29
BRANCH   45   46
ATOM     46  C33 UNL A   1      16.607  48.329  -0.666  1.00  0.00    +0.000 C 
ATOM     47  C34 UNL A   1      15.834  47.956  -1.775  1.00  0.00    +0.000 C 
ATOM     48  F6  UNL A   1      14.598  48.453  -1.933  1.00  0.00    +0.000 F 
ATOM     49  C35 UNL A   1      16.316  47.039  -2.705  1.00  0.00    +0.000 C 
ATOM     50  F7  UNL A   1      15.544  46.664  -3.735  1.00  0.00    +0.000 F 
ATOM     51  C36 UNL A   1      17.588  46.504  -2.561  1.00  0.00    +0.000 C 
ATOM     52  F8  UNL A   1      18.052  45.627  -3.462  1.00  0.00    +0.000 F 
ATOM     53  C37 UNL A   1      18.375  46.873  -1.481  1.00  0.00    +0.000 C 
ATOM     54  F9  UNL A   1      19.608  46.366  -1.347  1.00  0.00    +0.000 F 
ATOM     55  C38 UNL A   1      17.886  47.768  -0.535  1.00  0.00    +0.000 C 
ATOM     56  F10 UNL A   1      18.665  48.099   0.506  1.00  0.00    +0.000 F 
ENDBRANCH   45   46
BRANCH   60   61
ATOM     65  F12 UNL A   1       8.741  46.571   4.453  1.00  0.00    +0.000 F 
ATOM     66  C45 UNL A   1      10.573  45.755   5.700  1.00  0.00    +0.000 C 
ATOM     67  F13 UNL A   1       9.813  44.772   6.202  1.00  0.00    +0.000 F 
ATOM     68  C46 UNL A   1      11.901  45.871   6.081  1.00  0.00    +0.000 C 
ATOM     69  F14 UNL A   1      12.432  44.988   6.937  1.00  0.00    +0.000 F 
ATOM     70  C47 UNL A   1      12.684  46.908   5.578  1.00  0.00    +0.000 C 
ATOM     71  F15 UNL A   1      13.962  47.004   5.975  1.00  0.00    +0.000 F 
ATOM     61  C42 UNL A   1      12.160  47.835   4.666  1.00  0.00    +0.000 C 
ATOM     62  C43 UNL A   1      10.820  47.685   4.281  1.00  0.00    +0.000 C 
ATOM     63  F11 UNL A   1      10.269  48.560   3.427  1.00  0.00    +0.000 F 
ATOM     64  C44 UNL A   1      10.031  46.664   4.804  1.00  0.00    +0.000 C 
ENDBRANCH   60   61
TORSDOF 17
ENDMDL
MODEL 8
REMARK VINA RESULT:      -9.1     47.813     52.370
ROOT
ATOM     24  C18 UNL A   1      52.879  20.309  11.432  1.00  0.00    +0.000 C 
ATOM     25  C19 UNL A   1      52.712  20.865  12.819  1.00  0.00    +0.000 C 
ATOM     26  N4  UNL A   1      53.573  20.905  13.803  1.00  0.00    +0.000 N 
ATOM     27  C20 UNL A   1      52.928  21.565  14.842  1.00  0.00    +0.000 C 
ATOM     28  C21 UNL A   1      53.381  21.814  16.094  1.00  0.00    +0.000 C 
ATOM     40  C28 UNL A   1      54.668  21.401  16.589  1.00  0.00    +0.000 C 
ATOM     41  C29 UNL A   1      55.190  21.546  17.863  1.00  0.00    +0.000 C 
ATOM     42  C30 UNL A   1      56.488  21.023  17.864  1.00  0.00    +0.000 C 
ATOM     43  C31 UNL A   1      56.758  20.516  16.604  1.00  0.00    +0.000 C 
ATOM     44  N5  UNL A   1      55.635  20.758  15.829  1.00  0.00    +0.000 N 
ATOM     45  C32 UNL A   1      57.952  19.862  16.138  1.00  0.00    +0.000 C 
ATOM     57  C39 UNL A   1      58.140  19.384  14.883  1.00  0.00    +0.000 C 
ATOM     58  N6  UNL A   1      57.266  19.401  13.805  1.00  0.00    +0.000 N 
ATOM     59  C40 UNL A   1      57.907  18.832  12.813  1.00  0.00    +0.000 C 
ATOM     60  C41 UNL A   1      57.435  18.553  11.413  1.00  0.00    +0.000 C 
ATOM     72  C48 UNL A   1      56.181  18.894  11.060  1.00  0.00    +0.000 C 
ATOM     73  C49 UNL A   1      55.583  18.683   9.746  1.00  0.00    +0.000 C 
ATOM     74  C50 UNL A   1      54.338  19.186   9.745  1.00  0.00    +0.000 C 
ATOM     75  C51 UNL A   1      54.038  19.725  11.072  1.00  0.00    +0.000 C 
ATOM     76  N7  UNL A   1      55.188  19.501  11.789  1.00  0.00    +0.000 N 
ATOM     77  C52 UNL A   1      59.278  18.416  13.145  1.00  0.00    +0.000 C 
ATOM     78  C53 UNL A   1      59.354  18.740  14.428  1.00  0.00    +0.000 C 
ATOM     79  C54 UNL A   1      51.620  21.944  14.355  1.00  0.00    +0.000 C 
ATOM     80  C55 UNL A   1      51.413  21.481  13.130  1.00  0.00    +0.000 C 
ATOM    105  H22 UNL A   1      54.706  21.966  18.670  1.00  0.00    +0.000 H 
ATOM    106  H23 UNL A   1      57.134  21.016  18.669  1.00  0.00    +0.000 H 
ATOM    107  H24 UNL A   1      55.537  20.511  14.882  1.00  0.00    +0.000 H 
ATOM    108  H25 UNL A   1      56.042  18.222   8.945  1.00  0.00    +0.000 H 
ATOM    109  H26 UNL A   1      53.694  19.192   8.938  1.00  0.00    +0.000 H 
ATOM    110  H27 UNL A   1      55.290  19.750  12.736  1.00  0.00    +0.000 H 
ATOM    111  H28 UNL A   1      59.992  17.985  12.539  1.00  0.00    +0.000 H 
ATOM    112  H29 UNL A   1      60.174  18.556  15.027  1.00  0.00    +0.000 H 
ATOM    113  H30 UNL A   1      50.937  22.503  14.890  1.00  0.00    +0.000 H 
ATOM    114  H31 UNL A   1      50.562  21.536  12.549  1.00  0.00    +0.000 H 
ENDROOT
BRANCH   24   23
ATOM    103  H20 UNL A   1      50.633  22.572   8.081  1.00  0.00    +0.000 H 
ATOM    104  H21 UNL A   1      52.477  22.303   9.636  1.00  0.00    +0.000 H 
ATOM     81  C56 UNL A   1      50.810  19.470  10.319  1.00  0.00    +0.000 C 
ATOM     82  C57 UNL A   1      49.793  19.591   9.375  1.00  0.00    +0.000 C 
ATOM    115  H32 UNL A   1      50.839  18.645  10.938  1.00  0.00    +0.000 H 
ATOM     20  C14 UNL A   1      49.696  20.749   8.597  1.00  0.00    +0.000 C 
ATOM     21  C15 UNL A   1      50.683  21.735   8.684  1.00  0.00    +0.000 C 
ATOM    116  H33 UNL A   1      49.110  18.827   9.250  1.00  0.00    +0.000 H 
ATOM     22  C16 UNL A   1      51.737  21.586   9.588  1.00  0.00    +0.000 C 
ATOM     23  C17 UNL A   1      51.794  20.464  10.431  1.00  0.00    +0.000 C 
BRANCH   20   18
ATOM     18  C13 UNL A   1      48.578  20.940   7.645  1.00  0.00    +0.000 C 
ATOM     19  O3  UNL A   1      48.119  22.058   7.462  1.00  0.00    +0.000 O 
BRANCH   18   17
ATOM     17  N3  UNL A   1      48.057  19.860   6.973  1.00  0.00    +0.000 N 
ATOM    102  H19 UNL A   1      48.214  18.984   7.393  1.00  0.00    +0.000 H 
BRANCH   17   16
ATOM    100  H17 UNL A   1      46.311  20.178   5.917  1.00  0.00    +0.000 H 
ATOM    101  H18 UNL A   1      47.807  20.464   5.025  1.00  0.00    +0.000 H 
ATOM     16  C12 UNL A   1      47.306  19.832   5.728  1.00  0.00    +0.000 C 
BRANCH   16   15
ATOM     98  H15 UNL A   1      46.692  18.479   4.216  1.00  0.00    +0.000 H 
ATOM     99  H16 UNL A   1      48.247  18.101   5.006  1.00  0.00    +0.000 H 
ATOM     15  C11 UNL A   1      47.236  18.427   5.136  1.00  0.00    +0.000 C 
BRANCH   15   14
ATOM     97  H14 UNL A   1      45.865  17.933   6.645  1.00  0.00    +0.000 H 
ATOM     14  C10 UNL A   1      46.557  17.390   6.036  1.00  0.00    +0.000 C 
ATOM     96  H13 UNL A   1      47.319  16.889   6.596  1.00  0.00    +0.000 H 
BRANCH   14   13
ATOM     13  C9  UNL A   1      45.732  16.326   5.299  1.00  0.00    +0.000 C 
ATOM     94  H11 UNL A   1      44.799  16.218   5.812  1.00  0.00    +0.000 H 
ATOM     95  H12 UNL A   1      45.627  16.675   4.293  1.00  0.00    +0.000 H 
BRANCH   13   12
ATOM     92  H9  UNL A   1      46.764  14.675   6.172  1.00  0.00    +0.000 H 
ATOM     12  C8  UNL A   1      46.389  14.940   5.206  1.00  0.00    +0.000 C 
ATOM     93  H10 UNL A   1      45.640  14.258   4.862  1.00  0.00    +0.000 H 
BRANCH   12   11
ATOM     90  H7  UNL A   1      47.425  14.033   3.570  1.00  0.00    +0.000 H 
ATOM     11  C7  UNL A   1      47.546  14.885   4.205  1.00  0.00    +0.000 C 
ATOM     91  H8  UNL A   1      47.544  15.778   3.616  1.00  0.00    +0.000 H 
BRANCH   11   10
ATOM     89  H6  UNL A   1      48.736  14.294   5.763  1.00  0.00    +0.000 H 
ATOM     10  N2  UNL A   1      48.808  14.782   4.911  1.00  0.00    +0.000 N 
BRANCH   10    8
ATOM      9  O2  UNL A   1      50.724  14.576   3.811  1.00  0.00    +0.000 O 
ATOM      8  C6  UNL A   1      50.079  15.216   4.648  1.00  0.00    +0.000 C 
BRANCH    8    7
ATOM      2  C1  UNL A   1      51.251  18.705   5.719  1.00  0.00    +0.000 C 
ATOM      3  C2  UNL A   1      52.075  18.366   6.793  1.00  0.00    +0.000 C 
ATOM      4  C3  UNL A   1      52.236  17.033   7.164  1.00  0.00    +0.000 C 
ATOM      5  C4  UNL A   1      51.579  16.034   6.452  1.00  0.00    +0.000 C 
ATOM      7  C5  UNL A   1      50.765  16.341   5.346  1.00  0.00    +0.000 C 
ATOM     83  C58 UNL A   1      50.681  17.681   4.949  1.00  0.00    +0.000 C 
ATOM    117  H34 UNL A   1      50.188  17.921   4.074  1.00  0.00    +0.000 H 
ATOM     86  H3  UNL A   1      52.567  19.107   7.315  1.00  0.00    +0.000 H 
ATOM     87  H4  UNL A   1      52.839  16.788   7.964  1.00  0.00    +0.000 H 
BRANCH    2    1
ATOM      1  N1  UNL A   1      51.183  20.037   5.285  1.00  0.00    +0.000 N 
ATOM     84  H1  UNL A   1      51.986  20.604   5.310  1.00  0.00    +0.000 H 
ATOM     85  H2  UNL A   1      50.331  20.403   4.956  1.00  0.00    +0.000 H 
ENDBRANCH    2    1
BRANCH    5    6
ATOM      6  O1  UNL A   1      51.806  14.754   6.893  1.00  0.00    +0.000 O 
ATOM     88  H5  UNL A   1      51.388  14.032   6.469  1.00  0.00    +0.000 H 
ENDBRANCH    5    6
ENDBRANCH    8    7
ENDBRANCH   10    8
ENDBRANCH   11   10
ENDBRANCH   12   11
ENDBRANCH   13   12
ENDBRANCH   14   13
ENDBRANCH   15   14
ENDBRANCH   16   15
ENDBRANCH   17   16
ENDBRANCH   18   17
ENDBRANCH   20   18
ENDBRANCH   24   23
BRANCH   28   29
ATOM     33  F2  UNL A   1      51.431  25.983  17.777  1.00  0.00    +0.000 F 
ATOM     34  C25 UNL A   1      50.709  23.943  18.722  1.00  0.00    +0.000 C 
ATOM     35  F3  UNL A   1      49.872  24.600  19.536  1.00  0.00    +0.000 F 
ATOM     36  C26 UNL A   1      50.796  22.560  18.783  1.00  0.00    +0.000 C 
ATOM     37  F4  UNL A   1      50.028  21.880  19.647  1.00  0.00    +0.000 F 
ATOM     38  C27 UNL A   1      51.678  21.877  17.951  1.00  0.00    +0.000 C 
ATOM     39  F5  UNL A   1      51.747  20.541  18.041  1.00  0.00    +0.000 F 
ATOM     29  C22 UNL A   1      52.476  22.565  17.025  1.00  0.00    +0.000 C 
ATOM     30  C23 UNL A   1      52.360  23.963  16.968  1.00  0.00    +0.000 C 
ATOM     31  F1  UNL A   1      53.109  24.668  16.108  1.00  0.00    +0.000 F 
ATOM     32  C24 UNL A   1      51.496  24.645  17.821  1.00  0.00    +0.000 C 
ENDBRANCH   28   29
BRANCH   45   46
ATOM     46  C33 UNL A   1      59.072  19.671  17.118  1.00  0.00    +0.000 C 
ATOM     47  C34 UNL A   1      59.394  18.406  17.628  1.00  0.00    +0.000 C 
ATOM     48  F6  UNL A   1      58.662  17.334  17.286  1.00  0.00    +0.000 F 
ATOM     49  C35 UNL A   1      60.449  18.244  18.523  1.00  0.00    +0.000 C 
ATOM     50  F7  UNL A   1      60.713  17.032  19.031  1.00  0.00    +0.000 F 
ATOM     51  C36 UNL A   1      61.216  19.336  18.898  1.00  0.00    +0.000 C 
ATOM     52  F8  UNL A   1      62.235  19.176  19.755  1.00  0.00    +0.000 F 
ATOM     53  C37 UNL A   1      60.925  20.593  18.393  1.00  0.00    +0.000 C 
ATOM     54  F9  UNL A   1      61.674  21.647  18.746  1.00  0.00    +0.000 F 
ATOM     55  C38 UNL A   1      59.856  20.764  17.519  1.00  0.00    +0.000 C 
ATOM     56  F10 UNL A   1      59.590  21.993  17.054  1.00  0.00    +0.000 F 
ENDBRANCH   45   46
BRANCH   60   61
ATOM     65  F12 UNL A   1      59.256  14.508   9.394  1.00  0.00    +0.000 F 
ATOM     66  C45 UNL A   1      60.030  16.594   8.603  1.00  0.00    +0.000 C 
ATOM     67  F13 UNL A   1      60.851  15.980   7.740  1.00  0.00    +0.000 F 
ATOM     68  C46 UNL A   1      60.001  17.979   8.670  1.00  0.00    +0.000 C 
ATOM     69  F14 UNL A   1      60.780  18.705   7.857  1.00  0.00    +0.000 F 
ATOM     70  C47 UNL A   1      59.165  18.617   9.584  1.00  0.00    +0.000 C 
ATOM     71  F15 UNL A   1      59.168  19.958   9.637  1.00  0.00    +0.000 F 
ATOM     61  C42 UNL A   1      58.326  17.882  10.432  1.00  0.00    +0.000 C 
ATOM     62  C43 UNL A   1      58.358  16.485  10.332  1.00  0.00    +0.000 C 
ATOM     63  F11 UNL A   1      57.588  15.738  11.138  1.00  0.00    +0.000 F 
ATOM     64  C44 UNL A   1      59.213  15.847   9.436  1.00  0.00    +0.000 C 
ENDBRANCH   60   61
TORSDOF 17
ENDMDL
MODEL 9
REMARK VINA RESULT:      -9.0     43.519     46.556
ROOT
ATOM     24  C18 UNL A   1      24.613  38.951  46.975  1.00  0.00    +0.000 C 
ATOM     25  C19 UNL A   1      23.861  39.996  47.749  1.00  0.00    +0.000 C 
ATOM     26  N4  UNL A   1      22.670  39.930  48.287  1.00  0.00    +0.000 N 
ATOM     27  C20 UNL A   1      22.475  41.149  48.924  1.00  0.00    +0.000 C 
ATOM     28  C21 UNL A   1      21.378  41.591  49.585  1.00  0.00    +0.000 C 
ATOM     40  C28 UNL A   1      20.160  40.837  49.731  1.00  0.00    +0.000 C 
ATOM     41  C29 UNL A   1      18.971  41.225  50.322  1.00  0.00    +0.000 C 
ATOM     42  C30 UNL A   1      18.080  40.149  50.258  1.00  0.00    +0.000 C 
ATOM     43  C31 UNL A   1      18.700  39.106  49.591  1.00  0.00    +0.000 C 
ATOM     44  N5  UNL A   1      19.978  39.539  49.276  1.00  0.00    +0.000 N 
ATOM     45  C32 UNL A   1      18.169  37.808  49.265  1.00  0.00    +0.000 C 
ATOM     57  C39 UNL A   1      18.841  36.836  48.600  1.00  0.00    +0.000 C 
ATOM     58  N6  UNL A   1      20.131  36.862  48.089  1.00  0.00    +0.000 N 
ATOM     59  C40 UNL A   1      20.326  35.686  47.544  1.00  0.00    +0.000 C 
ATOM     60  C41 UNL A   1      21.534  35.165  46.816  1.00  0.00    +0.000 C 
ATOM     72  C48 UNL A   1      22.599  35.971  46.648  1.00  0.00    +0.000 C 
ATOM     73  C49 UNL A   1      23.836  35.609  45.961  1.00  0.00    +0.000 C 
ATOM     74  C50 UNL A   1      24.691  36.643  46.024  1.00  0.00    +0.000 C 
ATOM     75  C51 UNL A   1      24.047  37.753  46.727  1.00  0.00    +0.000 C 
ATOM     76  N7  UNL A   1      22.806  37.267  47.053  1.00  0.00    +0.000 N 
ATOM     77  C52 UNL A   1      19.185  34.767  47.677  1.00  0.00    +0.000 C 
ATOM     78  C53 UNL A   1      18.295  35.531  48.293  1.00  0.00    +0.000 C 
ATOM     79  C54 UNL A   1      23.686  41.920  48.743  1.00  0.00    +0.000 C 
ATOM     80  C55 UNL A   1      24.550  41.277  47.970  1.00  0.00    +0.000 C 
ATOM    105  H22 UNL A   1      18.776  42.149  50.738  1.00  0.00    +0.000 H 
ATOM    106  H23 UNL A   1      17.122  40.135  50.643  1.00  0.00    +0.000 H 
ATOM    107  H24 UNL A   1      20.655  39.006  48.801  1.00  0.00    +0.000 H 
ATOM    108  H25 UNL A   1      24.024  34.705  45.501  1.00  0.00    +0.000 H 
ATOM    109  H26 UNL A   1      25.648  36.653  45.639  1.00  0.00    +0.000 H 
ATOM    110  H27 UNL A   1      22.128  37.796  47.532  1.00  0.00    +0.000 H 
ATOM    111  H28 UNL A   1      19.101  33.786  47.371  1.00  0.00    +0.000 H 
ATOM    112  H29 UNL A   1      17.333  35.234  48.524  1.00  0.00    +0.000 H 
ATOM    113  H30 UNL A   1      23.855  42.849  49.160  1.00  0.00    +0.000 H 
ATOM    114  H31 UNL A   1      25.466  41.593  47.616  1.00  0.00    +0.000 H 
ENDROOT
BRANCH   24   23
ATOM    103  H20 UNL A   1      27.808  40.773  44.170  1.00  0.00    +0.000 H 
ATOM    104  H21 UNL A   1      25.517  40.461  44.910  1.00  0.00    +0.000 H 
ATOM     81  C56 UNL A   1      27.072  38.639  47.263  1.00  0.00    +0.000 C 
ATOM     82  C57 UNL A   1      28.390  38.879  46.879  1.00  0.00    +0.000 C 
ATOM    115  H32 UNL A   1      26.877  38.042  48.081  1.00  0.00    +0.000 H 
ATOM     20  C14 UNL A   1      28.657  39.612  45.719  1.00  0.00    +0.000 C 
ATOM     21  C15 UNL A   1      27.608  40.199  45.004  1.00  0.00    +0.000 C 
ATOM    116  H33 UNL A   1      29.168  38.517  47.451  1.00  0.00    +0.000 H 
ATOM     22  C16 UNL A   1      26.289  40.009  45.424  1.00  0.00    +0.000 C 
ATOM     23  C17 UNL A   1      26.010  39.205  46.541  1.00  0.00    +0.000 C 
BRANCH   20   18
ATOM     18  C13 UNL A   1      30.044  39.812  45.243  1.00  0.00    +0.000 C 
ATOM     19  O3  UNL A   1      30.276  39.853  44.043  1.00  0.00    +0.000 O 
BRANCH   18   17
ATOM     17  N3  UNL A   1      31.068  39.947  46.150  1.00  0.00    +0.000 N 
ATOM    102  H19 UNL A   1      31.684  39.181  46.211  1.00  0.00    +0.000 H 
BRANCH   17   16
ATOM    100  H17 UNL A   1      30.657  41.071  47.833  1.00  0.00    +0.000 H 
ATOM    101  H18 UNL A   1      32.364  40.935  47.403  1.00  0.00    +0.000 H 
ATOM     16  C12 UNL A   1      31.368  41.063  47.033  1.00  0.00    +0.000 C 
BRANCH   16   15
ATOM     98  H15 UNL A   1      32.266  42.862  46.364  1.00  0.00    +0.000 H 
ATOM     99  H16 UNL A   1      31.007  42.184  45.296  1.00  0.00    +0.000 H 
ATOM     15  C11 UNL A   1      31.303  42.401  46.302  1.00  0.00    +0.000 C 
BRANCH   15   14
ATOM     97  H14 UNL A   1      30.609  44.358  46.596  1.00  0.00    +0.000 H 
ATOM     14  C10 UNL A   1      30.265  43.380  46.859  1.00  0.00    +0.000 C 
ATOM     96  H13 UNL A   1      30.194  43.221  47.915  1.00  0.00    +0.000 H 
BRANCH   14   13
ATOM     13  C9  UNL A   1      28.857  43.249  46.263  1.00  0.00    +0.000 C 
ATOM     94  H11 UNL A   1      28.739  44.012  45.522  1.00  0.00    +0.000 H 
ATOM     95  H12 UNL A   1      28.793  42.256  45.867  1.00  0.00    +0.000 H 
BRANCH   13   12
ATOM     92  H9  UNL A   1      26.785  43.442  46.731  1.00  0.00    +0.000 H 
ATOM     12  C8  UNL A   1      27.706  43.382  47.272  1.00  0.00    +0.000 C 
ATOM     93  H10 UNL A   1      27.744  42.525  47.911  1.00  0.00    +0.000 H 
BRANCH   12   11
ATOM     90  H7  UNL A   1      28.825  44.692  48.538  1.00  0.00    +0.000 H 
ATOM     11  C7  UNL A   1      27.825  44.619  48.166  1.00  0.00    +0.000 C 
ATOM     91  H8  UNL A   1      27.588  45.491  47.592  1.00  0.00    +0.000 H 
BRANCH   11   10
ATOM     89  H6  UNL A   1      27.278  44.028  50.048  1.00  0.00    +0.000 H 
ATOM     10  N2  UNL A   1      26.903  44.517  49.280  1.00  0.00    +0.000 N 
BRANCH   10    8
ATOM      9  O2  UNL A   1      25.065  44.557  50.522  1.00  0.00    +0.000 O 
ATOM      8  C6  UNL A   1      25.624  44.955  49.495  1.00  0.00    +0.000 C 
BRANCH    8    7
ATOM      2  C1  UNL A   1      23.186  46.134  46.781  1.00  0.00    +0.000 C 
ATOM      3  C2  UNL A   1      23.363  47.514  46.879  1.00  0.00    +0.000 C 
ATOM      4  C3  UNL A   1      24.249  48.048  47.812  1.00  0.00    +0.000 C 
ATOM      5  C4  UNL A   1      24.968  47.196  48.646  1.00  0.00    +0.000 C 
ATOM      7  C5  UNL A   1      24.835  45.798  48.553  1.00  0.00    +0.000 C 
ATOM     83  C58 UNL A   1      23.994  45.288  47.555  1.00  0.00    +0.000 C 
ATOM    117  H34 UNL A   1      23.967  44.270  47.387  1.00  0.00    +0.000 H 
ATOM     86  H3  UNL A   1      22.835  48.144  46.256  1.00  0.00    +0.000 H 
ATOM     87  H4  UNL A   1      24.369  49.069  47.886  1.00  0.00    +0.000 H 
BRANCH    2    1
ATOM      1  N1  UNL A   1      22.378  45.604  45.766  1.00  0.00    +0.000 N 
ATOM     84  H1  UNL A   1      22.653  44.785  45.296  1.00  0.00    +0.000 H 
ATOM     85  H2  UNL A   1      21.535  46.051  45.524  1.00  0.00    +0.000 H 
ENDBRANCH    2    1
BRANCH    5    6
ATOM      6  O1  UNL A   1      25.816  47.818  49.528  1.00  0.00    +0.000 O 
ATOM     88  H5  UNL A   1      26.361  47.308  50.093  1.00  0.00    +0.000 H 
ENDBRANCH    5    6
ENDBRANCH    8    7
ENDBRANCH   10    8
ENDBRANCH   11   10
ENDBRANCH   12   11
ENDBRANCH   13   12
ENDBRANCH   14   13
ENDBRANCH   15   14
ENDBRANCH   16   15
ENDBRANCH   17   16
ENDBRANCH   18   17
ENDBRANCH   20   18
ENDBRANCH   24   23
BRANCH   28   29
ATOM     33  F2  UNL A   1      22.283  44.586  53.357  1.00  0.00    +0.000 F 
ATOM     34  C25 UNL A   1      21.625  45.538  51.298  1.00  0.00    +0.000 C 
ATOM     35  F3  UNL A   1      21.708  46.767  51.825  1.00  0.00    +0.000 F 
ATOM     36  C26 UNL A   1      21.232  45.372  49.978  1.00  0.00    +0.000 C 
ATOM     37  F4  UNL A   1      20.952  46.445  49.224  1.00  0.00    +0.000 F 
ATOM     38  C27 UNL A   1      21.129  44.094  49.436  1.00  0.00    +0.000 C 
ATOM     39  F5  UNL A   1      20.737  43.966  48.160  1.00  0.00    +0.000 F 
ATOM     29  C22 UNL A   1      21.439  42.959  50.198  1.00  0.00    +0.000 C 
ATOM     30  C23 UNL A   1      21.850  43.151  51.526  1.00  0.00    +0.000 C 
ATOM     31  F1  UNL A   1      22.146  42.096  52.300  1.00  0.00    +0.000 F 
ATOM     32  C24 UNL A   1      21.926  44.428  52.074  1.00  0.00    +0.000 C 
ENDBRANCH   28   29
BRANCH   45   46
ATOM     46  C33 UNL A   1      16.757  37.509  49.673  1.00  0.00    +0.000 C 
ATOM     47  C34 UNL A   1      16.389  37.400  51.022  1.00  0.00    +0.000 C 
ATOM     48  F6  UNL A   1      17.317  37.508  51.985  1.00  0.00    +0.000 F 
ATOM     49  C35 UNL A   1      15.070  37.141  51.383  1.00  0.00    +0.000 C 
ATOM     50  F7  UNL A   1      14.748  36.998  52.677  1.00  0.00    +0.000 F 
ATOM     51  C36 UNL A   1      14.092  37.016  50.408  1.00  0.00    +0.000 C 
ATOM     52  F8  UNL A   1      12.821  36.773  50.759  1.00  0.00    +0.000 F 
ATOM     53  C37 UNL A   1      14.431  37.137  49.069  1.00  0.00    +0.000 C 
ATOM     54  F9  UNL A   1      13.485  37.030  48.126  1.00  0.00    +0.000 F 
ATOM     55  C38 UNL A   1      15.753  37.370  48.702  1.00  0.00    +0.000 C 
ATOM     56  F10 UNL A   1      16.055  37.472  47.399  1.00  0.00    +0.000 F 
ENDBRANCH   45   46
BRANCH   60   61
ATOM     65  F12 UNL A   1      22.677  30.441  47.189  1.00  0.00    +0.000 F 
ATOM     66  C45 UNL A   1      21.614  31.178  45.213  1.00  0.00    +0.000 C 
ATOM     67  F13 UNL A   1      21.656  29.937  44.709  1.00  0.00    +0.000 F 
ATOM     68  C46 UNL A   1      21.067  32.213  44.469  1.00  0.00    +0.000 C 
ATOM     69  F14 UNL A   1      20.562  31.969  43.252  1.00  0.00    +0.000 F 
ATOM     70  C47 UNL A   1      21.045  33.508  44.983  1.00  0.00    +0.000 C 
ATOM     71  F15 UNL A   1      20.522  34.492  44.236  1.00  0.00    +0.000 F 
ATOM     61  C42 UNL A   1      21.549  33.788  46.261  1.00  0.00    +0.000 C 
ATOM     62  C43 UNL A   1      22.078  32.722  47.002  1.00  0.00    +0.000 C 
ATOM     63  F11 UNL A   1      22.592  32.945  48.221  1.00  0.00    +0.000 F 
ATOM     64  C44 UNL A   1      22.124  31.433  46.476  1.00  0.00    +0.000 C 
ENDBRANCH   60   61
TORSDOF 17
ENDMDL
MODEL 10
REMARK VINA RESULT:      -9.0     48.708     54.985
ROOT
ATOM     24  C18 UNL A   1       2.266  10.985  37.914  1.00  0.00    +0.000 C 
ATOM     25  C19 UNL A   1       0.960  10.558  37.305  1.00  0.00    +0.000 C 
ATOM     26  N4  UNL A   1       0.597   9.379  36.869  1.00  0.00    +0.000 N 
ATOM     27  C20 UNL A   1      -0.722   9.520  36.455  1.00  0.00    +0.000 C 
ATOM     28  C21 UNL A   1      -1.529   8.597  35.879  1.00  0.00    +0.000 C 
ATOM     40  C28 UNL A   1      -1.129   7.249  35.570  1.00  0.00    +0.000 C 
ATOM     41  C29 UNL A   1      -1.852   6.261  34.924  1.00  0.00    +0.000 C 
ATOM     42  C30 UNL A   1      -1.067   5.104  34.880  1.00  0.00    +0.000 C 
ATOM     43  C31 UNL A   1       0.159   5.384  35.461  1.00  0.00    +0.000 C 
ATOM     44  N5  UNL A   1       0.106   6.702  35.884  1.00  0.00    +0.000 N 
ATOM     45  C32 UNL A   1       1.295   4.514  35.621  1.00  0.00    +0.000 C 
ATOM     57  C39 UNL A   1       2.470   4.866  36.198  1.00  0.00    +0.000 C 
ATOM     58  N6  UNL A   1       2.845   6.089  36.735  1.00  0.00    +0.000 N 
ATOM     59  C40 UNL A   1       4.068   5.928  37.178  1.00  0.00    +0.000 C 
ATOM     60  C41 UNL A   1       4.982   6.929  37.830  1.00  0.00    +0.000 C 
ATOM     72  C48 UNL A   1       4.557   8.195  38.001  1.00  0.00    +0.000 C 
ATOM     73  C49 UNL A   1       5.329   9.273  38.609  1.00  0.00    +0.000 C 
ATOM     74  C50 UNL A   1       4.574  10.383  38.652  1.00  0.00    +0.000 C 
ATOM     75  C51 UNL A   1       3.275  10.101  38.041  1.00  0.00    +0.000 C 
ATOM     76  N7  UNL A   1       3.358   8.780  37.676  1.00  0.00    +0.000 N 
ATOM     77  C52 UNL A   1       4.596   4.567  36.999  1.00  0.00    +0.000 C 
ATOM     78  C53 UNL A   1       3.598   3.973  36.362  1.00  0.00    +0.000 C 
ATOM     79  C54 UNL A   1      -1.109  10.886  36.730  1.00  0.00    +0.000 C 
ATOM     80  C55 UNL A   1      -0.086  11.587  37.199  1.00  0.00    +0.000 C 
ATOM    105  H22 UNL A   1      -2.805   6.361  34.543  1.00  0.00    +0.000 H 
ATOM    106  H23 UNL A   1      -1.353   4.195  34.482  1.00  0.00    +0.000 H 
ATOM    107  H24 UNL A   1       0.837   7.180  36.339  1.00  0.00    +0.000 H 
ATOM    108  H25 UNL A   1       6.299   9.196  38.953  1.00  0.00    +0.000 H 
ATOM    109  H26 UNL A   1       4.863  11.289  39.052  1.00  0.00    +0.000 H 
ATOM    110  H27 UNL A   1       2.628   8.299  37.225  1.00  0.00    +0.000 H 
ATOM    111  H28 UNL A   1       5.505   4.178  37.292  1.00  0.00    +0.000 H 
ATOM    112  H29 UNL A   1       3.620   2.997  36.025  1.00  0.00    +0.000 H 
ATOM    113  H30 UNL A   1      -2.057  11.266  36.581  1.00  0.00    +0.000 H 
ATOM    114  H31 UNL A   1      -0.037  12.592  37.428  1.00  0.00    +0.000 H 
ENDROOT
BRANCH   24   23
ATOM    103  H20 UNL A   1       1.889  14.236  41.183  1.00  0.00    +0.000 H 
ATOM    104  H21 UNL A   1       1.705  11.950  40.386  1.00  0.00    +0.000 H 
ATOM     81  C56 UNL A   1       2.962  13.363  37.613  1.00  0.00    +0.000 C 
ATOM     82  C57 UNL A   1       3.134  14.658  38.096  1.00  0.00    +0.000 C 
ATOM    115  H32 UNL A   1       3.227  13.137  36.642  1.00  0.00    +0.000 H 
ATOM     20  C14 UNL A   1       2.692  14.990  39.379  1.00  0.00    +0.000 C 
ATOM     21  C15 UNL A   1       2.179  13.998  40.221  1.00  0.00    +0.000 C 
ATOM    116  H33 UNL A   1       3.589  15.372  37.506  1.00  0.00    +0.000 H 
ATOM     22  C16 UNL A   1       2.061  12.686  39.758  1.00  0.00    +0.000 C 
ATOM     23  C17 UNL A   1       2.428  12.363  38.441  1.00  0.00    +0.000 C 
BRANCH   20   18
ATOM     18  C13 UNL A   1       2.788  16.377  39.887  1.00  0.00    +0.000 C 
ATOM     19  O3  UNL A   1       1.769  17.001  40.148  1.00  0.00    +0.000 O 
BRANCH   18   17
ATOM     17  N3  UNL A   1       4.020  16.962  40.058  1.00  0.00    +0.000 N 
ATOM    102  H19 UNL A   1       4.236  17.687  39.429  1.00  0.00    +0.000 H 
BRANCH   17   16
ATOM    100  H17 UNL A   1       5.093  17.454  41.752  1.00  0.00    +0.000 H 
ATOM    101  H18 UNL A   1       4.794  15.730  41.510  1.00  0.00    +0.000 H 
ATOM     16  C12 UNL A   1       5.049  16.657  41.039  1.00  0.00    +0.000 C 
BRANCH   16   15
ATOM     98  H15 UNL A   1       6.302  16.560  39.331  1.00  0.00    +0.000 H 
ATOM     99  H16 UNL A   1       7.038  17.279  40.790  1.00  0.00    +0.000 H 
ATOM     15  C11 UNL A   1       6.422  16.498  40.393  1.00  0.00    +0.000 C 
BRANCH   15   14
ATOM     97  H14 UNL A   1       7.580  15.312  41.679  1.00  0.00    +0.000 H 
ATOM     14  C10 UNL A   1       7.130  15.179  40.718  1.00  0.00    +0.000 C 
ATOM     96  H13 UNL A   1       7.837  14.982  39.938  1.00  0.00    +0.000 H 
BRANCH   14   13
ATOM     13  C9  UNL A   1       6.210  13.958  40.844  1.00  0.00    +0.000 C 
ATOM     94  H11 UNL A   1       6.549  13.371  41.672  1.00  0.00    +0.000 H 
ATOM     95  H12 UNL A   1       5.219  14.343  40.973  1.00  0.00    +0.000 H 
BRANCH   13   12
ATOM     92  H9  UNL A   1       6.168  12.030  39.931  1.00  0.00    +0.000 H 
ATOM     12  C8  UNL A   1       6.157  13.049  39.605  1.00  0.00    +0.000 C 
ATOM     93  H10 UNL A   1       5.263  13.293  39.071  1.00  0.00    +0.000 H 
BRANCH   12   11
ATOM     90  H7  UNL A   1       7.810  14.192  38.877  1.00  0.00    +0.000 H 
ATOM     11  C7  UNL A   1       7.332  13.263  38.647  1.00  0.00    +0.000 C 
ATOM     91  H8  UNL A   1       8.029  12.459  38.760  1.00  0.00    +0.000 H 
BRANCH   11   10
ATOM     89  H6  UNL A   1       5.885  13.446  37.209  1.00  0.00    +0.000 H 
ATOM     10  N2  UNL A   1       6.856  13.293  37.279  1.00  0.00    +0.000 N 
BRANCH   10    8
ATOM      9  O2  UNL A   1       7.919  12.041  35.787  1.00  0.00    +0.000 O 
ATOM      8  C6  UNL A   1       7.465  13.157  36.060  1.00  0.00    +0.000 C 
BRANCH    8    7
ATOM      2  C1  UNL A   1       7.181  15.517  33.053  1.00  0.00    +0.000 C 
ATOM      3  C2  UNL A   1       8.190  16.429  33.363  1.00  0.00    +0.000 C 
ATOM      4  C3  UNL A   1       8.938  16.283  34.528  1.00  0.00    +0.000 C 
ATOM      5  C4  UNL A   1       8.683  15.214  35.384  1.00  0.00    +0.000 C 
ATOM      7  C5  UNL A   1       7.692  14.261  35.085  1.00  0.00    +0.000 C 
ATOM     83  C58 UNL A   1       7.007  14.390  33.870  1.00  0.00    +0.000 C 
ATOM    117  H34 UNL A   1       6.360  13.643  33.571  1.00  0.00    +0.000 H 
ATOM     86  H3  UNL A   1       8.382  17.216  32.725  1.00  0.00    +0.000 H 
ATOM     87  H4  UNL A   1       9.677  16.965  34.758  1.00  0.00    +0.000 H 
BRANCH    2    1
ATOM      1  N1  UNL A   1       6.510  15.609  31.826  1.00  0.00    +0.000 N 
ATOM     84  H1  UNL A   1       6.196  16.483  31.501  1.00  0.00    +0.000 H 
ATOM     85  H2  UNL A   1       6.353  14.799  31.289  1.00  0.00    +0.000 H 
ENDBRANCH    2    1
BRANCH    5    6
ATOM      6  O1  UNL A   1       9.476  15.157  36.502  1.00  0.00    +0.000 O 
ATOM     88  H5  UNL A   1      10.375  14.905  36.426  1.00  0.00    +0.000 H 
ENDBRANCH    5    6
ENDBRANCH    8    7
ENDBRANCH   10    8
ENDBRANCH   11   10
ENDBRANCH   12   11
ENDBRANCH   13   12
ENDBRANCH   14   13
ENDBRANCH   15   14
ENDBRANCH   16   15
ENDBRANCH   17   16
ENDBRANCH   18   17
ENDBRANCH   20   18
ENDBRANCH   24   23
BRANCH   28   29
ATOM     33  F2  UNL A   1      -6.277   9.070  36.995  1.00  0.00    +0.000 F 
ATOM     34  C25 UNL A   1      -5.528   9.878  34.906  1.00  0.00    +0.000 C 
ATOM     35  F3  UNL A   1      -6.768  10.284  34.603  1.00  0.00    +0.000 F 
ATOM     36  C26 UNL A   1      -4.495  10.059  33.998  1.00  0.00    +0.000 C 
ATOM     37  F4  UNL A   1      -4.736  10.658  32.823  1.00  0.00    +0.000 F 
ATOM     38  C27 UNL A   1      -3.210   9.621  34.305  1.00  0.00    +0.000 C 
ATOM     39  F5  UNL A   1      -2.235   9.802  33.402  1.00  0.00    +0.000 F 
ATOM     29  C22 UNL A   1      -2.929   9.013  35.537  1.00  0.00    +0.000 C 
ATOM     30  C23 UNL A   1      -3.986   8.854  36.448  1.00  0.00    +0.000 C 
ATOM     31  F1  UNL A   1      -3.771   8.267  37.634  1.00  0.00    +0.000 F 
ATOM     32  C24 UNL A   1      -5.275   9.269  36.127  1.00  0.00    +0.000 C 
ENDBRANCH   28   29
BRANCH   45   46
ATOM     46  C33 UNL A   1       1.183   3.114  35.092  1.00  0.00    +0.000 C 
ATOM     47  C34 UNL A   1       1.534   2.798  33.772  1.00  0.00    +0.000 C 
ATOM     48  F6  UNL A   1       1.931   3.764  32.929  1.00  0.00    +0.000 F 
ATOM     49  C35 UNL A   1       1.442   1.490  33.303  1.00  0.00    +0.000 C 
ATOM     50  F7  UNL A   1       1.742   1.217  32.025  1.00  0.00    +0.000 F 
ATOM     51  C36 UNL A   1       1.027   0.474  34.150  1.00  0.00    +0.000 C 
ATOM     52  F8  UNL A   1       0.945  -0.785  33.697  1.00  0.00    +0.000 F 
ATOM     53  C37 UNL A   1       0.691   0.763  35.464  1.00  0.00    +0.000 C 
ATOM     54  F9  UNL A   1       0.302  -0.220  36.287  1.00  0.00    +0.000 F 
ATOM     55  C38 UNL A   1       0.756   2.073  35.929  1.00  0.00    +0.000 C 
ATOM     56  F10 UNL A   1       0.415   2.324  37.202  1.00  0.00    +0.000 F 
ENDBRANCH   45   46
BRANCH   60   61
ATOM     65  F12 UNL A   1       9.805   6.883  37.128  1.00  0.00    +0.000 F 
ATOM     66  C45 UNL A   1       8.946   5.786  39.035  1.00  0.00    +0.000 C 
ATOM     67  F13 UNL A   1      10.182   5.417  39.399  1.00  0.00    +0.000 F 
ATOM     68  C46 UNL A   1       7.853   5.411  39.803  1.00  0.00    +0.000 C 
ATOM     69  F14 UNL A   1       8.034   4.694  40.920  1.00  0.00    +0.000 F 
ATOM     70  C47 UNL A   1       6.566   5.774  39.411  1.00  0.00    +0.000 C 
ATOM     71  F15 UNL A   1       5.527   5.385  40.165  1.00  0.00    +0.000 F 
ATOM     61  C42 UNL A   1       6.350   6.540  38.257  1.00  0.00    +0.000 C 
ATOM     62  C43 UNL A   1       7.471   6.925  37.510  1.00  0.00    +0.000 C 
ATOM     63  F11 UNL A   1       7.312   7.641  36.386  1.00  0.00    +0.000 F 
ATOM     64  C44 UNL A   1       8.755   6.539  37.887  1.00  0.00    +0.000 C 
ENDBRANCH   60   61
TORSDOF 17
ENDMDL
