MODEL 1
REMARK VINA RESULT:     -10.1      0.000      0.000
ROOT
ATOM     33  C25 UNL A   1      12.312  29.728  -1.245  1.00  0.00    +0.000 C 
ATOM     34  C26 UNL A   1      11.591  28.936  -0.195  1.00  0.00    +0.000 C 
ATOM     35  N5  UNL A   1      10.314  28.918   0.096  1.00  0.00    +0.000 N 
ATOM     36  C27 UNL A   1      10.173  27.993   1.120  1.00  0.00    +0.000 C 
ATOM     37  C28 UNL A   1       9.045  27.632   1.779  1.00  0.00    +0.000 C 
ATOM     49  C35 UNL A   1       7.742  28.187   1.516  1.00  0.00    +0.000 C 
ATOM     50  C36 UNL A   1       6.547  27.931   2.166  1.00  0.00    +0.000 C 
ATOM     51  C37 UNL A   1       5.536  28.653   1.524  1.00  0.00    +0.000 C 
ATOM     52  C38 UNL A   1       6.107  29.399   0.506  1.00  0.00    +0.000 C 
ATOM     53  N6  UNL A   1       7.461  29.103   0.512  1.00  0.00    +0.000 N 
ATOM     54  C39 UNL A   1       5.464  30.308  -0.410  1.00  0.00    +0.000 C 
ATOM     66  C46 UNL A   1       6.096  31.027  -1.369  1.00  0.00    +0.000 C 
ATOM     67  N7  UNL A   1       7.448  31.062  -1.680  1.00  0.00    +0.000 N 
ATOM     68  C47 UNL A   1       7.567  31.905  -2.675  1.00  0.00    +0.000 C 
ATOM     69  C48 UNL A   1       8.809  32.339  -3.399  1.00  0.00    +0.000 C 
ATOM     81  C55 UNL A   1      10.004  31.873  -2.994  1.00  0.00    +0.000 C 
ATOM     82  C56 UNL A   1      11.285  32.195  -3.615  1.00  0.00    +0.000 C 
ATOM     83  C57 UNL A   1      12.242  31.446  -3.050  1.00  0.00    +0.000 C 
ATOM     84  C58 UNL A   1      11.647  30.629  -1.991  1.00  0.00    +0.000 C 
ATOM     85  N8  UNL A   1      10.324  30.994  -1.989  1.00  0.00    +0.000 N 
ATOM     86  C59 UNL A   1       6.297  32.489  -3.127  1.00  0.00    +0.000 C 
ATOM     87  C60 UNL A   1       5.435  31.938  -2.282  1.00  0.00    +0.000 C 
ATOM     88  C61 UNL A   1      11.490  27.452   1.385  1.00  0.00    +0.000 C 
ATOM     89  C62 UNL A   1      12.409  28.036   0.630  1.00  0.00    +0.000 C 
ATOM    117  H26 UNL A   1       6.424  27.313   2.984  1.00  0.00    +0.000 H 
ATOM    118  H27 UNL A   1       4.533  28.634   1.768  1.00  0.00    +0.000 H 
ATOM    119  H28 UNL A   1       8.127  29.487  -0.104  1.00  0.00    +0.000 H 
ATOM    120  H29 UNL A   1      11.430  32.888  -4.366  1.00  0.00    +0.000 H 
ATOM    121  H30 UNL A   1      13.239  31.443  -3.318  1.00  0.00    +0.000 H 
ATOM    122  H31 UNL A   1       9.670  30.659  -1.332  1.00  0.00    +0.000 H 
ATOM    123  H32 UNL A   1       6.121  33.152  -3.898  1.00  0.00    +0.000 H 
ATOM    124  H33 UNL A   1       4.421  32.134  -2.276  1.00  0.00    +0.000 H 
ATOM    125  H34 UNL A   1      11.687  26.709   2.074  1.00  0.00    +0.000 H 
ATOM    126  H35 UNL A   1      13.431  27.895   0.622  1.00  0.00    +0.000 H 
ENDROOT
BRANCH   33   32
ATOM    127  H36 UNL A   1      14.421  31.069  -0.244  1.00  0.00    +0.000 H 
ATOM     32  C24 UNL A   1      13.755  29.504  -1.503  1.00  0.00    +0.000 C 
ATOM    115  H24 UNL A   1      15.831  27.379  -3.068  1.00  0.00    +0.000 H 
ATOM    116  H25 UNL A   1      13.469  27.864  -2.809  1.00  0.00    +0.000 H 
ATOM     90  C63 UNL A   1      14.719  30.312  -0.878  1.00  0.00    +0.000 C 
ATOM     91  C64 UNL A   1      16.077  30.094  -1.112  1.00  0.00    +0.000 C 
ATOM     29  C21 UNL A   1      16.481  29.049  -1.947  1.00  0.00    +0.000 C 
ATOM     30  C22 UNL A   1      15.529  28.197  -2.514  1.00  0.00    +0.000 C 
ATOM     31  C23 UNL A   1      14.171  28.451  -2.332  1.00  0.00    +0.000 C 
ATOM    128  H37 UNL A   1      16.783  30.704  -0.669  1.00  0.00    +0.000 H 
BRANCH   29    2
ATOM      1  O1  UNL A   1      18.398  29.029  -3.295  1.00  0.00    +0.000 O 
ATOM      2  C1  UNL A   1      17.926  28.841  -2.177  1.00  0.00    +0.000 C 
BRANCH    2    3
ATOM      3  N1  UNL A   1      18.736  28.429  -1.149  1.00  0.00    +0.000 N 
ATOM     92  H1  UNL A   1      18.755  29.022  -0.364  1.00  0.00    +0.000 H 
BRANCH    3    4
ATOM      4  C2  UNL A   1      19.569  27.242  -1.054  1.00  0.00    +0.000 C 
ATOM     93  H2  UNL A   1      20.106  27.125  -1.971  1.00  0.00    +0.000 H 
ATOM     94  H3  UNL A   1      18.927  26.408  -0.866  1.00  0.00    +0.000 H 
BRANCH    4    5
ATOM      5  C3  UNL A   1      20.570  27.327   0.094  1.00  0.00    +0.000 C 
ATOM     95  H4  UNL A   1      20.735  26.335   0.463  1.00  0.00    +0.000 H 
ATOM     96  H5  UNL A   1      20.138  27.984   0.819  1.00  0.00    +0.000 H 
BRANCH    5    6
ATOM     97  H6  UNL A   1      22.689  27.306   0.152  1.00  0.00    +0.000 H 
ATOM     98  H7  UNL A   1      21.921  28.926   0.117  1.00  0.00    +0.000 H 
ATOM      6  C4  UNL A   1      21.928  27.929  -0.271  1.00  0.00    +0.000 C 
BRANCH    6    7
ATOM     99  H8  UNL A   1      21.332  27.749  -2.298  1.00  0.00    +0.000 H 
ATOM    100  H9  UNL A   1      23.071  27.461  -1.962  1.00  0.00    +0.000 H 
ATOM      7  C5  UNL A   1      22.208  28.064  -1.771  1.00  0.00    +0.000 C 
BRANCH    7    8
ATOM    101  H10 UNL A   1      23.032  29.386  -3.213  1.00  0.00    +0.000 H 
ATOM    102  H11 UNL A   1      23.208  29.889  -1.504  1.00  0.00    +0.000 H 
ATOM      8  C6  UNL A   1      22.567  29.474  -2.253  1.00  0.00    +0.000 C 
BRANCH    8    9
ATOM      9  C7  UNL A   1      21.388  30.435  -2.384  1.00  0.00    +0.000 C 
ATOM    103  H12 UNL A   1      20.482  29.897  -2.201  1.00  0.00    +0.000 H 
ATOM    104  H13 UNL A   1      21.403  30.843  -3.374  1.00  0.00    +0.000 H 
BRANCH    9   10
ATOM    105  H14 UNL A   1      22.367  31.690  -1.051  1.00  0.00    +0.000 H 
ATOM     10  N2  UNL A   1      21.477  31.538  -1.444  1.00  0.00    +0.000 N 
BRANCH   10   11
ATOM     11  C8  UNL A   1      20.492  32.397  -1.030  1.00  0.00    +0.000 C 
ATOM     12  O2  UNL A   1      20.352  33.485  -1.579  1.00  0.00    +0.000 O 
BRANCH   11   13
ATOM    106  H15 UNL A   1      20.751  30.329   0.618  1.00  0.00    +0.000 H 
ATOM    107  H16 UNL A   1      19.311  29.694   2.467  1.00  0.00    +0.000 H 
ATOM    108  H17 UNL A   1      17.346  31.009   2.980  1.00  0.00    +0.000 H 
ATOM     13  C9  UNL A   1      19.596  32.015   0.081  1.00  0.00    +0.000 C 
ATOM     14  C10 UNL A   1      19.912  30.888   0.839  1.00  0.00    +0.000 C 
ATOM     15  C11 UNL A   1      19.083  30.521   1.894  1.00  0.00    +0.000 C 
ATOM     16  C12 UNL A   1      17.940  31.276   2.181  1.00  0.00    +0.000 C 
ATOM     17  C13 UNL A   1      17.586  32.386   1.402  1.00  0.00    +0.000 C 
ATOM    114  H23 UNL A   1      18.188  33.554  -0.249  1.00  0.00    +0.000 H 
ATOM     28  C20 UNL A   1      18.429  32.745   0.344  1.00  0.00    +0.000 C 
BRANCH   17   18
ATOM     18  N3  UNL A   1      16.465  33.203   1.673  1.00  0.00    +0.000 N 
ATOM    109  H18 UNL A   1      16.665  34.089   2.056  1.00  0.00    +0.000 H 
BRANCH   18   19
ATOM    110  H19 UNL A   1      14.978  31.557   3.078  1.00  0.00    +0.000 H 
ATOM    111  H20 UNL A   1      12.590  31.187   2.886  1.00  0.00    +0.000 H 
ATOM    112  H21 UNL A   1      12.449  33.815  -0.401  1.00  0.00    +0.000 H 
ATOM    113  H22 UNL A   1      14.837  34.187  -0.196  1.00  0.00    +0.000 H 
ATOM     19  C14 UNL A   1      15.102  32.920   1.470  1.00  0.00    +0.000 C 
ATOM     20  C15 UNL A   1      14.442  32.047   2.345  1.00  0.00    +0.000 C 
ATOM     21  C16 UNL A   1      13.066  31.832   2.236  1.00  0.00    +0.000 C 
ATOM     22  C17 UNL A   1      12.336  32.492   1.243  1.00  0.00    +0.000 C 
ATOM     26  C18 UNL A   1      12.984  33.344   0.345  1.00  0.00    +0.000 C 
ATOM     27  C19 UNL A   1      14.360  33.554   0.465  1.00  0.00    +0.000 C 
BRANCH   22   23
ATOM     25  O4  UNL A   1      10.129  33.146   0.389  1.00  0.00    +0.000 O 
ATOM     23  N4  UNL A   1      10.905  32.313   1.161  1.00  0.00    +0.000 N 
ATOM     24  O3  UNL A   1      10.346  31.441   1.794  1.00  0.00    +0.000 O 
ENDBRANCH   22   23
ENDBRANCH   18   19
ENDBRANCH   17   18
ENDBRANCH   11   13
ENDBRANCH   10   11
ENDBRANCH    9   10
ENDBRANCH    8    9
ENDBRANCH    7    8
ENDBRANCH    6    7
ENDBRANCH    5    6
ENDBRANCH    4    5
ENDBRANCH    3    4
ENDBRANCH    2    3
ENDBRANCH   29    2
ENDBRANCH   33   32
BRANCH   37   38
ATOM     38  C29 UNL A   1       9.166  26.567   2.829  1.00  0.00    +0.000 C 
ATOM     39  C30 UNL A   1       8.995  25.208   2.528  1.00  0.00    +0.000 C 
ATOM     40  F1  UNL A   1       8.685  24.827   1.279  1.00  0.00    +0.000 F 
ATOM     41  C31 UNL A   1       9.102  24.235   3.519  1.00  0.00    +0.000 C 
ATOM     42  F2  UNL A   1       8.882  22.947   3.218  1.00  0.00    +0.000 F 
ATOM     43  C32 UNL A   1       9.414  24.597   4.821  1.00  0.00    +0.000 C 
ATOM     44  F3  UNL A   1       9.513  23.660   5.773  1.00  0.00    +0.000 F 
ATOM     45  C33 UNL A   1       9.612  25.932   5.136  1.00  0.00    +0.000 C 
ATOM     46  F4  UNL A   1       9.925  26.284   6.392  1.00  0.00    +0.000 F 
ATOM     47  C34 UNL A   1       9.479  26.910   4.153  1.00  0.00    +0.000 C 
ATOM     48  F5  UNL A   1       9.660  28.195   4.494  1.00  0.00    +0.000 F 
ENDBRANCH   37   38
BRANCH   54   55
ATOM     65  F10 UNL A   1       3.568  28.526  -1.544  1.00  0.00    +0.000 F 
ATOM     55  C40 UNL A   1       3.983  30.494  -0.273  1.00  0.00    +0.000 C 
ATOM     56  C41 UNL A   1       3.442  31.597   0.403  1.00  0.00    +0.000 C 
ATOM     57  F6  UNL A   1       4.248  32.475   1.017  1.00  0.00    +0.000 F 
ATOM     58  C42 UNL A   1       2.064  31.787   0.468  1.00  0.00    +0.000 C 
ATOM     59  F7  UNL A   1       1.565  32.833   1.142  1.00  0.00    +0.000 F 
ATOM     60  C43 UNL A   1       1.206  30.895  -0.159  1.00  0.00    +0.000 C 
ATOM     61  F8  UNL A   1      -0.119  31.089  -0.109  1.00  0.00    +0.000 F 
ATOM     62  C44 UNL A   1       1.722  29.800  -0.837  1.00  0.00    +0.000 C 
ATOM     63  F9  UNL A   1       0.895  28.944  -1.453  1.00  0.00    +0.000 F 
ATOM     64  C45 UNL A   1       3.097  29.594  -0.884  1.00  0.00    +0.000 C 
ENDBRANCH   54   55
BRANCH   69   70
ATOM     70  C49 UNL A   1       8.754  33.271  -4.552  1.00  0.00    +0.000 C 
ATOM     71  C50 UNL A   1       8.909  32.805  -5.863  1.00  0.00    +0.000 C 
ATOM     72  F11 UNL A   1       9.191  31.513  -6.084  1.00  0.00    +0.000 F 
ATOM     73  C51 UNL A   1       8.786  33.667  -6.950  1.00  0.00    +0.000 C 
ATOM     74  F12 UNL A   1       8.955  33.201  -8.195  1.00  0.00    +0.000 F 
ATOM     75  C52 UNL A   1       8.485  35.006  -6.746  1.00  0.00    +0.000 C 
ATOM     76  F13 UNL A   1       8.345  35.830  -7.794  1.00  0.00    +0.000 F 
ATOM     77  C53 UNL A   1       8.327  35.489  -5.456  1.00  0.00    +0.000 C 
ATOM     78  F14 UNL A   1       8.019  36.778  -5.256  1.00  0.00    +0.000 F 
ATOM     79  C54 UNL A   1       8.475  34.633  -4.368  1.00  0.00    +0.000 C 
ATOM     80  F15 UNL A   1       8.307  35.123  -3.131  1.00  0.00    +0.000 F 
ENDBRANCH   69   70
TORSDOF 18
ENDMDL
MODEL 2
REMARK VINA RESULT:      -9.8     35.292     42.538
ROOT
ATOM     33  C25 UNL A   1      41.599  26.364  27.856  1.00  0.00    +0.000 C 
ATOM     34  C26 UNL A   1      40.858  27.444  28.588  1.00  0.00    +0.000 C 
ATOM     35  N5  UNL A   1      41.268  28.638  28.936  1.00  0.00    +0.000 N 
ATOM     36  C27 UNL A   1      40.184  29.244  29.557  1.00  0.00    +0.000 C 
ATOM     37  C28 UNL A   1      40.115  30.479  30.111  1.00  0.00    +0.000 C 
ATOM     49  C35 UNL A   1      41.213  31.408  30.158  1.00  0.00    +0.000 C 
ATOM     50  C36 UNL A   1      41.261  32.660  30.747  1.00  0.00    +0.000 C 
ATOM     51  C37 UNL A   1      42.516  33.220  30.484  1.00  0.00    +0.000 C 
ATOM     52  C38 UNL A   1      43.268  32.298  29.774  1.00  0.00    +0.000 C 
ATOM     53  N6  UNL A   1      42.457  31.191  29.581  1.00  0.00    +0.000 N 
ATOM     54  C39 UNL A   1      44.625  32.420  29.302  1.00  0.00    +0.000 C 
ATOM     66  C46 UNL A   1      45.309  31.460  28.633  1.00  0.00    +0.000 C 
ATOM     67  N7  UNL A   1      44.889  30.189  28.267  1.00  0.00    +0.000 N 
ATOM     68  C47 UNL A   1      45.903  29.639  27.646  1.00  0.00    +0.000 C 
ATOM     69  C48 UNL A   1      46.010  28.266  27.051  1.00  0.00    +0.000 C 
ATOM     81  C55 UNL A   1      44.979  27.411  27.176  1.00  0.00    +0.000 C 
ATOM     82  C56 UNL A   1      44.940  26.057  26.632  1.00  0.00    +0.000 C 
ATOM     83  C57 UNL A   1      43.713  25.550  26.817  1.00  0.00    +0.000 C 
ATOM     84  C58 UNL A   1      42.896  26.526  27.540  1.00  0.00    +0.000 C 
ATOM     85  N8  UNL A   1      43.749  27.577  27.764  1.00  0.00    +0.000 N 
ATOM     86  C59 UNL A   1      47.081  30.510  27.526  1.00  0.00    +0.000 C 
ATOM     87  C60 UNL A   1      46.674  31.599  28.165  1.00  0.00    +0.000 C 
ATOM     88  C61 UNL A   1      39.091  28.296  29.516  1.00  0.00    +0.000 C 
ATOM     89  C62 UNL A   1      39.469  27.150  28.968  1.00  0.00    +0.000 C 
ATOM    117  H26 UNL A   1      40.502  33.104  31.287  1.00  0.00    +0.000 H 
ATOM    118  H27 UNL A   1      42.829  34.161  30.769  1.00  0.00    +0.000 H 
ATOM    119  H28 UNL A   1      42.724  30.370  29.106  1.00  0.00    +0.000 H 
ATOM    120  H29 UNL A   1      45.729  25.569  26.181  1.00  0.00    +0.000 H 
ATOM    121  H30 UNL A   1      43.394  24.621  26.501  1.00  0.00    +0.000 H 
ATOM    122  H31 UNL A   1      43.504  28.372  28.294  1.00  0.00    +0.000 H 
ATOM    123  H32 UNL A   1      47.985  30.323  27.066  1.00  0.00    +0.000 H 
ATOM    124  H33 UNL A   1      47.256  32.439  28.310  1.00  0.00    +0.000 H 
ATOM    125  H34 UNL A   1      38.140  28.488  29.869  1.00  0.00    +0.000 H 
ATOM    126  H35 UNL A   1      38.930  26.279  28.841  1.00  0.00    +0.000 H 
ENDROOT
BRANCH   33   32
ATOM    127  H36 UNL A   1      39.683  26.062  25.989  1.00  0.00    +0.000 H 
ATOM     32  C24 UNL A   1      40.905  25.122  27.439  1.00  0.00    +0.000 C 
ATOM    115  H24 UNL A   1      40.965  21.801  27.934  1.00  0.00    +0.000 H 
ATOM    116  H25 UNL A   1      41.961  23.852  28.761  1.00  0.00    +0.000 H 
ATOM     90  C63 UNL A   1      39.925  25.163  26.433  1.00  0.00    +0.000 C 
ATOM     91  C64 UNL A   1      39.280  23.993  26.033  1.00  0.00    +0.000 C 
ATOM     29  C21 UNL A   1      39.630  22.771  26.613  1.00  0.00    +0.000 C 
ATOM     30  C22 UNL A   1      40.654  22.714  27.563  1.00  0.00    +0.000 C 
ATOM     31  C23 UNL A   1      41.256  23.888  28.009  1.00  0.00    +0.000 C 
ATOM    128  H37 UNL A   1      38.544  24.029  25.309  1.00  0.00    +0.000 H 
BRANCH   29    2
ATOM      1  O1  UNL A   1      39.565  20.509  26.003  1.00  0.00    +0.000 O 
ATOM      2  C1  UNL A   1      38.930  21.547  26.169  1.00  0.00    +0.000 C 
BRANCH    2    3
ATOM      3  N1  UNL A   1      37.579  21.571  25.932  1.00  0.00    +0.000 N 
ATOM     92  H1  UNL A   1      37.059  22.165  26.520  1.00  0.00    +0.000 H 
BRANCH    3    4
ATOM      4  C2  UNL A   1      36.807  20.846  24.939  1.00  0.00    +0.000 C 
ATOM     93  H2  UNL A   1      36.627  19.855  25.299  1.00  0.00    +0.000 H 
ATOM     94  H3  UNL A   1      37.371  20.837  24.030  1.00  0.00    +0.000 H 
BRANCH    4    5
ATOM      5  C3  UNL A   1      35.466  21.512  24.647  1.00  0.00    +0.000 C 
ATOM     95  H4  UNL A   1      34.745  20.740  24.465  1.00  0.00    +0.000 H 
ATOM     96  H5  UNL A   1      35.627  22.151  23.804  1.00  0.00    +0.000 H 
BRANCH    5    6
ATOM     97  H6  UNL A   1      34.212  23.076  25.335  1.00  0.00    +0.000 H 
ATOM     98  H7  UNL A   1      35.782  22.900  26.182  1.00  0.00    +0.000 H 
ATOM      6  C4  UNL A   1      34.928  22.408  25.764  1.00  0.00    +0.000 C 
BRANCH    6    7
ATOM     99  H8  UNL A   1      34.963  21.608  27.728  1.00  0.00    +0.000 H 
ATOM    100  H9  UNL A   1      33.944  20.731  26.540  1.00  0.00    +0.000 H 
ATOM      7  C5  UNL A   1      34.254  21.678  26.929  1.00  0.00    +0.000 C 
BRANCH    7    8
ATOM    101  H10 UNL A   1      32.967  22.185  28.540  1.00  0.00    +0.000 H 
ATOM    102  H11 UNL A   1      32.167  21.883  26.967  1.00  0.00    +0.000 H 
ATOM      8  C6  UNL A   1      32.986  22.339  27.481  1.00  0.00    +0.000 C 
BRANCH    8    9
ATOM      9  C7  UNL A   1      32.869  23.839  27.219  1.00  0.00    +0.000 C 
ATOM    103  H12 UNL A   1      33.587  24.116  26.476  1.00  0.00    +0.000 H 
ATOM    104  H13 UNL A   1      33.051  24.351  28.142  1.00  0.00    +0.000 H 
BRANCH    9   10
ATOM    105  H14 UNL A   1      30.845  24.238  27.446  1.00  0.00    +0.000 H 
ATOM     10  N2  UNL A   1      31.545  24.210  26.754  1.00  0.00    +0.000 N 
BRANCH   10   11
ATOM     11  C8  UNL A   1      31.136  24.527  25.484  1.00  0.00    +0.000 C 
ATOM     12  O2  UNL A   1      30.214  25.318  25.312  1.00  0.00    +0.000 O 
BRANCH   11   13
ATOM    106  H15 UNL A   1      32.875  25.672  23.833  1.00  0.00    +0.000 H 
ATOM    107  H16 UNL A   1      34.010  24.684  21.928  1.00  0.00    +0.000 H 
ATOM    108  H17 UNL A   1      33.591  22.378  21.329  1.00  0.00    +0.000 H 
ATOM     13  C9  UNL A   1      31.806  23.915  24.318  1.00  0.00    +0.000 C 
ATOM     14  C10 UNL A   1      32.697  24.689  23.574  1.00  0.00    +0.000 C 
ATOM     15  C11 UNL A   1      33.343  24.124  22.480  1.00  0.00    +0.000 C 
ATOM     16  C12 UNL A   1      33.088  22.794  22.128  1.00  0.00    +0.000 C 
ATOM     17  C13 UNL A   1      32.163  22.016  22.838  1.00  0.00    +0.000 C 
ATOM    114  H23 UNL A   1      30.832  22.048  24.475  1.00  0.00    +0.000 H 
ATOM     28  C20 UNL A   1      31.522  22.596  23.938  1.00  0.00    +0.000 C 
BRANCH   17   18
ATOM     18  N3  UNL A   1      31.901  20.658  22.548  1.00  0.00    +0.000 N 
ATOM    109  H18 UNL A   1      31.279  20.494  21.802  1.00  0.00    +0.000 H 
BRANCH   18   19
ATOM    110  H19 UNL A   1      32.330  20.347  25.120  1.00  0.00    +0.000 H 
ATOM    111  H20 UNL A   1      33.020  18.329  26.274  1.00  0.00    +0.000 H 
ATOM    112  H21 UNL A   1      33.347  16.332  22.582  1.00  0.00    +0.000 H 
ATOM    113  H22 UNL A   1      32.648  18.351  21.435  1.00  0.00    +0.000 H 
ATOM     19  C14 UNL A   1      32.411  19.510  23.183  1.00  0.00    +0.000 C 
ATOM     20  C15 UNL A   1      32.534  19.492  24.578  1.00  0.00    +0.000 C 
ATOM     21  C16 UNL A   1      32.932  18.331  25.245  1.00  0.00    +0.000 C 
ATOM     22  C17 UNL A   1      33.212  17.172  24.515  1.00  0.00    +0.000 C 
ATOM     26  C18 UNL A   1      33.120  17.181  23.121  1.00  0.00    +0.000 C 
ATOM     27  C19 UNL A   1      32.719  18.347  22.465  1.00  0.00    +0.000 C 
BRANCH   22   23
ATOM     25  O4  UNL A   1      32.606  15.087  25.660  1.00  0.00    +0.000 O 
ATOM     23  N4  UNL A   1      33.571  15.955  25.206  1.00  0.00    +0.000 N 
ATOM     24  O3  UNL A   1      34.732  15.681  25.429  1.00  0.00    +0.000 O 
ENDBRANCH   22   23
ENDBRANCH   18   19
ENDBRANCH   17   18
ENDBRANCH   11   13
ENDBRANCH   10   11
ENDBRANCH    9   10
ENDBRANCH    8    9
ENDBRANCH    7    8
ENDBRANCH    6    7
ENDBRANCH    5    6
ENDBRANCH    4    5
ENDBRANCH    3    4
ENDBRANCH    2    3
ENDBRANCH   29    2
ENDBRANCH   33   32
BRANCH   37   38
ATOM     38  C29 UNL A   1      38.796  30.906  30.686  1.00  0.00    +0.000 C 
ATOM     39  C30 UNL A   1      38.524  30.821  32.059  1.00  0.00    +0.000 C 
ATOM     40  F1  UNL A   1      39.443  30.318  32.899  1.00  0.00    +0.000 F 
ATOM     41  C31 UNL A   1      37.290  31.214  32.572  1.00  0.00    +0.000 C 
ATOM     42  F2  UNL A   1      37.035  31.073  33.880  1.00  0.00    +0.000 F 
ATOM     43  C32 UNL A   1      36.317  31.731  31.729  1.00  0.00    +0.000 C 
ATOM     44  F3  UNL A   1      35.130  32.106  32.224  1.00  0.00    +0.000 F 
ATOM     45  C33 UNL A   1      36.573  31.848  30.372  1.00  0.00    +0.000 C 
ATOM     46  F4  UNL A   1      35.639  32.358  29.556  1.00  0.00    +0.000 F 
ATOM     47  C34 UNL A   1      37.797  31.431  29.852  1.00  0.00    +0.000 C 
ATOM     48  F5  UNL A   1      38.007  31.541  28.532  1.00  0.00    +0.000 F 
ENDBRANCH   37   38
BRANCH   54   55
ATOM     65  F10 UNL A   1      44.577  34.661  27.559  1.00  0.00    +0.000 F 
ATOM     55  C40 UNL A   1      45.347  33.702  29.596  1.00  0.00    +0.000 C 
ATOM     56  C41 UNL A   1      46.128  33.854  30.749  1.00  0.00    +0.000 C 
ATOM     57  F6  UNL A   1      46.181  32.875  31.664  1.00  0.00    +0.000 F 
ATOM     58  C42 UNL A   1      46.840  35.029  30.978  1.00  0.00    +0.000 C 
ATOM     59  F7  UNL A   1      47.561  35.166  32.100  1.00  0.00    +0.000 F 
ATOM     60  C43 UNL A   1      46.804  36.058  30.048  1.00  0.00    +0.000 C 
ATOM     61  F8  UNL A   1      47.504  37.181  30.261  1.00  0.00    +0.000 F 
ATOM     62  C44 UNL A   1      46.041  35.924  28.898  1.00  0.00    +0.000 C 
ATOM     63  F9  UNL A   1      46.014  36.913  27.993  1.00  0.00    +0.000 F 
ATOM     64  C45 UNL A   1      45.309  34.761  28.678  1.00  0.00    +0.000 C 
ENDBRANCH   54   55
BRANCH   69   70
ATOM     70  C49 UNL A   1      47.227  27.823  26.327  1.00  0.00    +0.000 C 
ATOM     71  C50 UNL A   1      48.333  27.316  27.019  1.00  0.00    +0.000 C 
ATOM     72  F11 UNL A   1      48.334  27.301  28.359  1.00  0.00    +0.000 F 
ATOM     73  C51 UNL A   1      49.446  26.832  26.335  1.00  0.00    +0.000 C 
ATOM     74  F12 UNL A   1      50.500  26.368  27.020  1.00  0.00    +0.000 F 
ATOM     75  C52 UNL A   1      49.465  26.828  24.948  1.00  0.00    +0.000 C 
ATOM     76  F13 UNL A   1      50.527  26.343  24.292  1.00  0.00    +0.000 F 
ATOM     77  C53 UNL A   1      48.380  27.326  24.242  1.00  0.00    +0.000 C 
ATOM     78  F14 UNL A   1      48.386  27.307  22.902  1.00  0.00    +0.000 F 
ATOM     79  C54 UNL A   1      47.277  27.833  24.925  1.00  0.00    +0.000 C 
ATOM     80  F15 UNL A   1      46.236  28.299  24.218  1.00  0.00    +0.000 F 
ENDBRANCH   69   70
TORSDOF 18
ENDMDL
MODEL 3
REMARK VINA RESULT:      -9.7     36.433     45.721
ROOT
ATOM     33  C25 UNL A   1      52.827  20.274  11.555  1.00  0.00    +0.000 C 
ATOM     34  C26 UNL A   1      52.647  20.839  12.933  1.00  0.00    +0.000 C 
ATOM     35  N5  UNL A   1      53.502  20.891  13.924  1.00  0.00    +0.000 N 
ATOM     36  C27 UNL A   1      52.844  21.542  14.957  1.00  0.00    +0.000 C 
ATOM     37  C28 UNL A   1      53.301  21.821  16.203  1.00  0.00    +0.000 C 
ATOM     49  C35 UNL A   1      54.609  21.460  16.685  1.00  0.00    +0.000 C 
ATOM     50  C36 UNL A   1      55.147  21.645  17.946  1.00  0.00    +0.000 C 
ATOM     51  C37 UNL A   1      56.470  21.192  17.930  1.00  0.00    +0.000 C 
ATOM     52  C38 UNL A   1      56.742  20.677  16.672  1.00  0.00    +0.000 C 
ATOM     53  N6  UNL A   1      55.592  20.847  15.918  1.00  0.00    +0.000 N 
ATOM     54  C39 UNL A   1      57.964  20.079  16.193  1.00  0.00    +0.000 C 
ATOM     66  C46 UNL A   1      58.149  19.570  14.951  1.00  0.00    +0.000 C 
ATOM     67  N7  UNL A   1      57.248  19.501  13.897  1.00  0.00    +0.000 N 
ATOM     68  C47 UNL A   1      57.890  18.923  12.912  1.00  0.00    +0.000 C 
ATOM     69  C48 UNL A   1      57.394  18.580  11.538  1.00  0.00    +0.000 C 
ATOM     81  C55 UNL A   1      56.112  18.830  11.219  1.00  0.00    +0.000 C 
ATOM     82  C56 UNL A   1      55.503  18.566   9.918  1.00  0.00    +0.000 C 
ATOM     83  C57 UNL A   1      54.261  19.069   9.911  1.00  0.00    +0.000 C 
ATOM     84  C58 UNL A   1      53.969  19.645  11.224  1.00  0.00    +0.000 C 
ATOM     85  N8  UNL A   1      55.104  19.403  11.956  1.00  0.00    +0.000 N 
ATOM     86  C59 UNL A   1      59.285  18.578  13.221  1.00  0.00    +0.000 C 
ATOM     87  C60 UNL A   1      59.384  18.972  14.484  1.00  0.00    +0.000 C 
ATOM     88  C61 UNL A   1      51.527  21.888  14.467  1.00  0.00    +0.000 C 
ATOM     89  C62 UNL A   1      51.339  21.435  13.236  1.00  0.00    +0.000 C 
ATOM    117  H26 UNL A   1      54.656  22.049  18.760  1.00  0.00    +0.000 H 
ATOM    118  H27 UNL A   1      57.132  21.233  18.720  1.00  0.00    +0.000 H 
ATOM    119  H28 UNL A   1      55.486  20.574  14.978  1.00  0.00    +0.000 H 
ATOM    120  H29 UNL A   1      55.955  18.070   9.134  1.00  0.00    +0.000 H 
ATOM    121  H30 UNL A   1      53.613  19.055   9.107  1.00  0.00    +0.000 H 
ATOM    122  H31 UNL A   1      55.189  19.618  12.914  1.00  0.00    +0.000 H 
ATOM    123  H32 UNL A   1      59.998  18.143  12.616  1.00  0.00    +0.000 H 
ATOM    124  H33 UNL A   1      60.233  18.867  15.061  1.00  0.00    +0.000 H 
ATOM    125  H34 UNL A   1      50.824  22.419  15.007  1.00  0.00    +0.000 H 
ATOM    126  H35 UNL A   1      50.495  21.488  12.644  1.00  0.00    +0.000 H 
ENDROOT
BRANCH   33   32
ATOM    127  H36 UNL A   1      50.748  18.648  11.026  1.00  0.00    +0.000 H 
ATOM     32  C24 UNL A   1      51.769  20.434  10.529  1.00  0.00    +0.000 C 
ATOM    115  H24 UNL A   1      50.656  22.626   8.242  1.00  0.00    +0.000 H 
ATOM    116  H25 UNL A   1      52.498  22.273   9.779  1.00  0.00    +0.000 H 
ATOM     90  C63 UNL A   1      50.753  19.473  10.405  1.00  0.00    +0.000 C 
ATOM     91  C64 UNL A   1      49.751  19.628   9.447  1.00  0.00    +0.000 C 
ATOM     29  C21 UNL A   1      49.741  20.760   8.627  1.00  0.00    +0.000 C 
ATOM     30  C22 UNL A   1      50.709  21.755   8.795  1.00  0.00    +0.000 C 
ATOM     31  C23 UNL A   1      51.745  21.571   9.708  1.00  0.00    +0.000 C 
ATOM    128  H37 UNL A   1      49.018  18.908   9.343  1.00  0.00    +0.000 H 
BRANCH   29    2
ATOM      1  O1  UNL A   1      48.186  22.006   7.394  1.00  0.00    +0.000 O 
ATOM      2  C1  UNL A   1      48.667  20.899   7.621  1.00  0.00    +0.000 C 
BRANCH    2    3
ATOM      3  N1  UNL A   1      48.201  19.796   6.952  1.00  0.00    +0.000 N 
ATOM     92  H1  UNL A   1      47.270  19.545   7.153  1.00  0.00    +0.000 H 
BRANCH    3    4
ATOM      4  C2  UNL A   1      48.882  18.947   5.990  1.00  0.00    +0.000 C 
ATOM     93  H2  UNL A   1      49.918  19.212   5.972  1.00  0.00    +0.000 H 
ATOM     94  H3  UNL A   1      48.422  19.100   5.037  1.00  0.00    +0.000 H 
BRANCH    4    5
ATOM      5  C3  UNL A   1      48.759  17.466   6.334  1.00  0.00    +0.000 C 
ATOM     95  H4  UNL A   1      49.245  17.303   7.274  1.00  0.00    +0.000 H 
ATOM     96  H5  UNL A   1      49.210  16.934   5.523  1.00  0.00    +0.000 H 
BRANCH    5    6
ATOM     97  H6  UNL A   1      46.661  17.753   6.232  1.00  0.00    +0.000 H 
ATOM     98  H7  UNL A   1      47.231  16.554   7.437  1.00  0.00    +0.000 H 
ATOM      6  C4  UNL A   1      47.326  16.942   6.444  1.00  0.00    +0.000 C 
BRANCH    6    7
ATOM     99  H8  UNL A   1      46.584  14.985   6.102  1.00  0.00    +0.000 H 
ATOM    100  H9  UNL A   1      47.877  15.541   4.988  1.00  0.00    +0.000 H 
ATOM      7  C5  UNL A   1      46.972  15.784   5.505  1.00  0.00    +0.000 C 
BRANCH    7    8
ATOM    101  H10 UNL A   1      45.279  16.853   4.800  1.00  0.00    +0.000 H 
ATOM    102  H11 UNL A   1      45.454  15.179   4.191  1.00  0.00    +0.000 H 
ATOM      8  C6  UNL A   1      45.941  16.104   4.418  1.00  0.00    +0.000 C 
BRANCH    8    9
ATOM      9  C7  UNL A   1      46.522  16.612   3.101  1.00  0.00    +0.000 C 
ATOM    103  H12 UNL A   1      45.883  16.303   2.300  1.00  0.00    +0.000 H 
ATOM    104  H13 UNL A   1      47.505  16.201   2.992  1.00  0.00    +0.000 H 
BRANCH    9   10
ATOM    105  H14 UNL A   1      47.481  18.412   2.712  1.00  0.00    +0.000 H 
ATOM     10  N2  UNL A   1      46.638  18.060   3.077  1.00  0.00    +0.000 N 
BRANCH   10   11
ATOM     11  C8  UNL A   1      45.733  19.002   3.494  1.00  0.00    +0.000 C 
ATOM     12  O2  UNL A   1      45.859  19.535   4.591  1.00  0.00    +0.000 O 
BRANCH   11   13
ATOM    106  H15 UNL A   1      45.784  20.625   1.391  1.00  0.00    +0.000 H 
ATOM    107  H16 UNL A   1      43.950  21.238  -0.077  1.00  0.00    +0.000 H 
ATOM    108  H17 UNL A   1      41.734  20.347   0.314  1.00  0.00    +0.000 H 
ATOM     13  C9  UNL A   1      44.602  19.378   2.620  1.00  0.00    +0.000 C 
ATOM     14  C10 UNL A   1      44.838  20.247   1.556  1.00  0.00    +0.000 C 
ATOM     15  C11 UNL A   1      43.785  20.602   0.719  1.00  0.00    +0.000 C 
ATOM     16  C12 UNL A   1      42.503  20.096   0.955  1.00  0.00    +0.000 C 
ATOM     17  C13 UNL A   1      42.240  19.256   2.046  1.00  0.00    +0.000 C 
ATOM    114  H23 UNL A   1      43.142  18.293   3.693  1.00  0.00    +0.000 H 
ATOM     28  C20 UNL A   1      43.308  18.905   2.879  1.00  0.00    +0.000 C 
BRANCH   17   18
ATOM     18  N3  UNL A   1      40.973  18.687   2.304  1.00  0.00    +0.000 N 
ATOM    109  H18 UNL A   1      40.967  17.716   2.471  1.00  0.00    +0.000 H 
BRANCH   18   19
ATOM    110  H19 UNL A   1      39.482  19.052   4.435  1.00  0.00    +0.000 H 
ATOM    111  H20 UNL A   1      37.415  20.309   4.600  1.00  0.00    +0.000 H 
ATOM    112  H21 UNL A   1      37.517  21.017   0.450  1.00  0.00    +0.000 H 
ATOM    113  H22 UNL A   1      39.589  19.766   0.295  1.00  0.00    +0.000 H 
ATOM     19  C14 UNL A   1      39.718  19.323   2.354  1.00  0.00    +0.000 C 
ATOM     20  C15 UNL A   1      39.073  19.478   3.588  1.00  0.00    +0.000 C 
ATOM     21  C16 UNL A   1      37.882  20.201   3.686  1.00  0.00    +0.000 C 
ATOM     22  C17 UNL A   1      37.324  20.778   2.541  1.00  0.00    +0.000 C 
ATOM     26  C18 UNL A   1      37.940  20.609   1.298  1.00  0.00    +0.000 C 
ATOM     27  C19 UNL A   1      39.132  19.886   1.213  1.00  0.00    +0.000 C 
BRANCH   22   23
ATOM     25  O4  UNL A   1      35.369  21.870   1.535  1.00  0.00    +0.000 O 
ATOM     23  N4  UNL A   1      36.121  21.571   2.647  1.00  0.00    +0.000 N 
ATOM     24  O3  UNL A   1      35.759  22.018   3.715  1.00  0.00    +0.000 O 
ENDBRANCH   22   23
ENDBRANCH   18   19
ENDBRANCH   17   18
ENDBRANCH   11   13
ENDBRANCH   10   11
ENDBRANCH    9   10
ENDBRANCH    8    9
ENDBRANCH    7    8
ENDBRANCH    6    7
ENDBRANCH    5    6
ENDBRANCH    4    5
ENDBRANCH    3    4
ENDBRANCH    2    3
ENDBRANCH   29    2
ENDBRANCH   33   32
BRANCH   37   38
ATOM     38  C29 UNL A   1      52.389  22.579  17.122  1.00  0.00    +0.000 C 
ATOM     39  C30 UNL A   1      51.596  21.929  18.079  1.00  0.00    +0.000 C 
ATOM     40  F1  UNL A   1      51.612  20.590  18.174  1.00  0.00    +0.000 F 
ATOM     41  C31 UNL A   1      50.748  22.651  18.916  1.00  0.00    +0.000 C 
ATOM     42  F2  UNL A   1      49.959  22.004  19.787  1.00  0.00    +0.000 F 
ATOM     43  C32 UNL A   1      50.701  24.034  18.837  1.00  0.00    +0.000 C 
ATOM     44  F3  UNL A   1      49.883  24.726  19.642  1.00  0.00    +0.000 F 
ATOM     45  C33 UNL A   1      51.496  24.699  17.917  1.00  0.00    +0.000 C 
ATOM     46  F4  UNL A   1      51.462  26.038  17.846  1.00  0.00    +0.000 F 
ATOM     47  C34 UNL A   1      52.325  23.979  17.059  1.00  0.00    +0.000 C 
ATOM     48  F5  UNL A   1      53.068  24.651  16.168  1.00  0.00    +0.000 F 
ENDBRANCH   37   38
BRANCH   54   55
ATOM     65  F10 UNL A   1      58.579  17.724  17.654  1.00  0.00    +0.000 F 
ATOM     55  C40 UNL A   1      59.112  19.989  17.153  1.00  0.00    +0.000 C 
ATOM     56  C41 UNL A   1      59.937  21.091  17.414  1.00  0.00    +0.000 C 
ATOM     57  F6  UNL A   1      59.764  22.239  16.743  1.00  0.00    +0.000 F 
ATOM     58  C42 UNL A   1      60.961  21.008  18.354  1.00  0.00    +0.000 C 
ATOM     59  F7  UNL A   1      61.757  22.065  18.571  1.00  0.00    +0.000 F 
ATOM     60  C43 UNL A   1      61.162  19.833  19.065  1.00  0.00    +0.000 C 
ATOM     61  F8  UNL A   1      62.138  19.760  19.981  1.00  0.00    +0.000 F 
ATOM     62  C44 UNL A   1      60.353  18.733  18.824  1.00  0.00    +0.000 C 
ATOM     63  F9  UNL A   1      60.538  17.600  19.518  1.00  0.00    +0.000 F 
ATOM     64  C45 UNL A   1      59.344  18.805  17.869  1.00  0.00    +0.000 C 
ENDBRANCH   54   55
BRANCH   69   70
ATOM     70  C49 UNL A   1      58.283  17.971  10.518  1.00  0.00    +0.000 C 
ATOM     71  C50 UNL A   1      59.050  18.769   9.660  1.00  0.00    +0.000 C 
ATOM     72  F11 UNL A   1      58.925  20.104   9.700  1.00  0.00    +0.000 F 
ATOM     73  C51 UNL A   1      59.938  18.198   8.752  1.00  0.00    +0.000 C 
ATOM     74  F12 UNL A   1      60.648  18.983   7.930  1.00  0.00    +0.000 F 
ATOM     75  C52 UNL A   1      60.091  16.821   8.699  1.00  0.00    +0.000 C 
ATOM     76  F13 UNL A   1      60.962  16.274   7.840  1.00  0.00    +0.000 F 
ATOM     77  C53 UNL A   1      59.341  16.010   9.538  1.00  0.00    +0.000 C 
ATOM     78  F14 UNL A   1      59.498  14.680   9.503  1.00  0.00    +0.000 F 
ATOM     79  C54 UNL A   1      58.434  16.579  10.430  1.00  0.00    +0.000 C 
ATOM     80  F15 UNL A   1      57.729  15.774  11.238  1.00  0.00    +0.000 F 
ENDBRANCH   69   70
TORSDOF 18
ENDMDL
MODEL 4
REMARK VINA RESULT:      -9.6     37.047     46.351
ROOT
ATOM     33  C25 UNL A   1      53.161  19.914  11.654  1.00  0.00    +0.000 C 
ATOM     34  C26 UNL A   1      52.925  20.551  12.991  1.00  0.00    +0.000 C 
ATOM     35  N5  UNL A   1      53.744  20.673  14.005  1.00  0.00    +0.000 N 
ATOM     36  C27 UNL A   1      53.040  21.369  14.978  1.00  0.00    +0.000 C 
ATOM     37  C28 UNL A   1      53.449  21.724  16.220  1.00  0.00    +0.000 C 
ATOM     49  C35 UNL A   1      54.745  21.412  16.766  1.00  0.00    +0.000 C 
ATOM     50  C36 UNL A   1      55.235  21.677  18.033  1.00  0.00    +0.000 C 
ATOM     51  C37 UNL A   1      56.564  21.244  18.088  1.00  0.00    +0.000 C 
ATOM     52  C38 UNL A   1      56.888  20.665  16.871  1.00  0.00    +0.000 C 
ATOM     53  N6  UNL A   1      55.762  20.774  16.070  1.00  0.00    +0.000 N 
ATOM     54  C39 UNL A   1      58.134  20.062  16.468  1.00  0.00    +0.000 C 
ATOM     66  C46 UNL A   1      58.370  19.487  15.263  1.00  0.00    +0.000 C 
ATOM     67  N7  UNL A   1      57.508  19.345  14.185  1.00  0.00    +0.000 N 
ATOM     68  C47 UNL A   1      58.192  18.724  13.257  1.00  0.00    +0.000 C 
ATOM     69  C48 UNL A   1      57.750  18.297  11.888  1.00  0.00    +0.000 C 
ATOM     81  C55 UNL A   1      56.476  18.507  11.511  1.00  0.00    +0.000 C 
ATOM     82  C56 UNL A   1      55.917  18.161  10.208  1.00  0.00    +0.000 C 
ATOM     83  C57 UNL A   1      54.669  18.643  10.129  1.00  0.00    +0.000 C 
ATOM     84  C58 UNL A   1      54.323  19.286  11.397  1.00  0.00    +0.000 C 
ATOM     85  N8  UNL A   1      55.435  19.104  12.180  1.00  0.00    +0.000 N 
ATOM     86  C59 UNL A   1      59.580  18.419  13.632  1.00  0.00    +0.000 C 
ATOM     87  C60 UNL A   1      59.629  18.884  14.874  1.00  0.00    +0.000 C 
ATOM     88  C61 UNL A   1      51.736  21.666  14.424  1.00  0.00    +0.000 C 
ATOM     89  C62 UNL A   1      51.598  21.142  13.214  1.00  0.00    +0.000 C 
ATOM    117  H26 UNL A   1      54.710  22.117  18.805  1.00  0.00    +0.000 H 
ATOM    118  H27 UNL A   1      57.197  21.341  18.896  1.00  0.00    +0.000 H 
ATOM    119  H28 UNL A   1      55.694  20.447  15.143  1.00  0.00    +0.000 H 
ATOM    120  H29 UNL A   1      56.404  17.631   9.469  1.00  0.00    +0.000 H 
ATOM    121  H30 UNL A   1      54.050  18.574   9.306  1.00  0.00    +0.000 H 
ATOM    122  H31 UNL A   1      55.483  19.374  13.127  1.00  0.00    +0.000 H 
ATOM    123  H32 UNL A   1      60.320  17.963  13.077  1.00  0.00    +0.000 H 
ATOM    124  H33 UNL A   1      60.459  18.825  15.484  1.00  0.00    +0.000 H 
ATOM    125  H34 UNL A   1      51.008  22.214  14.909  1.00  0.00    +0.000 H 
ATOM    126  H35 UNL A   1      50.775  21.148  12.592  1.00  0.00    +0.000 H 
ENDROOT
BRANCH   33   32
ATOM    127  H36 UNL A   1      51.339  18.070  10.928  1.00  0.00    +0.000 H 
ATOM     32  C24 UNL A   1      52.137  19.999  10.585  1.00  0.00    +0.000 C 
ATOM    115  H24 UNL A   1      50.847  22.166   8.368  1.00  0.00    +0.000 H 
ATOM    116  H25 UNL A   1      52.650  21.960   9.977  1.00  0.00    +0.000 H 
ATOM     90  C63 UNL A   1      51.263  18.925  10.355  1.00  0.00    +0.000 C 
ATOM     91  C64 UNL A   1      50.293  19.009   9.356  1.00  0.00    +0.000 C 
ATOM     29  C21 UNL A   1      50.170  20.178   8.601  1.00  0.00    +0.000 C 
ATOM     30  C22 UNL A   1      50.990  21.277   8.873  1.00  0.00    +0.000 C 
ATOM     31  C23 UNL A   1      52.000  21.173   9.827  1.00  0.00    +0.000 C 
ATOM    128  H37 UNL A   1      49.666  18.208   9.175  1.00  0.00    +0.000 H 
BRANCH   29    2
ATOM      1  O1  UNL A   1      48.328  21.167   7.543  1.00  0.00    +0.000 O 
ATOM      2  C1  UNL A   1      49.133  20.240   7.550  1.00  0.00    +0.000 C 
BRANCH    2    3
ATOM      3  N1  UNL A   1      49.060  19.260   6.593  1.00  0.00    +0.000 N 
ATOM     92  H1  UNL A   1      48.422  18.534   6.781  1.00  0.00    +0.000 H 
BRANCH    3    4
ATOM      4  C2  UNL A   1      49.789  19.140   5.342  1.00  0.00    +0.000 C 
ATOM     93  H2  UNL A   1      50.081  20.117   5.020  1.00  0.00    +0.000 H 
ATOM     94  H3  UNL A   1      49.143  18.669   4.633  1.00  0.00    +0.000 H 
BRANCH    4    5
ATOM      5  C3  UNL A   1      51.038  18.275   5.480  1.00  0.00    +0.000 C 
ATOM     95  H4  UNL A   1      51.708  18.765   6.156  1.00  0.00    +0.000 H 
ATOM     96  H5  UNL A   1      51.435  18.165   4.492  1.00  0.00    +0.000 H 
BRANCH    5    6
ATOM     97  H6  UNL A   1      49.921  16.881   6.620  1.00  0.00    +0.000 H 
ATOM     98  H7  UNL A   1      51.686  16.577   6.522  1.00  0.00    +0.000 H 
ATOM      6  C4  UNL A   1      50.793  16.858   6.001  1.00  0.00    +0.000 C 
BRANCH    6    7
ATOM     99  H8  UNL A   1      51.306  15.015   5.085  1.00  0.00    +0.000 H 
ATOM    100  H9  UNL A   1      50.681  16.290   3.988  1.00  0.00    +0.000 H 
ATOM      7  C5  UNL A   1      50.581  15.787   4.927  1.00  0.00    +0.000 C 
BRANCH    7    8
ATOM    101  H10 UNL A   1      48.913  14.925   5.917  1.00  0.00    +0.000 H 
ATOM    102  H11 UNL A   1      49.290  14.257   4.300  1.00  0.00    +0.000 H 
ATOM      8  C6  UNL A   1      49.196  15.133   4.906  1.00  0.00    +0.000 C 
BRANCH    8    9
ATOM      9  C7  UNL A   1      48.091  15.973   4.269  1.00  0.00    +0.000 C 
ATOM    103  H12 UNL A   1      47.638  15.407   3.481  1.00  0.00    +0.000 H 
ATOM    104  H13 UNL A   1      48.534  16.872   3.894  1.00  0.00    +0.000 H 
BRANCH    9   10
ATOM    105  H14 UNL A   1      47.335  16.304   6.174  1.00  0.00    +0.000 H 
ATOM     10  N2  UNL A   1      47.066  16.345   5.228  1.00  0.00    +0.000 N 
BRANCH   10   11
ATOM     11  C8  UNL A   1      45.776  16.745   4.996  1.00  0.00    +0.000 C 
ATOM     12  O2  UNL A   1      44.837  16.039   5.351  1.00  0.00    +0.000 O 
BRANCH   11   13
ATOM    106  H15 UNL A   1      46.754  19.136   5.619  1.00  0.00    +0.000 H 
ATOM    107  H16 UNL A   1      46.358  21.256   4.504  1.00  0.00    +0.000 H 
ATOM    108  H17 UNL A   1      44.897  21.360   2.578  1.00  0.00    +0.000 H 
ATOM     13  C9  UNL A   1      45.511  18.030   4.317  1.00  0.00    +0.000 C 
ATOM     14  C10 UNL A   1      46.130  19.183   4.798  1.00  0.00    +0.000 C 
ATOM     15  C11 UNL A   1      45.899  20.398   4.162  1.00  0.00    +0.000 C 
ATOM     16  C12 UNL A   1      45.043  20.457   3.056  1.00  0.00    +0.000 C 
ATOM     17  C13 UNL A   1      44.379  19.316   2.587  1.00  0.00    +0.000 C 
ATOM    114  H23 UNL A   1      44.142  17.245   2.914  1.00  0.00    +0.000 H 
ATOM     28  C20 UNL A   1      44.622  18.099   3.235  1.00  0.00    +0.000 C 
BRANCH   17   18
ATOM     18  N3  UNL A   1      43.537  19.315   1.452  1.00  0.00    +0.000 N 
ATOM    109  H18 UNL A   1      43.949  18.998   0.615  1.00  0.00    +0.000 H 
BRANCH   18   19
ATOM    110  H19 UNL A   1      41.563  18.529   2.995  1.00  0.00    +0.000 H 
ATOM    111  H20 UNL A   1      39.273  19.325   2.992  1.00  0.00    +0.000 H 
ATOM    112  H21 UNL A   1      40.132  21.780  -0.318  1.00  0.00    +0.000 H 
ATOM    113  H22 UNL A   1      42.423  20.986  -0.304  1.00  0.00    +0.000 H 
ATOM     19  C14 UNL A   1      42.189  19.708   1.359  1.00  0.00    +0.000 C 
ATOM     20  C15 UNL A   1      41.265  19.228   2.296  1.00  0.00    +0.000 C 
ATOM     21  C16 UNL A   1      39.945  19.685   2.297  1.00  0.00    +0.000 C 
ATOM     22  C17 UNL A   1      39.537  20.631   1.351  1.00  0.00    +0.000 C 
ATOM     26  C18 UNL A   1      40.439  21.099   0.392  1.00  0.00    +0.000 C 
ATOM     27  C19 UNL A   1      41.757  20.637   0.403  1.00  0.00    +0.000 C 
BRANCH   22   23
ATOM     25  O4  UNL A   1      37.687  21.887   0.339  1.00  0.00    +0.000 O 
ATOM     23  N4  UNL A   1      38.188  21.145   1.383  1.00  0.00    +0.000 N 
ATOM     24  O3  UNL A   1      37.470  20.960   2.344  1.00  0.00    +0.000 O 
ENDBRANCH   22   23
ENDBRANCH   18   19
ENDBRANCH   17   18
ENDBRANCH   11   13
ENDBRANCH   10   11
ENDBRANCH    9   10
ENDBRANCH    8    9
ENDBRANCH    7    8
ENDBRANCH    6    7
ENDBRANCH    5    6
ENDBRANCH    4    5
ENDBRANCH    3    4
ENDBRANCH    2    3
ENDBRANCH   29    2
ENDBRANCH   33   32
BRANCH   37   38
ATOM     38  C29 UNL A   1      52.495  22.518  17.064  1.00  0.00    +0.000 C 
ATOM     39  C30 UNL A   1      52.361  23.907  16.924  1.00  0.00    +0.000 C 
ATOM     40  F1  UNL A   1      53.120  24.572  16.039  1.00  0.00    +0.000 F 
ATOM     41  C31 UNL A   1      51.476  24.626  17.724  1.00  0.00    +0.000 C 
ATOM     42  F2  UNL A   1      51.405  25.960  17.609  1.00  0.00    +0.000 F 
ATOM     43  C32 UNL A   1      50.685  23.969  18.654  1.00  0.00    +0.000 C 
ATOM     44  F3  UNL A   1      49.836  24.663  19.423  1.00  0.00    +0.000 F 
ATOM     45  C33 UNL A   1      50.781  22.593  18.791  1.00  0.00    +0.000 C 
ATOM     46  F4  UNL A   1      50.008  21.953  19.681  1.00  0.00    +0.000 F 
ATOM     47  C34 UNL A   1      51.684  21.874  18.012  1.00  0.00    +0.000 C 
ATOM     48  F5  UNL A   1      51.767  20.546  18.181  1.00  0.00    +0.000 F 
ENDBRANCH   37   38
BRANCH   54   55
ATOM     65  F10 UNL A   1      59.791  22.309  16.980  1.00  0.00    +0.000 F 
ATOM     55  C40 UNL A   1      59.249  20.044  17.470  1.00  0.00    +0.000 C 
ATOM     56  C41 UNL A   1      59.565  18.887  18.196  1.00  0.00    +0.000 C 
ATOM     57  F6  UNL A   1      58.815  17.783  18.066  1.00  0.00    +0.000 F 
ATOM     58  C42 UNL A   1      60.642  18.870  19.077  1.00  0.00    +0.000 C 
ATOM     59  F7  UNL A   1      60.912  17.762  19.782  1.00  0.00    +0.000 F 
ATOM     60  C43 UNL A   1      61.436  19.998  19.230  1.00  0.00    +0.000 C 
ATOM     61  F8  UNL A   1      62.483  19.974  20.067  1.00  0.00    +0.000 F 
ATOM     62  C44 UNL A   1      61.143  21.151  18.518  1.00  0.00    +0.000 C 
ATOM     63  F9  UNL A   1      61.916  22.238  18.656  1.00  0.00    +0.000 F 
ATOM     64  C45 UNL A   1      60.053  21.179  17.654  1.00  0.00    +0.000 C 
ENDBRANCH   54   55
BRANCH   69   70
ATOM     70  C49 UNL A   1      58.683  17.647  10.934  1.00  0.00    +0.000 C 
ATOM     71  C50 UNL A   1      59.461  18.408  10.054  1.00  0.00    +0.000 C 
ATOM     72  F11 UNL A   1      59.310  19.740  10.010  1.00  0.00    +0.000 F 
ATOM     73  C51 UNL A   1      60.389  17.803   9.210  1.00  0.00    +0.000 C 
ATOM     74  F12 UNL A   1      61.110  18.551   8.365  1.00  0.00    +0.000 F 
ATOM     75  C52 UNL A   1      60.570  16.428   9.246  1.00  0.00    +0.000 C 
ATOM     76  F13 UNL A   1      61.478  15.849   8.449  1.00  0.00    +0.000 F 
ATOM     77  C53 UNL A   1      59.809  15.653  10.109  1.00  0.00    +0.000 C 
ATOM     78  F14 UNL A   1      59.993  14.327  10.159  1.00  0.00    +0.000 F 
ATOM     79  C54 UNL A   1      58.863  16.256  10.935  1.00  0.00    +0.000 C 
ATOM     80  F15 UNL A   1      58.148  15.486  11.769  1.00  0.00    +0.000 F 
ENDBRANCH   69   70
TORSDOF 18
ENDMDL
MODEL 5
REMARK VINA RESULT:      -9.5     36.206     45.527
ROOT
ATOM     33  C25 UNL A   1      53.071  19.998  11.670  1.00  0.00    +0.000 C 
ATOM     34  C26 UNL A   1      52.841  20.602  13.024  1.00  0.00    +0.000 C 
ATOM     35  N5  UNL A   1      53.668  20.707  14.034  1.00  0.00    +0.000 N 
ATOM     36  C27 UNL A   1      52.968  21.374  15.029  1.00  0.00    +0.000 C 
ATOM     37  C28 UNL A   1      53.386  21.704  16.276  1.00  0.00    +0.000 C 
ATOM     49  C35 UNL A   1      54.689  21.390  16.802  1.00  0.00    +0.000 C 
ATOM     50  C36 UNL A   1      55.188  21.629  18.071  1.00  0.00    +0.000 C 
ATOM     51  C37 UNL A   1      56.522  21.207  18.103  1.00  0.00    +0.000 C 
ATOM     52  C38 UNL A   1      56.839  20.659  16.870  1.00  0.00    +0.000 C 
ATOM     53  N6  UNL A   1      55.705  20.778  16.082  1.00  0.00    +0.000 N 
ATOM     54  C39 UNL A   1      58.086  20.077  16.442  1.00  0.00    +0.000 C 
ATOM     66  C46 UNL A   1      58.316  19.533  15.222  1.00  0.00    +0.000 C 
ATOM     67  N7  UNL A   1      57.445  19.408  14.149  1.00  0.00    +0.000 N 
ATOM     68  C47 UNL A   1      58.126  18.815  13.200  1.00  0.00    +0.000 C 
ATOM     69  C48 UNL A   1      57.675  18.417  11.825  1.00  0.00    +0.000 C 
ATOM     81  C55 UNL A   1      56.396  18.624  11.465  1.00  0.00    +0.000 C 
ATOM     82  C56 UNL A   1      55.828  18.304  10.159  1.00  0.00    +0.000 C 
ATOM     83  C57 UNL A   1      54.575  18.777  10.103  1.00  0.00    +0.000 C 
ATOM     84  C58 UNL A   1      54.235  19.387  11.389  1.00  0.00    +0.000 C 
ATOM     85  N8  UNL A   1      55.356  19.196  12.157  1.00  0.00    +0.000 N 
ATOM     86  C59 UNL A   1      59.520  18.514  13.555  1.00  0.00    +0.000 C 
ATOM     87  C60 UNL A   1      59.576  18.950  14.807  1.00  0.00    +0.000 C 
ATOM     88  C61 UNL A   1      51.656  21.673  14.494  1.00  0.00    +0.000 C 
ATOM     89  C62 UNL A   1      51.511  21.176  13.273  1.00  0.00    +0.000 C 
ATOM    117  H26 UNL A   1      54.666  22.047  18.858  1.00  0.00    +0.000 H 
ATOM    118  H27 UNL A   1      57.161  21.290  18.908  1.00  0.00    +0.000 H 
ATOM    119  H28 UNL A   1      55.631  20.472  15.149  1.00  0.00    +0.000 H 
ATOM    120  H29 UNL A   1      56.312  17.795   9.403  1.00  0.00    +0.000 H 
ATOM    121  H30 UNL A   1      53.949  18.721   9.284  1.00  0.00    +0.000 H 
ATOM    122  H31 UNL A   1      55.410  19.444  13.110  1.00  0.00    +0.000 H 
ATOM    123  H32 UNL A   1      60.259  18.077  12.983  1.00  0.00    +0.000 H 
ATOM    124  H33 UNL A   1      60.413  18.884  15.408  1.00  0.00    +0.000 H 
ATOM    125  H34 UNL A   1      50.928  22.203  14.998  1.00  0.00    +0.000 H 
ATOM    126  H35 UNL A   1      50.683  21.189  12.659  1.00  0.00    +0.000 H 
ENDROOT
BRANCH   33   32
ATOM    127  H36 UNL A   1      51.219  18.179  10.959  1.00  0.00    +0.000 H 
ATOM     32  C24 UNL A   1      52.036  20.100  10.613  1.00  0.00    +0.000 C 
ATOM    115  H24 UNL A   1      50.748  22.290   8.418  1.00  0.00    +0.000 H 
ATOM    116  H25 UNL A   1      52.566  22.056  10.006  1.00  0.00    +0.000 H 
ATOM     90  C63 UNL A   1      51.146  19.036  10.390  1.00  0.00    +0.000 C 
ATOM     91  C64 UNL A   1      50.166  19.136   9.402  1.00  0.00    +0.000 C 
ATOM     29  C21 UNL A   1      50.050  20.309   8.652  1.00  0.00    +0.000 C 
ATOM     30  C22 UNL A   1      50.886  21.397   8.919  1.00  0.00    +0.000 C 
ATOM     31  C23 UNL A   1      51.905  21.277   9.861  1.00  0.00    +0.000 C 
ATOM    128  H37 UNL A   1      49.528  18.343   9.225  1.00  0.00    +0.000 H 
BRANCH   29    2
ATOM      1  O1  UNL A   1      48.446  21.459   7.388  1.00  0.00    +0.000 O 
ATOM      2  C1  UNL A   1      49.002  20.387   7.612  1.00  0.00    +0.000 C 
BRANCH    2    3
ATOM      3  N1  UNL A   1      48.642  19.266   6.909  1.00  0.00    +0.000 N 
ATOM     92  H1  UNL A   1      49.376  18.642   6.707  1.00  0.00    +0.000 H 
BRANCH    3    4
ATOM      4  C2  UNL A   1      47.333  18.866   6.421  1.00  0.00    +0.000 C 
ATOM     93  H2  UNL A   1      47.093  19.455   5.561  1.00  0.00    +0.000 H 
ATOM     94  H3  UNL A   1      46.630  19.022   7.211  1.00  0.00    +0.000 H 
BRANCH    4    5
ATOM      5  C3  UNL A   1      47.282  17.391   6.036  1.00  0.00    +0.000 C 
ATOM     95  H4  UNL A   1      46.482  16.934   6.581  1.00  0.00    +0.000 H 
ATOM     96  H5  UNL A   1      48.245  16.988   6.274  1.00  0.00    +0.000 H 
BRANCH    5    6
ATOM     97  H6  UNL A   1      46.252  16.420   4.459  1.00  0.00    +0.000 H 
ATOM     98  H7  UNL A   1      47.992  16.745   4.175  1.00  0.00    +0.000 H 
ATOM      6  C4  UNL A   1      47.060  17.116   4.548  1.00  0.00    +0.000 C 
BRANCH    6    7
ATOM     99  H8  UNL A   1      47.207  18.221   2.745  1.00  0.00    +0.000 H 
ATOM    100  H9  UNL A   1      47.065  19.188   4.249  1.00  0.00    +0.000 H 
ATOM      7  C5  UNL A   1      46.724  18.341   3.692  1.00  0.00    +0.000 C 
BRANCH    7    8
ATOM    101  H10 UNL A   1      44.785  18.900   4.353  1.00  0.00    +0.000 H 
ATOM    102  H11 UNL A   1      44.843  17.654   3.069  1.00  0.00    +0.000 H 
ATOM      8  C6  UNL A   1      45.233  18.580   3.435  1.00  0.00    +0.000 C 
BRANCH    8    9
ATOM      9  C7  UNL A   1      44.918  19.625   2.366  1.00  0.00    +0.000 C 
ATOM    103  H12 UNL A   1      45.792  19.784   1.771  1.00  0.00    +0.000 H 
ATOM    104  H13 UNL A   1      44.620  20.525   2.863  1.00  0.00    +0.000 H 
BRANCH    9   10
ATOM    105  H14 UNL A   1      43.949  18.338   1.057  1.00  0.00    +0.000 H 
ATOM     10  N2  UNL A   1      43.829  19.209   1.500  1.00  0.00    +0.000 N 
BRANCH   10   11
ATOM     11  C8  UNL A   1      42.658  19.862   1.216  1.00  0.00    +0.000 C 
ATOM     12  O2  UNL A   1      42.617  20.689   0.312  1.00  0.00    +0.000 O 
BRANCH   11   13
ATOM    106  H15 UNL A   1      42.334  17.976   3.060  1.00  0.00    +0.000 H 
ATOM    107  H16 UNL A   1      40.355  17.494   4.382  1.00  0.00    +0.000 H 
ATOM    108  H17 UNL A   1      38.344  18.806   4.078  1.00  0.00    +0.000 H 
ATOM     13  C9  UNL A   1      41.440  19.571   2.000  1.00  0.00    +0.000 C 
ATOM     14  C10 UNL A   1      41.474  18.533   2.932  1.00  0.00    +0.000 C 
ATOM     15  C11 UNL A   1      40.338  18.254   3.685  1.00  0.00    +0.000 C 
ATOM     16  C12 UNL A   1      39.173  19.006   3.497  1.00  0.00    +0.000 C 
ATOM     17  C13 UNL A   1      39.109  20.023   2.535  1.00  0.00    +0.000 C 
ATOM    114  H23 UNL A   1      40.237  21.034   1.066  1.00  0.00    +0.000 H 
ATOM     28  C20 UNL A   1      40.259  20.294   1.786  1.00  0.00    +0.000 C 
BRANCH   17   18
ATOM     18  N3  UNL A   1      37.970  20.836   2.335  1.00  0.00    +0.000 N 
ATOM    109  H18 UNL A   1      37.557  21.200   3.151  1.00  0.00    +0.000 H 
BRANCH   18   19
ATOM    110  H19 UNL A   1      35.393  21.121   1.918  1.00  0.00    +0.000 H 
ATOM    111  H20 UNL A   1      34.297  21.919  -0.092  1.00  0.00    +0.000 H 
ATOM    112  H21 UNL A   1      38.026  22.146  -2.034  1.00  0.00    +0.000 H 
ATOM    113  H22 UNL A   1      39.116  21.355  -0.017  1.00  0.00    +0.000 H 
ATOM     19  C14 UNL A   1      37.348  21.192   1.124  1.00  0.00    +0.000 C 
ATOM     20  C15 UNL A   1      35.957  21.349   1.083  1.00  0.00    +0.000 C 
ATOM     21  C16 UNL A   1      35.323  21.808  -0.073  1.00  0.00    +0.000 C 
ATOM     22  C17 UNL A   1      36.082  22.116  -1.206  1.00  0.00    +0.000 C 
ATOM     26  C18 UNL A   1      37.468  21.940  -1.191  1.00  0.00    +0.000 C 
ATOM     27  C19 UNL A   1      38.092  21.482  -0.028  1.00  0.00    +0.000 C 
BRANCH   22   23
ATOM     25  O4  UNL A   1      34.064  22.706  -2.473  1.00  0.00    +0.000 O 
ATOM     23  N4  UNL A   1      35.435  22.642  -2.386  1.00  0.00    +0.000 N 
ATOM     24  O3  UNL A   1      36.083  23.016  -3.341  1.00  0.00    +0.000 O 
ENDBRANCH   22   23
ENDBRANCH   18   19
ENDBRANCH   17   18
ENDBRANCH   11   13
ENDBRANCH   10   11
ENDBRANCH    9   10
ENDBRANCH    8    9
ENDBRANCH    7    8
ENDBRANCH    6    7
ENDBRANCH    5    6
ENDBRANCH    4    5
ENDBRANCH    3    4
ENDBRANCH    2    3
ENDBRANCH   29    2
ENDBRANCH   33   32
BRANCH   37   38
ATOM     38  C29 UNL A   1      52.432  22.468  17.146  1.00  0.00    +0.000 C 
ATOM     39  C30 UNL A   1      51.623  21.830  18.097  1.00  0.00    +0.000 C 
ATOM     40  F1  UNL A   1      51.662  20.495  18.230  1.00  0.00    +0.000 F 
ATOM     41  C31 UNL A   1      50.736  22.557  18.889  1.00  0.00    +0.000 C 
ATOM     42  F2  UNL A   1      49.935  21.918  19.753  1.00  0.00    +0.000 F 
ATOM     43  C32 UNL A   1      50.666  23.937  18.770  1.00  0.00    +0.000 C 
ATOM     44  F3  UNL A   1      49.811  24.633  19.531  1.00  0.00    +0.000 F 
ATOM     45  C33 UNL A   1      51.475  24.591  17.855  1.00  0.00    +0.000 C 
ATOM     46  F4  UNL A   1      51.418  25.927  17.746  1.00  0.00    +0.000 F 
ATOM     47  C34 UNL A   1      52.343  23.865  17.043  1.00  0.00    +0.000 C 
ATOM     48  F5  UNL A   1      53.099  24.527  16.155  1.00  0.00    +0.000 F 
ENDBRANCH   37   38
BRANCH   54   55
ATOM     65  F10 UNL A   1      58.740  17.774  17.968  1.00  0.00    +0.000 F 
ATOM     55  C40 UNL A   1      59.211  20.045  17.433  1.00  0.00    +0.000 C 
ATOM     56  C41 UNL A   1      59.991  21.179  17.693  1.00  0.00    +0.000 C 
ATOM     57  F6  UNL A   1      59.798  22.307  16.993  1.00  0.00    +0.000 F 
ATOM     58  C42 UNL A   1      60.992  21.151  18.661  1.00  0.00    +0.000 C 
ATOM     59  F7  UNL A   1      61.745  22.238  18.876  1.00  0.00    +0.000 F 
ATOM     60  C43 UNL A   1      61.212  19.998  19.401  1.00  0.00    +0.000 C 
ATOM     61  F8  UNL A   1      62.165  19.977  20.344  1.00  0.00    +0.000 F 
ATOM     62  C44 UNL A   1      60.448  18.866  19.162  1.00  0.00    +0.000 C 
ATOM     63  F9  UNL A   1      60.652  17.755  19.885  1.00  0.00    +0.000 F 
ATOM     64  C45 UNL A   1      59.463  18.884  18.180  1.00  0.00    +0.000 C 
ENDBRANCH   54   55
BRANCH   69   70
ATOM     70  C49 UNL A   1      58.604  17.797  10.848  1.00  0.00    +0.000 C 
ATOM     71  C50 UNL A   1      58.740  16.406  10.765  1.00  0.00    +0.000 C 
ATOM     72  F11 UNL A   1      58.086  15.618  11.629  1.00  0.00    +0.000 F 
ATOM     73  C51 UNL A   1      59.557  15.822   9.800  1.00  0.00    +0.000 C 
ATOM     74  F12 UNL A   1      59.684  14.489   9.750  1.00  0.00    +0.000 F 
ATOM     75  C52 UNL A   1      60.236  16.617   8.888  1.00  0.00    +0.000 C 
ATOM     76  F13 UNL A   1      61.005  16.053   7.946  1.00  0.00    +0.000 F 
ATOM     77  C53 UNL A   1      60.117  17.997   8.952  1.00  0.00    +0.000 C 
ATOM     78  F14 UNL A   1      60.757  18.768   8.063  1.00  0.00    +0.000 F 
ATOM     79  C54 UNL A   1      59.320  18.583   9.933  1.00  0.00    +0.000 C 
ATOM     80  F15 UNL A   1      59.213  19.919   9.967  1.00  0.00    +0.000 F 
ENDBRANCH   69   70
TORSDOF 18
ENDMDL
MODEL 6
REMARK VINA RESULT:      -9.5     19.292     24.492
ROOT
ATOM     33  C25 UNL A   1      14.224  53.843   5.147  1.00  0.00    +0.000 C 
ATOM     34  C26 UNL A   1      15.172  54.315   4.085  1.00  0.00    +0.000 C 
ATOM     35  N5  UNL A   1      15.680  53.652   3.076  1.00  0.00    +0.000 N 
ATOM     36  C27 UNL A   1      16.466  54.562   2.383  1.00  0.00    +0.000 C 
ATOM     37  C28 UNL A   1      17.217  54.352   1.274  1.00  0.00    +0.000 C 
ATOM     49  C35 UNL A   1      17.336  53.082   0.605  1.00  0.00    +0.000 C 
ATOM     50  C36 UNL A   1      18.115  52.752  -0.490  1.00  0.00    +0.000 C 
ATOM     51  C37 UNL A   1      17.858  51.418  -0.825  1.00  0.00    +0.000 C 
ATOM     52  C38 UNL A   1      16.956  50.902   0.092  1.00  0.00    +0.000 C 
ATOM     53  N6  UNL A   1      16.644  51.933   0.964  1.00  0.00    +0.000 N 
ATOM     54  C39 UNL A   1      16.414  49.567   0.162  1.00  0.00    +0.000 C 
ATOM     66  C46 UNL A   1      15.551  49.124   1.109  1.00  0.00    +0.000 C 
ATOM     67  N7  UNL A   1      15.015  49.813   2.187  1.00  0.00    +0.000 N 
ATOM     68  C47 UNL A   1      14.242  48.960   2.812  1.00  0.00    +0.000 C 
ATOM     69  C48 UNL A   1      13.426  49.164   4.054  1.00  0.00    +0.000 C 
ATOM     81  C55 UNL A   1      13.483  50.346   4.694  1.00  0.00    +0.000 C 
ATOM     82  C56 UNL A   1      12.731  50.687   5.898  1.00  0.00    +0.000 C 
ATOM     83  C57 UNL A   1      12.918  51.985   6.174  1.00  0.00    +0.000 C 
ATOM     84  C58 UNL A   1      13.846  52.553   5.195  1.00  0.00    +0.000 C 
ATOM     85  N8  UNL A   1      14.177  51.491   4.390  1.00  0.00    +0.000 N 
ATOM     86  C59 UNL A   1      14.181  47.632   2.187  1.00  0.00    +0.000 C 
ATOM     87  C60 UNL A   1      15.016  47.778   1.166  1.00  0.00    +0.000 C 
ATOM     88  C61 UNL A   1      16.350  55.830   3.072  1.00  0.00    +0.000 C 
ATOM     89  C62 UNL A   1      15.597  55.720   4.157  1.00  0.00    +0.000 C 
ATOM    117  H26 UNL A   1      18.773  53.382  -0.976  1.00  0.00    +0.000 H 
ATOM    118  H27 UNL A   1      18.269  50.906  -1.620  1.00  0.00    +0.000 H 
ATOM    119  H28 UNL A   1      16.024  51.861   1.726  1.00  0.00    +0.000 H 
ATOM    120  H29 UNL A   1      12.151  50.033   6.448  1.00  0.00    +0.000 H 
ATOM    121  H30 UNL A   1      12.479  52.502   6.951  1.00  0.00    +0.000 H 
ATOM    122  H31 UNL A   1      14.844  51.545   3.668  1.00  0.00    +0.000 H 
ATOM    123  H32 UNL A   1      13.634  46.803   2.468  1.00  0.00    +0.000 H 
ATOM    124  H33 UNL A   1      15.254  47.029   0.497  1.00  0.00    +0.000 H 
ATOM    125  H34 UNL A   1      16.796  56.707   2.758  1.00  0.00    +0.000 H 
ATOM    126  H35 UNL A   1      15.369  56.433   4.867  1.00  0.00    +0.000 H 
ENDROOT
BRANCH   33   32
ATOM    127  H36 UNL A   1      11.896  55.190   5.035  1.00  0.00    +0.000 H 
ATOM     32  C24 UNL A   1      13.661  54.796   6.134  1.00  0.00    +0.000 C 
ATOM    115  H24 UNL A   1      14.247  56.036   9.199  1.00  0.00    +0.000 H 
ATOM    116  H25 UNL A   1      15.266  54.633   7.503  1.00  0.00    +0.000 H 
ATOM     90  C63 UNL A   1      12.416  55.403   5.901  1.00  0.00    +0.000 C 
ATOM     91  C64 UNL A   1      11.881  56.291   6.834  1.00  0.00    +0.000 C 
ATOM     29  C21 UNL A   1      12.572  56.556   8.019  1.00  0.00    +0.000 C 
ATOM     30  C22 UNL A   1      13.777  55.899   8.289  1.00  0.00    +0.000 C 
ATOM     31  C23 UNL A   1      14.342  55.060   7.332  1.00  0.00    +0.000 C 
ATOM    128  H37 UNL A   1      10.976  56.753   6.649  1.00  0.00    +0.000 H 
BRANCH   29    2
ATOM      1  O1  UNL A   1      12.398  58.655   9.047  1.00  0.00    +0.000 O 
ATOM      2  C1  UNL A   1      11.981  57.500   8.990  1.00  0.00    +0.000 C 
BRANCH    2    3
ATOM      3  N1  UNL A   1      10.981  57.089   9.833  1.00  0.00    +0.000 N 
ATOM     92  H1  UNL A   1      10.067  57.317   9.544  1.00  0.00    +0.000 H 
BRANCH    3    4
ATOM      4  C2  UNL A   1      11.075  56.366  11.089  1.00  0.00    +0.000 C 
ATOM     93  H2  UNL A   1      10.185  56.543  11.655  1.00  0.00    +0.000 H 
ATOM     94  H3  UNL A   1      11.943  56.718  11.603  1.00  0.00    +0.000 H 
BRANCH    4    5
ATOM      5  C3  UNL A   1      11.235  54.863  10.883  1.00  0.00    +0.000 C 
ATOM     95  H4  UNL A   1      11.152  54.661   9.834  1.00  0.00    +0.000 H 
ATOM     96  H5  UNL A   1      10.468  54.398  11.468  1.00  0.00    +0.000 H 
BRANCH    5    6
ATOM     97  H6  UNL A   1      12.403  53.888  12.359  1.00  0.00    +0.000 H 
ATOM     98  H7  UNL A   1      13.268  55.078  11.334  1.00  0.00    +0.000 H 
ATOM      6  C4  UNL A   1      12.560  54.277  11.374  1.00  0.00    +0.000 C 
BRANCH    6    7
ATOM     99  H8  UNL A   1      13.119  53.477   9.492  1.00  0.00    +0.000 H 
ATOM    100  H9  UNL A   1      12.548  52.291  10.710  1.00  0.00    +0.000 H 
ATOM      7  C5  UNL A   1      13.146  53.155  10.512  1.00  0.00    +0.000 C 
BRANCH    7    8
ATOM    101  H10 UNL A   1      15.222  53.587  10.626  1.00  0.00    +0.000 H 
ATOM    102  H11 UNL A   1      14.798  51.891  10.241  1.00  0.00    +0.000 H 
ATOM      8  C6  UNL A   1      14.588  52.752  10.840  1.00  0.00    +0.000 C 
BRANCH    8    9
ATOM      9  C7  UNL A   1      14.831  52.331  12.287  1.00  0.00    +0.000 C 
ATOM    103  H12 UNL A   1      13.896  52.055  12.728  1.00  0.00    +0.000 H 
ATOM    104  H13 UNL A   1      15.272  53.160  12.803  1.00  0.00    +0.000 H 
BRANCH    9   10
ATOM    105  H14 UNL A   1      15.763  50.747  13.252  1.00  0.00    +0.000 H 
ATOM     10  N2  UNL A   1      15.746  51.207  12.383  1.00  0.00    +0.000 N 
BRANCH   10   11
ATOM     11  C8  UNL A   1      16.587  50.700  11.427  1.00  0.00    +0.000 C 
ATOM     12  O2  UNL A   1      17.717  51.158  11.294  1.00  0.00    +0.000 O 
BRANCH   11   13
ATOM    106  H15 UNL A   1      17.855  49.675   9.328  1.00  0.00    +0.000 H 
ATOM    107  H16 UNL A   1      17.148  47.849   7.892  1.00  0.00    +0.000 H 
ATOM    108  H17 UNL A   1      15.038  46.737   8.296  1.00  0.00    +0.000 H 
ATOM     13  C9  UNL A   1      16.135  49.598  10.553  1.00  0.00    +0.000 C 
ATOM     14  C10 UNL A   1      16.954  49.200   9.497  1.00  0.00    +0.000 C 
ATOM     15  C11 UNL A   1      16.546  48.157   8.672  1.00  0.00    +0.000 C 
ATOM     16  C12 UNL A   1      15.319  47.524   8.899  1.00  0.00    +0.000 C 
ATOM     17  C13 UNL A   1      14.464  47.941   9.929  1.00  0.00    +0.000 C 
ATOM    114  H23 UNL A   1      14.275  49.320  11.515  1.00  0.00    +0.000 H 
ATOM     28  C20 UNL A   1      14.888  48.990  10.753  1.00  0.00    +0.000 C 
BRANCH   17   18
ATOM     18  N3  UNL A   1      13.235  47.310  10.224  1.00  0.00    +0.000 N 
ATOM    109  H18 UNL A   1      13.248  46.684  10.985  1.00  0.00    +0.000 H 
BRANCH   18   19
ATOM    110  H19 UNL A   1      11.217  45.630  10.294  1.00  0.00    +0.000 H 
ATOM    111  H20 UNL A   1       9.003  45.933   9.355  1.00  0.00    +0.000 H 
ATOM    112  H21 UNL A   1      10.206  49.620   7.715  1.00  0.00    +0.000 H 
ATOM    113  H22 UNL A   1      12.416  49.313   8.665  1.00  0.00    +0.000 H 
ATOM     19  C14 UNL A   1      11.994  47.457   9.576  1.00  0.00    +0.000 C 
ATOM     20  C15 UNL A   1      11.003  46.484   9.756  1.00  0.00    +0.000 C 
ATOM     21  C16 UNL A   1       9.726  46.656   9.216  1.00  0.00    +0.000 C 
ATOM     22  C17 UNL A   1       9.431  47.811   8.485  1.00  0.00    +0.000 C 
ATOM     26  C18 UNL A   1      10.417  48.778   8.272  1.00  0.00    +0.000 C 
ATOM     27  C19 UNL A   1      11.690  48.596   8.820  1.00  0.00    +0.000 C 
BRANCH   22   23
ATOM     25  O4  UNL A   1       7.538  49.273   7.936  1.00  0.00    +0.000 O 
ATOM     23  N4  UNL A   1       8.097  48.017   7.971  1.00  0.00    +0.000 N 
ATOM     24  O3  UNL A   1       7.425  47.084   7.582  1.00  0.00    +0.000 O 
ENDBRANCH   22   23
ENDBRANCH   18   19
ENDBRANCH   17   18
ENDBRANCH   11   13
ENDBRANCH   10   11
ENDBRANCH    9   10
ENDBRANCH    8    9
ENDBRANCH    7    8
ENDBRANCH    6    7
ENDBRANCH    5    6
ENDBRANCH    4    5
ENDBRANCH    3    4
ENDBRANCH    2    3
ENDBRANCH   29    2
ENDBRANCH   33   32
BRANCH   37   38
ATOM     38  C29 UNL A   1      17.946  55.530   0.698  1.00  0.00    +0.000 C 
ATOM     39  C30 UNL A   1      19.198  55.935   1.183  1.00  0.00    +0.000 C 
ATOM     40  F1  UNL A   1      19.767  55.285   2.211  1.00  0.00    +0.000 F 
ATOM     41  C31 UNL A   1      19.854  57.038   0.642  1.00  0.00    +0.000 C 
ATOM     42  F2  UNL A   1      21.026  57.438   1.157  1.00  0.00    +0.000 F 
ATOM     43  C32 UNL A   1      19.290  57.736  -0.416  1.00  0.00    +0.000 C 
ATOM     44  F3  UNL A   1      19.921  58.797  -0.933  1.00  0.00    +0.000 F 
ATOM     45  C33 UNL A   1      18.065  57.337  -0.928  1.00  0.00    +0.000 C 
ATOM     46  F4  UNL A   1      17.522  58.003  -1.958  1.00  0.00    +0.000 F 
ATOM     47  C34 UNL A   1      17.393  56.251  -0.371  1.00  0.00    +0.000 C 
ATOM     48  F5  UNL A   1      16.202  55.902  -0.877  1.00  0.00    +0.000 F 
ENDBRANCH   37   38
BRANCH   54   55
ATOM     65  F10 UNL A   1      14.962  49.074  -2.227  1.00  0.00    +0.000 F 
ATOM     55  C40 UNL A   1      16.861  48.584  -0.878  1.00  0.00    +0.000 C 
ATOM     56  C41 UNL A   1      18.019  47.814  -0.710  1.00  0.00    +0.000 C 
ATOM     57  F6  UNL A   1      18.805  48.002   0.361  1.00  0.00    +0.000 F 
ATOM     58  C42 UNL A   1      18.387  46.862  -1.657  1.00  0.00    +0.000 C 
ATOM     59  F7  UNL A   1      19.513  46.154  -1.491  1.00  0.00    +0.000 F 
ATOM     60  C43 UNL A   1      17.592  46.646  -2.773  1.00  0.00    +0.000 C 
ATOM     61  F8  UNL A   1      17.938  45.717  -3.675  1.00  0.00    +0.000 F 
ATOM     62  C44 UNL A   1      16.439  47.394  -2.956  1.00  0.00    +0.000 C 
ATOM     63  F9  UNL A   1      15.663  47.179  -4.028  1.00  0.00    +0.000 F 
ATOM     64  C45 UNL A   1      16.081  48.363  -2.023  1.00  0.00    +0.000 C 
ENDBRANCH   54   55
BRANCH   69   70
ATOM     70  C49 UNL A   1      12.554  48.094   4.599  1.00  0.00    +0.000 C 
ATOM     71  C50 UNL A   1      13.043  47.170   5.530  1.00  0.00    +0.000 C 
ATOM     72  F11 UNL A   1      14.337  47.195   5.880  1.00  0.00    +0.000 F 
ATOM     73  C51 UNL A   1      12.206  46.211   6.096  1.00  0.00    +0.000 C 
ATOM     74  F12 UNL A   1      12.702  45.326   6.972  1.00  0.00    +0.000 F 
ATOM     75  C52 UNL A   1      10.862  46.171   5.756  1.00  0.00    +0.000 C 
ATOM     76  F13 UNL A   1      10.053  45.262   6.318  1.00  0.00    +0.000 F 
ATOM     77  C53 UNL A   1      10.356  47.076   4.835  1.00  0.00    +0.000 C 
ATOM     78  F14 UNL A   1       9.054  47.054   4.518  1.00  0.00    +0.000 F 
ATOM     79  C54 UNL A   1      11.197  48.020   4.251  1.00  0.00    +0.000 C 
ATOM     80  F15 UNL A   1      10.681  48.891   3.371  1.00  0.00    +0.000 F 
ENDBRANCH   69   70
TORSDOF 18
ENDMDL
MODEL 7
REMARK VINA RESULT:      -9.5     36.919     46.273
ROOT
ATOM     33  C25 UNL A   1      53.962  19.364  11.659  1.00  0.00    +0.000 C 
ATOM     34  C26 UNL A   1      55.324  18.742  11.568  1.00  0.00    +0.000 C 
ATOM     35  N5  UNL A   1      56.305  18.769  12.435  1.00  0.00    +0.000 N 
ATOM     36  C27 UNL A   1      57.324  18.011  11.877  1.00  0.00    +0.000 C 
ATOM     37  C28 UNL A   1      58.557  17.757  12.380  1.00  0.00    +0.000 C 
ATOM     49  C35 UNL A   1      59.038  18.265  13.639  1.00  0.00    +0.000 C 
ATOM     50  C36 UNL A   1      60.289  18.112  14.211  1.00  0.00    +0.000 C 
ATOM     51  C37 UNL A   1      60.274  18.729  15.467  1.00  0.00    +0.000 C 
ATOM     52  C38 UNL A   1      59.030  19.309  15.657  1.00  0.00    +0.000 C 
ATOM     53  N6  UNL A   1      58.281  19.017  14.528  1.00  0.00    +0.000 N 
ATOM     54  C39 UNL A   1      58.558  20.068  16.788  1.00  0.00    +0.000 C 
ATOM     66  C46 UNL A   1      57.330  20.632  16.893  1.00  0.00    +0.000 C 
ATOM     67  N7  UNL A   1      56.287  20.618  15.977  1.00  0.00    +0.000 N 
ATOM     68  C47 UNL A   1      55.314  21.299  16.530  1.00  0.00    +0.000 C 
ATOM     69  C48 UNL A   1      53.955  21.616  15.978  1.00  0.00    +0.000 C 
ATOM     81  C55 UNL A   1      53.640  21.217  14.732  1.00  0.00    +0.000 C 
ATOM     82  C56 UNL A   1      52.353  21.440  14.079  1.00  0.00    +0.000 C 
ATOM     83  C57 UNL A   1      52.341  20.785  12.910  1.00  0.00    +0.000 C 
ATOM     84  C58 UNL A   1      53.639  20.140  12.709  1.00  0.00    +0.000 C 
ATOM     85  N8  UNL A   1      54.368  20.502  13.814  1.00  0.00    +0.000 N 
ATOM     86  C59 UNL A   1      55.621  21.808  17.874  1.00  0.00    +0.000 C 
ATOM     87  C60 UNL A   1      56.870  21.393  18.037  1.00  0.00    +0.000 C 
ATOM     88  C61 UNL A   1      56.835  17.517  10.607  1.00  0.00    +0.000 C 
ATOM     89  C62 UNL A   1      55.620  17.978  10.348  1.00  0.00    +0.000 C 
ATOM    117  H26 UNL A   1      61.094  17.627  13.785  1.00  0.00    +0.000 H 
ATOM    118  H27 UNL A   1      61.057  18.748  16.139  1.00  0.00    +0.000 H 
ATOM    119  H28 UNL A   1      57.351  19.302  14.377  1.00  0.00    +0.000 H 
ATOM    120  H29 UNL A   1      51.580  22.010  14.456  1.00  0.00    +0.000 H 
ATOM    121  H30 UNL A   1      51.544  20.741  12.256  1.00  0.00    +0.000 H 
ATOM    122  H31 UNL A   1      55.319  20.271  13.937  1.00  0.00    +0.000 H 
ATOM    123  H32 UNL A   1      55.022  22.345  18.520  1.00  0.00    +0.000 H 
ATOM    124  H33 UNL A   1      57.443  21.588  18.874  1.00  0.00    +0.000 H 
ATOM    125  H34 UNL A   1      57.365  16.887   9.983  1.00  0.00    +0.000 H 
ATOM    126  H35 UNL A   1      55.034  17.836   9.510  1.00  0.00    +0.000 H 
ENDROOT
BRANCH   33   32
ATOM    127  H36 UNL A   1      52.234  17.307  11.486  1.00  0.00    +0.000 H 
ATOM     32  C24 UNL A   1      52.941  19.101  10.616  1.00  0.00    +0.000 C 
ATOM    115  H24 UNL A   1      51.561  20.508   7.897  1.00  0.00    +0.000 H 
ATOM    116  H25 UNL A   1      53.362  20.840   9.486  1.00  0.00    +0.000 H 
ATOM     90  C63 UNL A   1      52.120  17.965  10.700  1.00  0.00    +0.000 C 
ATOM     91  C64 UNL A   1      51.152  17.723   9.724  1.00  0.00    +0.000 C 
ATOM     29  C21 UNL A   1      50.979  18.631   8.676  1.00  0.00    +0.000 C 
ATOM     30  C22 UNL A   1      51.743  19.801   8.628  1.00  0.00    +0.000 C 
ATOM     31  C23 UNL A   1      52.752  20.012   9.565  1.00  0.00    +0.000 C 
ATOM    128  H37 UNL A   1      50.566  16.875   9.776  1.00  0.00    +0.000 H 
BRANCH   29    2
ATOM      1  O1  UNL A   1      49.894  17.242   7.131  1.00  0.00    +0.000 O 
ATOM      2  C1  UNL A   1      49.945  18.351   7.657  1.00  0.00    +0.000 C 
BRANCH    2    3
ATOM      3  N1  UNL A   1      49.054  19.326   7.291  1.00  0.00    +0.000 N 
ATOM     92  H1  UNL A   1      48.604  19.787   8.036  1.00  0.00    +0.000 H 
BRANCH    3    4
ATOM      4  C2  UNL A   1      48.678  19.777   5.962  1.00  0.00    +0.000 C 
ATOM     93  H2  UNL A   1      49.314  19.301   5.245  1.00  0.00    +0.000 H 
ATOM     94  H3  UNL A   1      48.785  20.841   5.937  1.00  0.00    +0.000 H 
BRANCH    4    5
ATOM      5  C3  UNL A   1      47.227  19.448   5.626  1.00  0.00    +0.000 C 
ATOM     95  H4  UNL A   1      47.131  19.424   4.560  1.00  0.00    +0.000 H 
ATOM     96  H5  UNL A   1      46.633  20.208   6.090  1.00  0.00    +0.000 H 
BRANCH    5    6
ATOM     97  H6  UNL A   1      45.893  18.320   6.826  1.00  0.00    +0.000 H 
ATOM     98  H7  UNL A   1      47.554  17.663   6.672  1.00  0.00    +0.000 H 
ATOM      6  C4  UNL A   1      46.719  18.115   6.177  1.00  0.00    +0.000 C 
BRANCH    6    7
ATOM     99  H8  UNL A   1      45.198  16.974   5.238  1.00  0.00    +0.000 H 
ATOM    100  H9  UNL A   1      46.819  16.210   5.313  1.00  0.00    +0.000 H 
ATOM      7  C5  UNL A   1      46.255  17.100   5.128  1.00  0.00    +0.000 C 
BRANCH    7    8
ATOM    101  H10 UNL A   1      47.060  16.666   3.213  1.00  0.00    +0.000 H 
ATOM    102  H11 UNL A   1      47.098  18.387   3.703  1.00  0.00    +0.000 H 
ATOM      8  C6  UNL A   1      46.535  17.479   3.670  1.00  0.00    +0.000 C 
BRANCH    8    9
ATOM      9  C7  UNL A   1      45.297  17.777   2.827  1.00  0.00    +0.000 C 
ATOM    103  H12 UNL A   1      44.438  17.372   3.320  1.00  0.00    +0.000 H 
ATOM    104  H13 UNL A   1      45.438  17.330   1.865  1.00  0.00    +0.000 H 
BRANCH    9   10
ATOM    105  H14 UNL A   1      45.801  19.663   2.121  1.00  0.00    +0.000 H 
ATOM     10  N2  UNL A   1      45.099  19.203   2.635  1.00  0.00    +0.000 N 
BRANCH   10   11
ATOM     11  C8  UNL A   1      44.068  19.995   3.070  1.00  0.00    +0.000 C 
ATOM     12  O2  UNL A   1      44.302  21.012   3.715  1.00  0.00    +0.000 O 
BRANCH   11   13
ATOM    106  H15 UNL A   1      42.398  18.591   4.587  1.00  0.00    +0.000 H 
ATOM    107  H16 UNL A   1      40.092  17.992   4.122  1.00  0.00    +0.000 H 
ATOM    108  H17 UNL A   1      39.055  18.679   2.047  1.00  0.00    +0.000 H 
ATOM     13  C9  UNL A   1      42.671  19.624   2.764  1.00  0.00    +0.000 C 
ATOM     14  C10 UNL A   1      41.954  18.881   3.702  1.00  0.00    +0.000 C 
ATOM     15  C11 UNL A   1      40.634  18.534   3.432  1.00  0.00    +0.000 C 
ATOM     16  C12 UNL A   1      40.041  18.922   2.226  1.00  0.00    +0.000 C 
ATOM     17  C13 UNL A   1      40.762  19.631   1.255  1.00  0.00    +0.000 C 
ATOM    114  H23 UNL A   1      42.643  20.492   0.839  1.00  0.00    +0.000 H 
ATOM     28  C20 UNL A   1      42.088  19.975   1.539  1.00  0.00    +0.000 C 
BRANCH   17   18
ATOM     18  N3  UNL A   1      40.198  20.079   0.039  1.00  0.00    +0.000 N 
ATOM    109  H18 UNL A   1      40.669  19.798  -0.779  1.00  0.00    +0.000 H 
BRANCH   18   19
ATOM    110  H19 UNL A   1      40.133  22.530  -0.904  1.00  0.00    +0.000 H 
ATOM    111  H20 UNL A   1      38.178  23.860  -1.439  1.00  0.00    +0.000 H 
ATOM    112  H21 UNL A   1      35.692  20.788   0.016  1.00  0.00    +0.000 H 
ATOM    113  H22 UNL A   1      37.652  19.460   0.540  1.00  0.00    +0.000 H 
ATOM     19  C14 UNL A   1      39.054  20.875  -0.157  1.00  0.00    +0.000 C 
ATOM     20  C15 UNL A   1      39.190  22.152  -0.718  1.00  0.00    +0.000 C 
ATOM     21  C16 UNL A   1      38.065  22.921  -1.026  1.00  0.00    +0.000 C 
ATOM     22  C17 UNL A   1      36.787  22.414  -0.773  1.00  0.00    +0.000 C 
ATOM     26  C18 UNL A   1      36.635  21.154  -0.190  1.00  0.00    +0.000 C 
ATOM     27  C19 UNL A   1      37.767  20.393   0.112  1.00  0.00    +0.000 C 
BRANCH   22   23
ATOM     25  O4  UNL A   1      35.692  24.156  -2.111  1.00  0.00    +0.000 O 
ATOM     23  N4  UNL A   1      35.622  23.184  -1.141  1.00  0.00    +0.000 N 
ATOM     24  O3  UNL A   1      34.557  23.013  -0.584  1.00  0.00    +0.000 O 
ENDBRANCH   22   23
ENDBRANCH   18   19
ENDBRANCH   17   18
ENDBRANCH   11   13
ENDBRANCH   10   11
ENDBRANCH    9   10
ENDBRANCH    8    9
ENDBRANCH    7    8
ENDBRANCH    6    7
ENDBRANCH    5    6
ENDBRANCH    4    5
ENDBRANCH    3    4
ENDBRANCH    2    3
ENDBRANCH   29    2
ENDBRANCH   33   32
BRANCH   37   38
ATOM     38  C29 UNL A   1      59.461  16.864  11.582  1.00  0.00    +0.000 C 
ATOM     39  C30 UNL A   1      60.354  17.376  10.630  1.00  0.00    +0.000 C 
ATOM     40  F1  UNL A   1      60.399  18.696  10.386  1.00  0.00    +0.000 F 
ATOM     41  C31 UNL A   1      61.178  16.530   9.891  1.00  0.00    +0.000 C 
ATOM     42  F2  UNL A   1      61.986  17.038   8.949  1.00  0.00    +0.000 F 
ATOM     43  C32 UNL A   1      61.150  15.161  10.113  1.00  0.00    +0.000 C 
ATOM     44  F3  UNL A   1      61.942  14.349   9.400  1.00  0.00    +0.000 F 
ATOM     45  C33 UNL A   1      60.294  14.636  11.067  1.00  0.00    +0.000 C 
ATOM     46  F4  UNL A   1      60.273  13.314  11.292  1.00  0.00    +0.000 F 
ATOM     47  C34 UNL A   1      59.449  15.476  11.788  1.00  0.00    +0.000 C 
ATOM     48  F5  UNL A   1      58.619  14.934  12.692  1.00  0.00    +0.000 F 
ENDBRANCH   37   38
BRANCH   54   55
ATOM     65  F10 UNL A   1      58.933  18.160  18.856  1.00  0.00    +0.000 F 
ATOM     55  C40 UNL A   1      59.510  20.275  17.928  1.00  0.00    +0.000 C 
ATOM     56  C41 UNL A   1      60.253  21.455  18.058  1.00  0.00    +0.000 C 
ATOM     57  F6  UNL A   1      60.187  22.403  17.111  1.00  0.00    +0.000 F 
ATOM     58  C42 UNL A   1      61.086  21.656  19.156  1.00  0.00    +0.000 C 
ATOM     59  F7  UNL A   1      61.809  22.781  19.249  1.00  0.00    +0.000 F 
ATOM     60  C43 UNL A   1      61.172  20.694  20.151  1.00  0.00    +0.000 C 
ATOM     61  F8  UNL A   1      61.963  20.896  21.215  1.00  0.00    +0.000 F 
ATOM     62  C44 UNL A   1      60.442  19.520  20.043  1.00  0.00    +0.000 C 
ATOM     63  F9  UNL A   1      60.515  18.593  21.009  1.00  0.00    +0.000 F 
ATOM     64  C45 UNL A   1      59.626  19.306  18.936  1.00  0.00    +0.000 C 
ENDBRANCH   54   55
BRANCH   69   70
ATOM     70  C49 UNL A   1      52.945  22.361  16.771  1.00  0.00    +0.000 C 
ATOM     71  C50 UNL A   1      52.700  23.718  16.533  1.00  0.00    +0.000 C 
ATOM     72  F11 UNL A   1      53.439  24.383  15.633  1.00  0.00    +0.000 F 
ATOM     73  C51 UNL A   1      51.703  24.399  17.226  1.00  0.00    +0.000 C 
ATOM     74  F12 UNL A   1      51.498  25.703  16.993  1.00  0.00    +0.000 F 
ATOM     75  C52 UNL A   1      50.919  23.730  18.155  1.00  0.00    +0.000 C 
ATOM     76  F13 UNL A   1      49.945  24.381  18.806  1.00  0.00    +0.000 F 
ATOM     77  C53 UNL A   1      51.145  22.385  18.408  1.00  0.00    +0.000 C 
ATOM     78  F14 UNL A   1      50.379  21.731  19.291  1.00  0.00    +0.000 F 
ATOM     79  C54 UNL A   1      52.159  21.710  17.732  1.00  0.00    +0.000 C 
ATOM     80  F15 UNL A   1      52.349  20.407  17.987  1.00  0.00    +0.000 F 
ENDBRANCH   69   70
TORSDOF 18
ENDMDL
MODEL 8
REMARK VINA RESULT:      -9.4     39.026     47.219
ROOT
ATOM     33  C25 UNL A   1      52.799  20.420  11.767  1.00  0.00    +0.000 C 
ATOM     34  C26 UNL A   1      52.647  21.011  13.137  1.00  0.00    +0.000 C 
ATOM     35  N5  UNL A   1      53.509  21.048  14.123  1.00  0.00    +0.000 N 
ATOM     36  C27 UNL A   1      52.879  21.737  15.149  1.00  0.00    +0.000 C 
ATOM     37  C28 UNL A   1      53.353  22.018  16.388  1.00  0.00    +0.000 C 
ATOM     49  C35 UNL A   1      54.650  21.619  16.869  1.00  0.00    +0.000 C 
ATOM     50  C36 UNL A   1      55.201  21.804  18.125  1.00  0.00    +0.000 C 
ATOM     51  C37 UNL A   1      56.508  21.304  18.109  1.00  0.00    +0.000 C 
ATOM     52  C38 UNL A   1      56.754  20.761  16.858  1.00  0.00    +0.000 C 
ATOM     53  N6  UNL A   1      55.606  20.961  16.107  1.00  0.00    +0.000 N 
ATOM     54  C39 UNL A   1      57.951  20.114  16.381  1.00  0.00    +0.000 C 
ATOM     66  C46 UNL A   1      58.112  19.580  15.146  1.00  0.00    +0.000 C 
ATOM     67  N7  UNL A   1      57.203  19.527  14.098  1.00  0.00    +0.000 N 
ATOM     68  C47 UNL A   1      57.819  18.912  13.119  1.00  0.00    +0.000 C 
ATOM     69  C48 UNL A   1      57.304  18.566  11.752  1.00  0.00    +0.000 C 
ATOM     81  C55 UNL A   1      56.029  18.856  11.436  1.00  0.00    +0.000 C 
ATOM     82  C56 UNL A   1      55.404  18.594  10.143  1.00  0.00    +0.000 C 
ATOM     83  C57 UNL A   1      54.180  19.141  10.134  1.00  0.00    +0.000 C 
ATOM     84  C58 UNL A   1      53.916  19.746  11.439  1.00  0.00    +0.000 C 
ATOM     85  N8  UNL A   1      55.046  19.475  12.169  1.00  0.00    +0.000 N 
ATOM     86  C59 UNL A   1      59.202  18.522  13.426  1.00  0.00    +0.000 C 
ATOM     87  C60 UNL A   1      59.322  18.932  14.682  1.00  0.00    +0.000 C 
ATOM     88  C61 UNL A   1      51.572  22.122  14.661  1.00  0.00    +0.000 C 
ATOM     89  C62 UNL A   1      51.361  21.658  13.437  1.00  0.00    +0.000 C 
ATOM    117  H26 UNL A   1      54.729  22.237  18.934  1.00  0.00    +0.000 H 
ATOM    118  H27 UNL A   1      57.175  21.334  18.895  1.00  0.00    +0.000 H 
ATOM    119  H28 UNL A   1      55.486  20.677  15.171  1.00  0.00    +0.000 H 
ATOM    120  H29 UNL A   1      55.834  18.072   9.364  1.00  0.00    +0.000 H 
ATOM    121  H30 UNL A   1      53.528  19.137   9.334  1.00  0.00    +0.000 H 
ATOM    122  H31 UNL A   1      55.144  19.702  13.124  1.00  0.00    +0.000 H 
ATOM    123  H32 UNL A   1      59.896  18.054  12.823  1.00  0.00    +0.000 H 
ATOM    124  H33 UNL A   1      60.170  18.805  15.256  1.00  0.00    +0.000 H 
ATOM    125  H34 UNL A   1      50.892  22.685  15.196  1.00  0.00    +0.000 H 
ATOM    126  H35 UNL A   1      50.517  21.731  12.849  1.00  0.00    +0.000 H 
ENDROOT
BRANCH   33   32
ATOM    127  H36 UNL A   1      52.592  22.342   9.894  1.00  0.00    +0.000 H 
ATOM     32  C24 UNL A   1      51.741  20.602  10.744  1.00  0.00    +0.000 C 
ATOM    115  H24 UNL A   1      49.011  19.087   9.510  1.00  0.00    +0.000 H 
ATOM    116  H25 UNL A   1      50.625  18.895  11.309  1.00  0.00    +0.000 H 
ATOM     90  C63 UNL A   1      51.808  21.674   9.840  1.00  0.00    +0.000 C 
ATOM     91  C64 UNL A   1      50.818  21.840   8.871  1.00  0.00    +0.000 C 
ATOM     29  C21 UNL A   1      49.772  20.918   8.780  1.00  0.00    +0.000 C 
ATOM     30  C22 UNL A   1      49.740  19.808   9.630  1.00  0.00    +0.000 C 
ATOM     31  C23 UNL A   1      50.692  19.676  10.638  1.00  0.00    +0.000 C 
ATOM    128  H37 UNL A   1      50.858  22.642   8.223  1.00  0.00    +0.000 H 
BRANCH   29    2
ATOM      1  O1  UNL A   1      48.338  22.251   7.493  1.00  0.00    +0.000 O 
ATOM      2  C1  UNL A   1      48.738  21.117   7.743  1.00  0.00    +0.000 C 
BRANCH    2    3
ATOM      3  N1  UNL A   1      48.218  20.041   7.070  1.00  0.00    +0.000 N 
ATOM     92  H1  UNL A   1      47.414  19.641   7.474  1.00  0.00    +0.000 H 
BRANCH    3    4
ATOM      4  C2  UNL A   1      48.684  19.407   5.849  1.00  0.00    +0.000 C 
ATOM     93  H2  UNL A   1      47.954  19.561   5.082  1.00  0.00    +0.000 H 
ATOM     94  H3  UNL A   1      48.823  18.367   6.055  1.00  0.00    +0.000 H 
BRANCH    4    5
ATOM      5  C3  UNL A   1      50.020  19.970   5.375  1.00  0.00    +0.000 C 
ATOM     95  H4  UNL A   1      50.131  20.951   5.790  1.00  0.00    +0.000 H 
ATOM     96  H5  UNL A   1      49.985  19.960   4.306  1.00  0.00    +0.000 H 
BRANCH    5    6
ATOM     97  H6  UNL A   1      52.017  19.828   6.069  1.00  0.00    +0.000 H 
ATOM     98  H7  UNL A   1      51.499  18.563   4.909  1.00  0.00    +0.000 H 
ATOM      6  C4  UNL A   1      51.248  19.148   5.770  1.00  0.00    +0.000 C 
BRANCH    6    7
ATOM     99  H8  UNL A   1      50.681  17.231   6.479  1.00  0.00    +0.000 H 
ATOM    100  H9  UNL A   1      50.338  18.608   7.577  1.00  0.00    +0.000 H 
ATOM      7  C5  UNL A   1      51.034  18.145   6.908  1.00  0.00    +0.000 C 
BRANCH    7    8
ATOM    101  H10 UNL A   1      52.260  18.454   8.614  1.00  0.00    +0.000 H 
ATOM    102  H11 UNL A   1      53.116  17.991   7.112  1.00  0.00    +0.000 H 
ATOM      8  C6  UNL A   1      52.274  17.824   7.749  1.00  0.00    +0.000 C 
BRANCH    8    9
ATOM      9  C7  UNL A   1      52.380  16.375   8.221  1.00  0.00    +0.000 C 
ATOM    103  H12 UNL A   1      51.405  15.936   8.210  1.00  0.00    +0.000 H 
ATOM    104  H13 UNL A   1      52.791  16.380   9.210  1.00  0.00    +0.000 H 
BRANCH    9   10
ATOM    105  H14 UNL A   1      53.707  14.831   7.816  1.00  0.00    +0.000 H 
ATOM     10  N2  UNL A   1      53.260  15.589   7.375  1.00  0.00    +0.000 N 
BRANCH   10   11
ATOM     11  C8  UNL A   1      53.551  15.756   6.046  1.00  0.00    +0.000 C 
ATOM     12  O2  UNL A   1      54.617  16.259   5.707  1.00  0.00    +0.000 O 
BRANCH   11   13
ATOM    106  H15 UNL A   1      54.042  15.176   3.500  1.00  0.00    +0.000 H 
ATOM    107  H16 UNL A   1      52.472  14.449   1.796  1.00  0.00    +0.000 H 
ATOM    108  H17 UNL A   1      50.128  14.193   2.338  1.00  0.00    +0.000 H 
ATOM     13  C9  UNL A   1      52.580  15.332   5.017  1.00  0.00    +0.000 C 
ATOM     14  C10 UNL A   1      53.041  15.067   3.728  1.00  0.00    +0.000 C 
ATOM     15  C11 UNL A   1      52.140  14.656   2.751  1.00  0.00    +0.000 C 
ATOM     16  C12 UNL A   1      50.783  14.521   3.064  1.00  0.00    +0.000 C 
ATOM     17  C13 UNL A   1      50.296  14.825   4.342  1.00  0.00    +0.000 C 
ATOM    114  H23 UNL A   1      50.881  15.471   6.264  1.00  0.00    +0.000 H 
ATOM     28  C20 UNL A   1      51.214  15.236   5.316  1.00  0.00    +0.000 C 
BRANCH   17   18
ATOM     18  N3  UNL A   1      48.943  14.668   4.719  1.00  0.00    +0.000 N 
ATOM    109  H18 UNL A   1      48.730  13.841   5.211  1.00  0.00    +0.000 H 
BRANCH   18   19
ATOM    110  H19 UNL A   1      47.373  15.743   6.528  1.00  0.00    +0.000 H 
ATOM    111  H20 UNL A   1      45.625  17.389   6.184  1.00  0.00    +0.000 H 
ATOM    112  H21 UNL A   1      46.275  17.207   2.028  1.00  0.00    +0.000 H 
ATOM    113  H22 UNL A   1      48.028  15.568   2.381  1.00  0.00    +0.000 H 
ATOM     19  C14 UNL A   1      47.860  15.535   4.484  1.00  0.00    +0.000 C 
ATOM     20  C15 UNL A   1      47.150  16.060   5.571  1.00  0.00    +0.000 C 
ATOM     21  C16 UNL A   1      46.142  17.008   5.376  1.00  0.00    +0.000 C 
ATOM     22  C17 UNL A   1      45.836  17.439   4.082  1.00  0.00    +0.000 C 
ATOM     26  C18 UNL A   1      46.516  16.905   2.985  1.00  0.00    +0.000 C 
ATOM     27  C19 UNL A   1      47.523  15.960   3.192  1.00  0.00    +0.000 C 
BRANCH   22   23
ATOM     25  O4  UNL A   1      45.141  19.792   4.012  1.00  0.00    +0.000 O 
ATOM     23  N4  UNL A   1      44.832  18.458   3.881  1.00  0.00    +0.000 N 
ATOM     24  O3  UNL A   1      43.685  18.163   3.619  1.00  0.00    +0.000 O 
ENDBRANCH   22   23
ENDBRANCH   18   19
ENDBRANCH   17   18
ENDBRANCH   11   13
ENDBRANCH   10   11
ENDBRANCH    9   10
ENDBRANCH    8    9
ENDBRANCH    7    8
ENDBRANCH    6    7
ENDBRANCH    5    6
ENDBRANCH    4    5
ENDBRANCH    3    4
ENDBRANCH    2    3
ENDBRANCH   29    2
ENDBRANCH   33   32
BRANCH   37   38
ATOM     38  C29 UNL A   1      52.473  22.822  17.300  1.00  0.00    +0.000 C 
ATOM     39  C30 UNL A   1      52.526  24.223  17.335  1.00  0.00    +0.000 C 
ATOM     40  F1  UNL A   1      53.401  24.885  16.562  1.00  0.00    +0.000 F 
ATOM     41  C31 UNL A   1      51.708  24.950  18.197  1.00  0.00    +0.000 C 
ATOM     42  F2  UNL A   1      51.813  26.286  18.250  1.00  0.00    +0.000 F 
ATOM     43  C32 UNL A   1      50.799  24.295  19.014  1.00  0.00    +0.000 C 
ATOM     44  F3  UNL A   1      50.015  24.996  19.843  1.00  0.00    +0.000 F 
ATOM     45  C33 UNL A   1      50.711  22.912  18.978  1.00  0.00    +0.000 C 
ATOM     46  F4  UNL A   1      49.825  22.277  19.758  1.00  0.00    +0.000 F 
ATOM     47  C34 UNL A   1      51.547  22.181  18.137  1.00  0.00    +0.000 C 
ATOM     48  F5  UNL A   1      51.450  20.843  18.138  1.00  0.00    +0.000 F 
ENDBRANCH   37   38
BRANCH   54   55
ATOM     65  F10 UNL A   1      59.701  22.271  16.968  1.00  0.00    +0.000 F 
ATOM     55  C40 UNL A   1      59.101  19.998  17.337  1.00  0.00    +0.000 C 
ATOM     56  C41 UNL A   1      59.404  18.788  17.976  1.00  0.00    +0.000 C 
ATOM     57  F6  UNL A   1      58.613  17.718  17.806  1.00  0.00    +0.000 F 
ATOM     58  C42 UNL A   1      60.512  18.681  18.812  1.00  0.00    +0.000 C 
ATOM     59  F7  UNL A   1      60.770  17.523  19.436  1.00  0.00    +0.000 F 
ATOM     60  C43 UNL A   1      61.348  19.772  19.005  1.00  0.00    +0.000 C 
ATOM     61  F8  UNL A   1      62.423  19.663  19.797  1.00  0.00    +0.000 F 
ATOM     62  C44 UNL A   1      61.068  20.977  18.378  1.00  0.00    +0.000 C 
ATOM     63  F9  UNL A   1      61.881  22.028  18.553  1.00  0.00    +0.000 F 
ATOM     64  C45 UNL A   1      59.949  21.093  17.559  1.00  0.00    +0.000 C 
ENDBRANCH   54   55
BRANCH   69   70
ATOM     70  C49 UNL A   1      58.165  17.911  10.737  1.00  0.00    +0.000 C 
ATOM     71  C50 UNL A   1      58.209  16.517  10.621  1.00  0.00    +0.000 C 
ATOM     72  F11 UNL A   1      57.530  15.752  11.488  1.00  0.00    +0.000 F 
ATOM     73  C51 UNL A   1      58.961  15.904   9.621  1.00  0.00    +0.000 C 
ATOM     74  F12 UNL A   1      59.001  14.567   9.541  1.00  0.00    +0.000 F 
ATOM     75  C52 UNL A   1      59.665  16.674   8.707  1.00  0.00    +0.000 C 
ATOM     76  F13 UNL A   1      60.370  16.084   7.733  1.00  0.00    +0.000 F 
ATOM     77  C53 UNL A   1      59.636  18.058   8.803  1.00  0.00    +0.000 C 
ATOM     78  F14 UNL A   1      60.299  18.806   7.912  1.00  0.00    +0.000 F 
ATOM     79  C54 UNL A   1      58.904  18.671   9.818  1.00  0.00    +0.000 C 
ATOM     80  F15 UNL A   1      58.884  20.010   9.883  1.00  0.00    +0.000 F 
ENDBRANCH   69   70
TORSDOF 18
ENDMDL
MODEL 9
REMARK VINA RESULT:      -9.3     44.448     50.230
ROOT
ATOM     33  C25 UNL A   1      26.042  35.336  45.674  1.00  0.00    +0.000 C 
ATOM     34  C26 UNL A   1      27.328  35.349  44.902  1.00  0.00    +0.000 C 
ATOM     35  N5  UNL A   1      28.333  36.185  44.983  1.00  0.00    +0.000 N 
ATOM     36  C27 UNL A   1      29.279  35.726  44.077  1.00  0.00    +0.000 C 
ATOM     37  C28 UNL A   1      30.487  36.265  43.777  1.00  0.00    +0.000 C 
ATOM     49  C35 UNL A   1      31.007  37.468  44.373  1.00  0.00    +0.000 C 
ATOM     50  C36 UNL A   1      32.193  38.126  44.096  1.00  0.00    +0.000 C 
ATOM     51  C37 UNL A   1      32.303  39.215  44.967  1.00  0.00    +0.000 C 
ATOM     52  C38 UNL A   1      31.163  39.266  45.753  1.00  0.00    +0.000 C 
ATOM     53  N6  UNL A   1      30.376  38.188  45.378  1.00  0.00    +0.000 N 
ATOM     54  C39 UNL A   1      30.820  40.224  46.775  1.00  0.00    +0.000 C 
ATOM     66  C46 UNL A   1      29.668  40.225  47.489  1.00  0.00    +0.000 C 
ATOM     67  N7  UNL A   1      28.593  39.351  47.405  1.00  0.00    +0.000 N 
ATOM     68  C47 UNL A   1      27.722  39.766  48.292  1.00  0.00    +0.000 C 
ATOM     69  C48 UNL A   1      26.370  39.202  48.619  1.00  0.00    +0.000 C 
ATOM     81  C55 UNL A   1      25.904  38.156  47.913  1.00  0.00    +0.000 C 
ATOM     82  C56 UNL A   1      24.620  37.498  48.136  1.00  0.00    +0.000 C 
ATOM     83  C57 UNL A   1      24.549  36.411  47.355  1.00  0.00    +0.000 C 
ATOM     84  C58 UNL A   1      25.761  36.327  46.540  1.00  0.00    +0.000 C 
ATOM     85  N8  UNL A   1      26.482  37.439  46.895  1.00  0.00    +0.000 N 
ATOM     86  C59 UNL A   1      28.155  40.942  49.058  1.00  0.00    +0.000 C 
ATOM     87  C60 UNL A   1      29.337  41.196  48.513  1.00  0.00    +0.000 C 
ATOM     88  C61 UNL A   1      28.740  34.525  43.475  1.00  0.00    +0.000 C 
ATOM     89  C62 UNL A   1      27.516  34.274  43.917  1.00  0.00    +0.000 C 
ATOM    117  H26 UNL A   1      32.878  37.859  43.372  1.00  0.00    +0.000 H 
ATOM    118  H27 UNL A   1      33.098  39.870  45.017  1.00  0.00    +0.000 H 
ATOM    119  H28 UNL A   1      29.499  37.966  45.767  1.00  0.00    +0.000 H 
ATOM    120  H29 UNL A   1      23.887  37.819  48.787  1.00  0.00    +0.000 H 
ATOM    121  H30 UNL A   1      23.765  35.739  47.332  1.00  0.00    +0.000 H 
ATOM    122  H31 UNL A   1      27.330  37.697  46.463  1.00  0.00    +0.000 H 
ATOM    123  H32 UNL A   1      27.668  41.439  49.820  1.00  0.00    +0.000 H 
ATOM    124  H33 UNL A   1      29.945  41.985  48.784  1.00  0.00    +0.000 H 
ATOM    125  H34 UNL A   1      29.244  33.941  42.789  1.00  0.00    +0.000 H 
ATOM    126  H35 UNL A   1      26.867  33.521  43.643  1.00  0.00    +0.000 H 
ENDROOT
BRANCH   33   32
ATOM    127  H36 UNL A   1      24.009  35.094  43.926  1.00  0.00    +0.000 H 
ATOM     32  C24 UNL A   1      25.082  34.216  45.524  1.00  0.00    +0.000 C 
ATOM    115  H24 UNL A   1      24.472  31.124  46.683  1.00  0.00    +0.000 H 
ATOM    116  H25 UNL A   1      25.918  33.032  47.066  1.00  0.00    +0.000 H 
ATOM     90  C63 UNL A   1      24.081  34.269  44.541  1.00  0.00    +0.000 C 
ATOM     91  C64 UNL A   1      23.184  33.211  44.393  1.00  0.00    +0.000 C 
ATOM     29  C21 UNL A   1      23.301  32.080  45.206  1.00  0.00    +0.000 C 
ATOM     30  C22 UNL A   1      24.340  31.991  46.137  1.00  0.00    +0.000 C 
ATOM     31  C23 UNL A   1      25.197  33.072  46.329  1.00  0.00    +0.000 C 
ATOM    128  H37 UNL A   1      22.435  33.263  43.684  1.00  0.00    +0.000 H 
BRANCH   29    2
ATOM      1  O1  UNL A   1      22.690  29.948  44.449  1.00  0.00    +0.000 O 
ATOM      2  C1  UNL A   1      22.338  30.973  45.026  1.00  0.00    +0.000 C 
BRANCH    2    3
ATOM      3  N1  UNL A   1      21.053  31.094  45.491  1.00  0.00    +0.000 N 
ATOM     92  H1  UNL A   1      20.930  30.893  46.446  1.00  0.00    +0.000 H 
BRANCH    3    4
ATOM      4  C2  UNL A   1      19.848  31.476  44.774  1.00  0.00    +0.000 C 
ATOM     93  H2  UNL A   1      19.111  30.713  44.911  1.00  0.00    +0.000 H 
ATOM     94  H3  UNL A   1      20.105  31.593  43.743  1.00  0.00    +0.000 H 
BRANCH    4    5
ATOM      5  C3  UNL A   1      19.278  32.803  45.264  1.00  0.00    +0.000 C 
ATOM     95  H4  UNL A   1      20.009  33.265  45.896  1.00  0.00    +0.000 H 
ATOM     96  H5  UNL A   1      18.365  32.567  45.771  1.00  0.00    +0.000 H 
BRANCH    5    6
ATOM     97  H6  UNL A   1      19.748  33.891  43.507  1.00  0.00    +0.000 H 
ATOM     98  H7  UNL A   1      18.647  34.707  44.663  1.00  0.00    +0.000 H 
ATOM      6  C4  UNL A   1      18.908  33.798  44.163  1.00  0.00    +0.000 C 
BRANCH    6    7
ATOM     99  H8  UNL A   1      17.910  32.505  42.809  1.00  0.00    +0.000 H 
ATOM    100  H9  UNL A   1      17.521  34.250  42.660  1.00  0.00    +0.000 H 
ATOM      7  C5  UNL A   1      17.688  33.422  43.316  1.00  0.00    +0.000 C 
BRANCH    7    8
ATOM    101  H10 UNL A   1      15.611  33.774  43.580  1.00  0.00    +0.000 H 
ATOM    102  H11 UNL A   1      16.567  33.577  45.081  1.00  0.00    +0.000 H 
ATOM      8  C6  UNL A   1      16.379  33.228  44.088  1.00  0.00    +0.000 C 
BRANCH    8    9
ATOM      9  C7  UNL A   1      15.916  31.779  44.229  1.00  0.00    +0.000 C 
ATOM    103  H12 UNL A   1      14.884  31.719  43.955  1.00  0.00    +0.000 H 
ATOM    104  H13 UNL A   1      16.064  31.483  45.247  1.00  0.00    +0.000 H 
BRANCH    9   10
ATOM    105  H14 UNL A   1      17.651  31.034  43.366  1.00  0.00    +0.000 H 
ATOM     10  N2  UNL A   1      16.680  30.878  43.384  1.00  0.00    +0.000 N 
BRANCH   10   11
ATOM     11  C8  UNL A   1      16.232  29.839  42.610  1.00  0.00    +0.000 C 
ATOM     12  O2  UNL A   1      15.851  30.045  41.462  1.00  0.00    +0.000 O 
BRANCH   11   13
ATOM    106  H15 UNL A   1      18.169  28.590  43.932  1.00  0.00    +0.000 H 
ATOM    107  H16 UNL A   1      18.147  26.348  44.864  1.00  0.00    +0.000 H 
ATOM    108  H17 UNL A   1      16.185  24.953  44.619  1.00  0.00    +0.000 H 
ATOM     13  C9  UNL A   1      16.208  28.467  43.156  1.00  0.00    +0.000 C 
ATOM     14  C10 UNL A   1      17.334  27.993  43.828  1.00  0.00    +0.000 C 
ATOM     15  C11 UNL A   1      17.322  26.706  44.357  1.00  0.00    +0.000 C 
ATOM     16  C12 UNL A   1      16.191  25.897  44.203  1.00  0.00    +0.000 C 
ATOM     17  C13 UNL A   1      15.068  26.343  43.492  1.00  0.00    +0.000 C 
ATOM    114  H23 UNL A   1      14.281  27.990  42.434  1.00  0.00    +0.000 H 
ATOM     28  C20 UNL A   1      15.093  27.639  42.967  1.00  0.00    +0.000 C 
BRANCH   17   18
ATOM     18  N3  UNL A   1      13.888  25.580  43.343  1.00  0.00    +0.000 N 
ATOM    109  H18 UNL A   1      13.106  25.900  43.849  1.00  0.00    +0.000 H 
BRANCH   18   19
ATOM    110  H19 UNL A   1      12.609  25.432  41.054  1.00  0.00    +0.000 H 
ATOM    111  H20 UNL A   1      12.399  23.506  39.595  1.00  0.00    +0.000 H 
ATOM    112  H21 UNL A   1      14.469  21.153  42.407  1.00  0.00    +0.000 H 
ATOM    113  H22 UNL A   1      14.682  23.086  43.857  1.00  0.00    +0.000 H 
ATOM     19  C14 UNL A   1      13.682  24.424  42.567  1.00  0.00    +0.000 C 
ATOM     20  C15 UNL A   1      13.015  24.527  41.340  1.00  0.00    +0.000 C 
ATOM     21  C16 UNL A   1      12.893  23.419  40.497  1.00  0.00    +0.000 C 
ATOM     22  C17 UNL A   1      13.440  22.191  40.882  1.00  0.00    +0.000 C 
ATOM     26  C18 UNL A   1      14.084  22.064  42.115  1.00  0.00    +0.000 C 
ATOM     27  C19 UNL A   1      14.203  23.180  42.948  1.00  0.00    +0.000 C 
BRANCH   22   23
ATOM     25  O4  UNL A   1      13.747  21.164  38.674  1.00  0.00    +0.000 O 
ATOM     23  N4  UNL A   1      13.362  21.057  39.990  1.00  0.00    +0.000 N 
ATOM     24  O3  UNL A   1      12.929  19.990  40.371  1.00  0.00    +0.000 O 
ENDBRANCH   22   23
ENDBRANCH   18   19
ENDBRANCH   17   18
ENDBRANCH   11   13
ENDBRANCH   10   11
ENDBRANCH    9   10
ENDBRANCH    8    9
ENDBRANCH    7    8
ENDBRANCH    6    7
ENDBRANCH    5    6
ENDBRANCH    4    5
ENDBRANCH    3    4
ENDBRANCH    2    3
ENDBRANCH   29    2
ENDBRANCH   33   32
BRANCH   37   38
ATOM     38  C29 UNL A   1      31.340  35.539  42.779  1.00  0.00    +0.000 C 
ATOM     39  C30 UNL A   1      31.396  35.925  41.432  1.00  0.00    +0.000 C 
ATOM     40  F1  UNL A   1      30.650  36.951  40.993  1.00  0.00    +0.000 F 
ATOM     41  C31 UNL A   1      32.187  35.231  40.519  1.00  0.00    +0.000 C 
ATOM     42  F2  UNL A   1      32.183  35.586  39.226  1.00  0.00    +0.000 F 
ATOM     43  C32 UNL A   1      32.963  34.162  40.940  1.00  0.00    +0.000 C 
ATOM     44  F3  UNL A   1      33.721  33.495  40.060  1.00  0.00    +0.000 F 
ATOM     45  C33 UNL A   1      32.944  33.779  42.272  1.00  0.00    +0.000 C 
ATOM     46  F4  UNL A   1      33.702  32.752  42.685  1.00  0.00    +0.000 F 
ATOM     47  C34 UNL A   1      32.133  34.453  43.182  1.00  0.00    +0.000 C 
ATOM     48  F5  UNL A   1      32.123  34.046  44.460  1.00  0.00    +0.000 F 
ENDBRANCH   37   38
BRANCH   54   55
ATOM     65  F10 UNL A   1      30.465  42.888  45.863  1.00  0.00    +0.000 F 
ATOM     55  C40 UNL A   1      31.804  41.321  47.053  1.00  0.00    +0.000 C 
ATOM     56  C41 UNL A   1      32.990  41.080  47.757  1.00  0.00    +0.000 C 
ATOM     57  F6  UNL A   1      33.235  39.867  48.275  1.00  0.00    +0.000 F 
ATOM     58  C42 UNL A   1      33.922  42.096  47.953  1.00  0.00    +0.000 C 
ATOM     59  F7  UNL A   1      35.039  41.853  48.653  1.00  0.00    +0.000 F 
ATOM     60  C43 UNL A   1      33.696  43.361  47.428  1.00  0.00    +0.000 C 
ATOM     61  F8  UNL A   1      34.601  44.333  47.603  1.00  0.00    +0.000 F 
ATOM     62  C44 UNL A   1      32.529  43.618  46.723  1.00  0.00    +0.000 C 
ATOM     63  F9  UNL A   1      32.314  44.835  46.205  1.00  0.00    +0.000 F 
ATOM     64  C45 UNL A   1      31.586  42.611  46.546  1.00  0.00    +0.000 C 
ENDBRANCH   54   55
BRANCH   69   70
ATOM     70  C49 UNL A   1      25.530  39.769  49.703  1.00  0.00    +0.000 C 
ATOM     71  C50 UNL A   1      24.601  40.783  49.439  1.00  0.00    +0.000 C 
ATOM     72  F11 UNL A   1      24.518  41.310  48.210  1.00  0.00    +0.000 F 
ATOM     73  C51 UNL A   1      23.762  41.264  50.441  1.00  0.00    +0.000 C 
ATOM     74  F12 UNL A   1      22.892  42.246  50.169  1.00  0.00    +0.000 F 
ATOM     75  C52 UNL A   1      23.823  40.727  51.719  1.00  0.00    +0.000 C 
ATOM     76  F13 UNL A   1      23.000  41.176  52.676  1.00  0.00    +0.000 F 
ATOM     77  C53 UNL A   1      24.736  39.722  52.003  1.00  0.00    +0.000 C 
ATOM     78  F14 UNL A   1      24.786  39.188  53.231  1.00  0.00    +0.000 F 
ATOM     79  C54 UNL A   1      25.593  39.258  51.008  1.00  0.00    +0.000 C 
ATOM     80  F15 UNL A   1      26.459  38.279  51.305  1.00  0.00    +0.000 F 
ENDBRANCH   69   70
TORSDOF 18
ENDMDL
MODEL 10
REMARK VINA RESULT:      -9.3     11.746     17.562
ROOT
ATOM     33  C25 UNL A   1      18.475  17.097   7.239  1.00  0.00    +0.000 C 
ATOM     34  C26 UNL A   1      18.531  18.212   6.237  1.00  0.00    +0.000 C 
ATOM     35  N5  UNL A   1      17.690  19.199   6.050  1.00  0.00    +0.000 N 
ATOM     36  C27 UNL A   1      18.228  19.963   5.024  1.00  0.00    +0.000 C 
ATOM     37  C28 UNL A   1      17.718  21.081   4.452  1.00  0.00    +0.000 C 
ATOM     49  C35 UNL A   1      16.466  21.685   4.829  1.00  0.00    +0.000 C 
ATOM     50  C36 UNL A   1      15.834  22.784   4.273  1.00  0.00    +0.000 C 
ATOM     51  C37 UNL A   1      14.671  23.039   5.008  1.00  0.00    +0.000 C 
ATOM     52  C38 UNL A   1      14.551  22.069   5.990  1.00  0.00    +0.000 C 
ATOM     53  N6  UNL A   1      15.658  21.244   5.869  1.00  0.00    +0.000 N 
ATOM     54  C39 UNL A   1      13.506  21.910   6.971  1.00  0.00    +0.000 C 
ATOM     66  C46 UNL A   1      13.440  20.915   7.889  1.00  0.00    +0.000 C 
ATOM     67  N7  UNL A   1      14.319  19.860   8.090  1.00  0.00    +0.000 N 
ATOM     68  C47 UNL A   1      13.827  19.167   9.087  1.00  0.00    +0.000 C 
ATOM     69  C48 UNL A   1      14.360  17.913   9.715  1.00  0.00    +0.000 C 
ATOM     81  C55 UNL A   1      15.465  17.339   9.207  1.00  0.00    +0.000 C 
ATOM     82  C56 UNL A   1      16.101  16.133   9.728  1.00  0.00    +0.000 C 
ATOM     83  C57 UNL A   1      17.254  15.933   9.074  1.00  0.00    +0.000 C 
ATOM     84  C58 UNL A   1      17.410  16.969   8.053  1.00  0.00    +0.000 C 
ATOM     85  N8  UNL A   1      16.271  17.725   8.164  1.00  0.00    +0.000 N 
ATOM     86  C59 UNL A   1      12.586  19.718   9.650  1.00  0.00    +0.000 C 
ATOM     87  C60 UNL A   1      12.382  20.769   8.868  1.00  0.00    +0.000 C 
ATOM     88  C61 UNL A   1      19.478  19.340   4.644  1.00  0.00    +0.000 C 
ATOM     89  C62 UNL A   1      19.689  18.228   5.333  1.00  0.00    +0.000 C 
ATOM    117  H26 UNL A   1      16.165  23.323   3.457  1.00  0.00    +0.000 H 
ATOM    118  H27 UNL A   1      14.014  23.817   4.846  1.00  0.00    +0.000 H 
ATOM    119  H28 UNL A   1      15.845  20.461   6.436  1.00  0.00    +0.000 H 
ATOM    120  H29 UNL A   1      15.723  15.532  10.477  1.00  0.00    +0.000 H 
ATOM    121  H30 UNL A   1      17.925  15.172   9.261  1.00  0.00    +0.000 H 
ATOM    122  H31 UNL A   1      16.052  18.470   7.557  1.00  0.00    +0.000 H 
ATOM    123  H32 UNL A   1      12.023  19.376  10.444  1.00  0.00    +0.000 H 
ATOM    124  H33 UNL A   1      11.572  21.404   8.947  1.00  0.00    +0.000 H 
ATOM    125  H34 UNL A   1      20.122  19.714   3.929  1.00  0.00    +0.000 H 
ATOM    126  H35 UNL A   1      20.464  17.551   5.256  1.00  0.00    +0.000 H 
ENDROOT
BRANCH   33   32
ATOM    127  H36 UNL A   1      20.468  17.112   9.048  1.00  0.00    +0.000 H 
ATOM     32  C24 UNL A   1      19.604  16.146   7.375  1.00  0.00    +0.000 C 
ATOM    115  H24 UNL A   1      20.757  13.259   6.107  1.00  0.00    +0.000 H 
ATOM    116  H25 UNL A   1      19.023  14.917   5.754  1.00  0.00    +0.000 H 
ATOM     90  C63 UNL A   1      20.554  16.317   8.396  1.00  0.00    +0.000 C 
ATOM     91  C64 UNL A   1      21.611  15.417   8.530  1.00  0.00    +0.000 C 
ATOM     29  C21 UNL A   1      21.709  14.324   7.665  1.00  0.00    +0.000 C 
ATOM     30  C22 UNL A   1      20.726  14.108   6.694  1.00  0.00    +0.000 C 
ATOM     31  C23 UNL A   1      19.706  15.040   6.518  1.00  0.00    +0.000 C 
ATOM    128  H37 UNL A   1      22.320  15.558   9.268  1.00  0.00    +0.000 H 
BRANCH   29    2
ATOM      1  O1  UNL A   1      22.616  12.188   7.992  1.00  0.00    +0.000 O 
ATOM      2  C1  UNL A   1      22.839  13.385   7.831  1.00  0.00    +0.000 C 
BRANCH    2    3
ATOM      3  N1  UNL A   1      24.129  13.849   7.818  1.00  0.00    +0.000 N 
ATOM     92  H1  UNL A   1      24.702  13.521   8.549  1.00  0.00    +0.000 H 
BRANCH    3    4
ATOM      4  C2  UNL A   1      24.772  14.754   6.881  1.00  0.00    +0.000 C 
ATOM     93  H2  UNL A   1      24.063  15.030   6.129  1.00  0.00    +0.000 H 
ATOM     94  H3  UNL A   1      25.612  14.244   6.460  1.00  0.00    +0.000 H 
BRANCH    4    5
ATOM      5  C3  UNL A   1      25.288  16.020   7.559  1.00  0.00    +0.000 C 
ATOM     95  H4  UNL A   1      26.116  16.387   6.987  1.00  0.00    +0.000 H 
ATOM     96  H5  UNL A   1      25.550  15.738   8.557  1.00  0.00    +0.000 H 
BRANCH    5    6
ATOM     97  H6  UNL A   1      24.743  17.972   8.179  1.00  0.00    +0.000 H 
ATOM     98  H7  UNL A   1      23.442  16.739   8.237  1.00  0.00    +0.000 H 
ATOM      6  C4  UNL A   1      24.265  17.150   7.689  1.00  0.00    +0.000 C 
BRANCH    6    7
ATOM     99  H8  UNL A   1      22.759  17.142   6.196  1.00  0.00    +0.000 H 
ATOM    100  H9  UNL A   1      24.426  17.486   5.628  1.00  0.00    +0.000 H 
ATOM      7  C5  UNL A   1      23.677  17.663   6.371  1.00  0.00    +0.000 C 
BRANCH    7    8
ATOM    101  H10 UNL A   1      23.445  19.551   7.315  1.00  0.00    +0.000 H 
ATOM    102  H11 UNL A   1      22.409  19.262   5.885  1.00  0.00    +0.000 H 
ATOM      8  C6  UNL A   1      23.381  19.166   6.318  1.00  0.00    +0.000 C 
BRANCH    8    9
ATOM      9  C7  UNL A   1      24.322  19.982   5.434  1.00  0.00    +0.000 C 
ATOM    103  H12 UNL A   1      24.459  20.947   5.875  1.00  0.00    +0.000 H 
ATOM    104  H13 UNL A   1      23.877  20.060   4.463  1.00  0.00    +0.000 H 
BRANCH    9   10
ATOM    105  H14 UNL A   1      25.629  18.530   4.734  1.00  0.00    +0.000 H 
ATOM     10  N2  UNL A   1      25.618  19.346   5.284  1.00  0.00    +0.000 N 
BRANCH   10   11
ATOM     11  C8  UNL A   1      26.829  19.728   5.801  1.00  0.00    +0.000 C 
ATOM     12  O2  UNL A   1      27.556  20.490   5.172  1.00  0.00    +0.000 O 
BRANCH   11   13
ATOM    106  H15 UNL A   1      28.756  17.970   6.306  1.00  0.00    +0.000 H 
ATOM    107  H16 UNL A   1      29.507  17.143   8.461  1.00  0.00    +0.000 H 
ATOM    108  H17 UNL A   1      28.447  17.919  10.494  1.00  0.00    +0.000 H 
ATOM     13  C9  UNL A   1      27.262  19.223   7.120  1.00  0.00    +0.000 C 
ATOM     14  C10 UNL A   1      28.305  18.298   7.174  1.00  0.00    +0.000 C 
ATOM     15  C11 UNL A   1      28.731  17.821   8.409  1.00  0.00    +0.000 C 
ATOM     16  C12 UNL A   1      28.107  18.262   9.582  1.00  0.00    +0.000 C 
ATOM     17  C13 UNL A   1      27.030  19.157   9.542  1.00  0.00    +0.000 C 
ATOM    114  H23 UNL A   1      25.818  20.286   8.235  1.00  0.00    +0.000 H 
ATOM     28  C20 UNL A   1      26.613  19.630   8.293  1.00  0.00    +0.000 C 
BRANCH   17   18
ATOM     18  N3  UNL A   1      26.393  19.662  10.698  1.00  0.00    +0.000 N 
ATOM    109  H18 UNL A   1      26.607  20.595  10.930  1.00  0.00    +0.000 H 
BRANCH   18   19
ATOM    110  H19 UNL A   1      24.164  18.450  10.021  1.00  0.00    +0.000 H 
ATOM    111  H20 UNL A   1      22.693  17.150  11.444  1.00  0.00    +0.000 H 
ATOM    112  H21 UNL A   1      25.085  18.095  14.777  1.00  0.00    +0.000 H 
ATOM    113  H22 UNL A   1      26.557  19.387  13.346  1.00  0.00    +0.000 H 
ATOM     19  C14 UNL A   1      25.495  19.009  11.562  1.00  0.00    +0.000 C 
ATOM     20  C15 UNL A   1      24.369  18.367  11.030  1.00  0.00    +0.000 C 
ATOM     21  C16 UNL A   1      23.520  17.618  11.847  1.00  0.00    +0.000 C 
ATOM     22  C17 UNL A   1      23.793  17.505  13.214  1.00  0.00    +0.000 C 
ATOM     26  C18 UNL A   1      24.896  18.161  13.766  1.00  0.00    +0.000 C 
ATOM     27  C19 UNL A   1      25.740  18.905  12.938  1.00  0.00    +0.000 C 
BRANCH   22   23
ATOM     25  O4  UNL A   1      23.050  15.316  14.037  1.00  0.00    +0.000 O 
ATOM     23  N4  UNL A   1      22.947  16.687  14.052  1.00  0.00    +0.000 N 
ATOM     24  O3  UNL A   1      22.105  17.187  14.769  1.00  0.00    +0.000 O 
ENDBRANCH   22   23
ENDBRANCH   18   19
ENDBRANCH   17   18
ENDBRANCH   11   13
ENDBRANCH   10   11
ENDBRANCH    9   10
ENDBRANCH    8    9
ENDBRANCH    7    8
ENDBRANCH    6    7
ENDBRANCH    5    6
ENDBRANCH    4    5
ENDBRANCH    3    4
ENDBRANCH    2    3
ENDBRANCH   29    2
ENDBRANCH   33   32
BRANCH   37   38
ATOM     38  C29 UNL A   1      18.530  21.742   3.377  1.00  0.00    +0.000 C 
ATOM     39  C30 UNL A   1      18.492  21.304   2.045  1.00  0.00    +0.000 C 
ATOM     40  F1  UNL A   1      17.738  20.247   1.704  1.00  0.00    +0.000 F 
ATOM     41  C31 UNL A   1      19.261  21.924   1.064  1.00  0.00    +0.000 C 
ATOM     42  F2  UNL A   1      19.248  21.454  -0.192  1.00  0.00    +0.000 F 
ATOM     43  C32 UNL A   1      20.057  23.013   1.386  1.00  0.00    +0.000 C 
ATOM     44  F3  UNL A   1      20.798  23.607   0.441  1.00  0.00    +0.000 F 
ATOM     45  C33 UNL A   1      20.090  23.480   2.691  1.00  0.00    +0.000 C 
ATOM     46  F4  UNL A   1      20.849  24.540   3.003  1.00  0.00    +0.000 F 
ATOM     47  C34 UNL A   1      19.343  22.845   3.680  1.00  0.00    +0.000 C 
ATOM     48  F5  UNL A   1      19.411  23.309   4.937  1.00  0.00    +0.000 F 
ENDBRANCH   37   38
BRANCH   54   55
ATOM     65  F10 UNL A   1      11.148  21.574   5.425  1.00  0.00    +0.000 F 
ATOM     55  C40 UNL A   1      12.387  22.909   6.957  1.00  0.00    +0.000 C 
ATOM     56  C41 UNL A   1      12.461  24.102   7.689  1.00  0.00    +0.000 C 
ATOM     57  F6  UNL A   1      13.510  24.339   8.491  1.00  0.00    +0.000 F 
ATOM     58  C42 UNL A   1      11.441  25.047   7.617  1.00  0.00    +0.000 C 
ATOM     59  F7  UNL A   1      11.517  26.170   8.345  1.00  0.00    +0.000 F 
ATOM     60  C43 UNL A   1      10.345  24.828   6.795  1.00  0.00    +0.000 C 
ATOM     61  F8  UNL A   1       9.372  25.747   6.714  1.00  0.00    +0.000 F 
ATOM     62  C44 UNL A   1      10.255  23.656   6.059  1.00  0.00    +0.000 C 
ATOM     63  F9  UNL A   1       9.203  23.448   5.255  1.00  0.00    +0.000 F 
ATOM     64  C45 UNL A   1      11.262  22.699   6.146  1.00  0.00    +0.000 C 
ENDBRANCH   54   55
BRANCH   69   70
ATOM     70  C49 UNL A   1      13.698  17.285  10.886  1.00  0.00    +0.000 C 
ATOM     71  C50 UNL A   1      12.706  16.312  10.717  1.00  0.00    +0.000 C 
ATOM     72  F11 UNL A   1      12.284  15.994   9.485  1.00  0.00    +0.000 F 
ATOM     73  C51 UNL A   1      12.136  15.671  11.815  1.00  0.00    +0.000 C 
ATOM     74  F12 UNL A   1      11.176  14.755  11.628  1.00  0.00    +0.000 F 
ATOM     75  C52 UNL A   1      12.564  15.976  13.099  1.00  0.00    +0.000 C 
ATOM     76  F13 UNL A   1      12.030  15.342  14.152  1.00  0.00    +0.000 F 
ATOM     77  C53 UNL A   1      13.545  16.937  13.290  1.00  0.00    +0.000 C 
ATOM     78  F14 UNL A   1      13.973  17.222  14.527  1.00  0.00    +0.000 F 
ATOM     79  C54 UNL A   1      14.097  17.596  12.194  1.00  0.00    +0.000 C 
ATOM     80  F15 UNL A   1      15.052  18.514  12.405  1.00  0.00    +0.000 F 
ENDBRANCH   69   70
TORSDOF 18
ENDMDL
