MODEL 1
REMARK VINA RESULT:      -8.5      0.000      0.000
ROOT
ATOM    129  H31 UNL A   1      17.132  57.038   1.776  1.00  0.00    +0.000 H 
ATOM    130  H32 UNL A   1      15.149  47.264   0.577  1.00  0.00    +0.000 H 
ATOM    131  H33 UNL A   1      13.176  47.472   2.195  1.00  0.00    +0.000 H 
ATOM     30  C22 UNL A   1      12.996  50.021   3.457  1.00  0.00    +0.000 C 
ATOM     31  C23 UNL A   1      13.933  49.604   2.357  1.00  0.00    +0.000 C 
ATOM     32  N3  UNL A   1      14.855  50.302   1.743  1.00  0.00    +0.000 N 
ATOM     33  C24 UNL A   1      15.459  49.426   0.850  1.00  0.00    +0.000 C 
ATOM     34  C25 UNL A   1      16.421  49.685  -0.068  1.00  0.00    +0.000 C 
ATOM     46  C32 UNL A   1      17.012  50.981  -0.272  1.00  0.00    +0.000 C 
ATOM     47  C33 UNL A   1      17.958  51.360  -1.209  1.00  0.00    +0.000 C 
ATOM     48  C34 UNL A   1      18.276  52.704  -0.991  1.00  0.00    +0.000 C 
ATOM     49  C35 UNL A   1      17.480  53.182   0.037  1.00  0.00    +0.000 C 
ATOM     50  N4  UNL A   1      16.715  52.112   0.475  1.00  0.00    +0.000 N 
ATOM     51  C36 UNL A   1      17.420  54.517   0.579  1.00  0.00    +0.000 C 
ATOM     63  C43 UNL A   1      16.610  54.907   1.594  1.00  0.00    +0.000 C 
ATOM     64  N5  UNL A   1      15.681  54.161   2.307  1.00  0.00    +0.000 N 
ATOM     65  C44 UNL A   1      15.158  54.982   3.186  1.00  0.00    +0.000 C 
ATOM     66  C45 UNL A   1      14.072  54.727   4.198  1.00  0.00    +0.000 C 
ATOM     78  C52 UNL A   1      13.505  53.506   4.257  1.00  0.00    +0.000 C 
ATOM     79  C53 UNL A   1      12.447  53.108   5.180  1.00  0.00    +0.000 C 
ATOM     80  C54 UNL A   1      12.174  51.806   4.997  1.00  0.00    +0.000 C 
ATOM     81  C55 UNL A   1      13.008  51.289   3.911  1.00  0.00    +0.000 C 
ATOM     82  N6  UNL A   1      13.758  52.372   3.525  1.00  0.00    +0.000 N 
ATOM     83  C56 UNL A   1      15.728  56.336   3.153  1.00  0.00    +0.000 C 
ATOM     84  C57 UNL A   1      16.573  56.249   2.136  1.00  0.00    +0.000 C 
ATOM     85  C58 UNL A   1      14.846  48.132   1.047  1.00  0.00    +0.000 C 
ATOM     86  C59 UNL A   1      13.845  48.205   1.911  1.00  0.00    +0.000 C 
ATOM    122  H24 UNL A   1      18.359  50.755  -1.942  1.00  0.00    +0.000 H 
ATOM    123  H25 UNL A   1      18.984  53.247  -1.508  1.00  0.00    +0.000 H 
ATOM    124  H26 UNL A   1      16.058  52.149   1.208  1.00  0.00    +0.000 H 
ATOM    125  H27 UNL A   1      11.982  53.727   5.863  1.00  0.00    +0.000 H 
ATOM    126  H28 UNL A   1      11.487  51.257   5.537  1.00  0.00    +0.000 H 
ATOM    127  H29 UNL A   1      14.414  52.339   2.792  1.00  0.00    +0.000 H 
ATOM    128  H30 UNL A   1      15.524  57.142   3.763  1.00  0.00    +0.000 H 
ENDROOT
BRANCH   30   29
ATOM    132  H34 UNL A   1      10.466  49.435   2.822  1.00  0.00    +0.000 H 
ATOM    133  H35 UNL A   1       8.942  47.911   3.929  1.00  0.00    +0.000 H 
ATOM    120  H22 UNL A   1      12.039  46.654   6.484  1.00  0.00    +0.000 H 
ATOM     87  C60 UNL A   1      10.793  48.867   3.619  1.00  0.00    +0.000 C 
ATOM     88  C61 UNL A   1       9.930  47.957   4.221  1.00  0.00    +0.000 C 
ATOM    121  H23 UNL A   1      13.490  48.365   5.553  1.00  0.00    +0.000 H 
ATOM     26  C18 UNL A   1      10.406  47.106   5.221  1.00  0.00    +0.000 C 
ATOM     27  C19 UNL A   1      11.703  47.256   5.716  1.00  0.00    +0.000 C 
ATOM     28  C20 UNL A   1      12.543  48.227   5.167  1.00  0.00    +0.000 C 
ATOM     29  C21 UNL A   1      12.105  49.017   4.091  1.00  0.00    +0.000 C 
BRANCH   26   24
ATOM     25  O6  UNL A   1       8.682  45.522   5.072  1.00  0.00    +0.000 O 
ATOM     24  C17 UNL A   1       9.550  46.034   5.771  1.00  0.00    +0.000 C 
BRANCH   24   23
ATOM    119  H21 UNL A   1      10.061  44.708   7.185  1.00  0.00    +0.000 H 
ATOM     23  N2  UNL A   1       9.725  45.626   7.070  1.00  0.00    +0.000 N 
BRANCH   23   22
ATOM    118  H20 UNL A   1      10.384  46.880   8.555  1.00  0.00    +0.000 H 
ATOM    117  H19 UNL A   1       9.197  45.673   9.064  1.00  0.00    +0.000 H 
ATOM     22  C16 UNL A   1       9.482  46.364   8.299  1.00  0.00    +0.000 C 
BRANCH   22   21
ATOM    115  H17 UNL A   1       8.227  47.568   7.092  1.00  0.00    +0.000 H 
ATOM    116  H18 UNL A   1       7.517  47.007   8.633  1.00  0.00    +0.000 H 
ATOM     21  C15 UNL A   1       8.379  47.403   8.139  1.00  0.00    +0.000 C 
BRANCH   21   20
ATOM    113  H15 UNL A   1       9.002  49.428   8.033  1.00  0.00    +0.000 H 
ATOM    114  H16 UNL A   1       7.763  49.054   9.273  1.00  0.00    +0.000 H 
ATOM     20  C14 UNL A   1       8.673  48.753   8.797  1.00  0.00    +0.000 C 
BRANCH   20   19
ATOM     19  C13 UNL A   1       9.738  48.730   9.897  1.00  0.00    +0.000 C 
ATOM    111  H13 UNL A   1       9.286  48.351  10.789  1.00  0.00    +0.000 H 
ATOM    112  H14 UNL A   1      10.534  48.117   9.529  1.00  0.00    +0.000 H 
BRANCH   19   18
ATOM     18  C12 UNL A   1      10.364  50.087  10.223  1.00  0.00    +0.000 C 
ATOM    109  H11 UNL A   1       9.675  50.634  10.833  1.00  0.00    +0.000 H 
ATOM    110  H12 UNL A   1      11.289  49.885  10.719  1.00  0.00    +0.000 H 
BRANCH   18   17
ATOM     17  C11 UNL A   1      10.698  50.934   9.006  1.00  0.00    +0.000 C 
ATOM    107  H9  UNL A   1      11.233  50.327   8.305  1.00  0.00    +0.000 H 
ATOM    108  H10 UNL A   1       9.773  51.292   8.603  1.00  0.00    +0.000 H 
BRANCH   17   16
ATOM    106  H8  UNL A   1      11.044  52.793   9.835  1.00  0.00    +0.000 H 
ATOM     16  N1  UNL A   1      11.506  52.092   9.321  1.00  0.00    +0.000 N 
BRANCH   16   14
ATOM     14  C10 UNL A   1      12.811  52.365   9.016  1.00  0.00    +0.000 C 
ATOM     15  O5  UNL A   1      13.158  53.544   9.091  1.00  0.00    +0.000 O 
BRANCH   14   13
ATOM      1  O1  UNL A   1      16.568  51.529  10.926  1.00  0.00    +0.000 O 
ATOM      2  C1  UNL A   1      15.802  51.473   9.979  1.00  0.00    +0.000 C 
ATOM      3  O2  UNL A   1      16.021  52.027   8.762  1.00  0.00    +0.000 O 
ATOM      4  C2  UNL A   1      14.970  51.678   7.845  1.00  0.00    +0.000 C 
ATOM     99  H1  UNL A   1      14.661  52.510   7.246  1.00  0.00    +0.000 H 
ATOM    105  H7  UNL A   1      13.178  50.486   8.228  1.00  0.00    +0.000 H 
ATOM     13  C9  UNL A   1      13.789  51.226   8.699  1.00  0.00    +0.000 C 
ATOM     89  C62 UNL A   1      14.501  50.785   9.935  1.00  0.00    +0.000 C 
BRANCH    4    5
ATOM    100  H2  UNL A   1      16.325  52.068   5.489  1.00  0.00    +0.000 H 
ATOM      5  C3  UNL A   1      15.444  50.660   6.802  1.00  0.00    +0.000 C 
ATOM      6  C4  UNL A   1      16.181  51.062   5.663  1.00  0.00    +0.000 C 
ATOM      7  C5  UNL A   1      16.721  50.134   4.766  1.00  0.00    +0.000 C 
ATOM    104  H6  UNL A   1      14.713  48.951   7.815  1.00  0.00    +0.000 H 
ATOM    101  H3  UNL A   1      17.270  50.450   3.952  1.00  0.00    +0.000 H 
ATOM     10  C7  UNL A   1      15.765  48.368   6.087  1.00  0.00    +0.000 C 
ATOM      8  C6  UNL A   1      16.508  48.783   4.987  1.00  0.00    +0.000 C 
ATOM     12  C8  UNL A   1      15.246  49.284   6.996  1.00  0.00    +0.000 C 
BRANCH    8    9
ATOM      9  O3  UNL A   1      17.013  47.827   4.154  1.00  0.00    +0.000 O 
ATOM    102  H4  UNL A   1      17.683  47.247   4.457  1.00  0.00    +0.000 H 
ENDBRANCH    8    9
BRANCH   10   11
ATOM     11  O4  UNL A   1      15.547  47.035   6.291  1.00  0.00    +0.000 O 
ATOM    103  H5  UNL A   1      14.993  46.753   6.993  1.00  0.00    +0.000 H 
ENDBRANCH   10   11
ENDBRANCH    4    5
BRANCH   89   90
ATOM     90  C63 UNL A   1      14.161  49.920  10.902  1.00  0.00    +0.000 C 
ATOM    134  H36 UNL A   1      14.298  50.215  11.882  1.00  0.00    +0.000 H 
BRANCH   90   91
ATOM     98  C69 UNL A   1      12.986  47.905  11.710  1.00  0.00    +0.000 C 
ATOM    135  H37 UNL A   1      14.208  48.469   8.635  1.00  0.00    +0.000 H 
ATOM    136  H38 UNL A   1      13.285  46.250   8.257  1.00  0.00    +0.000 H 
ATOM    139  H41 UNL A   1      12.904  48.343  12.641  1.00  0.00    +0.000 H 
ATOM     91  C64 UNL A   1      13.609  48.588  10.660  1.00  0.00    +0.000 C 
ATOM     92  C65 UNL A   1      13.730  47.974   9.404  1.00  0.00    +0.000 C 
ATOM     93  C66 UNL A   1      13.208  46.695   9.185  1.00  0.00    +0.000 C 
ATOM     94  C67 UNL A   1      12.581  46.033  10.234  1.00  0.00    +0.000 C 
ATOM     96  C68 UNL A   1      12.478  46.634  11.486  1.00  0.00    +0.000 C 
BRANCH   94   95
ATOM    137  H39 UNL A   1      12.184  44.310   9.284  1.00  0.00    +0.000 H 
ATOM     95  O7  UNL A   1      12.053  44.781  10.084  1.00  0.00    +0.000 O 
ENDBRANCH   94   95
BRANCH   96   97
ATOM     97  O8  UNL A   1      11.876  45.966  12.513  1.00  0.00    +0.000 O 
ATOM    138  H40 UNL A   1      12.358  45.773  13.293  1.00  0.00    +0.000 H 
ENDBRANCH   96   97
ENDBRANCH   90   91
ENDBRANCH   89   90
ENDBRANCH   14   13
ENDBRANCH   16   14
ENDBRANCH   17   16
ENDBRANCH   18   17
ENDBRANCH   19   18
ENDBRANCH   20   19
ENDBRANCH   21   20
ENDBRANCH   22   21
ENDBRANCH   23   22
ENDBRANCH   24   23
ENDBRANCH   26   24
ENDBRANCH   30   29
BRANCH   34   35
ATOM     35  C26 UNL A   1      16.896  48.542  -0.919  1.00  0.00    +0.000 C 
ATOM     36  C27 UNL A   1      18.058  47.819  -0.602  1.00  0.00    +0.000 C 
ATOM     37  F1  UNL A   1      18.802  48.167   0.458  1.00  0.00    +0.000 F 
ATOM     38  C28 UNL A   1      18.486  46.762  -1.401  1.00  0.00    +0.000 C 
ATOM     39  F2  UNL A   1      19.628  46.125  -1.112  1.00  0.00    +0.000 F 
ATOM     40  C29 UNL A   1      17.740  46.378  -2.506  1.00  0.00    +0.000 C 
ATOM     41  F3  UNL A   1      18.149  45.356  -3.269  1.00  0.00    +0.000 F 
ATOM     42  C30 UNL A   1      16.575  47.060  -2.823  1.00  0.00    +0.000 C 
ATOM     43  F4  UNL A   1      15.845  46.682  -3.881  1.00  0.00    +0.000 F 
ATOM     44  C31 UNL A   1      16.164  48.141  -2.047  1.00  0.00    +0.000 C 
ATOM     45  F5  UNL A   1      15.044  48.793  -2.393  1.00  0.00    +0.000 F 
ENDBRANCH   34   35
BRANCH   51   52
ATOM     52  C37 UNL A   1      18.296  55.562  -0.051  1.00  0.00    +0.000 C 
ATOM     53  C38 UNL A   1      17.920  56.239  -1.220  1.00  0.00    +0.000 C 
ATOM     54  F6  UNL A   1      16.776  55.921  -1.846  1.00  0.00    +0.000 F 
ATOM     55  C39 UNL A   1      18.739  57.220  -1.775  1.00  0.00    +0.000 C 
ATOM     56  F7  UNL A   1      18.384  57.817  -2.920  1.00  0.00    +0.000 F 
ATOM     57  C40 UNL A   1      19.927  57.570  -1.150  1.00  0.00    +0.000 C 
ATOM     58  F8  UNL A   1      20.707  58.522  -1.679  1.00  0.00    +0.000 F 
ATOM     59  C41 UNL A   1      20.309  56.929   0.017  1.00  0.00    +0.000 C 
ATOM     60  F9  UNL A   1      21.447  57.278   0.633  1.00  0.00    +0.000 F 
ATOM     61  C42 UNL A   1      19.510  55.924   0.555  1.00  0.00    +0.000 C 
ATOM     62  F10 UNL A   1      19.913  55.314   1.680  1.00  0.00    +0.000 F 
ENDBRANCH   51   52
BRANCH   66   67
ATOM     67  C46 UNL A   1      13.612  55.808   5.110  1.00  0.00    +0.000 C 
ATOM     68  C47 UNL A   1      12.714  56.790   4.665  1.00  0.00    +0.000 C 
ATOM     69  F11 UNL A   1      12.265  56.764   3.403  1.00  0.00    +0.000 F 
ATOM     70  C48 UNL A   1      12.311  57.829   5.502  1.00  0.00    +0.000 C 
ATOM     71  F12 UNL A   1      11.496  58.783   5.034  1.00  0.00    +0.000 F 
ATOM     72  C49 UNL A   1      12.768  57.887   6.810  1.00  0.00    +0.000 C 
ATOM     73  F13 UNL A   1      12.379  58.886   7.614  1.00  0.00    +0.000 F 
ATOM     74  C50 UNL A   1      13.636  56.914   7.279  1.00  0.00    +0.000 C 
ATOM     75  F14 UNL A   1      14.068  56.956   8.546  1.00  0.00    +0.000 F 
ATOM     76  C51 UNL A   1      14.067  55.892   6.433  1.00  0.00    +0.000 C 
ATOM     77  F15 UNL A   1      14.920  54.976   6.911  1.00  0.00    +0.000 F 
ENDBRANCH   66   67
TORSDOF 22
ENDMDL
MODEL 2
REMARK VINA RESULT:      -8.2      2.084      7.915
ROOT
ATOM    129  H31 UNL A   1      18.580  53.565  -2.507  1.00  0.00    +0.000 H 
ATOM    130  H32 UNL A   1      13.418  53.624   6.110  1.00  0.00    +0.000 H 
ATOM    131  H33 UNL A   1      13.355  51.065   6.083  1.00  0.00    +0.000 H 
ATOM     30  C22 UNL A   1      14.398  49.921   3.690  1.00  0.00    +0.000 C 
ATOM     31  C23 UNL A   1      14.413  51.367   4.099  1.00  0.00    +0.000 C 
ATOM     32  N3  UNL A   1      14.899  52.405   3.465  1.00  0.00    +0.000 N 
ATOM     33  C24 UNL A   1      14.606  53.505   4.261  1.00  0.00    +0.000 C 
ATOM     34  C25 UNL A   1      14.962  54.798   4.078  1.00  0.00    +0.000 C 
ATOM     46  C32 UNL A   1      15.738  55.272   2.962  1.00  0.00    +0.000 C 
ATOM     47  C33 UNL A   1      16.194  56.554   2.709  1.00  0.00    +0.000 C 
ATOM     48  C34 UNL A   1      16.853  56.549   1.476  1.00  0.00    +0.000 C 
ATOM     49  C35 UNL A   1      16.868  55.250   0.992  1.00  0.00    +0.000 C 
ATOM     50  N4  UNL A   1      16.173  54.478   1.909  1.00  0.00    +0.000 N 
ATOM     51  C36 UNL A   1      17.474  54.751  -0.218  1.00  0.00    +0.000 C 
ATOM     63  C43 UNL A   1      17.442  53.459  -0.626  1.00  0.00    +0.000 C 
ATOM     64  N5  UNL A   1      16.865  52.360  -0.003  1.00  0.00    +0.000 N 
ATOM     65  C44 UNL A   1      17.096  51.337  -0.790  1.00  0.00    +0.000 C 
ATOM     66  C45 UNL A   1      16.735  49.887  -0.598  1.00  0.00    +0.000 C 
ATOM     78  C52 UNL A   1      16.090  49.516   0.525  1.00  0.00    +0.000 C 
ATOM     79  C53 UNL A   1      15.674  48.155   0.852  1.00  0.00    +0.000 C 
ATOM     80  C54 UNL A   1      15.004  48.171   2.015  1.00  0.00    +0.000 C 
ATOM     81  C55 UNL A   1      14.982  49.537   2.539  1.00  0.00    +0.000 C 
ATOM     82  N6  UNL A   1      15.661  50.265   1.593  1.00  0.00    +0.000 N 
ATOM     83  C56 UNL A   1      17.816  51.682  -2.024  1.00  0.00    +0.000 C 
ATOM     84  C57 UNL A   1      18.043  52.976  -1.851  1.00  0.00    +0.000 C 
ATOM     85  C58 UNL A   1      13.844  53.020   5.389  1.00  0.00    +0.000 C 
ATOM     86  C59 UNL A   1      13.764  51.698   5.378  1.00  0.00    +0.000 C 
ATOM    122  H24 UNL A   1      16.069  57.372   3.325  1.00  0.00    +0.000 H 
ATOM    123  H25 UNL A   1      17.260  57.372   1.007  1.00  0.00    +0.000 H 
ATOM    124  H26 UNL A   1      16.011  53.511   1.826  1.00  0.00    +0.000 H 
ATOM    125  H27 UNL A   1      15.864  47.317   0.282  1.00  0.00    +0.000 H 
ATOM    126  H28 UNL A   1      14.572  47.350   2.467  1.00  0.00    +0.000 H 
ATOM    127  H29 UNL A   1      15.826  51.232   1.674  1.00  0.00    +0.000 H 
ATOM    128  H30 UNL A   1      18.075  51.075  -2.817  1.00  0.00    +0.000 H 
ENDROOT
BRANCH   30   29
ATOM    132  H34 UNL A   1      11.827  49.201   3.535  1.00  0.00    +0.000 H 
ATOM    133  H35 UNL A   1      10.590  47.689   4.969  1.00  0.00    +0.000 H 
ATOM    120  H22 UNL A   1      14.136  46.706   7.008  1.00  0.00    +0.000 H 
ATOM     87  C60 UNL A   1      12.312  48.695   4.292  1.00  0.00    +0.000 C 
ATOM     88  C61 UNL A   1      11.610  47.790   5.081  1.00  0.00    +0.000 C 
ATOM    121  H23 UNL A   1      15.322  48.412   5.751  1.00  0.00    +0.000 H 
ATOM     26  C18 UNL A   1      12.291  47.019   6.027  1.00  0.00    +0.000 C 
ATOM     27  C19 UNL A   1      13.644  47.248   6.280  1.00  0.00    +0.000 C 
ATOM     28  C20 UNL A   1      14.331  48.216   5.544  1.00  0.00    +0.000 C 
ATOM     29  C21 UNL A   1      13.678  48.923   4.521  1.00  0.00    +0.000 C 
BRANCH   26   24
ATOM     25  O6  UNL A   1      11.683  44.784   6.402  1.00  0.00    +0.000 O 
ATOM     24  C17 UNL A   1      11.594  45.950   6.772  1.00  0.00    +0.000 C 
BRANCH   24   23
ATOM    119  H21 UNL A   1      10.006  46.768   7.684  1.00  0.00    +0.000 H 
ATOM     23  N2  UNL A   1      10.837  46.273   7.871  1.00  0.00    +0.000 N 
BRANCH   23   22
ATOM    118  H20 UNL A   1      11.513  45.001   9.332  1.00  0.00    +0.000 H 
ATOM    117  H19 UNL A   1      10.170  46.047   9.810  1.00  0.00    +0.000 H 
ATOM     22  C16 UNL A   1      11.092  45.984   9.272  1.00  0.00    +0.000 C 
BRANCH   22   21
ATOM    115  H17 UNL A   1      11.919  47.924   9.461  1.00  0.00    +0.000 H 
ATOM    116  H18 UNL A   1      11.924  46.930  10.945  1.00  0.00    +0.000 H 
ATOM     21  C15 UNL A   1      12.089  46.957   9.889  1.00  0.00    +0.000 C 
BRANCH   21   20
ATOM    113  H15 UNL A   1      13.792  45.765  10.310  1.00  0.00    +0.000 H 
ATOM    114  H16 UNL A   1      13.656  46.369   8.629  1.00  0.00    +0.000 H 
ATOM     20  C14 UNL A   1      13.559  46.591   9.671  1.00  0.00    +0.000 C 
BRANCH   20   19
ATOM     19  C13 UNL A   1      14.564  47.711   9.959  1.00  0.00    +0.000 C 
ATOM    111  H13 UNL A   1      14.066  48.647   9.824  1.00  0.00    +0.000 H 
ATOM    112  H14 UNL A   1      14.908  47.552  10.960  1.00  0.00    +0.000 H 
BRANCH   19   18
ATOM     18  C12 UNL A   1      15.811  47.706   9.075  1.00  0.00    +0.000 C 
ATOM    109  H11 UNL A   1      16.372  46.821   9.293  1.00  0.00    +0.000 H 
ATOM    110  H12 UNL A   1      15.468  47.743   8.063  1.00  0.00    +0.000 H 
BRANCH   18   17
ATOM     17  C11 UNL A   1      16.725  48.906   9.269  1.00  0.00    +0.000 C 
ATOM    107  H9  UNL A   1      17.689  48.669   8.867  1.00  0.00    +0.000 H 
ATOM    108  H10 UNL A   1      16.272  49.735   8.765  1.00  0.00    +0.000 H 
BRANCH   17   16
ATOM    106  H8  UNL A   1      17.256  48.579  11.237  1.00  0.00    +0.000 H 
ATOM     16  N1  UNL A   1      16.886  49.283  10.656  1.00  0.00    +0.000 N 
BRANCH   16   14
ATOM     14  C10 UNL A   1      16.603  50.462  11.287  1.00  0.00    +0.000 C 
ATOM     15  O5  UNL A   1      17.557  51.203  11.524  1.00  0.00    +0.000 O 
BRANCH   14   13
ATOM      1  O1  UNL A   1      14.485  53.919   9.861  1.00  0.00    +0.000 O 
ATOM      2  C1  UNL A   1      14.669  53.020  10.665  1.00  0.00    +0.000 C 
ATOM      3  O2  UNL A   1      15.000  53.192  11.968  1.00  0.00    +0.000 O 
ATOM      4  C2  UNL A   1      15.031  51.931  12.658  1.00  0.00    +0.000 C 
ATOM     99  H1  UNL A   1      15.871  51.849  13.317  1.00  0.00    +0.000 H 
ATOM    105  H7  UNL A   1      14.680  49.932  11.845  1.00  0.00    +0.000 H 
ATOM     13  C9  UNL A   1      15.149  50.857  11.581  1.00  0.00    +0.000 C 
ATOM     89  C62 UNL A   1      14.553  51.574  10.415  1.00  0.00    +0.000 C 
BRANCH    4    5
ATOM    100  H2  UNL A   1      13.227  53.801  13.548  1.00  0.00    +0.000 H 
ATOM      5  C3  UNL A   1      13.835  51.773  13.604  1.00  0.00    +0.000 C 
ATOM      6  C4  UNL A   1      12.985  52.863  13.904  1.00  0.00    +0.000 C 
ATOM      7  C5  UNL A   1      11.824  52.708  14.669  1.00  0.00    +0.000 C 
ATOM    104  H6  UNL A   1      14.084  49.697  13.928  1.00  0.00    +0.000 H 
ATOM    101  H3  UNL A   1      11.211  53.515  14.860  1.00  0.00    +0.000 H 
ATOM     10  C7  UNL A   1      12.346  50.374  14.905  1.00  0.00    +0.000 C 
ATOM      8  C6  UNL A   1      11.511  51.454  15.167  1.00  0.00    +0.000 C 
ATOM     12  C8  UNL A   1      13.489  50.517  14.125  1.00  0.00    +0.000 C 
BRANCH    8    9
ATOM      9  O3  UNL A   1      10.390  51.234  15.915  1.00  0.00    +0.000 O 
ATOM    102  H4  UNL A   1      10.446  50.740  16.710  1.00  0.00    +0.000 H 
ENDBRANCH    8    9
BRANCH   10   11
ATOM     11  O4  UNL A   1      12.038  49.143  15.411  1.00  0.00    +0.000 O 
ATOM    103  H5  UNL A   1      11.146  48.924  15.597  1.00  0.00    +0.000 H 
ENDBRANCH   10   11
ENDBRANCH    4    5
BRANCH   89   90
ATOM     90  C63 UNL A   1      13.968  51.127   9.294  1.00  0.00    +0.000 C 
ATOM    134  H36 UNL A   1      14.540  51.083   8.436  1.00  0.00    +0.000 H 
BRANCH   90   91
ATOM     98  C69 UNL A   1      11.782  50.705  10.362  1.00  0.00    +0.000 C 
ATOM    135  H37 UNL A   1      12.618  50.222   7.148  1.00  0.00    +0.000 H 
ATOM    136  H38 UNL A   1      10.295  49.510   7.029  1.00  0.00    +0.000 H 
ATOM    139  H41 UNL A   1      12.176  51.023  11.262  1.00  0.00    +0.000 H 
ATOM     91  C64 UNL A   1      12.572  50.699   9.208  1.00  0.00    +0.000 C 
ATOM     92  C65 UNL A   1      12.029  50.247   7.995  1.00  0.00    +0.000 C 
ATOM     93  C66 UNL A   1      10.697  49.829   7.925  1.00  0.00    +0.000 C 
ATOM     94  C67 UNL A   1       9.921  49.852   9.076  1.00  0.00    +0.000 C 
ATOM     96  C68 UNL A   1      10.464  50.281  10.284  1.00  0.00    +0.000 C 
BRANCH   94   95
ATOM    137  H39 UNL A   1       8.389  48.576   9.311  1.00  0.00    +0.000 H 
ATOM     95  O7  UNL A   1       8.612  49.454   9.073  1.00  0.00    +0.000 O 
ENDBRANCH   94   95
BRANCH   96   97
ATOM     97  O8  UNL A   1       9.696  50.283  11.414  1.00  0.00    +0.000 O 
ATOM    138  H40 UNL A   1       9.412  49.472  11.789  1.00  0.00    +0.000 H 
ENDBRANCH   96   97
ENDBRANCH   90   91
ENDBRANCH   89   90
ENDBRANCH   14   13
ENDBRANCH   16   14
ENDBRANCH   17   16
ENDBRANCH   18   17
ENDBRANCH   19   18
ENDBRANCH   20   19
ENDBRANCH   21   20
ENDBRANCH   22   21
ENDBRANCH   23   22
ENDBRANCH   24   23
ENDBRANCH   26   24
ENDBRANCH   30   29
BRANCH   34   35
ATOM     35  C26 UNL A   1      14.512  55.796   5.106  1.00  0.00    +0.000 C 
ATOM     36  C27 UNL A   1      13.166  56.178   5.226  1.00  0.00    +0.000 C 
ATOM     37  F1  UNL A   1      12.246  55.685   4.382  1.00  0.00    +0.000 F 
ATOM     38  C28 UNL A   1      12.764  57.104   6.185  1.00  0.00    +0.000 C 
ATOM     39  F2  UNL A   1      11.484  57.496   6.240  1.00  0.00    +0.000 F 
ATOM     40  C29 UNL A   1      13.690  57.635   7.071  1.00  0.00    +0.000 C 
ATOM     41  F3  UNL A   1      13.300  58.520   7.999  1.00  0.00    +0.000 F 
ATOM     42  C30 UNL A   1      15.020  57.252   6.990  1.00  0.00    +0.000 C 
ATOM     43  F4  UNL A   1      15.913  57.752   7.855  1.00  0.00    +0.000 F 
ATOM     44  C31 UNL A   1      15.431  56.354   6.008  1.00  0.00    +0.000 C 
ATOM     45  F5  UNL A   1      16.729  56.022   5.944  1.00  0.00    +0.000 F 
ENDBRANCH   34   35
BRANCH   51   52
ATOM     52  C37 UNL A   1      18.225  55.730  -1.074  1.00  0.00    +0.000 C 
ATOM     53  C38 UNL A   1      17.617  56.397  -2.147  1.00  0.00    +0.000 C 
ATOM     54  F6  UNL A   1      16.345  56.127  -2.476  1.00  0.00    +0.000 F 
ATOM     55  C39 UNL A   1      18.329  57.316  -2.914  1.00  0.00    +0.000 C 
ATOM     56  F7  UNL A   1      17.743  57.904  -3.967  1.00  0.00    +0.000 F 
ATOM     57  C40 UNL A   1      19.646  57.616  -2.599  1.00  0.00    +0.000 C 
ATOM     58  F8  UNL A   1      20.324  58.510  -3.331  1.00  0.00    +0.000 F 
ATOM     59  C41 UNL A   1      20.261  56.984  -1.530  1.00  0.00    +0.000 C 
ATOM     60  F9  UNL A   1      21.527  57.286  -1.211  1.00  0.00    +0.000 F 
ATOM     61  C42 UNL A   1      19.564  56.039  -0.783  1.00  0.00    +0.000 C 
ATOM     62  F10 UNL A   1      20.191  55.436   0.239  1.00  0.00    +0.000 F 
ENDBRANCH   51   52
BRANCH   66   67
ATOM     67  C46 UNL A   1      17.100  48.870  -1.620  1.00  0.00    +0.000 C 
ATOM     68  C47 UNL A   1      16.231  48.571  -2.680  1.00  0.00    +0.000 C 
ATOM     69  F11 UNL A   1      15.052  49.201  -2.777  1.00  0.00    +0.000 F 
ATOM     70  C48 UNL A   1      16.549  47.589  -3.617  1.00  0.00    +0.000 C 
ATOM     71  F12 UNL A   1      15.676  47.285  -4.586  1.00  0.00    +0.000 F 
ATOM     72  C49 UNL A   1      17.757  46.913  -3.534  1.00  0.00    +0.000 C 
ATOM     73  F13 UNL A   1      18.062  45.970  -4.436  1.00  0.00    +0.000 F 
ATOM     74  C50 UNL A   1      18.642  47.209  -2.510  1.00  0.00    +0.000 C 
ATOM     75  F14 UNL A   1      19.818  46.571  -2.435  1.00  0.00    +0.000 F 
ATOM     76  C51 UNL A   1      18.311  48.168  -1.553  1.00  0.00    +0.000 C 
ATOM     77  F15 UNL A   1      19.181  48.420  -0.564  1.00  0.00    +0.000 F 
ENDBRANCH   66   67
TORSDOF 22
ENDMDL
MODEL 3
REMARK VINA RESULT:      -8.0      1.183      2.533
ROOT
ATOM    129  H31 UNL A   1      17.225  56.865   1.833  1.00  0.00    +0.000 H 
ATOM    130  H32 UNL A   1      15.206  47.113   0.522  1.00  0.00    +0.000 H 
ATOM    131  H33 UNL A   1      13.247  47.304   2.158  1.00  0.00    +0.000 H 
ATOM     30  C22 UNL A   1      13.083  49.838   3.454  1.00  0.00    +0.000 C 
ATOM     31  C23 UNL A   1      14.011  49.432   2.342  1.00  0.00    +0.000 C 
ATOM     32  N3  UNL A   1      14.930  50.136   1.730  1.00  0.00    +0.000 N 
ATOM     33  C24 UNL A   1      15.525  49.270   0.821  1.00  0.00    +0.000 C 
ATOM     34  C25 UNL A   1      16.480  49.539  -0.100  1.00  0.00    +0.000 C 
ATOM     46  C32 UNL A   1      17.074  50.836  -0.293  1.00  0.00    +0.000 C 
ATOM     47  C33 UNL A   1      18.013  51.224  -1.232  1.00  0.00    +0.000 C 
ATOM     48  C34 UNL A   1      18.336  52.564  -0.998  1.00  0.00    +0.000 C 
ATOM     49  C35 UNL A   1      17.549  53.031   0.042  1.00  0.00    +0.000 C 
ATOM     50  N4  UNL A   1      16.785  51.957   0.472  1.00  0.00    +0.000 N 
ATOM     51  C36 UNL A   1      17.497  54.359   0.601  1.00  0.00    +0.000 C 
ATOM     63  C43 UNL A   1      16.696  54.738   1.627  1.00  0.00    +0.000 C 
ATOM     64  N5  UNL A   1      15.770  53.985   2.338  1.00  0.00    +0.000 N 
ATOM     65  C44 UNL A   1      15.256  54.795   3.231  1.00  0.00    +0.000 C 
ATOM     66  C45 UNL A   1      14.177  54.530   4.248  1.00  0.00    +0.000 C 
ATOM     78  C52 UNL A   1      13.607  53.311   4.295  1.00  0.00    +0.000 C 
ATOM     79  C53 UNL A   1      12.555  52.903   5.221  1.00  0.00    +0.000 C 
ATOM     80  C54 UNL A   1      12.277  51.605   5.024  1.00  0.00    +0.000 C 
ATOM     81  C55 UNL A   1      13.101  51.099   3.925  1.00  0.00    +0.000 C 
ATOM     82  N6  UNL A   1      13.851  52.185   3.547  1.00  0.00    +0.000 N 
ATOM     83  C56 UNL A   1      15.829  56.149   3.212  1.00  0.00    +0.000 C 
ATOM     84  C57 UNL A   1      16.666  56.073   2.188  1.00  0.00    +0.000 C 
ATOM     85  C58 UNL A   1      14.910  47.975   1.006  1.00  0.00    +0.000 C 
ATOM     86  C59 UNL A   1      13.915  48.039   1.878  1.00  0.00    +0.000 C 
ATOM    122  H24 UNL A   1      18.407  50.627  -1.976  1.00  0.00    +0.000 H 
ATOM    123  H25 UNL A   1      19.042  53.113  -1.514  1.00  0.00    +0.000 H 
ATOM    124  H26 UNL A   1      16.134  51.987   1.210  1.00  0.00    +0.000 H 
ATOM    125  H27 UNL A   1      12.097  53.514   5.915  1.00  0.00    +0.000 H 
ATOM    126  H28 UNL A   1      11.593  51.050   5.561  1.00  0.00    +0.000 H 
ATOM    127  H29 UNL A   1      14.502  52.160   2.808  1.00  0.00    +0.000 H 
ATOM    128  H30 UNL A   1      15.632  56.948   3.834  1.00  0.00    +0.000 H 
ENDROOT
BRANCH   30   29
ATOM    132  H34 UNL A   1      10.536  49.290   2.854  1.00  0.00    +0.000 H 
ATOM    133  H35 UNL A   1       9.017  47.755   3.954  1.00  0.00    +0.000 H 
ATOM    120  H22 UNL A   1      12.149  46.410   6.421  1.00  0.00    +0.000 H 
ATOM     87  C60 UNL A   1      10.872  48.701   3.631  1.00  0.00    +0.000 C 
ATOM     88  C61 UNL A   1      10.011  47.785   4.228  1.00  0.00    +0.000 C 
ATOM    121  H23 UNL A   1      13.600  48.129   5.502  1.00  0.00    +0.000 H 
ATOM     26  C18 UNL A   1      10.498  46.907   5.200  1.00  0.00    +0.000 C 
ATOM     27  C19 UNL A   1      11.805  47.034   5.674  1.00  0.00    +0.000 C 
ATOM     28  C20 UNL A   1      12.644  48.009   5.131  1.00  0.00    +0.000 C 
ATOM     29  C21 UNL A   1      12.194  48.828   4.082  1.00  0.00    +0.000 C 
BRANCH   26   24
ATOM     25  O6  UNL A   1       8.681  45.427   5.095  1.00  0.00    +0.000 O 
ATOM     24  C17 UNL A   1       9.641  45.831   5.741  1.00  0.00    +0.000 C 
BRANCH   24   23
ATOM    119  H21 UNL A   1      10.274  44.378   6.970  1.00  0.00    +0.000 H 
ATOM     23  N2  UNL A   1       9.921  45.298   6.974  1.00  0.00    +0.000 N 
BRANCH   23   22
ATOM    118  H20 UNL A   1      10.583  46.583   8.431  1.00  0.00    +0.000 H 
ATOM    117  H19 UNL A   1       9.771  45.129   9.025  1.00  0.00    +0.000 H 
ATOM     22  C16 UNL A   1       9.769  45.903   8.287  1.00  0.00    +0.000 C 
BRANCH   22   21
ATOM    115  H17 UNL A   1       8.314  47.217   7.487  1.00  0.00    +0.000 H 
ATOM    116  H18 UNL A   1       7.704  45.986   8.628  1.00  0.00    +0.000 H 
ATOM     21  C15 UNL A   1       8.473  46.696   8.409  1.00  0.00    +0.000 C 
BRANCH   21   20
ATOM    113  H15 UNL A   1       8.530  48.696   9.112  1.00  0.00    +0.000 H 
ATOM    114  H16 UNL A   1       7.540  47.556  10.076  1.00  0.00    +0.000 H 
ATOM     20  C14 UNL A   1       8.455  47.720   9.546  1.00  0.00    +0.000 C 
BRANCH   20   19
ATOM     19  C13 UNL A   1       9.575  47.574  10.580  1.00  0.00    +0.000 C 
ATOM    111  H13 UNL A   1       9.126  47.491  11.547  1.00  0.00    +0.000 H 
ATOM    112  H14 UNL A   1      10.134  46.707  10.294  1.00  0.00    +0.000 H 
BRANCH   19   18
ATOM     18  C12 UNL A   1      10.575  48.730  10.620  1.00  0.00    +0.000 C 
ATOM    109  H11 UNL A   1      10.460  49.239  11.554  1.00  0.00    +0.000 H 
ATOM    110  H12 UNL A   1      11.546  48.298  10.498  1.00  0.00    +0.000 H 
BRANCH   18   17
ATOM     17  C11 UNL A   1      10.407  49.747   9.502  1.00  0.00    +0.000 C 
ATOM    107  H9  UNL A   1      10.878  49.363   8.620  1.00  0.00    +0.000 H 
ATOM    108  H10 UNL A   1       9.357  49.896   9.363  1.00  0.00    +0.000 H 
BRANCH   17   16
ATOM    106  H8  UNL A   1      10.476  51.578  10.452  1.00  0.00    +0.000 H 
ATOM     16  N1  UNL A   1      10.988  51.034   9.809  1.00  0.00    +0.000 N 
BRANCH   16   14
ATOM     14  C10 UNL A   1      12.136  51.616   9.347  1.00  0.00    +0.000 C 
ATOM     15  O5  UNL A   1      12.118  52.840   9.213  1.00  0.00    +0.000 O 
BRANCH   14   13
ATOM      1  O1  UNL A   1      15.904  51.910  11.392  1.00  0.00    +0.000 O 
ATOM      2  C1  UNL A   1      15.218  51.608  10.430  1.00  0.00    +0.000 C 
ATOM      3  O2  UNL A   1      15.327  52.148   9.192  1.00  0.00    +0.000 O 
ATOM      4  C2  UNL A   1      14.444  51.488   8.268  1.00  0.00    +0.000 C 
ATOM     99  H1  UNL A   1      13.946  52.179   7.619  1.00  0.00    +0.000 H 
ATOM    105  H7  UNL A   1      13.025  49.874   8.667  1.00  0.00    +0.000 H 
ATOM     13  C9  UNL A   1      13.396  50.772   9.115  1.00  0.00    +0.000 C 
ATOM     89  C62 UNL A   1      14.152  50.593  10.389  1.00  0.00    +0.000 C 
BRANCH    4    5
ATOM    100  H2  UNL A   1      14.681  48.753   8.196  1.00  0.00    +0.000 H 
ATOM      5  C3  UNL A   1      15.213  50.592   7.291  1.00  0.00    +0.000 C 
ATOM      6  C4  UNL A   1      15.169  49.182   7.395  1.00  0.00    +0.000 C 
ATOM      7  C5  UNL A   1      15.769  48.351   6.442  1.00  0.00    +0.000 C 
ATOM    104  H6  UNL A   1      15.961  52.168   6.092  1.00  0.00    +0.000 H 
ATOM    101  H3  UNL A   1      15.709  47.325   6.530  1.00  0.00    +0.000 H 
ATOM     10  C7  UNL A   1      16.521  50.311   5.272  1.00  0.00    +0.000 C 
ATOM      8  C6  UNL A   1      16.444  48.927   5.379  1.00  0.00    +0.000 C 
ATOM     12  C8  UNL A   1      15.907  51.143   6.202  1.00  0.00    +0.000 C 
BRANCH    8    9
ATOM      9  O3  UNL A   1      17.045  48.173   4.412  1.00  0.00    +0.000 O 
ATOM    102  H4  UNL A   1      17.962  47.987   4.464  1.00  0.00    +0.000 H 
ENDBRANCH    8    9
BRANCH   10   11
ATOM     11  O4  UNL A   1      17.201  50.871   4.227  1.00  0.00    +0.000 O 
ATOM    103  H5  UNL A   1      17.823  50.361   3.746  1.00  0.00    +0.000 H 
ENDBRANCH   10   11
ENDBRANCH    4    5
BRANCH   89   90
ATOM     90  C63 UNL A   1      14.021  49.711  11.391  1.00  0.00    +0.000 C 
ATOM    134  H36 UNL A   1      14.478  48.791  11.288  1.00  0.00    +0.000 H 
BRANCH   90   91
ATOM     98  C69 UNL A   1      12.845  48.887  13.399  1.00  0.00    +0.000 C 
ATOM    135  H37 UNL A   1      13.240  52.073  12.421  1.00  0.00    +0.000 H 
ATOM    136  H38 UNL A   1      11.989  52.474  14.469  1.00  0.00    +0.000 H 
ATOM    139  H41 UNL A   1      13.069  47.919  13.116  1.00  0.00    +0.000 H 
ATOM     91  C64 UNL A   1      13.272  49.967  12.621  1.00  0.00    +0.000 C 
ATOM     92  C65 UNL A   1      12.944  51.276  13.007  1.00  0.00    +0.000 C 
ATOM     93  C66 UNL A   1      12.218  51.510  14.179  1.00  0.00    +0.000 C 
ATOM     94  C67 UNL A   1      11.811  50.428  14.949  1.00  0.00    +0.000 C 
ATOM     96  C68 UNL A   1      12.118  49.128  14.556  1.00  0.00    +0.000 C 
BRANCH   94   95
ATOM    137  H39 UNL A   1      10.314  50.096  16.244  1.00  0.00    +0.000 H 
ATOM     95  O7  UNL A   1      11.097  50.591  16.104  1.00  0.00    +0.000 O 
ENDBRANCH   94   95
BRANCH   96   97
ATOM     97  O8  UNL A   1      11.698  48.071  15.312  1.00  0.00    +0.000 O 
ATOM    138  H40 UNL A   1      10.993  47.531  15.012  1.00  0.00    +0.000 H 
ENDBRANCH   96   97
ENDBRANCH   90   91
ENDBRANCH   89   90
ENDBRANCH   14   13
ENDBRANCH   16   14
ENDBRANCH   17   16
ENDBRANCH   18   17
ENDBRANCH   19   18
ENDBRANCH   20   19
ENDBRANCH   21   20
ENDBRANCH   22   21
ENDBRANCH   23   22
ENDBRANCH   24   23
ENDBRANCH   26   24
ENDBRANCH   30   29
BRANCH   34   35
ATOM     35  C26 UNL A   1      16.946  48.406  -0.970  1.00  0.00    +0.000 C 
ATOM     36  C27 UNL A   1      16.262  48.045  -2.142  1.00  0.00    +0.000 C 
ATOM     37  F1  UNL A   1      15.137  48.685  -2.493  1.00  0.00    +0.000 F 
ATOM     38  C28 UNL A   1      16.707  46.992  -2.938  1.00  0.00    +0.000 C 
ATOM     39  F2  UNL A   1      16.005  46.629  -4.019  1.00  0.00    +0.000 F 
ATOM     40  C29 UNL A   1      17.866  46.308  -2.602  1.00  0.00    +0.000 C 
ATOM     41  F3  UNL A   1      18.297  45.300  -3.374  1.00  0.00    +0.000 F 
ATOM     42  C30 UNL A   1      18.573  46.664  -1.464  1.00  0.00    +0.000 C 
ATOM     43  F4  UNL A   1      19.701  46.014  -1.146  1.00  0.00    +0.000 F 
ATOM     44  C31 UNL A   1      18.110  47.692  -0.647  1.00  0.00    +0.000 C 
ATOM     45  F5  UNL A   1      18.806  47.997   0.459  1.00  0.00    +0.000 F 
ENDBRANCH   34   35
BRANCH   51   52
ATOM     52  C37 UNL A   1      18.371  55.410  -0.021  1.00  0.00    +0.000 C 
ATOM     53  C38 UNL A   1      19.565  55.833   0.579  1.00  0.00    +0.000 C 
ATOM     54  F6  UNL A   1      19.931  55.343   1.773  1.00  0.00    +0.000 F 
ATOM     55  C39 UNL A   1      20.370  56.795  -0.027  1.00  0.00    +0.000 C 
ATOM     56  F7  UNL A   1      21.481  57.221   0.589  1.00  0.00    +0.000 F 
ATOM     57  C40 UNL A   1      20.018  57.320  -1.261  1.00  0.00    +0.000 C 
ATOM     58  F8  UNL A   1      20.800  58.236  -1.849  1.00  0.00    +0.000 F 
ATOM     59  C41 UNL A   1      18.852  56.902  -1.883  1.00  0.00    +0.000 C 
ATOM     60  F9  UNL A   1      18.519  57.394  -3.085  1.00  0.00    +0.000 F 
ATOM     61  C42 UNL A   1      18.027  55.967  -1.264  1.00  0.00    +0.000 C 
ATOM     62  F10 UNL A   1      16.900  55.591  -1.886  1.00  0.00    +0.000 F 
ENDBRANCH   51   52
BRANCH   66   67
ATOM     67  C46 UNL A   1      13.727  55.600   5.177  1.00  0.00    +0.000 C 
ATOM     68  C47 UNL A   1      14.188  55.646   6.501  1.00  0.00    +0.000 C 
ATOM     69  F11 UNL A   1      15.042  54.712   6.944  1.00  0.00    +0.000 F 
ATOM     70  C48 UNL A   1      13.738  56.622   7.389  1.00  0.00    +0.000 C 
ATOM     71  F12 UNL A   1      14.153  56.607   8.662  1.00  0.00    +0.000 F 
ATOM     72  C49 UNL A   1      12.846  57.593   6.960  1.00  0.00    +0.000 C 
ATOM     73  F13 UNL A   1      12.414  58.532   7.813  1.00  0.00    +0.000 F 
ATOM     74  C50 UNL A   1      12.395  57.584   5.649  1.00  0.00    +0.000 C 
ATOM     75  F14 UNL A   1      11.546  58.530   5.226  1.00  0.00    +0.000 F 
ATOM     76  C51 UNL A   1      12.819  56.588   4.770  1.00  0.00    +0.000 C 
ATOM     77  F15 UNL A   1      12.352  56.596   3.513  1.00  0.00    +0.000 F 
ENDBRANCH   66   67
TORSDOF 22
ENDMDL
MODEL 4
REMARK VINA RESULT:      -8.0      1.900      4.006
ROOT
ATOM    129  H31 UNL A   1      17.354  57.186   0.982  1.00  0.00    +0.000 H 
ATOM    130  H32 UNL A   1      15.608  47.307   0.503  1.00  0.00    +0.000 H 
ATOM    131  H33 UNL A   1      13.899  47.522   2.397  1.00  0.00    +0.000 H 
ATOM     30  C22 UNL A   1      13.810  50.120   3.566  1.00  0.00    +0.000 C 
ATOM     31  C23 UNL A   1      14.584  49.684   2.353  1.00  0.00    +0.000 C 
ATOM     32  N3  UNL A   1      15.373  50.383   1.576  1.00  0.00    +0.000 N 
ATOM     33  C24 UNL A   1      15.869  49.488   0.637  1.00  0.00    +0.000 C 
ATOM     34  C25 UNL A   1      16.667  49.737  -0.428  1.00  0.00    +0.000 C 
ATOM     46  C32 UNL A   1      17.168  51.041  -0.774  1.00  0.00    +0.000 C 
ATOM     47  C33 UNL A   1      17.943  51.407  -1.860  1.00  0.00    +0.000 C 
ATOM     48  C34 UNL A   1      18.236  52.769  -1.749  1.00  0.00    +0.000 C 
ATOM     49  C35 UNL A   1      17.588  53.268  -0.630  1.00  0.00    +0.000 C 
ATOM     50  N4  UNL A   1      16.942  52.194  -0.037  1.00  0.00    +0.000 N 
ATOM     51  C36 UNL A   1      17.557  54.624  -0.141  1.00  0.00    +0.000 C 
ATOM     63  C43 UNL A   1      16.897  55.033   0.970  1.00  0.00    +0.000 C 
ATOM     64  N5  UNL A   1      16.118  54.290   1.847  1.00  0.00    +0.000 N 
ATOM     65  C44 UNL A   1      15.703  55.133   2.762  1.00  0.00    +0.000 C 
ATOM     66  C45 UNL A   1      14.796  54.889   3.940  1.00  0.00    +0.000 C 
ATOM     78  C52 UNL A   1      14.293  53.654   4.135  1.00  0.00    +0.000 C 
ATOM     79  C53 UNL A   1      13.405  53.263   5.226  1.00  0.00    +0.000 C 
ATOM     80  C54 UNL A   1      13.161  51.946   5.141  1.00  0.00    +0.000 C 
ATOM     81  C55 UNL A   1      13.840  51.407   3.961  1.00  0.00    +0.000 C 
ATOM     82  N6  UNL A   1      14.477  52.496   3.420  1.00  0.00    +0.000 N 
ATOM     83  C56 UNL A   1      16.206  56.503   2.587  1.00  0.00    +0.000 C 
ATOM     84  C57 UNL A   1      16.888  56.397   1.457  1.00  0.00    +0.000 C 
ATOM     85  C58 UNL A   1      15.346  48.184   0.979  1.00  0.00    +0.000 C 
ATOM     86  C59 UNL A   1      14.486  48.263   1.983  1.00  0.00    +0.000 C 
ATOM    122  H24 UNL A   1      18.252  50.782  -2.621  1.00  0.00    +0.000 H 
ATOM    123  H25 UNL A   1      18.835  53.312  -2.391  1.00  0.00    +0.000 H 
ATOM    124  H26 UNL A   1      16.405  52.243   0.786  1.00  0.00    +0.000 H 
ATOM    125  H27 UNL A   1      13.026  53.897   5.946  1.00  0.00    +0.000 H 
ATOM    126  H28 UNL A   1      12.587  51.400   5.802  1.00  0.00    +0.000 H 
ATOM    127  H29 UNL A   1      15.015  52.451   2.596  1.00  0.00    +0.000 H 
ATOM    128  H30 UNL A   1      16.065  57.329   3.188  1.00  0.00    +0.000 H 
ENDROOT
BRANCH   30   29
ATOM    132  H34 UNL A   1      14.772  48.491   5.455  1.00  0.00    +0.000 H 
ATOM    133  H35 UNL A   1      13.619  46.745   6.679  1.00  0.00    +0.000 H 
ATOM    120  H22 UNL A   1       9.984  47.880   4.890  1.00  0.00    +0.000 H 
ATOM     87  C60 UNL A   1      13.761  48.342   5.312  1.00  0.00    +0.000 C 
ATOM     88  C61 UNL A   1      13.092  47.372   6.052  1.00  0.00    +0.000 C 
ATOM    121  H23 UNL A   1      11.180  49.447   3.472  1.00  0.00    +0.000 H 
ATOM     26  C18 UNL A   1      11.704  47.251   5.944  1.00  0.00    +0.000 C 
ATOM     27  C19 UNL A   1      11.003  48.001   4.998  1.00  0.00    +0.000 C 
ATOM     28  C20 UNL A   1      11.689  48.916   4.196  1.00  0.00    +0.000 C 
ATOM     29  C21 UNL A   1      13.068  49.117   4.371  1.00  0.00    +0.000 C 
BRANCH   26   24
ATOM     25  O6  UNL A   1       9.756  46.152   6.650  1.00  0.00    +0.000 O 
ATOM     24  C17 UNL A   1      10.956  46.332   6.826  1.00  0.00    +0.000 C 
BRANCH   24   23
ATOM    119  H21 UNL A   1      12.244  44.989   7.574  1.00  0.00    +0.000 H 
ATOM     23  N2  UNL A   1      11.610  45.691   7.849  1.00  0.00    +0.000 N 
BRANCH   23   22
ATOM    118  H20 UNL A   1      11.148  44.996   9.723  1.00  0.00    +0.000 H 
ATOM    117  H19 UNL A   1      10.812  46.711   9.455  1.00  0.00    +0.000 H 
ATOM     22  C16 UNL A   1      11.496  45.907   9.282  1.00  0.00    +0.000 C 
BRANCH   22   21
ATOM    115  H17 UNL A   1      12.680  47.069  10.597  1.00  0.00    +0.000 H 
ATOM    116  H18 UNL A   1      13.178  45.365  10.406  1.00  0.00    +0.000 H 
ATOM     21  C15 UNL A   1      12.835  46.254   9.921  1.00  0.00    +0.000 C 
BRANCH   21   20
ATOM    113  H15 UNL A   1      14.299  45.766   8.465  1.00  0.00    +0.000 H 
ATOM    114  H16 UNL A   1      13.474  47.342   8.248  1.00  0.00    +0.000 H 
ATOM     20  C14 UNL A   1      13.931  46.657   8.931  1.00  0.00    +0.000 C 
BRANCH   20   19
ATOM     19  C13 UNL A   1      15.124  47.400   9.540  1.00  0.00    +0.000 C 
ATOM    111  H13 UNL A   1      14.748  48.107  10.249  1.00  0.00    +0.000 H 
ATOM    112  H14 UNL A   1      15.751  46.651   9.976  1.00  0.00    +0.000 H 
BRANCH   19   18
ATOM     18  C12 UNL A   1      15.998  48.154   8.537  1.00  0.00    +0.000 C 
ATOM    109  H11 UNL A   1      16.609  47.441   8.024  1.00  0.00    +0.000 H 
ATOM    110  H12 UNL A   1      15.332  48.679   7.885  1.00  0.00    +0.000 H 
BRANCH   18   17
ATOM     17  C11 UNL A   1      16.910  49.200   9.159  1.00  0.00    +0.000 C 
ATOM    107  H9  UNL A   1      17.918  48.840   9.120  1.00  0.00    +0.000 H 
ATOM    108  H10 UNL A   1      16.785  50.104   8.600  1.00  0.00    +0.000 H 
BRANCH   17   16
ATOM    106  H8  UNL A   1      16.732  48.755  11.167  1.00  0.00    +0.000 H 
ATOM     16  N1  UNL A   1      16.582  49.496  10.536  1.00  0.00    +0.000 N 
BRANCH   16   14
ATOM     14  C10 UNL A   1      16.096  50.644  11.099  1.00  0.00    +0.000 C 
ATOM     15  O5  UNL A   1      16.915  51.371  11.663  1.00  0.00    +0.000 O 
BRANCH   14   13
ATOM      1  O1  UNL A   1      13.370  51.980  14.140  1.00  0.00    +0.000 O 
ATOM      2  C1  UNL A   1      13.619  51.459  13.066  1.00  0.00    +0.000 C 
ATOM      3  O2  UNL A   1      13.344  50.173  12.738  1.00  0.00    +0.000 O 
ATOM      4  C2  UNL A   1      13.666  49.917  11.360  1.00  0.00    +0.000 C 
ATOM     99  H1  UNL A   1      14.154  48.974  11.225  1.00  0.00    +0.000 H 
ATOM    105  H7  UNL A   1      14.538  51.285   9.895  1.00  0.00    +0.000 H 
ATOM     13  C9  UNL A   1      14.620  51.027  10.930  1.00  0.00    +0.000 C 
ATOM     89  C62 UNL A   1      14.241  52.101  11.895  1.00  0.00    +0.000 C 
BRANCH    4    5
ATOM    100  H2  UNL A   1      13.290  50.404   8.683  1.00  0.00    +0.000 H 
ATOM      5  C3  UNL A   1      12.404  49.776  10.501  1.00  0.00    +0.000 C 
ATOM      6  C4  UNL A   1      12.428  50.032   9.110  1.00  0.00    +0.000 C 
ATOM      7  C5  UNL A   1      11.316  49.794   8.295  1.00  0.00    +0.000 C 
ATOM    104  H6  UNL A   1      11.150  49.095  12.064  1.00  0.00    +0.000 H 
ATOM    101  H3  UNL A   1      11.363  49.971   7.279  1.00  0.00    +0.000 H 
ATOM     10  C7  UNL A   1      10.098  49.082  10.240  1.00  0.00    +0.000 C 
ATOM      8  C6  UNL A   1      10.151  49.316   8.870  1.00  0.00    +0.000 C 
ATOM     12  C8  UNL A   1      11.207  49.293  11.052  1.00  0.00    +0.000 C 
BRANCH    8    9
ATOM      9  O3  UNL A   1       9.033  49.057   8.130  1.00  0.00    +0.000 O 
ATOM    102  H4  UNL A   1       8.987  48.282   7.606  1.00  0.00    +0.000 H 
ENDBRANCH    8    9
BRANCH   10   11
ATOM     11  O4  UNL A   1       8.941  48.624  10.803  1.00  0.00    +0.000 O 
ATOM    103  H5  UNL A   1       8.156  48.583  10.292  1.00  0.00    +0.000 H 
ENDBRANCH   10   11
ENDBRANCH    4    5
BRANCH   89   90
ATOM     90  C63 UNL A   1      14.360  53.435  11.841  1.00  0.00    +0.000 C 
ATOM    134  H36 UNL A   1      15.063  53.883  12.450  1.00  0.00    +0.000 H 
BRANCH   90   91
ATOM     98  C69 UNL A   1      12.373  54.853  11.469  1.00  0.00    +0.000 C 
ATOM    135  H37 UNL A   1      14.804  54.119   9.275  1.00  0.00    +0.000 H 
ATOM    136  H38 UNL A   1      13.452  55.555   7.851  1.00  0.00    +0.000 H 
ATOM    139  H41 UNL A   1      12.076  54.667  12.440  1.00  0.00    +0.000 H 
ATOM     91  C64 UNL A   1      13.558  54.299  10.974  1.00  0.00    +0.000 C 
ATOM     92  C65 UNL A   1      13.941  54.545   9.647  1.00  0.00    +0.000 C 
ATOM     93  C66 UNL A   1      13.163  55.364   8.823  1.00  0.00    +0.000 C 
ATOM     94  C67 UNL A   1      11.994  55.917   9.331  1.00  0.00    +0.000 C 
ATOM     96  C68 UNL A   1      11.603  55.657  10.642  1.00  0.00    +0.000 C 
BRANCH   94   95
ATOM    137  H39 UNL A   1      11.504  57.074   7.766  1.00  0.00    +0.000 H 
ATOM     95  O7  UNL A   1      11.189  56.724   8.575  1.00  0.00    +0.000 O 
ENDBRANCH   94   95
BRANCH   96   97
ATOM     97  O8  UNL A   1      10.444  56.193  11.125  1.00  0.00    +0.000 O 
ATOM    138  H40 UNL A   1       9.647  55.700  11.087  1.00  0.00    +0.000 H 
ENDBRANCH   96   97
ENDBRANCH   90   91
ENDBRANCH   89   90
ENDBRANCH   14   13
ENDBRANCH   16   14
ENDBRANCH   17   16
ENDBRANCH   18   17
ENDBRANCH   19   18
ENDBRANCH   20   19
ENDBRANCH   21   20
ENDBRANCH   22   21
ENDBRANCH   23   22
ENDBRANCH   24   23
ENDBRANCH   26   24
ENDBRANCH   30   29
BRANCH   34   35
ATOM     35  C26 UNL A   1      17.053  48.572  -1.295  1.00  0.00    +0.000 C 
ATOM     36  C27 UNL A   1      16.384  48.293  -2.498  1.00  0.00    +0.000 C 
ATOM     37  F1  UNL A   1      15.343  49.045  -2.882  1.00  0.00    +0.000 F 
ATOM     38  C28 UNL A   1      16.754  47.209  -3.291  1.00  0.00    +0.000 C 
ATOM     39  F2  UNL A   1      16.063  46.929  -4.404  1.00  0.00    +0.000 F 
ATOM     40  C29 UNL A   1      17.826  46.410  -2.921  1.00  0.00    +0.000 C 
ATOM     41  F3  UNL A   1      18.185  45.372  -3.689  1.00  0.00    +0.000 F 
ATOM     42  C30 UNL A   1      18.518  46.682  -1.751  1.00  0.00    +0.000 C 
ATOM     43  F4  UNL A   1      19.563  45.920  -1.400  1.00  0.00    +0.000 F 
ATOM     44  C31 UNL A   1      18.128  47.743  -0.937  1.00  0.00    +0.000 C 
ATOM     45  F5  UNL A   1      18.806  47.966   0.198  1.00  0.00    +0.000 F 
ENDBRANCH   34   35
BRANCH   51   52
ATOM     52  C37 UNL A   1      18.284  55.668  -0.941  1.00  0.00    +0.000 C 
ATOM     53  C38 UNL A   1      17.672  56.346  -2.004  1.00  0.00    +0.000 C 
ATOM     54  F6  UNL A   1      16.422  56.031  -2.377  1.00  0.00    +0.000 F 
ATOM     55  C39 UNL A   1      18.359  57.325  -2.719  1.00  0.00    +0.000 C 
ATOM     56  F7  UNL A   1      17.773  57.924  -3.764  1.00  0.00    +0.000 F 
ATOM     57  C40 UNL A   1      19.652  57.672  -2.357  1.00  0.00    +0.000 C 
ATOM     58  F8  UNL A   1      20.306  58.624  -3.038  1.00  0.00    +0.000 F 
ATOM     59  C41 UNL A   1      20.269  57.030  -1.296  1.00  0.00    +0.000 C 
ATOM     60  F9  UNL A   1      21.512  57.377  -0.932  1.00  0.00    +0.000 F 
ATOM     61  C42 UNL A   1      19.599  56.026  -0.603  1.00  0.00    +0.000 C 
ATOM     62  F10 UNL A   1      20.227  55.415   0.413  1.00  0.00    +0.000 F 
ENDBRANCH   51   52
BRANCH   66   67
ATOM     67  C46 UNL A   1      14.436  55.995   4.866  1.00  0.00    +0.000 C 
ATOM     68  C47 UNL A   1      13.177  56.610   4.798  1.00  0.00    +0.000 C 
ATOM     69  F11 UNL A   1      12.284  56.206   3.885  1.00  0.00    +0.000 F 
ATOM     70  C48 UNL A   1      12.850  57.675   5.636  1.00  0.00    +0.000 C 
ATOM     71  F12 UNL A   1      11.661  58.279   5.511  1.00  0.00    +0.000 F 
ATOM     72  C49 UNL A   1      13.759  58.121   6.583  1.00  0.00    +0.000 C 
ATOM     73  F13 UNL A   1      13.443  59.144   7.389  1.00  0.00    +0.000 F 
ATOM     74  C50 UNL A   1      15.000  57.512   6.686  1.00  0.00    +0.000 C 
ATOM     75  F14 UNL A   1      15.876  57.928   7.610  1.00  0.00    +0.000 F 
ATOM     76  C51 UNL A   1      15.341  56.469   5.826  1.00  0.00    +0.000 C 
ATOM     77  F15 UNL A   1      16.555  55.911   5.939  1.00  0.00    +0.000 F 
ENDBRANCH   66   67
TORSDOF 22
ENDMDL
MODEL 5
REMARK VINA RESULT:      -8.0     44.599     47.476
ROOT
ATOM    129  H31 UNL A   1      17.905  40.132  49.821  1.00  0.00    +0.000 H 
ATOM    130  H32 UNL A   1      25.362  35.037  45.424  1.00  0.00    +0.000 H 
ATOM    131  H33 UNL A   1      26.935  37.020  45.807  1.00  0.00    +0.000 H 
ATOM     30  C22 UNL A   1      25.629  39.332  46.843  1.00  0.00    +0.000 C 
ATOM     31  C23 UNL A   1      25.045  37.962  46.637  1.00  0.00    +0.000 C 
ATOM     32  N3  UNL A   1      23.834  37.530  46.882  1.00  0.00    +0.000 N 
ATOM     33  C24 UNL A   1      23.814  36.205  46.465  1.00  0.00    +0.000 C 
ATOM     34  C25 UNL A   1      22.812  35.301  46.574  1.00  0.00    +0.000 C 
ATOM     46  C32 UNL A   1      21.530  35.583  47.165  1.00  0.00    +0.000 C 
ATOM     47  C33 UNL A   1      20.465  34.723  47.368  1.00  0.00    +0.000 C 
ATOM     48  C34 UNL A   1      19.410  35.456  47.919  1.00  0.00    +0.000 C 
ATOM     49  C35 UNL A   1      19.839  36.758  48.122  1.00  0.00    +0.000 C 
ATOM     50  N4  UNL A   1      21.140  36.824  47.647  1.00  0.00    +0.000 N 
ATOM     51  C36 UNL A   1      19.116  37.859  48.708  1.00  0.00    +0.000 C 
ATOM     63  C43 UNL A   1      19.609  39.112  48.871  1.00  0.00    +0.000 C 
ATOM     64  N5  UNL A   1      20.865  39.606  48.546  1.00  0.00    +0.000 N 
ATOM     65  C44 UNL A   1      20.855  40.871  48.890  1.00  0.00    +0.000 C 
ATOM     66  C45 UNL A   1      21.961  41.891  48.804  1.00  0.00    +0.000 C 
ATOM     78  C52 UNL A   1      23.162  41.515  48.325  1.00  0.00    +0.000 C 
ATOM     79  C53 UNL A   1      24.326  42.383  48.180  1.00  0.00    +0.000 C 
ATOM     80  C54 UNL A   1      25.323  41.688  47.612  1.00  0.00    +0.000 C 
ATOM     81  C55 UNL A   1      24.884  40.309  47.393  1.00  0.00    +0.000 C 
ATOM     82  N6  UNL A   1      23.592  40.296  47.857  1.00  0.00    +0.000 N 
ATOM     83  C56 UNL A   1      19.571  41.332  49.439  1.00  0.00    +0.000 C 
ATOM     84  C57 UNL A   1      18.865  40.212  49.449  1.00  0.00    +0.000 C 
ATOM     85  C58 UNL A   1      25.110  35.923  45.891  1.00  0.00    +0.000 C 
ATOM     86  C59 UNL A   1      25.933  36.949  46.043  1.00  0.00    +0.000 C 
ATOM    122  H24 UNL A   1      20.452  33.714  47.151  1.00  0.00    +0.000 H 
ATOM    123  H25 UNL A   1      18.470  35.090  48.136  1.00  0.00    +0.000 H 
ATOM    124  H26 UNL A   1      21.702  37.632  47.651  1.00  0.00    +0.000 H 
ATOM    125  H27 UNL A   1      24.375  43.373  48.469  1.00  0.00    +0.000 H 
ATOM    126  H28 UNL A   1      26.252  42.065  47.367  1.00  0.00    +0.000 H 
ATOM    127  H29 UNL A   1      23.026  39.490  47.856  1.00  0.00    +0.000 H 
ATOM    128  H30 UNL A   1      19.294  42.280  49.737  1.00  0.00    +0.000 H 
ENDROOT
BRANCH   30   29
ATOM    132  H34 UNL A   1      27.923  39.003  48.177  1.00  0.00    +0.000 H 
ATOM    133  H35 UNL A   1      30.169  39.613  47.501  1.00  0.00    +0.000 H 
ATOM    120  H22 UNL A   1      28.732  40.728  43.706  1.00  0.00    +0.000 H 
ATOM     87  C60 UNL A   1      28.089  39.398  47.239  1.00  0.00    +0.000 C 
ATOM     88  C61 UNL A   1      29.386  39.701  46.835  1.00  0.00    +0.000 C 
ATOM    121  H23 UNL A   1      26.455  40.369  44.472  1.00  0.00    +0.000 H 
ATOM     26  C18 UNL A   1      29.624  40.123  45.524  1.00  0.00    +0.000 C 
ATOM     27  C19 UNL A   1      28.556  40.377  44.661  1.00  0.00    +0.000 C 
ATOM     28  C20 UNL A   1      27.248  40.151  45.095  1.00  0.00    +0.000 C 
ATOM     29  C21 UNL A   1      27.007  39.628  46.376  1.00  0.00    +0.000 C 
BRANCH   26   24
ATOM     25  O6  UNL A   1      31.318  39.902  43.917  1.00  0.00    +0.000 O 
ATOM     24  C17 UNL A   1      31.003  40.309  45.031  1.00  0.00    +0.000 C 
BRANCH   24   23
ATOM    119  H21 UNL A   1      31.876  40.713  46.790  1.00  0.00    +0.000 H 
ATOM     23  N2  UNL A   1      31.933  40.927  45.830  1.00  0.00    +0.000 N 
BRANCH   23   22
ATOM    118  H20 UNL A   1      32.920  42.017  44.400  1.00  0.00    +0.000 H 
ATOM    117  H19 UNL A   1      33.931  41.426  45.724  1.00  0.00    +0.000 H 
ATOM     22  C16 UNL A   1      32.988  41.853  45.456  1.00  0.00    +0.000 C 
BRANCH   22   21
ATOM    115  H17 UNL A   1      33.798  43.471  46.554  1.00  0.00    +0.000 H 
ATOM    116  H18 UNL A   1      32.493  43.888  45.407  1.00  0.00    +0.000 H 
ATOM     21  C15 UNL A   1      32.844  43.202  46.149  1.00  0.00    +0.000 C 
BRANCH   21   20
ATOM    113  H15 UNL A   1      31.396  42.251  47.373  1.00  0.00    +0.000 H 
ATOM    114  H16 UNL A   1      32.352  43.548  48.156  1.00  0.00    +0.000 H 
ATOM     20  C14 UNL A   1      31.818  43.231  47.285  1.00  0.00    +0.000 C 
BRANCH   20   19
ATOM     19  C13 UNL A   1      30.669  44.228  47.107  1.00  0.00    +0.000 C 
ATOM    111  H13 UNL A   1      30.569  44.785  48.014  1.00  0.00    +0.000 H 
ATOM    112  H14 UNL A   1      30.927  44.832  46.262  1.00  0.00    +0.000 H 
BRANCH   19   18
ATOM     18  C12 UNL A   1      29.312  43.602  46.783  1.00  0.00    +0.000 C 
ATOM    109  H11 UNL A   1      28.919  44.089  45.915  1.00  0.00    +0.000 H 
ATOM    110  H12 UNL A   1      29.486  42.558  46.633  1.00  0.00    +0.000 H 
BRANCH   18   17
ATOM     17  C11 UNL A   1      28.285  43.716  47.899  1.00  0.00    +0.000 C 
ATOM    107  H9  UNL A   1      28.239  44.737  48.217  1.00  0.00    +0.000 H 
ATOM    108  H10 UNL A   1      27.349  43.376  47.505  1.00  0.00    +0.000 H 
BRANCH   17   16
ATOM    106  H8  UNL A   1      29.244  42.171  48.875  1.00  0.00    +0.000 H 
ATOM     16  N1  UNL A   1      28.594  42.891  49.045  1.00  0.00    +0.000 N 
BRANCH   16   14
ATOM     14  C10 UNL A   1      28.124  42.954  50.328  1.00  0.00    +0.000 C 
ATOM     15  O5  UNL A   1      28.839  43.530  51.149  1.00  0.00    +0.000 O 
BRANCH   14   13
ATOM      1  O1  UNL A   1      25.991  43.373  54.035  1.00  0.00    +0.000 O 
ATOM      2  C1  UNL A   1      26.231  42.799  52.986  1.00  0.00    +0.000 C 
ATOM      3  O2  UNL A   1      26.715  41.538  52.877  1.00  0.00    +0.000 O 
ATOM      4  C2  UNL A   1      26.777  41.132  51.499  1.00  0.00    +0.000 C 
ATOM     99  H1  UNL A   1      27.683  40.609  51.269  1.00  0.00    +0.000 H 
ATOM    105  H7  UNL A   1      26.259  42.291  49.719  1.00  0.00    +0.000 H 
ATOM     13  C9  UNL A   1      26.730  42.413  50.672  1.00  0.00    +0.000 C 
ATOM     89  C62 UNL A   1      26.032  43.326  51.625  1.00  0.00    +0.000 C 
BRANCH    4    5
ATOM    100  H2  UNL A   1      26.969  38.737  50.169  1.00  0.00    +0.000 H 
ATOM      5  C3  UNL A   1      25.692  40.102  51.163  1.00  0.00    +0.000 C 
ATOM      6  C4  UNL A   1      26.006  38.890  50.506  1.00  0.00    +0.000 C 
ATOM      7  C5  UNL A   1      25.048  37.891  50.299  1.00  0.00    +0.000 C 
ATOM    104  H6  UNL A   1      24.098  41.160  52.070  1.00  0.00    +0.000 H 
ATOM    101  H3  UNL A   1      25.305  37.007  49.833  1.00  0.00    +0.000 H 
ATOM     10  C7  UNL A   1      23.414  39.301  51.357  1.00  0.00    +0.000 C 
ATOM      8  C6  UNL A   1      23.750  38.105  50.730  1.00  0.00    +0.000 C 
ATOM     12  C8  UNL A   1      24.367  40.288  51.587  1.00  0.00    +0.000 C 
BRANCH    8    9
ATOM      9  O3  UNL A   1      22.770  37.169  50.565  1.00  0.00    +0.000 O 
ATOM    102  H4  UNL A   1      22.386  36.755  51.313  1.00  0.00    +0.000 H 
ENDBRANCH    8    9
BRANCH   10   11
ATOM     11  O4  UNL A   1      22.128  39.511  51.767  1.00  0.00    +0.000 O 
ATOM    103  H5  UNL A   1      21.854  39.217  52.615  1.00  0.00    +0.000 H 
ENDBRANCH   10   11
ENDBRANCH    4    5
BRANCH   89   90
ATOM     90  C63 UNL A   1      25.306  44.437  51.431  1.00  0.00    +0.000 C 
ATOM    134  H36 UNL A   1      24.450  44.558  51.995  1.00  0.00    +0.000 H 
BRANCH   90   91
ATOM     98  C69 UNL A   1      24.945  45.565  49.264  1.00  0.00    +0.000 C 
ATOM    135  H37 UNL A   1      27.224  46.318  51.611  1.00  0.00    +0.000 H 
ATOM    136  H38 UNL A   1      27.776  48.054  49.998  1.00  0.00    +0.000 H 
ATOM    139  H41 UNL A   1      24.184  44.897  49.060  1.00  0.00    +0.000 H 
ATOM     91  C64 UNL A   1      25.647  45.487  50.472  1.00  0.00    +0.000 C 
ATOM     92  C65 UNL A   1      26.691  46.389  50.729  1.00  0.00    +0.000 C 
ATOM     93  C66 UNL A   1      27.017  47.383  49.802  1.00  0.00    +0.000 C 
ATOM     94  C67 UNL A   1      26.303  47.456  48.612  1.00  0.00    +0.000 C 
ATOM     96  C68 UNL A   1      25.280  46.549  48.347  1.00  0.00    +0.000 C 
BRANCH   94   95
ATOM    137  H39 UNL A   1      27.129  49.129  47.873  1.00  0.00    +0.000 H 
ATOM     95  O7  UNL A   1      26.575  48.403  47.664  1.00  0.00    +0.000 O 
ENDBRANCH   94   95
BRANCH   96   97
ATOM     97  O8  UNL A   1      24.597  46.620  47.166  1.00  0.00    +0.000 O 
ATOM    138  H40 UNL A   1      24.196  45.852  46.810  1.00  0.00    +0.000 H 
ENDBRANCH   96   97
ENDBRANCH   90   91
ENDBRANCH   89   90
ENDBRANCH   14   13
ENDBRANCH   16   14
ENDBRANCH   17   16
ENDBRANCH   18   17
ENDBRANCH   19   18
ENDBRANCH   20   19
ENDBRANCH   21   20
ENDBRANCH   22   21
ENDBRANCH   23   22
ENDBRANCH   24   23
ENDBRANCH   26   24
ENDBRANCH   30   29
BRANCH   34   35
ATOM     35  C26 UNL A   1      23.061  33.919  46.038  1.00  0.00    +0.000 C 
ATOM     36  C27 UNL A   1      23.821  32.977  46.750  1.00  0.00    +0.000 C 
ATOM     37  F1  UNL A   1      24.386  33.310  47.920  1.00  0.00    +0.000 F 
ATOM     38  C28 UNL A   1      24.043  31.700  46.240  1.00  0.00    +0.000 C 
ATOM     39  F2  UNL A   1      24.820  30.839  46.910  1.00  0.00    +0.000 F 
ATOM     40  C29 UNL A   1      23.474  31.325  45.032  1.00  0.00    +0.000 C 
ATOM     41  F3  UNL A   1      23.682  30.093  44.547  1.00  0.00    +0.000 F 
ATOM     42  C30 UNL A   1      22.697  32.229  44.325  1.00  0.00    +0.000 C 
ATOM     43  F4  UNL A   1      22.135  31.864  43.165  1.00  0.00    +0.000 F 
ATOM     44  C31 UNL A   1      22.504  33.519  44.814  1.00  0.00    +0.000 C 
ATOM     45  F5  UNL A   1      21.764  34.376  44.094  1.00  0.00    +0.000 F 
ENDBRANCH   34   35
BRANCH   51   52
ATOM     52  C37 UNL A   1      17.725  37.591  49.207  1.00  0.00    +0.000 C 
ATOM     53  C38 UNL A   1      17.405  37.636  50.572  1.00  0.00    +0.000 C 
ATOM     54  F6  UNL A   1      18.362  37.866  51.483  1.00  0.00    +0.000 F 
ATOM     55  C39 UNL A   1      16.103  37.403  51.010  1.00  0.00    +0.000 C 
ATOM     56  F7  UNL A   1      15.830  37.401  52.322  1.00  0.00    +0.000 F 
ATOM     57  C40 UNL A   1      15.092  37.163  50.092  1.00  0.00    +0.000 C 
ATOM     58  F8  UNL A   1      13.838  36.952  50.514  1.00  0.00    +0.000 F 
ATOM     59  C41 UNL A   1      15.381  37.134  48.736  1.00  0.00    +0.000 C 
ATOM     60  F9  UNL A   1      14.402  36.921  47.846  1.00  0.00    +0.000 F 
ATOM     61  C42 UNL A   1      16.687  37.331  48.298  1.00  0.00    +0.000 C 
ATOM     62  F10 UNL A   1      16.937  37.286  46.981  1.00  0.00    +0.000 F 
ENDBRANCH   51   52
BRANCH   66   67
ATOM     67  C46 UNL A   1      21.744  43.289  49.260  1.00  0.00    +0.000 C 
ATOM     68  C47 UNL A   1      21.391  44.296  48.349  1.00  0.00    +0.000 C 
ATOM     69  F11 UNL A   1      21.251  44.003  47.049  1.00  0.00    +0.000 F 
ATOM     70  C48 UNL A   1      21.228  45.617  48.763  1.00  0.00    +0.000 C 
ATOM     71  F12 UNL A   1      20.944  46.567  47.863  1.00  0.00    +0.000 F 
ATOM     72  C49 UNL A   1      21.377  45.951  50.100  1.00  0.00    +0.000 C 
ATOM     73  F13 UNL A   1      21.219  47.221  50.498  1.00  0.00    +0.000 F 
ATOM     74  C50 UNL A   1      21.701  44.968  51.023  1.00  0.00    +0.000 C 
ATOM     75  F14 UNL A   1      21.831  45.282  52.319  1.00  0.00    +0.000 F 
ATOM     76  C51 UNL A   1      21.898  43.653  50.605  1.00  0.00    +0.000 C 
ATOM     77  F15 UNL A   1      22.228  42.728  51.518  1.00  0.00    +0.000 F 
ENDBRANCH   66   67
TORSDOF 22
ENDMDL
MODEL 6
REMARK VINA RESULT:      -8.0     41.599     45.794
ROOT
ATOM    129  H31 UNL A   1      36.240  33.219  31.842  1.00  0.00    +0.000 H 
ATOM    130  H32 UNL A   1      43.372  26.571  29.427  1.00  0.00    +0.000 H 
ATOM    131  H33 UNL A   1      44.068  26.432  31.887  1.00  0.00    +0.000 H 
ATOM     30  C22 UNL A   1      42.733  28.314  33.560  1.00  0.00    +0.000 C 
ATOM     31  C23 UNL A   1      42.467  28.024  32.109  1.00  0.00    +0.000 C 
ATOM     32  N3  UNL A   1      41.582  28.556  31.305  1.00  0.00    +0.000 N 
ATOM     33  C24 UNL A   1      41.794  27.966  30.065  1.00  0.00    +0.000 C 
ATOM     34  C25 UNL A   1      41.087  28.126  28.921  1.00  0.00    +0.000 C 
ATOM     46  C32 UNL A   1      39.943  28.989  28.794  1.00  0.00    +0.000 C 
ATOM     47  C33 UNL A   1      39.128  29.185  27.692  1.00  0.00    +0.000 C 
ATOM     48  C34 UNL A   1      38.181  30.160  28.017  1.00  0.00    +0.000 C 
ATOM     49  C35 UNL A   1      38.361  30.524  29.342  1.00  0.00    +0.000 C 
ATOM     50  N4  UNL A   1      39.452  29.803  29.804  1.00  0.00    +0.000 N 
ATOM     51  C36 UNL A   1      37.594  31.457  30.129  1.00  0.00    +0.000 C 
ATOM     63  C43 UNL A   1      37.837  31.762  31.427  1.00  0.00    +0.000 C 
ATOM     64  N5  UNL A   1      38.820  31.263  32.272  1.00  0.00    +0.000 N 
ATOM     65  C44 UNL A   1      38.647  31.870  33.422  1.00  0.00    +0.000 C 
ATOM     66  C45 UNL A   1      39.400  31.692  34.715  1.00  0.00    +0.000 C 
ATOM     78  C52 UNL A   1      40.399  30.790  34.772  1.00  0.00    +0.000 C 
ATOM     79  C53 UNL A   1      41.218  30.505  35.947  1.00  0.00    +0.000 C 
ATOM     80  C54 UNL A   1      42.154  29.601  35.620  1.00  0.00    +0.000 C 
ATOM     81  C55 UNL A   1      41.973  29.206  34.222  1.00  0.00    +0.000 C 
ATOM     82  N6  UNL A   1      40.901  29.955  33.803  1.00  0.00    +0.000 N 
ATOM     83  C56 UNL A   1      37.555  32.853  33.423  1.00  0.00    +0.000 C 
ATOM     84  C57 UNL A   1      37.066  32.714  32.199  1.00  0.00    +0.000 C 
ATOM     85  C58 UNL A   1      42.932  27.085  30.206  1.00  0.00    +0.000 C 
ATOM     86  C59 UNL A   1      43.336  27.025  31.465  1.00  0.00    +0.000 C 
ATOM    122  H24 UNL A   1      39.206  28.695  26.788  1.00  0.00    +0.000 H 
ATOM    123  H25 UNL A   1      37.467  30.545  27.378  1.00  0.00    +0.000 H 
ATOM    124  H26 UNL A   1      39.823  29.862  30.714  1.00  0.00    +0.000 H 
ATOM    125  H27 UNL A   1      41.096  30.931  36.879  1.00  0.00    +0.000 H 
ATOM    126  H28 UNL A   1      42.885  29.241  36.253  1.00  0.00    +0.000 H 
ATOM    127  H29 UNL A   1      40.526  29.899  32.894  1.00  0.00    +0.000 H 
ATOM    128  H30 UNL A   1      37.250  33.486  34.178  1.00  0.00    +0.000 H 
ENDROOT
BRANCH   30   29
ATOM    132  H34 UNL A   1      42.767  25.977  34.858  1.00  0.00    +0.000 H 
ATOM    133  H35 UNL A   1      44.578  24.966  36.111  1.00  0.00    +0.000 H 
ATOM    120  H22 UNL A   1      47.159  28.056  34.887  1.00  0.00    +0.000 H 
ATOM     87  C60 UNL A   1      43.690  26.435  34.888  1.00  0.00    +0.000 C 
ATOM     88  C61 UNL A   1      44.742  25.828  35.567  1.00  0.00    +0.000 C 
ATOM    121  H23 UNL A   1      45.283  29.203  33.855  1.00  0.00    +0.000 H 
ATOM     26  C18 UNL A   1      46.021  26.388  35.510  1.00  0.00    +0.000 C 
ATOM     27  C19 UNL A   1      46.222  27.624  34.893  1.00  0.00    +0.000 C 
ATOM     28  C20 UNL A   1      45.146  28.274  34.282  1.00  0.00    +0.000 C 
ATOM     29  C21 UNL A   1      43.880  27.668  34.246  1.00  0.00    +0.000 C 
BRANCH   26   24
ATOM     25  O6  UNL A   1      48.023  26.312  36.730  1.00  0.00    +0.000 O 
ATOM     24  C17 UNL A   1      47.180  25.685  36.098  1.00  0.00    +0.000 C 
BRANCH   24   23
ATOM    119  H21 UNL A   1      47.165  23.781  36.726  1.00  0.00    +0.000 H 
ATOM     23  N2  UNL A   1      47.312  24.330  35.922  1.00  0.00    +0.000 N 
BRANCH   23   22
ATOM    118  H20 UNL A   1      47.293  24.169  33.876  1.00  0.00    +0.000 H 
ATOM    117  H19 UNL A   1      47.159  22.638  34.751  1.00  0.00    +0.000 H 
ATOM     22  C16 UNL A   1      47.637  23.595  34.711  1.00  0.00    +0.000 C 
BRANCH   22   21
ATOM    115  H17 UNL A   1      49.562  23.249  35.522  1.00  0.00    +0.000 H 
ATOM    116  H18 UNL A   1      49.259  22.537  33.912  1.00  0.00    +0.000 H 
ATOM     21  C15 UNL A   1      49.138  23.388  34.548  1.00  0.00    +0.000 C 
BRANCH   21   20
ATOM    113  H15 UNL A   1      50.074  25.290  34.612  1.00  0.00    +0.000 H 
ATOM    114  H16 UNL A   1      50.755  24.122  33.436  1.00  0.00    +0.000 H 
ATOM     20  C14 UNL A   1      49.873  24.546  33.869  1.00  0.00    +0.000 C 
BRANCH   20   19
ATOM     19  C13 UNL A   1      49.118  25.218  32.718  1.00  0.00    +0.000 C 
ATOM    111  H13 UNL A   1      49.604  24.953  31.803  1.00  0.00    +0.000 H 
ATOM    112  H14 UNL A   1      48.108  24.871  32.781  1.00  0.00    +0.000 H 
BRANCH   19   18
ATOM     18  C12 UNL A   1      49.047  26.744  32.793  1.00  0.00    +0.000 C 
ATOM    109  H11 UNL A   1      48.634  27.013  33.742  1.00  0.00    +0.000 H 
ATOM    110  H12 UNL A   1      50.045  27.103  32.656  1.00  0.00    +0.000 H 
BRANCH   18   17
ATOM     17  C11 UNL A   1      48.201  27.388  31.706  1.00  0.00    +0.000 C 
ATOM    107  H9  UNL A   1      47.508  28.061  32.168  1.00  0.00    +0.000 H 
ATOM    108  H10 UNL A   1      48.870  27.896  31.042  1.00  0.00    +0.000 H 
BRANCH   17   16
ATOM    106  H8  UNL A   1      47.305  25.562  31.357  1.00  0.00    +0.000 H 
ATOM     16  N1  UNL A   1      47.457  26.430  30.918  1.00  0.00    +0.000 N 
BRANCH   16   14
ATOM     14  C10 UNL A   1      46.933  26.541  29.660  1.00  0.00    +0.000 C 
ATOM     15  O5  UNL A   1      46.796  27.683  29.219  1.00  0.00    +0.000 O 
BRANCH   14   13
ATOM      1  O1  UNL A   1      47.757  25.902  25.491  1.00  0.00    +0.000 O 
ATOM      2  C1  UNL A   1      47.135  25.677  26.516  1.00  0.00    +0.000 C 
ATOM      3  O2  UNL A   1      45.810  25.899  26.692  1.00  0.00    +0.000 O 
ATOM      4  C2  UNL A   1      45.378  25.421  27.978  1.00  0.00    +0.000 C 
ATOM     99  H1  UNL A   1      44.709  26.103  28.461  1.00  0.00    +0.000 H 
ATOM    105  H7  UNL A   1      46.580  24.503  29.556  1.00  0.00    +0.000 H 
ATOM     13  C9  UNL A   1      46.637  25.286  28.829  1.00  0.00    +0.000 C 
ATOM     89  C62 UNL A   1      47.667  25.104  27.764  1.00  0.00    +0.000 C 
BRANCH    4    5
ATOM    100  H2  UNL A   1      43.589  24.309  29.739  1.00  0.00    +0.000 H 
ATOM      5  C3  UNL A   1      44.538  24.145  27.854  1.00  0.00    +0.000 C 
ATOM      6  C4  UNL A   1      43.625  23.764  28.864  1.00  0.00    +0.000 C 
ATOM      7  C5  UNL A   1      42.767  22.669  28.713  1.00  0.00    +0.000 C 
ATOM    104  H6  UNL A   1      45.231  23.612  25.926  1.00  0.00    +0.000 H 
ATOM    101  H3  UNL A   1      42.097  22.421  29.457  1.00  0.00    +0.000 H 
ATOM     10  C7  UNL A   1      43.739  22.264  26.552  1.00  0.00    +0.000 C 
ATOM      8  C6  UNL A   1      42.831  21.922  27.548  1.00  0.00    +0.000 C 
ATOM     12  C8  UNL A   1      44.577  23.366  26.687  1.00  0.00    +0.000 C 
BRANCH    8    9
ATOM      9  O3  UNL A   1      42.018  20.846  27.335  1.00  0.00    +0.000 O 
ATOM    102  H4  UNL A   1      41.958  20.466  26.481  1.00  0.00    +0.000 H 
ENDBRANCH    8    9
BRANCH   10   11
ATOM     11  O4  UNL A   1      43.806  21.515  25.412  1.00  0.00    +0.000 O 
ATOM    103  H5  UNL A   1      44.147  20.642  25.445  1.00  0.00    +0.000 H 
ENDBRANCH   10   11
ENDBRANCH    4    5
BRANCH   89   90
ATOM     90  C63 UNL A   1      48.880  24.532  27.781  1.00  0.00    +0.000 C 
ATOM    134  H36 UNL A   1      48.933  23.510  27.641  1.00  0.00    +0.000 H 
BRANCH   90   91
ATOM     98  C69 UNL A   1      51.012  25.418  26.908  1.00  0.00    +0.000 C 
ATOM    135  H37 UNL A   1      49.838  25.630  30.045  1.00  0.00    +0.000 H 
ATOM    136  H38 UNL A   1      51.929  26.834  30.358  1.00  0.00    +0.000 H 
ATOM    139  H41 UNL A   1      50.773  25.038  25.978  1.00  0.00    +0.000 H 
ATOM     91  C64 UNL A   1      50.132  25.260  27.983  1.00  0.00    +0.000 C 
ATOM     92  C65 UNL A   1      50.478  25.766  29.246  1.00  0.00    +0.000 C 
ATOM     93  C66 UNL A   1      51.682  26.451  29.432  1.00  0.00    +0.000 C 
ATOM     94  C67 UNL A   1      52.541  26.611  28.352  1.00  0.00    +0.000 C 
ATOM     96  C68 UNL A   1      52.209  26.092  27.103  1.00  0.00    +0.000 C 
BRANCH   94   95
ATOM    137  H39 UNL A   1      54.312  27.068  29.179  1.00  0.00    +0.000 H 
ATOM     95  O7  UNL A   1      53.734  27.269  28.470  1.00  0.00    +0.000 O 
ENDBRANCH   94   95
BRANCH   96   97
ATOM     97  O8  UNL A   1      53.069  26.241  26.053  1.00  0.00    +0.000 O 
ATOM    138  H40 UNL A   1      53.118  25.580  25.390  1.00  0.00    +0.000 H 
ENDBRANCH   96   97
ENDBRANCH   90   91
ENDBRANCH   89   90
ENDBRANCH   14   13
ENDBRANCH   16   14
ENDBRANCH   17   16
ENDBRANCH   18   17
ENDBRANCH   19   18
ENDBRANCH   20   19
ENDBRANCH   21   20
ENDBRANCH   22   21
ENDBRANCH   23   22
ENDBRANCH   24   23
ENDBRANCH   26   24
ENDBRANCH   30   29
BRANCH   34   35
ATOM     35  C26 UNL A   1      41.536  27.354  27.713  1.00  0.00    +0.000 C 
ATOM     36  C27 UNL A   1      42.498  27.863  26.826  1.00  0.00    +0.000 C 
ATOM     37  F1  UNL A   1      43.013  29.086  27.017  1.00  0.00    +0.000 F 
ATOM     38  C28 UNL A   1      42.903  27.134  25.710  1.00  0.00    +0.000 C 
ATOM     39  F2  UNL A   1      43.778  27.666  24.847  1.00  0.00    +0.000 F 
ATOM     40  C29 UNL A   1      42.388  25.867  25.482  1.00  0.00    +0.000 C 
ATOM     41  F3  UNL A   1      42.785  25.164  24.413  1.00  0.00    +0.000 F 
ATOM     42  C30 UNL A   1      41.457  25.332  26.360  1.00  0.00    +0.000 C 
ATOM     43  F4  UNL A   1      40.969  24.102  26.149  1.00  0.00    +0.000 F 
ATOM     44  C31 UNL A   1      41.022  26.073  27.456  1.00  0.00    +0.000 C 
ATOM     45  F5  UNL A   1      40.105  25.535  28.273  1.00  0.00    +0.000 F 
ENDBRANCH   34   35
BRANCH   51   52
ATOM     52  C37 UNL A   1      36.416  32.117  29.471  1.00  0.00    +0.000 C 
ATOM     53  C38 UNL A   1      36.408  33.485  29.162  1.00  0.00    +0.000 C 
ATOM     54  F6  UNL A   1      37.447  34.260  29.506  1.00  0.00    +0.000 F 
ATOM     55  C39 UNL A   1      35.312  34.070  28.533  1.00  0.00    +0.000 C 
ATOM     56  F7  UNL A   1      35.305  35.389  28.293  1.00  0.00    +0.000 F 
ATOM     57  C40 UNL A   1      34.223  33.294  28.165  1.00  0.00    +0.000 C 
ATOM     58  F8  UNL A   1      33.175  33.857  27.548  1.00  0.00    +0.000 F 
ATOM     59  C41 UNL A   1      34.217  31.936  28.441  1.00  0.00    +0.000 C 
ATOM     60  F9  UNL A   1      33.175  31.180  28.070  1.00  0.00    +0.000 F 
ATOM     61  C42 UNL A   1      35.296  31.354  29.102  1.00  0.00    +0.000 C 
ATOM     62  F10 UNL A   1      35.255  30.040  29.366  1.00  0.00    +0.000 F 
ENDBRANCH   51   52
BRANCH   66   67
ATOM     67  C46 UNL A   1      39.039  32.481  35.922  1.00  0.00    +0.000 C 
ATOM     68  C47 UNL A   1      39.537  33.779  36.109  1.00  0.00    +0.000 C 
ATOM     69  F11 UNL A   1      40.356  34.319  35.196  1.00  0.00    +0.000 F 
ATOM     70  C48 UNL A   1      39.235  34.508  37.258  1.00  0.00    +0.000 C 
ATOM     71  F12 UNL A   1      39.770  35.723  37.436  1.00  0.00    +0.000 F 
ATOM     72  C49 UNL A   1      38.400  33.970  38.224  1.00  0.00    +0.000 C 
ATOM     73  F13 UNL A   1      38.109  34.672  39.328  1.00  0.00    +0.000 F 
ATOM     74  C50 UNL A   1      37.875  32.699  38.049  1.00  0.00    +0.000 C 
ATOM     75  F14 UNL A   1      37.053  32.180  38.973  1.00  0.00    +0.000 F 
ATOM     76  C51 UNL A   1      38.202  31.955  36.917  1.00  0.00    +0.000 C 
ATOM     77  F15 UNL A   1      37.692  30.723  36.784  1.00  0.00    +0.000 F 
ENDBRANCH   66   67
TORSDOF 22
ENDMDL
MODEL 7
REMARK VINA RESULT:      -8.0     38.078     42.491
ROOT
ATOM    129  H31 UNL A   1      39.684  24.901  28.511  1.00  0.00    +0.000 H 
ATOM    130  H32 UNL A   1      47.841  29.971  25.574  1.00  0.00    +0.000 H 
ATOM    131  H33 UNL A   1      47.162  31.926  27.081  1.00  0.00    +0.000 H 
ATOM     30  C22 UNL A   1      44.596  31.607  28.280  1.00  0.00    +0.000 C 
ATOM     31  C23 UNL A   1      45.360  30.602  27.463  1.00  0.00    +0.000 C 
ATOM     32  N3  UNL A   1      45.028  29.381  27.127  1.00  0.00    +0.000 N 
ATOM     33  C24 UNL A   1      46.067  28.913  26.331  1.00  0.00    +0.000 C 
ATOM     34  C25 UNL A   1      46.231  27.680  25.797  1.00  0.00    +0.000 C 
ATOM     46  C32 UNL A   1      45.301  26.595  25.968  1.00  0.00    +0.000 C 
ATOM     47  C33 UNL A   1      45.399  25.293  25.510  1.00  0.00    +0.000 C 
ATOM     48  C34 UNL A   1      44.230  24.615  25.866  1.00  0.00    +0.000 C 
ATOM     49  C35 UNL A   1      43.432  25.473  26.605  1.00  0.00    +0.000 C 
ATOM     50  N4  UNL A   1      44.098  26.688  26.653  1.00  0.00    +0.000 N 
ATOM     51  C36 UNL A   1      42.158  25.204  27.224  1.00  0.00    +0.000 C 
ATOM     63  C43 UNL A   1      41.434  26.104  27.934  1.00  0.00    +0.000 C 
ATOM     64  N5  UNL A   1      41.736  27.425  28.235  1.00  0.00    +0.000 N 
ATOM     65  C44 UNL A   1      40.724  27.876  28.936  1.00  0.00    +0.000 C 
ATOM     66  C45 UNL A   1      40.527  29.231  29.563  1.00  0.00    +0.000 C 
ATOM     78  C52 UNL A   1      41.495  30.159  29.434  1.00  0.00    +0.000 C 
ATOM     79  C53 UNL A   1      41.451  31.512  29.980  1.00  0.00    +0.000 C 
ATOM     80  C54 UNL A   1      42.554  32.174  29.600  1.00  0.00    +0.000 C 
ATOM     81  C55 UNL A   1      43.407  31.277  28.819  1.00  0.00    +0.000 C 
ATOM     82  N6  UNL A   1      42.703  30.100  28.782  1.00  0.00    +0.000 N 
ATOM     83  C56 UNL A   1      39.644  26.896  29.126  1.00  0.00    +0.000 C 
ATOM     84  C57 UNL A   1      40.148  25.822  28.537  1.00  0.00    +0.000 C 
ATOM     85  C58 UNL A   1      47.007  30.001  26.180  1.00  0.00    +0.000 C 
ATOM     86  C59 UNL A   1      46.657  31.040  26.922  1.00  0.00    +0.000 C 
ATOM    122  H24 UNL A   1      46.198  24.893  24.994  1.00  0.00    +0.000 H 
ATOM    123  H25 UNL A   1      44.000  23.640  25.619  1.00  0.00    +0.000 H 
ATOM    124  H26 UNL A   1      43.765  27.497  27.106  1.00  0.00    +0.000 H 
ATOM    125  H27 UNL A   1      40.693  31.897  30.566  1.00  0.00    +0.000 H 
ATOM    126  H28 UNL A   1      42.767  33.159  29.823  1.00  0.00    +0.000 H 
ATOM    127  H29 UNL A   1      43.032  29.289  28.331  1.00  0.00    +0.000 H 
ATOM    128  H30 UNL A   1      38.733  27.015  29.594  1.00  0.00    +0.000 H 
ENDROOT
BRANCH   30   29
ATOM    132  H34 UNL A   1      44.181  33.711  26.683  1.00  0.00    +0.000 H 
ATOM    133  H35 UNL A   1      45.138  35.933  26.827  1.00  0.00    +0.000 H 
ATOM    120  H22 UNL A   1      46.968  34.918  30.477  1.00  0.00    +0.000 H 
ATOM     87  C60 UNL A   1      44.797  33.957  27.473  1.00  0.00    +0.000 C 
ATOM     88  C61 UNL A   1      45.305  35.248  27.580  1.00  0.00    +0.000 C 
ATOM    121  H23 UNL A   1      46.229  32.621  30.199  1.00  0.00    +0.000 H 
ATOM     26  C18 UNL A   1      46.042  35.613  28.710  1.00  0.00    +0.000 C 
ATOM     27  C19 UNL A   1      46.389  34.655  29.664  1.00  0.00    +0.000 C 
ATOM     28  C20 UNL A   1      45.947  33.339  29.514  1.00  0.00    +0.000 C 
ATOM     29  C21 UNL A   1      45.120  32.988  28.435  1.00  0.00    +0.000 C 
BRANCH   26   24
ATOM     25  O6  UNL A   1      46.995  37.348  29.968  1.00  0.00    +0.000 O 
ATOM     24  C17 UNL A   1      46.465  37.014  28.914  1.00  0.00    +0.000 C 
BRANCH   24   23
ATOM    119  H21 UNL A   1      45.343  38.321  27.888  1.00  0.00    +0.000 H 
ATOM     23  N2  UNL A   1      46.250  37.939  27.922  1.00  0.00    +0.000 N 
BRANCH   23   22
ATOM    118  H20 UNL A   1      46.632  38.561  26.005  1.00  0.00    +0.000 H 
ATOM    117  H19 UNL A   1      47.968  37.721  26.801  1.00  0.00    +0.000 H 
ATOM     22  C16 UNL A   1      47.177  38.431  26.917  1.00  0.00    +0.000 C 
BRANCH   22   21
ATOM    115  H17 UNL A   1      47.053  40.314  27.876  1.00  0.00    +0.000 H 
ATOM    116  H18 UNL A   1      48.675  39.568  27.839  1.00  0.00    +0.000 H 
ATOM     21  C15 UNL A   1      47.777  39.778  27.298  1.00  0.00    +0.000 C 
BRANCH   21   20
ATOM    113  H15 UNL A   1      47.794  41.639  26.280  1.00  0.00    +0.000 H 
ATOM    114  H16 UNL A   1      49.251  40.618  26.068  1.00  0.00    +0.000 H 
ATOM     20  C14 UNL A   1      48.183  40.656  26.111  1.00  0.00    +0.000 C 
BRANCH   20   19
ATOM     19  C13 UNL A   1      47.687  40.180  24.742  1.00  0.00    +0.000 C 
ATOM    111  H13 UNL A   1      48.541  40.009  24.122  1.00  0.00    +0.000 H 
ATOM    112  H14 UNL A   1      47.109  39.298  24.925  1.00  0.00    +0.000 H 
BRANCH   19   18
ATOM     18  C12 UNL A   1      46.759  41.153  24.014  1.00  0.00    +0.000 C 
ATOM    109  H11 UNL A   1      46.027  40.582  23.483  1.00  0.00    +0.000 H 
ATOM    110  H12 UNL A   1      46.331  41.785  24.763  1.00  0.00    +0.000 H 
BRANCH   18   17
ATOM     17  C11 UNL A   1      47.460  42.068  23.022  1.00  0.00    +0.000 C 
ATOM    107  H9  UNL A   1      48.211  42.625  23.544  1.00  0.00    +0.000 H 
ATOM    108  H10 UNL A   1      47.881  41.446  22.259  1.00  0.00    +0.000 H 
BRANCH   17   16
ATOM    106  H8  UNL A   1      46.551  43.903  22.764  1.00  0.00    +0.000 H 
ATOM     16  N1  UNL A   1      46.564  42.999  22.373  1.00  0.00    +0.000 N 
BRANCH   16   14
ATOM     14  C10 UNL A   1      45.732  42.821  21.303  1.00  0.00    +0.000 C 
ATOM     15  O5  UNL A   1      45.878  41.782  20.659  1.00  0.00    +0.000 O 
BRANCH   14   13
ATOM      1  O1  UNL A   1      41.498  42.278  21.798  1.00  0.00    +0.000 O 
ATOM      2  C1  UNL A   1      42.465  42.812  21.282  1.00  0.00    +0.000 C 
ATOM      3  O2  UNL A   1      42.783  42.749  19.966  1.00  0.00    +0.000 O 
ATOM      4  C2  UNL A   1      43.921  43.580  19.676  1.00  0.00    +0.000 C 
ATOM     99  H1  UNL A   1      44.613  43.104  19.013  1.00  0.00    +0.000 H 
ATOM    105  H7  UNL A   1      45.111  44.781  21.061  1.00  0.00    +0.000 H 
ATOM     13  C9  UNL A   1      44.617  43.834  21.009  1.00  0.00    +0.000 C 
ATOM     89  C62 UNL A   1      43.475  43.648  21.952  1.00  0.00    +0.000 C 
BRANCH    4    5
ATOM    100  H2  UNL A   1      41.631  44.126  18.261  1.00  0.00    +0.000 H 
ATOM      5  C3  UNL A   1      43.518  44.841  18.903  1.00  0.00    +0.000 C 
ATOM      6  C4  UNL A   1      42.256  44.947  18.274  1.00  0.00    +0.000 C 
ATOM      7  C5  UNL A   1      41.828  46.133  17.667  1.00  0.00    +0.000 C 
ATOM    104  H6  UNL A   1      45.281  45.932  19.329  1.00  0.00    +0.000 H 
ATOM    101  H3  UNL A   1      40.896  46.192  17.230  1.00  0.00    +0.000 H 
ATOM     10  C7  UNL A   1      43.931  47.138  18.255  1.00  0.00    +0.000 C 
ATOM      8  C6  UNL A   1      42.675  47.229  17.663  1.00  0.00    +0.000 C 
ATOM     12  C8  UNL A   1      44.352  45.970  18.881  1.00  0.00    +0.000 C 
BRANCH    8    9
ATOM      9  O3  UNL A   1      42.317  48.417  17.094  1.00  0.00    +0.000 O 
ATOM    102  H4  UNL A   1      41.419  48.585  16.886  1.00  0.00    +0.000 H 
ENDBRANCH    8    9
BRANCH   10   11
ATOM     11  O4  UNL A   1      44.766  48.219  18.235  1.00  0.00    +0.000 O 
ATOM    103  H5  UNL A   1      45.342  48.379  18.958  1.00  0.00    +0.000 H 
ENDBRANCH   10   11
ENDBRANCH    4    5
BRANCH   89   90
ATOM     90  C63 UNL A   1      43.255  44.107  23.193  1.00  0.00    +0.000 C 
ATOM    134  H36 UNL A   1      42.732  44.992  23.294  1.00  0.00    +0.000 H 
BRANCH   90   91
ATOM     98  C69 UNL A   1      43.142  42.209  24.767  1.00  0.00    +0.000 C 
ATOM    135  H37 UNL A   1      45.072  44.945  24.994  1.00  0.00    +0.000 H 
ATOM    136  H38 UNL A   1      45.806  43.815  27.019  1.00  0.00    +0.000 H 
ATOM    139  H41 UNL A   1      42.424  41.773  24.167  1.00  0.00    +0.000 H 
ATOM     91  C64 UNL A   1      43.708  43.438  24.412  1.00  0.00    +0.000 C 
ATOM     92  C65 UNL A   1      44.670  44.028  25.245  1.00  0.00    +0.000 C 
ATOM     93  C66 UNL A   1      45.089  43.385  26.414  1.00  0.00    +0.000 C 
ATOM     94  C67 UNL A   1      44.527  42.160  26.748  1.00  0.00    +0.000 C 
ATOM     96  C68 UNL A   1      43.558  41.582  25.933  1.00  0.00    +0.000 C 
BRANCH   94   95
ATOM    137  H39 UNL A   1      44.822  41.896  28.716  1.00  0.00    +0.000 H 
ATOM     95  O7  UNL A   1      44.893  41.482  27.879  1.00  0.00    +0.000 O 
ENDBRANCH   94   95
BRANCH   96   97
ATOM     97  O8  UNL A   1      43.000  40.385  26.281  1.00  0.00    +0.000 O 
ATOM    138  H40 UNL A   1      43.070  40.074  27.162  1.00  0.00    +0.000 H 
ENDBRANCH   96   97
ENDBRANCH   90   91
ENDBRANCH   89   90
ENDBRANCH   14   13
ENDBRANCH   16   14
ENDBRANCH   17   16
ENDBRANCH   18   17
ENDBRANCH   19   18
ENDBRANCH   20   19
ENDBRANCH   21   20
ENDBRANCH   22   21
ENDBRANCH   23   22
ENDBRANCH   24   23
ENDBRANCH   26   24
ENDBRANCH   30   29
BRANCH   34   35
ATOM     35  C26 UNL A   1      47.463  27.438  24.972  1.00  0.00    +0.000 C 
ATOM     36  C27 UNL A   1      48.614  26.849  25.519  1.00  0.00    +0.000 C 
ATOM     37  F1  UNL A   1      48.655  26.525  26.819  1.00  0.00    +0.000 F 
ATOM     38  C28 UNL A   1      49.749  26.632  24.740  1.00  0.00    +0.000 C 
ATOM     39  F2  UNL A   1      50.855  26.122  25.299  1.00  0.00    +0.000 F 
ATOM     40  C29 UNL A   1      49.741  26.958  23.392  1.00  0.00    +0.000 C 
ATOM     41  F3  UNL A   1      50.831  26.740  22.643  1.00  0.00    +0.000 F 
ATOM     42  C30 UNL A   1      48.606  27.515  22.824  1.00  0.00    +0.000 C 
ATOM     43  F4  UNL A   1      48.591  27.817  21.518  1.00  0.00    +0.000 F 
ATOM     44  C31 UNL A   1      47.483  27.768  23.608  1.00  0.00    +0.000 C 
ATOM     45  F5  UNL A   1      46.409  28.328  23.031  1.00  0.00    +0.000 F 
ENDBRANCH   34   35
BRANCH   51   52
ATOM     52  C37 UNL A   1      41.606  23.812  27.102  1.00  0.00    +0.000 C 
ATOM     53  C38 UNL A   1      42.227  22.712  27.711  1.00  0.00    +0.000 C 
ATOM     54  F6  UNL A   1      43.379  22.872  28.379  1.00  0.00    +0.000 F 
ATOM     55  C39 UNL A   1      41.685  21.433  27.601  1.00  0.00    +0.000 C 
ATOM     56  F7  UNL A   1      42.323  20.389  28.148  1.00  0.00    +0.000 F 
ATOM     57  C40 UNL A   1      40.495  21.237  26.917  1.00  0.00    +0.000 C 
ATOM     58  F8  UNL A   1      39.970  20.008  26.823  1.00  0.00    +0.000 F 
ATOM     59  C41 UNL A   1      39.853  22.313  26.324  1.00  0.00    +0.000 C 
ATOM     60  F9  UNL A   1      38.693  22.129  25.679  1.00  0.00    +0.000 F 
ATOM     61  C42 UNL A   1      40.410  23.586  26.402  1.00  0.00    +0.000 C 
ATOM     62  F10 UNL A   1      39.771  24.605  25.808  1.00  0.00    +0.000 F 
ENDBRANCH   51   52
BRANCH   66   67
ATOM     67  C46 UNL A   1      39.294  29.542  30.334  1.00  0.00    +0.000 C 
ATOM     68  C47 UNL A   1      38.169  30.091  29.702  1.00  0.00    +0.000 C 
ATOM     69  F11 UNL A   1      38.199  30.347  28.386  1.00  0.00    +0.000 F 
ATOM     70  C48 UNL A   1      37.025  30.423  30.427  1.00  0.00    +0.000 C 
ATOM     71  F12 UNL A   1      35.986  30.997  29.806  1.00  0.00    +0.000 F 
ATOM     72  C49 UNL A   1      36.971  30.180  31.790  1.00  0.00    +0.000 C 
ATOM     73  F13 UNL A   1      35.871  30.498  32.486  1.00  0.00    +0.000 F 
ATOM     74  C50 UNL A   1      38.061  29.615  32.433  1.00  0.00    +0.000 C 
ATOM     75  F14 UNL A   1      38.008  29.363  33.748  1.00  0.00    +0.000 F 
ATOM     76  C51 UNL A   1      39.218  29.313  31.715  1.00  0.00    +0.000 C 
ATOM     77  F15 UNL A   1      40.262  28.784  32.368  1.00  0.00    +0.000 F 
ENDBRANCH   66   67
TORSDOF 22
ENDMDL
MODEL 8
REMARK VINA RESULT:      -7.9     59.620     65.040
ROOT
ATOM    129  H31 UNL A   1      45.996  16.315  42.166  1.00  0.00    +0.000 H 
ATOM    130  H32 UNL A   1      44.340  19.815  51.434  1.00  0.00    +0.000 H 
ATOM    131  H33 UNL A   1      43.580  17.485  52.172  1.00  0.00    +0.000 H 
ATOM     30  C22 UNL A   1      43.384  15.614  50.030  1.00  0.00    +0.000 C 
ATOM     31  C23 UNL A   1      43.930  17.014  49.981  1.00  0.00    +0.000 C 
ATOM     32  N3  UNL A   1      44.430  17.675  48.967  1.00  0.00    +0.000 N 
ATOM     33  C24 UNL A   1      44.738  18.939  49.455  1.00  0.00    +0.000 C 
ATOM     34  C25 UNL A   1      45.346  19.966  48.815  1.00  0.00    +0.000 C 
ATOM     46  C32 UNL A   1      45.788  19.916  47.446  1.00  0.00    +0.000 C 
ATOM     47  C33 UNL A   1      46.458  20.885  46.720  1.00  0.00    +0.000 C 
ATOM     48  C34 UNL A   1      46.624  20.415  45.414  1.00  0.00    +0.000 C 
ATOM     49  C35 UNL A   1      46.119  19.126  45.343  1.00  0.00    +0.000 C 
ATOM     50  N4  UNL A   1      45.601  18.836  46.596  1.00  0.00    +0.000 N 
ATOM     51  C36 UNL A   1      46.112  18.226  44.217  1.00  0.00    +0.000 C 
ATOM     63  C43 UNL A   1      45.593  16.974  44.227  1.00  0.00    +0.000 C 
ATOM     64  N5  UNL A   1      44.991  16.286  45.273  1.00  0.00    +0.000 N 
ATOM     65  C44 UNL A   1      44.651  15.117  44.786  1.00  0.00    +0.000 C 
ATOM     66  C45 UNL A   1      43.999  13.950  45.481  1.00  0.00    +0.000 C 
ATOM     78  C52 UNL A   1      43.706  14.048  46.792  1.00  0.00    +0.000 C 
ATOM     79  C53 UNL A   1      43.076  13.008  47.600  1.00  0.00    +0.000 C 
ATOM     80  C54 UNL A   1      42.878  13.478  48.841  1.00  0.00    +0.000 C 
ATOM     81  C55 UNL A   1      43.410  14.839  48.930  1.00  0.00    +0.000 C 
ATOM     82  N6  UNL A   1      43.891  15.089  47.669  1.00  0.00    +0.000 N 
ATOM     83  C56 UNL A   1      44.966  14.947  43.361  1.00  0.00    +0.000 C 
ATOM     84  C57 UNL A   1      45.580  16.087  43.082  1.00  0.00    +0.000 C 
ATOM     85  C58 UNL A   1      44.311  18.975  50.836  1.00  0.00    +0.000 C 
ATOM     86  C59 UNL A   1      43.877  17.788  51.232  1.00  0.00    +0.000 C 
ATOM    122  H24 UNL A   1      46.779  21.797  47.080  1.00  0.00    +0.000 H 
ATOM    123  H25 UNL A   1      47.051  20.939  44.634  1.00  0.00    +0.000 H 
ATOM    124  H26 UNL A   1      45.165  17.989  46.844  1.00  0.00    +0.000 H 
ATOM    125  H27 UNL A   1      42.823  12.064  47.269  1.00  0.00    +0.000 H 
ATOM    126  H28 UNL A   1      42.423  12.962  49.611  1.00  0.00    +0.000 H 
ATOM    127  H29 UNL A   1      44.329  15.934  47.417  1.00  0.00    +0.000 H 
ATOM    128  H30 UNL A   1      44.762  14.149  42.740  1.00  0.00    +0.000 H 
ENDROOT
BRANCH   30   29
ATOM    132  H34 UNL A   1      40.782  15.539  50.640  1.00  0.00    +0.000 H 
ATOM    133  H35 UNL A   1      39.733  14.859  52.717  1.00  0.00    +0.000 H 
ATOM    120  H22 UNL A   1      43.473  13.663  54.226  1.00  0.00    +0.000 H 
ATOM     87  C60 UNL A   1      41.358  15.169  51.412  1.00  0.00    +0.000 C 
ATOM     88  C61 UNL A   1      40.748  14.733  52.584  1.00  0.00    +0.000 C 
ATOM    121  H23 UNL A   1      44.554  14.586  52.256  1.00  0.00    +0.000 H 
ATOM     26  C18 UNL A   1      41.515  14.125  53.581  1.00  0.00    +0.000 C 
ATOM     27  C19 UNL A   1      42.905  14.076  53.469  1.00  0.00    +0.000 C 
ATOM     28  C20 UNL A   1      43.525  14.589  52.328  1.00  0.00    +0.000 C 
ATOM     29  C21 UNL A   1      42.753  15.109  51.276  1.00  0.00    +0.000 C 
BRANCH   26   24
ATOM     25  O6  UNL A   1      40.254  14.231  55.557  1.00  0.00    +0.000 O 
ATOM     24  C17 UNL A   1      40.870  13.524  54.767  1.00  0.00    +0.000 C 
BRANCH   24   23
ATOM    119  H21 UNL A   1      40.251  11.623  54.608  1.00  0.00    +0.000 H 
ATOM     23  N2  UNL A   1      40.977  12.172  54.984  1.00  0.00    +0.000 N 
BRANCH   23   22
ATOM    118  H20 UNL A   1      41.618  11.153  56.645  1.00  0.00    +0.000 H 
ATOM    117  H19 UNL A   1      42.869  12.074  55.800  1.00  0.00    +0.000 H 
ATOM     22  C16 UNL A   1      42.013  11.441  55.693  1.00  0.00    +0.000 C 
BRANCH   22   21
ATOM    115  H17 UNL A   1      42.845   9.494  55.673  1.00  0.00    +0.000 H 
ATOM    116  H18 UNL A   1      41.548   9.796  54.482  1.00  0.00    +0.000 H 
ATOM     21  C15 UNL A   1      42.429  10.173  54.957  1.00  0.00    +0.000 C 
BRANCH   21   20
ATOM    113  H15 UNL A   1      43.959  11.317  54.034  1.00  0.00    +0.000 H 
ATOM    114  H16 UNL A   1      44.113   9.538  53.883  1.00  0.00    +0.000 H 
ATOM     20  C14 UNL A   1      43.462  10.387  53.848  1.00  0.00    +0.000 C 
BRANCH   20   19
ATOM     19  C13 UNL A   1      42.898  10.429  52.424  1.00  0.00    +0.000 C 
ATOM    111  H13 UNL A   1      42.694   9.424  52.119  1.00  0.00    +0.000 H 
ATOM    112  H14 UNL A   1      42.026  11.047  52.467  1.00  0.00    +0.000 H 
BRANCH   19   18
ATOM     18  C12 UNL A   1      43.818  11.063  51.381  1.00  0.00    +0.000 C 
ATOM    109  H11 UNL A   1      43.209  11.582  50.670  1.00  0.00    +0.000 H 
ATOM    110  H12 UNL A   1      44.482  11.712  51.913  1.00  0.00    +0.000 H 
BRANCH   18   17
ATOM     17  C11 UNL A   1      44.692  10.073  50.626  1.00  0.00    +0.000 C 
ATOM    107  H9  UNL A   1      45.572   9.885  51.206  1.00  0.00    +0.000 H 
ATOM    108  H10 UNL A   1      44.111   9.186  50.479  1.00  0.00    +0.000 H 
BRANCH   17   16
ATOM    106  H8  UNL A   1      44.373  10.955  48.787  1.00  0.00    +0.000 H 
ATOM     16  N1  UNL A   1      45.093  10.546  49.320  1.00  0.00    +0.000 N 
BRANCH   16   14
ATOM     14  C10 UNL A   1      46.316  10.514  48.710  1.00  0.00    +0.000 C 
ATOM     15  O5  UNL A   1      46.557   9.531  48.009  1.00  0.00    +0.000 O 
BRANCH   14   13
ATOM      1  O1  UNL A   1      48.237  11.985  52.262  1.00  0.00    +0.000 O 
ATOM      2  C1  UNL A   1      47.800  12.128  51.132  1.00  0.00    +0.000 C 
ATOM      3  O2  UNL A   1      46.784  12.956  50.786  1.00  0.00    +0.000 O 
ATOM      4  C2  UNL A   1      46.596  12.965  49.360  1.00  0.00    +0.000 C 
ATOM     99  H1  UNL A   1      45.562  12.937  49.086  1.00  0.00    +0.000 H 
ATOM    105  H7  UNL A   1      47.674  11.817  47.844  1.00  0.00    +0.000 H 
ATOM     13  C9  UNL A   1      47.276  11.706  48.830  1.00  0.00    +0.000 C 
ATOM     89  C62 UNL A   1      48.281  11.465  49.908  1.00  0.00    +0.000 C 
BRANCH    4    5
ATOM    100  H2  UNL A   1      46.927  15.444  50.494  1.00  0.00    +0.000 H 
ATOM      5  C3  UNL A   1      47.082  14.277  48.734  1.00  0.00    +0.000 C 
ATOM      6  C4  UNL A   1      47.233  15.451  49.509  1.00  0.00    +0.000 C 
ATOM      7  C5  UNL A   1      47.786  16.621  48.979  1.00  0.00    +0.000 C 
ATOM    104  H6  UNL A   1      47.391  13.493  46.793  1.00  0.00    +0.000 H 
ATOM    101  H3  UNL A   1      47.902  17.460  49.569  1.00  0.00    +0.000 H 
ATOM     10  C7  UNL A   1      48.012  15.504  46.864  1.00  0.00    +0.000 C 
ATOM      8  C6  UNL A   1      48.175  16.639  47.650  1.00  0.00    +0.000 C 
ATOM     12  C8  UNL A   1      47.486  14.329  47.391  1.00  0.00    +0.000 C 
BRANCH    8    9
ATOM      9  O3  UNL A   1      48.727  17.746  47.074  1.00  0.00    +0.000 O 
ATOM    102  H4  UNL A   1      49.185  18.370  47.601  1.00  0.00    +0.000 H 
ENDBRANCH    8    9
BRANCH   10   11
ATOM     11  O4  UNL A   1      48.386  15.532  45.550  1.00  0.00    +0.000 O 
ATOM    103  H5  UNL A   1      48.953  14.867  45.210  1.00  0.00    +0.000 H 
ENDBRANCH   10   11
ENDBRANCH    4    5
BRANCH   89   90
ATOM     90  C63 UNL A   1      49.452  10.812  49.910  1.00  0.00    +0.000 C 
ATOM    134  H36 UNL A   1      49.435   9.793  50.080  1.00  0.00    +0.000 H 
BRANCH   90   91
ATOM     98  C69 UNL A   1      51.644  11.569  50.755  1.00  0.00    +0.000 C 
ATOM    135  H37 UNL A   1      50.423  11.897  47.646  1.00  0.00    +0.000 H 
ATOM    136  H38 UNL A   1      52.587  12.953  47.299  1.00  0.00    +0.000 H 
ATOM    139  H41 UNL A   1      51.396  11.201  51.687  1.00  0.00    +0.000 H 
ATOM     91  C64 UNL A   1      50.750  11.447  49.686  1.00  0.00    +0.000 C 
ATOM     92  C65 UNL A   1      51.092  11.968  48.429  1.00  0.00    +0.000 C 
ATOM     93  C66 UNL A   1      52.331  12.583  48.228  1.00  0.00    +0.000 C 
ATOM     94  C67 UNL A   1      53.215  12.686  49.295  1.00  0.00    +0.000 C 
ATOM     96  C68 UNL A   1      52.868  12.187  50.548  1.00  0.00    +0.000 C 
BRANCH   94   95
ATOM    137  H39 UNL A   1      54.510  14.212  49.142  1.00  0.00    +0.000 H 
ATOM     95  O7  UNL A   1      54.441  13.278  49.163  1.00  0.00    +0.000 O 
ENDBRANCH   94   95
BRANCH   96   97
ATOM     97  O8  UNL A   1      53.738  12.310  51.594  1.00  0.00    +0.000 O 
ATOM    138  H40 UNL A   1      54.654  12.426  51.431  1.00  0.00    +0.000 H 
ENDBRANCH   96   97
ENDBRANCH   90   91
ENDBRANCH   89   90
ENDBRANCH   14   13
ENDBRANCH   16   14
ENDBRANCH   17   16
ENDBRANCH   18   17
ENDBRANCH   19   18
ENDBRANCH   20   19
ENDBRANCH   21   20
ENDBRANCH   22   21
ENDBRANCH   23   22
ENDBRANCH   24   23
ENDBRANCH   26   24
ENDBRANCH   30   29
BRANCH   34   35
ATOM     35  C26 UNL A   1      45.566  21.235  49.589  1.00  0.00    +0.000 C 
ATOM     36  C27 UNL A   1      44.550  22.192  49.741  1.00  0.00    +0.000 C 
ATOM     37  F1  UNL A   1      43.358  22.012  49.154  1.00  0.00    +0.000 F 
ATOM     38  C28 UNL A   1      44.769  23.364  50.462  1.00  0.00    +0.000 C 
ATOM     39  F2  UNL A   1      43.804  24.289  50.543  1.00  0.00    +0.000 F 
ATOM     40  C29 UNL A   1      45.992  23.582  51.080  1.00  0.00    +0.000 C 
ATOM     41  F3  UNL A   1      46.198  24.706  51.780  1.00  0.00    +0.000 F 
ATOM     42  C30 UNL A   1      47.001  22.638  50.966  1.00  0.00    +0.000 C 
ATOM     43  F4  UNL A   1      48.177  22.840  51.575  1.00  0.00    +0.000 F 
ATOM     44  C31 UNL A   1      46.797  21.483  50.216  1.00  0.00    +0.000 C 
ATOM     45  F5  UNL A   1      47.801  20.600  50.108  1.00  0.00    +0.000 F 
ENDBRANCH   34   35
BRANCH   51   52
ATOM     52  C37 UNL A   1      46.758  18.699  42.945  1.00  0.00    +0.000 C 
ATOM     53  C38 UNL A   1      48.130  18.539  42.707  1.00  0.00    +0.000 C 
ATOM     54  F6  UNL A   1      48.922  18.006  43.650  1.00  0.00    +0.000 F 
ATOM     55  C39 UNL A   1      48.704  18.967  41.512  1.00  0.00    +0.000 C 
ATOM     56  F7  UNL A   1      50.026  18.851  41.327  1.00  0.00    +0.000 F 
ATOM     57  C40 UNL A   1      47.912  19.522  40.519  1.00  0.00    +0.000 C 
ATOM     58  F8  UNL A   1      48.464  19.921  39.365  1.00  0.00    +0.000 F 
ATOM     59  C41 UNL A   1      46.549  19.671  40.724  1.00  0.00    +0.000 C 
ATOM     60  F9  UNL A   1      45.778  20.190  39.758  1.00  0.00    +0.000 F 
ATOM     61  C42 UNL A   1      45.978  19.277  41.931  1.00  0.00    +0.000 C 
ATOM     62  F10 UNL A   1      44.659  19.445  42.103  1.00  0.00    +0.000 F 
ENDBRANCH   51   52
BRANCH   66   67
ATOM     67  C46 UNL A   1      43.700  12.694  44.742  1.00  0.00    +0.000 C 
ATOM     68  C47 UNL A   1      42.429  12.468  44.193  1.00  0.00    +0.000 C 
ATOM     69  F11 UNL A   1      41.465  13.388  44.336  1.00  0.00    +0.000 F 
ATOM     70  C48 UNL A   1      42.130  11.276  43.535  1.00  0.00    +0.000 C 
ATOM     71  F12 UNL A   1      40.893  11.065  43.069  1.00  0.00    +0.000 F 
ATOM     72  C49 UNL A   1      43.105  10.303  43.382  1.00  0.00    +0.000 C 
ATOM     73  F13 UNL A   1      42.818   9.157  42.749  1.00  0.00    +0.000 F 
ATOM     74  C50 UNL A   1      44.376  10.514  43.895  1.00  0.00    +0.000 C 
ATOM     75  F14 UNL A   1      45.326   9.583  43.735  1.00  0.00    +0.000 F 
ATOM     76  C51 UNL A   1      44.667  11.692  44.581  1.00  0.00    +0.000 C 
ATOM     77  F15 UNL A   1      45.899  11.860  45.081  1.00  0.00    +0.000 F 
ENDBRANCH   66   67
TORSDOF 22
ENDMDL
MODEL 9
REMARK VINA RESULT:      -7.9      1.775      3.767
ROOT
ATOM    129  H31 UNL A   1      16.946  57.087   1.120  1.00  0.00    +0.000 H 
ATOM    130  H32 UNL A   1      15.564  47.160   0.463  1.00  0.00    +0.000 H 
ATOM    131  H33 UNL A   1      13.681  47.313   2.191  1.00  0.00    +0.000 H 
ATOM     30  C22 UNL A   1      13.403  49.902   3.352  1.00  0.00    +0.000 C 
ATOM     31  C23 UNL A   1      14.299  49.496   2.215  1.00  0.00    +0.000 C 
ATOM     32  N3  UNL A   1      15.134  50.222   1.515  1.00  0.00    +0.000 N 
ATOM     33  C24 UNL A   1      15.742  49.347   0.625  1.00  0.00    +0.000 C 
ATOM     34  C25 UNL A   1      16.628  49.626  -0.361  1.00  0.00    +0.000 C 
ATOM     46  C32 UNL A   1      17.117  50.947  -0.658  1.00  0.00    +0.000 C 
ATOM     47  C33 UNL A   1      17.977  51.342  -1.667  1.00  0.00    +0.000 C 
ATOM     48  C34 UNL A   1      18.215  52.712  -1.526  1.00  0.00    +0.000 C 
ATOM     49  C35 UNL A   1      17.451  53.185  -0.472  1.00  0.00    +0.000 C 
ATOM     50  N4  UNL A   1      16.788  52.089   0.058  1.00  0.00    +0.000 N 
ATOM     51  C36 UNL A   1      17.333  54.537   0.015  1.00  0.00    +0.000 C 
ATOM     63  C43 UNL A   1      16.560  54.921   1.061  1.00  0.00    +0.000 C 
ATOM     64  N5  UNL A   1      15.727  54.150   1.862  1.00  0.00    +0.000 N 
ATOM     65  C44 UNL A   1      15.203  54.974   2.736  1.00  0.00    +0.000 C 
ATOM     66  C45 UNL A   1      14.199  54.697   3.824  1.00  0.00    +0.000 C 
ATOM     78  C52 UNL A   1      13.720  53.446   3.969  1.00  0.00    +0.000 C 
ATOM     79  C53 UNL A   1      12.748  53.022   4.973  1.00  0.00    +0.000 C 
ATOM     80  C54 UNL A   1      12.554  51.699   4.863  1.00  0.00    +0.000 C 
ATOM     81  C55 UNL A   1      13.355  51.187   3.750  1.00  0.00    +0.000 C 
ATOM     82  N6  UNL A   1      14.006  52.297   3.272  1.00  0.00    +0.000 N 
ATOM     83  C56 UNL A   1      15.676  56.360   2.610  1.00  0.00    +0.000 C 
ATOM     84  C57 UNL A   1      16.463  56.281   1.547  1.00  0.00    +0.000 C 
ATOM     85  C58 UNL A   1      15.231  48.026   0.914  1.00  0.00    +0.000 C 
ATOM     86  C59 UNL A   1      14.280  48.074   1.834  1.00  0.00    +0.000 C 
ATOM    122  H24 UNL A   1      18.374  50.731  -2.397  1.00  0.00    +0.000 H 
ATOM    123  H25 UNL A   1      18.853  53.277  -2.109  1.00  0.00    +0.000 H 
ATOM    124  H26 UNL A   1      16.175  52.118   0.828  1.00  0.00    +0.000 H 
ATOM    125  H27 UNL A   1      12.284  53.641   5.656  1.00  0.00    +0.000 H 
ATOM    126  H28 UNL A   1      11.939  51.132   5.467  1.00  0.00    +0.000 H 
ATOM    127  H29 UNL A   1      14.618  52.273   2.502  1.00  0.00    +0.000 H 
ATOM    128  H30 UNL A   1      15.455  57.179   3.197  1.00  0.00    +0.000 H 
ENDROOT
BRANCH   30   29
ATOM    132  H34 UNL A   1      14.223  48.328   5.353  1.00  0.00    +0.000 H 
ATOM    133  H35 UNL A   1      13.020  46.542   6.464  1.00  0.00    +0.000 H 
ATOM    120  H22 UNL A   1       9.555  47.503   4.279  1.00  0.00    +0.000 H 
ATOM     87  C60 UNL A   1      13.241  48.134   5.103  1.00  0.00    +0.000 C 
ATOM     88  C61 UNL A   1      12.538  47.141   5.777  1.00  0.00    +0.000 C 
ATOM    121  H23 UNL A   1      10.830  49.113   2.981  1.00  0.00    +0.000 H 
ATOM     26  C18 UNL A   1      11.177  46.958   5.520  1.00  0.00    +0.000 C 
ATOM     27  C19 UNL A   1      10.551  47.670   4.495  1.00  0.00    +0.000 C 
ATOM     28  C20 UNL A   1      11.280  48.609   3.762  1.00  0.00    +0.000 C 
ATOM     29  C21 UNL A   1      12.622  48.872   4.083  1.00  0.00    +0.000 C 
BRANCH   26   24
ATOM     25  O6  UNL A   1       9.267  45.662   5.941  1.00  0.00    +0.000 O 
ATOM     24  C17 UNL A   1      10.377  46.012   6.326  1.00  0.00    +0.000 C 
BRANCH   24   23
ATOM    119  H21 UNL A   1      11.407  44.710   7.450  1.00  0.00    +0.000 H 
ATOM     23  N2  UNL A   1      10.880  45.540   7.513  1.00  0.00    +0.000 N 
BRANCH   23   22
ATOM    118  H20 UNL A   1      10.000  45.523   9.366  1.00  0.00    +0.000 H 
ATOM    117  H19 UNL A   1      10.456  47.123   8.766  1.00  0.00    +0.000 H 
ATOM     22  C16 UNL A   1      10.742  46.095   8.848  1.00  0.00    +0.000 C 
BRANCH   22   21
ATOM    115  H17 UNL A   1      11.786  45.851  10.674  1.00  0.00    +0.000 H 
ATOM    116  H18 UNL A   1      12.601  45.205   9.221  1.00  0.00    +0.000 H 
ATOM     21  C15 UNL A   1      12.038  46.009   9.645  1.00  0.00    +0.000 C 
BRANCH   21   20
ATOM    113  H15 UNL A   1      12.409  47.988   8.977  1.00  0.00    +0.000 H 
ATOM    114  H16 UNL A   1      13.110  47.555  10.568  1.00  0.00    +0.000 H 
ATOM     20  C14 UNL A   1      12.926  47.253   9.558  1.00  0.00    +0.000 C 
BRANCH   20   19
ATOM     19  C13 UNL A   1      14.304  47.033   8.926  1.00  0.00    +0.000 C 
ATOM    111  H13 UNL A   1      14.901  46.478   9.617  1.00  0.00    +0.000 H 
ATOM    112  H14 UNL A   1      14.130  46.519   8.003  1.00  0.00    +0.000 H 
BRANCH   19   18
ATOM     18  C12 UNL A   1      15.062  48.310   8.563  1.00  0.00    +0.000 C 
ATOM    109  H11 UNL A   1      15.203  48.326   7.503  1.00  0.00    +0.000 H 
ATOM    110  H12 UNL A   1      14.470  49.128   8.917  1.00  0.00    +0.000 H 
BRANCH   18   17
ATOM     17  C11 UNL A   1      16.425  48.442   9.225  1.00  0.00    +0.000 C 
ATOM    107  H9  UNL A   1      16.481  47.742  10.033  1.00  0.00    +0.000 H 
ATOM    108  H10 UNL A   1      17.163  48.248   8.475  1.00  0.00    +0.000 H 
BRANCH   17   16
ATOM    106  H8  UNL A   1      17.117  50.384   9.117  1.00  0.00    +0.000 H 
ATOM     16  N1  UNL A   1      16.680  49.766   9.748  1.00  0.00    +0.000 N 
BRANCH   16   14
ATOM     14  C10 UNL A   1      16.411  50.295  10.980  1.00  0.00    +0.000 C 
ATOM     15  O5  UNL A   1      17.381  50.645  11.653  1.00  0.00    +0.000 O 
BRANCH   14   13
ATOM      1  O1  UNL A   1      14.201  53.980  10.963  1.00  0.00    +0.000 O 
ATOM      2  C1  UNL A   1      14.421  52.855  11.378  1.00  0.00    +0.000 C 
ATOM      3  O2  UNL A   1      14.787  52.547  12.647  1.00  0.00    +0.000 O 
ATOM      4  C2  UNL A   1      14.858  51.122  12.826  1.00  0.00    +0.000 C 
ATOM     99  H1  UNL A   1      15.717  50.826  13.391  1.00  0.00    +0.000 H 
ATOM    105  H7  UNL A   1      14.513  49.550  11.346  1.00  0.00    +0.000 H 
ATOM     13  C9  UNL A   1      14.960  50.519  11.429  1.00  0.00    +0.000 C 
ATOM     89  C62 UNL A   1      14.320  51.597  10.619  1.00  0.00    +0.000 C 
BRANCH    4    5
ATOM    100  H2  UNL A   1      13.689  52.195  15.067  1.00  0.00    +0.000 H 
ATOM      5  C3  UNL A   1      13.693  50.601  13.675  1.00  0.00    +0.000 C 
ATOM      6  C4  UNL A   1      13.198  51.336  14.777  1.00  0.00    +0.000 C 
ATOM      7  C5  UNL A   1      12.062  50.931  15.487  1.00  0.00    +0.000 C 
ATOM    104  H6  UNL A   1      13.346  48.858  12.524  1.00  0.00    +0.000 H 
ATOM    101  H3  UNL A   1      11.710  51.493  16.277  1.00  0.00    +0.000 H 
ATOM     10  C7  UNL A   1      11.901  49.013  14.048  1.00  0.00    +0.000 C 
ATOM      8  C6  UNL A   1      11.417  49.764  15.113  1.00  0.00    +0.000 C 
ATOM     12  C8  UNL A   1      13.015  49.423  13.323  1.00  0.00    +0.000 C 
BRANCH    8    9
ATOM      9  O3  UNL A   1      10.300  49.318  15.760  1.00  0.00    +0.000 O 
ATOM    102  H4  UNL A   1       9.892  48.518  15.491  1.00  0.00    +0.000 H 
ENDBRANCH    8    9
BRANCH   10   11
ATOM     11  O4  UNL A   1      11.267  47.856  13.693  1.00  0.00    +0.000 O 
ATOM    103  H5  UNL A   1      10.408  47.673  14.022  1.00  0.00    +0.000 H 
ENDBRANCH   10   11
ENDBRANCH    4    5
BRANCH   89   90
ATOM     90  C63 UNL A   1      13.709  51.576   9.425  1.00  0.00    +0.000 C 
ATOM    134  H36 UNL A   1      14.177  52.050   8.636  1.00  0.00    +0.000 H 
BRANCH   90   91
ATOM     98  C69 UNL A   1      11.538  50.721  10.231  1.00  0.00    +0.000 C 
ATOM    135  H37 UNL A   1      12.751  50.608   7.103  1.00  0.00    +0.000 H 
ATOM    136  H38 UNL A   1      10.609  49.526   6.701  1.00  0.00    +0.000 H 
ATOM    139  H41 UNL A   1      11.782  51.037  11.183  1.00  0.00    +0.000 H 
ATOM     91  C64 UNL A   1      12.424  50.927   9.169  1.00  0.00    +0.000 C 
ATOM     92  C65 UNL A   1      12.087  50.475   7.883  1.00  0.00    +0.000 C 
ATOM     93  C66 UNL A   1      10.861  49.846   7.650  1.00  0.00    +0.000 C 
ATOM     94  C67 UNL A   1       9.985  49.658   8.712  1.00  0.00    +0.000 C 
ATOM     96  C68 UNL A   1      10.327  50.088   9.991  1.00  0.00    +0.000 C 
BRANCH   94   95
ATOM    137  H39 UNL A   1       7.988  49.559   8.544  1.00  0.00    +0.000 H 
ATOM     95  O7  UNL A   1       8.772  49.048   8.548  1.00  0.00    +0.000 O 
ENDBRANCH   94   95
BRANCH   96   97
ATOM     97  O8  UNL A   1       9.465  49.883  11.031  1.00  0.00    +0.000 O 
ATOM    138  H40 UNL A   1       8.661  50.362  11.075  1.00  0.00    +0.000 H 
ENDBRANCH   96   97
ENDBRANCH   90   91
ENDBRANCH   89   90
ENDBRANCH   14   13
ENDBRANCH   16   14
ENDBRANCH   17   16
ENDBRANCH   18   17
ENDBRANCH   19   18
ENDBRANCH   20   19
ENDBRANCH   21   20
ENDBRANCH   22   21
ENDBRANCH   23   22
ENDBRANCH   24   23
ENDBRANCH   26   24
ENDBRANCH   30   29
BRANCH   34   35
ATOM     35  C26 UNL A   1      17.129  48.478  -1.191  1.00  0.00    +0.000 C 
ATOM     36  C27 UNL A   1      18.186  47.661  -0.760  1.00  0.00    +0.000 C 
ATOM     37  F1  UNL A   1      18.810  47.919   0.399  1.00  0.00    +0.000 F 
ATOM     38  C28 UNL A   1      18.640  46.600  -1.540  1.00  0.00    +0.000 C 
ATOM     39  F2  UNL A   1      19.688  45.872  -1.134  1.00  0.00    +0.000 F 
ATOM     40  C29 UNL A   1      18.018  46.308  -2.745  1.00  0.00    +0.000 C 
ATOM     41  F3  UNL A   1      18.450  45.282  -3.491  1.00  0.00    +0.000 F 
ATOM     42  C30 UNL A   1      16.954  47.084  -3.179  1.00  0.00    +0.000 C 
ATOM     43  F4  UNL A   1      16.342  46.794  -4.335  1.00  0.00    +0.000 F 
ATOM     44  C31 UNL A   1      16.522  48.168  -2.418  1.00  0.00    +0.000 C 
ATOM     45  F5  UNL A   1      15.504  48.911  -2.877  1.00  0.00    +0.000 F 
ENDBRANCH   34   35
BRANCH   51   52
ATOM     52  C37 UNL A   1      18.097  55.607  -0.712  1.00  0.00    +0.000 C 
ATOM     53  C38 UNL A   1      19.378  56.008  -0.308  1.00  0.00    +0.000 C 
ATOM     54  F6  UNL A   1      19.937  55.477   0.790  1.00  0.00    +0.000 F 
ATOM     55  C39 UNL A   1      20.076  56.988  -1.010  1.00  0.00    +0.000 C 
ATOM     56  F7  UNL A   1      21.278  57.392  -0.577  1.00  0.00    +0.000 F 
ATOM     57  C40 UNL A   1      19.525  57.554  -2.149  1.00  0.00    +0.000 C 
ATOM     58  F8  UNL A   1      20.203  58.488  -2.831  1.00  0.00    +0.000 F 
ATOM     59  C41 UNL A   1      18.268  57.159  -2.579  1.00  0.00    +0.000 C 
ATOM     60  F9  UNL A   1      17.740  57.691  -3.690  1.00  0.00    +0.000 F 
ATOM     61  C42 UNL A   1      17.552  56.206  -1.860  1.00  0.00    +0.000 C 
ATOM     62  F10 UNL A   1      16.334  55.853  -2.294  1.00  0.00    +0.000 F 
ENDBRANCH   51   52
BRANCH   66   67
ATOM     67  C46 UNL A   1      13.721  55.787   4.715  1.00  0.00    +0.000 C 
ATOM     68  C47 UNL A   1      12.609  56.568   4.364  1.00  0.00    +0.000 C 
ATOM     69  F11 UNL A   1      11.968  56.339   3.210  1.00  0.00    +0.000 F 
ATOM     70  C48 UNL A   1      12.181  57.617   5.176  1.00  0.00    +0.000 C 
ATOM     71  F12 UNL A   1      11.152  58.381   4.789  1.00  0.00    +0.000 F 
ATOM     72  C49 UNL A   1      12.832  57.884   6.370  1.00  0.00    +0.000 C 
ATOM     73  F13 UNL A   1      12.420  58.892   7.150  1.00  0.00    +0.000 F 
ATOM     74  C50 UNL A   1      13.918  57.109   6.750  1.00  0.00    +0.000 C 
ATOM     75  F14 UNL A   1      14.541  57.352   7.911  1.00  0.00    +0.000 F 
ATOM     76  C51 UNL A   1      14.368  56.080   5.924  1.00  0.00    +0.000 C 
ATOM     77  F15 UNL A   1      15.430  55.360   6.310  1.00  0.00    +0.000 F 
ENDBRANCH   66   67
TORSDOF 22
ENDMDL
MODEL 10
REMARK VINA RESULT:      -7.9      2.277      4.147
ROOT
ATOM    129  H31 UNL A   1      17.616  57.325   0.687  1.00  0.00    +0.000 H 
ATOM    130  H32 UNL A   1      15.615  47.482   0.670  1.00  0.00    +0.000 H 
ATOM    131  H33 UNL A   1      13.877  47.838   2.516  1.00  0.00    +0.000 H 
ATOM     30  C22 UNL A   1      13.837  50.493   3.551  1.00  0.00    +0.000 C 
ATOM     31  C23 UNL A   1      14.621  49.976   2.377  1.00  0.00    +0.000 C 
ATOM     32  N3  UNL A   1      15.443  50.614   1.582  1.00  0.00    +0.000 N 
ATOM     33  C24 UNL A   1      15.932  49.660   0.700  1.00  0.00    +0.000 C 
ATOM     34  C25 UNL A   1      16.757  49.833  -0.360  1.00  0.00    +0.000 C 
ATOM     46  C32 UNL A   1      17.298  51.105  -0.762  1.00  0.00    +0.000 C 
ATOM     47  C33 UNL A   1      18.104  51.395  -1.849  1.00  0.00    +0.000 C 
ATOM     48  C34 UNL A   1      18.431  52.753  -1.801  1.00  0.00    +0.000 C 
ATOM     49  C35 UNL A   1      17.775  53.325  -0.722  1.00  0.00    +0.000 C 
ATOM     50  N4  UNL A   1      17.090  52.300  -0.088  1.00  0.00    +0.000 N 
ATOM     51  C36 UNL A   1      17.772  54.704  -0.302  1.00  0.00    +0.000 C 
ATOM     63  C43 UNL A   1      17.102  55.187   0.773  1.00  0.00    +0.000 C 
ATOM     64  N5  UNL A   1      16.288  54.510   1.671  1.00  0.00    +0.000 N 
ATOM     65  C44 UNL A   1      15.878  55.408   2.534  1.00  0.00    +0.000 C 
ATOM     66  C45 UNL A   1      14.942  55.248   3.704  1.00  0.00    +0.000 C 
ATOM     78  C52 UNL A   1      14.404  54.038   3.951  1.00  0.00    +0.000 C 
ATOM     79  C53 UNL A   1      13.485  53.726   5.042  1.00  0.00    +0.000 C 
ATOM     80  C54 UNL A   1      13.208  52.413   5.018  1.00  0.00    +0.000 C 
ATOM     81  C55 UNL A   1      13.893  51.798   3.881  1.00  0.00    +0.000 C 
ATOM     82  N6  UNL A   1      14.570  52.840   3.299  1.00  0.00    +0.000 N 
ATOM     83  C56 UNL A   1      16.421  56.754   2.300  1.00  0.00    +0.000 C 
ATOM     84  C57 UNL A   1      17.121  56.573   1.190  1.00  0.00    +0.000 C 
ATOM     85  C58 UNL A   1      15.368  48.389   1.096  1.00  0.00    +0.000 C 
ATOM     86  C59 UNL A   1      14.492  48.542   2.077  1.00  0.00    +0.000 C 
ATOM    122  H24 UNL A   1      18.409  50.724  -2.571  1.00  0.00    +0.000 H 
ATOM    123  H25 UNL A   1      19.056  53.247  -2.457  1.00  0.00    +0.000 H 
ATOM    124  H26 UNL A   1      16.539  52.404   0.721  1.00  0.00    +0.000 H 
ATOM    125  H27 UNL A   1      13.110  54.406   5.722  1.00  0.00    +0.000 H 
ATOM    126  H28 UNL A   1      12.607  51.917   5.695  1.00  0.00    +0.000 H 
ATOM    127  H29 UNL A   1      15.122  52.740   2.489  1.00  0.00    +0.000 H 
ATOM    128  H30 UNL A   1      16.291  57.613   2.856  1.00  0.00    +0.000 H 
ENDROOT
BRANCH   30   29
ATOM    132  H34 UNL A   1      14.702  49.000   5.594  1.00  0.00    +0.000 H 
ATOM    133  H35 UNL A   1      13.484  47.350   6.884  1.00  0.00    +0.000 H 
ATOM    120  H22 UNL A   1       9.941  48.363   4.855  1.00  0.00    +0.000 H 
ATOM     87  C60 UNL A   1      13.698  48.844   5.415  1.00  0.00    +0.000 C 
ATOM     88  C61 UNL A   1      12.990  47.932   6.191  1.00  0.00    +0.000 C 
ATOM    121  H23 UNL A   1      11.210  49.822   3.385  1.00  0.00    +0.000 H 
ATOM     26  C18 UNL A   1      11.608  47.806   6.028  1.00  0.00    +0.000 C 
ATOM     27  C19 UNL A   1      10.955  48.488   5.000  1.00  0.00    +0.000 C 
ATOM     28  C20 UNL A   1      11.682  49.343   4.167  1.00  0.00    +0.000 C 
ATOM     29  C21 UNL A   1      13.053  49.552   4.390  1.00  0.00    +0.000 C 
BRANCH   26   24
ATOM     25  O6  UNL A   1       9.593  46.928   6.847  1.00  0.00    +0.000 O 
ATOM     24  C17 UNL A   1      10.815  46.954   6.938  1.00  0.00    +0.000 C 
BRANCH   24   23
ATOM    119  H21 UNL A   1      11.778  45.321   7.593  1.00  0.00    +0.000 H 
ATOM     23  N2  UNL A   1      11.455  46.203   7.892  1.00  0.00    +0.000 N 
BRANCH   23   22
ATOM    118  H20 UNL A   1      11.122  45.884   9.891  1.00  0.00    +0.000 H 
ATOM    117  H19 UNL A   1      11.480  47.558   9.448  1.00  0.00    +0.000 H 
ATOM     22  C16 UNL A   1      11.722  46.529   9.283  1.00  0.00    +0.000 C 
BRANCH   22   21
ATOM    115  H17 UNL A   1      13.210  45.886  10.645  1.00  0.00    +0.000 H 
ATOM    116  H18 UNL A   1      13.586  45.646   8.916  1.00  0.00    +0.000 H 
ATOM     21  C15 UNL A   1      13.181  46.300   9.658  1.00  0.00    +0.000 C 
BRANCH   21   20
ATOM    113  H15 UNL A   1      13.514  48.325   9.120  1.00  0.00    +0.000 H 
ATOM    114  H16 UNL A   1      14.240  47.798  10.671  1.00  0.00    +0.000 H 
ATOM     20  C14 UNL A   1      14.049  47.561   9.646  1.00  0.00    +0.000 C 
BRANCH   20   19
ATOM     19  C13 UNL A   1      15.423  47.405   8.985  1.00  0.00    +0.000 C 
ATOM    111  H13 UNL A   1      16.106  47.042   9.723  1.00  0.00    +0.000 H 
ATOM    112  H14 UNL A   1      15.284  46.733   8.164  1.00  0.00    +0.000 H 
BRANCH   19   18
ATOM     18  C12 UNL A   1      16.005  48.688   8.391  1.00  0.00    +0.000 C 
ATOM    109  H11 UNL A   1      16.508  48.436   7.481  1.00  0.00    +0.000 H 
ATOM    110  H12 UNL A   1      15.184  49.356   8.242  1.00  0.00    +0.000 H 
BRANCH   18   17
ATOM     17  C11 UNL A   1      16.993  49.409   9.295  1.00  0.00    +0.000 C 
ATOM    107  H9  UNL A   1      17.051  48.881  10.225  1.00  0.00    +0.000 H 
ATOM    108  H10 UNL A   1      17.934  49.430   8.786  1.00  0.00    +0.000 H 
BRANCH   17   16
ATOM    106  H8  UNL A   1      16.670  51.385   8.794  1.00  0.00    +0.000 H 
ATOM     16  N1  UNL A   1      16.621  50.779   9.568  1.00  0.00    +0.000 N 
BRANCH   16   14
ATOM     14  C10 UNL A   1      16.213  51.366  10.734  1.00  0.00    +0.000 C 
ATOM     15  O5  UNL A   1      16.982  51.281  11.692  1.00  0.00    +0.000 O 
BRANCH   14   13
ATOM      1  O1  UNL A   1      12.281  49.910  11.676  1.00  0.00    +0.000 O 
ATOM      2  C1  UNL A   1      13.040  50.702  11.145  1.00  0.00    +0.000 C 
ATOM      3  O2  UNL A   1      13.142  50.913   9.810  1.00  0.00    +0.000 O 
ATOM      4  C2  UNL A   1      14.052  51.991   9.531  1.00  0.00    +0.000 C 
ATOM     99  H1  UNL A   1      14.698  51.775   8.705  1.00  0.00    +0.000 H 
ATOM    105  H7  UNL A   1      15.226  53.174  10.946  1.00  0.00    +0.000 H 
ATOM     13  C9  UNL A   1      14.905  52.167  10.784  1.00  0.00    +0.000 C 
ATOM     89  C62 UNL A   1      13.985  51.609  11.819  1.00  0.00    +0.000 C 
BRANCH    4    5
ATOM    100  H2  UNL A   1      14.867  54.614   9.524  1.00  0.00    +0.000 H 
ATOM      5  C3  UNL A   1      13.312  53.251   9.067  1.00  0.00    +0.000 C 
ATOM      6  C4  UNL A   1      13.932  54.522   9.099  1.00  0.00    +0.000 C 
ATOM      7  C5  UNL A   1      13.313  55.660   8.570  1.00  0.00    +0.000 C 
ATOM    104  H6  UNL A   1      11.545  52.256   8.463  1.00  0.00    +0.000 H 
ATOM    101  H3  UNL A   1      13.791  56.573   8.588  1.00  0.00    +0.000 H 
ATOM     10  C7  UNL A   1      11.410  54.306   8.001  1.00  0.00    +0.000 C 
ATOM      8  C6  UNL A   1      12.047  55.542   8.020  1.00  0.00    +0.000 C 
ATOM     12  C8  UNL A   1      12.030  53.166   8.503  1.00  0.00    +0.000 C 
BRANCH    8    9
ATOM      9  O3  UNL A   1      11.391  56.612   7.481  1.00  0.00    +0.000 O 
ATOM    102  H4  UNL A   1      11.867  57.383   7.245  1.00  0.00    +0.000 H 
ENDBRANCH    8    9
BRANCH   10   11
ATOM     11  O4  UNL A   1      10.156  54.200   7.469  1.00  0.00    +0.000 O 
ATOM    103  H5  UNL A   1       9.600  53.488   7.721  1.00  0.00    +0.000 H 
ENDBRANCH   10   11
ENDBRANCH    4    5
BRANCH   89   90
ATOM     90  C63 UNL A   1      13.897  51.813  13.141  1.00  0.00    +0.000 C 
ATOM    134  H36 UNL A   1      14.525  51.272  13.756  1.00  0.00    +0.000 H 
BRANCH   90   91
ATOM     98  C69 UNL A   1      12.056  52.282  14.719  1.00  0.00    +0.000 C 
ATOM    135  H37 UNL A   1      13.618  54.452  12.689  1.00  0.00    +0.000 H 
ATOM    136  H38 UNL A   1      12.062  55.997  13.745  1.00  0.00    +0.000 H 
ATOM    139  H41 UNL A   1      12.048  51.284  14.983  1.00  0.00    +0.000 H 
ATOM     91  C64 UNL A   1      12.970  52.753  13.770  1.00  0.00    +0.000 C 
ATOM     92  C65 UNL A   1      12.958  54.109  13.405  1.00  0.00    +0.000 C 
ATOM     93  C66 UNL A   1      12.061  54.998  14.004  1.00  0.00    +0.000 C 
ATOM     94  C67 UNL A   1      11.167  54.519  14.954  1.00  0.00    +0.000 C 
ATOM     96  C68 UNL A   1      11.164  53.170  15.301  1.00  0.00    +0.000 C 
BRANCH   94   95
ATOM    137  H39 UNL A   1      10.354  55.528  16.486  1.00  0.00    +0.000 H 
ATOM     95  O7  UNL A   1      10.264  55.337  15.573  1.00  0.00    +0.000 O 
ENDBRANCH   94   95
BRANCH   96   97
ATOM     97  O8  UNL A   1      10.270  52.707  16.224  1.00  0.00    +0.000 O 
ATOM    138  H40 UNL A   1       9.764  53.312  16.731  1.00  0.00    +0.000 H 
ENDBRANCH   96   97
ENDBRANCH   90   91
ENDBRANCH   89   90
ENDBRANCH   14   13
ENDBRANCH   16   14
ENDBRANCH   17   16
ENDBRANCH   18   17
ENDBRANCH   19   18
ENDBRANCH   20   19
ENDBRANCH   21   20
ENDBRANCH   22   21
ENDBRANCH   23   22
ENDBRANCH   24   23
ENDBRANCH   26   24
ENDBRANCH   30   29
BRANCH   34   35
ATOM     35  C26 UNL A   1      17.127  48.616  -1.160  1.00  0.00    +0.000 C 
ATOM     36  C27 UNL A   1      16.480  48.299  -2.364  1.00  0.00    +0.000 C 
ATOM     37  F1  UNL A   1      15.472  49.062  -2.812  1.00  0.00    +0.000 F 
ATOM     38  C28 UNL A   1      16.835  47.167  -3.094  1.00  0.00    +0.000 C 
ATOM     39  F2  UNL A   1      16.163  46.853  -4.210  1.00  0.00    +0.000 F 
ATOM     40  C29 UNL A   1      17.872  46.355  -2.658  1.00  0.00    +0.000 C 
ATOM     41  F3  UNL A   1      18.218  45.271  -3.366  1.00  0.00    +0.000 F 
ATOM     42  C30 UNL A   1      18.544  46.664  -1.486  1.00  0.00    +0.000 C 
ATOM     43  F4  UNL A   1      19.555  45.889  -1.071  1.00  0.00    +0.000 F 
ATOM     44  C31 UNL A   1      18.166  47.774  -0.735  1.00  0.00    +0.000 C 
ATOM     45  F5  UNL A   1      18.823  48.032   0.406  1.00  0.00    +0.000 F 
ENDBRANCH   34   35
BRANCH   51   52
ATOM     52  C37 UNL A   1      18.541  55.687  -1.138  1.00  0.00    +0.000 C 
ATOM     53  C38 UNL A   1      19.838  56.096  -0.797  1.00  0.00    +0.000 C 
ATOM     54  F6  UNL A   1      20.409  55.656   0.334  1.00  0.00    +0.000 F 
ATOM     55  C39 UNL A   1      20.540  56.993  -1.599  1.00  0.00    +0.000 C 
ATOM     56  F7  UNL A   1      21.758  57.410  -1.227  1.00  0.00    +0.000 F 
ATOM     57  C40 UNL A   1      19.976  57.465  -2.775  1.00  0.00    +0.000 C 
ATOM     58  F8  UNL A   1      20.658  58.317  -3.552  1.00  0.00    +0.000 F 
ATOM     59  C41 UNL A   1      18.703  57.058  -3.143  1.00  0.00    +0.000 C 
ATOM     60  F9  UNL A   1      18.163  57.497  -4.288  1.00  0.00    +0.000 F 
ATOM     61  C42 UNL A   1      17.985  56.190  -2.326  1.00  0.00    +0.000 C 
ATOM     62  F10 UNL A   1      16.751  55.823  -2.703  1.00  0.00    +0.000 F 
ENDBRANCH   51   52
BRANCH   66   67
ATOM     67  C46 UNL A   1      14.596  56.408   4.566  1.00  0.00    +0.000 C 
ATOM     68  C47 UNL A   1      13.471  57.200   4.289  1.00  0.00    +0.000 C 
ATOM     69  F11 UNL A   1      12.698  56.917   3.232  1.00  0.00    +0.000 F 
ATOM     70  C48 UNL A   1      13.164  58.314   5.069  1.00  0.00    +0.000 C 
ATOM     71  F12 UNL A   1      12.116  59.084   4.748  1.00  0.00    +0.000 F 
ATOM     72  C49 UNL A   1      13.953  58.636   6.163  1.00  0.00    +0.000 C 
ATOM     73  F13 UNL A   1      13.657  59.707   6.913  1.00  0.00    +0.000 F 
ATOM     74  C50 UNL A   1      15.055  57.854   6.471  1.00  0.00    +0.000 C 
ATOM     75  F14 UNL A   1      15.812  58.152   7.536  1.00  0.00    +0.000 F 
ATOM     76  C51 UNL A   1      15.382  56.759   5.672  1.00  0.00    +0.000 C 
ATOM     77  F15 UNL A   1      16.464  56.032   5.986  1.00  0.00    +0.000 F 
ENDBRANCH   66   67
TORSDOF 22
ENDMDL
