MODEL 1
REMARK VINA RESULT:      -9.5      0.000      0.000
ROOT
ATOM     26  C20 UNL A   1      41.491  25.974  27.589  1.00  0.00    +0.000 C 
ATOM     27  C21 UNL A   1      40.796  27.066  28.352  1.00  0.00    +0.000 C 
ATOM     28  N3  UNL A   1      41.240  28.249  28.694  1.00  0.00    +0.000 N 
ATOM     29  C22 UNL A   1      40.182  28.879  29.339  1.00  0.00    +0.000 C 
ATOM     30  C23 UNL A   1      40.157  30.102  29.921  1.00  0.00    +0.000 C 
ATOM     42  C30 UNL A   1      41.283  30.995  29.988  1.00  0.00    +0.000 C 
ATOM     43  C31 UNL A   1      41.377  32.218  30.628  1.00  0.00    +0.000 C 
ATOM     44  C32 UNL A   1      42.651  32.743  30.384  1.00  0.00    +0.000 C 
ATOM     45  C33 UNL A   1      43.364  31.826  29.631  1.00  0.00    +0.000 C 
ATOM     46  N4  UNL A   1      42.513  30.759  29.393  1.00  0.00    +0.000 N 
ATOM     47  C34 UNL A   1      44.722  31.915  29.158  1.00  0.00    +0.000 C 
ATOM     59  C41 UNL A   1      45.356  30.962  28.433  1.00  0.00    +0.000 C 
ATOM     60  N5  UNL A   1      44.878  29.732  28.003  1.00  0.00    +0.000 N 
ATOM     61  C42 UNL A   1      45.858  29.180  27.332  1.00  0.00    +0.000 C 
ATOM     62  C43 UNL A   1      45.912  27.832  26.664  1.00  0.00    +0.000 C 
ATOM     74  C50 UNL A   1      44.844  27.015  26.743  1.00  0.00    +0.000 C 
ATOM     75  C51 UNL A   1      44.753  25.683  26.151  1.00  0.00    +0.000 C 
ATOM     76  C52 UNL A   1      43.530  25.182  26.386  1.00  0.00    +0.000 C 
ATOM     77  C53 UNL A   1      42.761  26.144  27.176  1.00  0.00    +0.000 C 
ATOM     78  N6  UNL A   1      43.626  27.196  27.351  1.00  0.00    +0.000 N 
ATOM     79  C54 UNL A   1      47.063  30.015  27.235  1.00  0.00    +0.000 C 
ATOM     80  C55 UNL A   1      46.718  31.073  27.956  1.00  0.00    +0.000 C 
ATOM     81  C56 UNL A   1      39.062  27.963  29.305  1.00  0.00    +0.000 C 
ATOM     82  C57 UNL A   1      39.408  26.805  28.762  1.00  0.00    +0.000 C 
ATOM    114  H30 UNL A   1      40.635  32.667  31.187  1.00  0.00    +0.000 H 
ATOM    115  H31 UNL A   1      42.999  33.657  30.712  1.00  0.00    +0.000 H 
ATOM    116  H32 UNL A   1      42.747  29.954  28.877  1.00  0.00    +0.000 H 
ATOM    117  H33 UNL A   1      45.507  25.204  25.634  1.00  0.00    +0.000 H 
ATOM    118  H34 UNL A   1      43.187  24.263  26.062  1.00  0.00    +0.000 H 
ATOM    119  H35 UNL A   1      43.396  28.004  27.863  1.00  0.00    +0.000 H 
ATOM    120  H36 UNL A   1      47.948  29.828  26.736  1.00  0.00    +0.000 H 
ATOM    121  H37 UNL A   1      47.341  31.871  28.151  1.00  0.00    +0.000 H 
ATOM    122  H38 UNL A   1      38.118  28.185  29.658  1.00  0.00    +0.000 H 
ATOM    123  H39 UNL A   1      38.848  25.944  28.656  1.00  0.00    +0.000 H 
ENDROOT
BRANCH   26   25
ATOM    112  H28 UNL A   1      40.777  21.405  27.683  1.00  0.00    +0.000 H 
ATOM    113  H29 UNL A   1      41.895  23.426  28.430  1.00  0.00    +0.000 H 
ATOM     83  C58 UNL A   1      39.674  24.810  26.329  1.00  0.00    +0.000 C 
ATOM     84  C59 UNL A   1      38.984  23.657  25.960  1.00  0.00    +0.000 C 
ATOM     22  C16 UNL A   1      39.428  22.408  26.403  1.00  0.00    +0.000 C 
ATOM     23  C17 UNL A   1      40.481  22.323  27.317  1.00  0.00    +0.000 C 
ATOM     24  C18 UNL A   1      41.133  23.486  27.737  1.00  0.00    +0.000 C 
ATOM     25  C19 UNL A   1      40.757  24.736  27.218  1.00  0.00    +0.000 C 
ATOM    124  H40 UNL A   1      39.387  25.724  25.946  1.00  0.00    +0.000 H 
ATOM    125  H41 UNL A   1      38.146  23.726  25.360  1.00  0.00    +0.000 H 
BRANCH   22   20
ATOM     20  C15 UNL A   1      38.803  21.154  25.922  1.00  0.00    +0.000 C 
ATOM     21  O2  UNL A   1      39.312  20.077  26.197  1.00  0.00    +0.000 O 
BRANCH   20   19
ATOM     19  N2  UNL A   1      37.672  21.209  25.140  1.00  0.00    +0.000 N 
ATOM    111  H27 UNL A   1      37.827  21.141  24.169  1.00  0.00    +0.000 H 
BRANCH   19   18
ATOM     18  C14 UNL A   1      36.283  21.351  25.542  1.00  0.00    +0.000 C 
ATOM    109  H25 UNL A   1      35.776  20.429  25.349  1.00  0.00    +0.000 H 
ATOM    110  H26 UNL A   1      36.275  21.602  26.582  1.00  0.00    +0.000 H 
BRANCH   18   17
ATOM     17  C13 UNL A   1      35.559  22.468  24.797  1.00  0.00    +0.000 C 
ATOM    107  H23 UNL A   1      36.241  22.887  24.087  1.00  0.00    +0.000 H 
ATOM    108  H24 UNL A   1      34.697  22.016  24.353  1.00  0.00    +0.000 H 
BRANCH   17   16
ATOM    105  H21 UNL A   1      35.724  23.756  26.474  1.00  0.00    +0.000 H 
ATOM    106  H22 UNL A   1      34.932  24.453  25.025  1.00  0.00    +0.000 H 
ATOM     16  C12 UNL A   1      35.031  23.607  25.673  1.00  0.00    +0.000 C 
BRANCH   16   15
ATOM    103  H19 UNL A   1      33.198  22.550  25.782  1.00  0.00    +0.000 H 
ATOM     15  C11 UNL A   1      33.646  23.381  26.283  1.00  0.00    +0.000 C 
ATOM    104  H20 UNL A   1      33.812  23.221  27.329  1.00  0.00    +0.000 H 
BRANCH   15   14
ATOM    102  H18 UNL A   1      32.856  25.165  27.061  1.00  0.00    +0.000 H 
ATOM    101  H17 UNL A   1      31.681  24.177  26.138  1.00  0.00    +0.000 H 
ATOM     14  C10 UNL A   1      32.675  24.567  26.192  1.00  0.00    +0.000 C 
BRANCH   14   13
ATOM     99  H15 UNL A   1      32.453  26.446  25.214  1.00  0.00    +0.000 H 
ATOM    100  H16 UNL A   1      33.937  25.578  24.820  1.00  0.00    +0.000 H 
ATOM     13  C9  UNL A   1      32.885  25.492  24.994  1.00  0.00    +0.000 C 
BRANCH   13   12
ATOM     98  H14 UNL A   1      31.316  24.732  23.814  1.00  0.00    +0.000 H 
ATOM     12  N1  UNL A   1      32.272  24.964  23.796  1.00  0.00    +0.000 N 
BRANCH   12    2
ATOM      1  O1  UNL A   1      33.504  25.681  21.999  1.00  0.00    +0.000 O 
ATOM      2  C1  UNL A   1      32.978  24.773  22.633  1.00  0.00    +0.000 C 
BRANCH    2    3
ATOM      3  C2  UNL A   1      33.056  23.326  22.186  1.00  0.00    +0.000 C 
ATOM     85  H1  UNL A   1      34.065  22.988  22.297  1.00  0.00    +0.000 H 
ATOM     86  H2  UNL A   1      32.735  23.287  21.165  1.00  0.00    +0.000 H 
BRANCH    3    4
ATOM      4  C3  UNL A   1      32.139  22.404  22.993  1.00  0.00    +0.000 C 
ATOM     87  H3  UNL A   1      31.145  22.535  22.618  1.00  0.00    +0.000 H 
ATOM     88  H4  UNL A   1      32.289  22.698  24.011  1.00  0.00    +0.000 H 
BRANCH    4    5
ATOM     89  H5  UNL A   1      33.365  20.767  22.442  1.00  0.00    +0.000 H 
ATOM     90  H6  UNL A   1      31.579  20.457  22.522  1.00  0.00    +0.000 H 
ATOM      5  C4  UNL A   1      32.445  20.896  22.973  1.00  0.00    +0.000 C 
BRANCH    5    6
ATOM     91  H7  UNL A   1      31.598  20.001  24.689  1.00  0.00    +0.000 H 
ATOM     92  H8  UNL A   1      33.212  20.810  24.895  1.00  0.00    +0.000 H 
ATOM      6  C5  UNL A   1      32.586  20.166  24.315  1.00  0.00    +0.000 C 
BRANCH    6    7
ATOM     97  H13 UNL A   1      33.650  15.832  22.654  1.00  0.00    +0.000 H 
ATOM      7  C6  UNL A   1      33.315  18.809  24.347  1.00  0.00    +0.000 C 
ATOM      8  C7  UNL A   1      33.176  17.883  23.139  1.00  0.00    +0.000 C 
ATOM      9  C8  UNL A   1      33.820  16.534  23.444  1.00  0.00    +0.000 C 
ATOM     10  S1  UNL A   1      33.091  15.971  24.998  1.00  0.00    +0.000 S 
ATOM     11  S2  UNL A   1      32.765  17.831  25.794  1.00  0.00    +0.000 S 
ATOM     93  H9  UNL A   1      34.340  19.116  24.372  1.00  0.00    +0.000 H 
ATOM     94  H10 UNL A   1      33.660  18.326  22.295  1.00  0.00    +0.000 H 
ATOM     95  H11 UNL A   1      32.137  17.738  22.924  1.00  0.00    +0.000 H 
ATOM     96  H12 UNL A   1      34.880  16.644  23.548  1.00  0.00    +0.000 H 
ENDBRANCH    6    7
ENDBRANCH    5    6
ENDBRANCH    4    5
ENDBRANCH    3    4
ENDBRANCH    2    3
ENDBRANCH   12    2
ENDBRANCH   13   12
ENDBRANCH   14   13
ENDBRANCH   15   14
ENDBRANCH   16   15
ENDBRANCH   17   16
ENDBRANCH   18   17
ENDBRANCH   19   18
ENDBRANCH   20   19
ENDBRANCH   22   20
ENDBRANCH   26   25
BRANCH   30   31
ATOM     33  F1  UNL A   1      39.546  29.859  32.713  1.00  0.00    +0.000 F 
ATOM     34  C26 UNL A   1      37.434  30.872  32.480  1.00  0.00    +0.000 C 
ATOM     35  F2  UNL A   1      37.214  30.711  33.792  1.00  0.00    +0.000 F 
ATOM     36  C27 UNL A   1      36.468  31.468  31.683  1.00  0.00    +0.000 C 
ATOM     37  F3  UNL A   1      35.322  31.899  32.227  1.00  0.00    +0.000 F 
ATOM     38  C28 UNL A   1      36.687  31.610  30.322  1.00  0.00    +0.000 C 
ATOM     39  F4  UNL A   1      35.758  32.197  29.553  1.00  0.00    +0.000 F 
ATOM     40  C29 UNL A   1      37.869  31.146  29.751  1.00  0.00    +0.000 C 
ATOM     41  F5  UNL A   1      38.047  31.288  28.429  1.00  0.00    +0.000 F 
ATOM     31  C24 UNL A   1      38.864  30.548  30.540  1.00  0.00    +0.000 C 
ATOM     32  C25 UNL A   1      38.629  30.431  31.917  1.00  0.00    +0.000 C 
ENDBRANCH   30   31
BRANCH   47   48
ATOM     48  C35 UNL A   1      45.505  33.146  29.510  1.00  0.00    +0.000 C 
ATOM     49  C36 UNL A   1      45.487  34.287  28.695  1.00  0.00    +0.000 C 
ATOM     50  F6  UNL A   1      44.801  34.281  27.542  1.00  0.00    +0.000 F 
ATOM     51  C37 UNL A   1      46.205  35.427  29.045  1.00  0.00    +0.000 C 
ATOM     52  F7  UNL A   1      46.208  36.491  28.230  1.00  0.00    +0.000 F 
ATOM     53  C38 UNL A   1      46.928  35.459  30.229  1.00  0.00    +0.000 C 
ATOM     54  F8  UNL A   1      47.613  36.559  30.567  1.00  0.00    +0.000 F 
ATOM     55  C39 UNL A   1      46.946  34.347  31.057  1.00  0.00    +0.000 C 
ATOM     56  F9  UNL A   1      47.635  34.379  32.206  1.00  0.00    +0.000 F 
ATOM     57  C40 UNL A   1      46.251  33.196  30.697  1.00  0.00    +0.000 C 
ATOM     58  F10 UNL A   1      46.296  32.132  31.514  1.00  0.00    +0.000 F 
ENDBRANCH   47   48
BRANCH   62   63
ATOM     65  F11 UNL A   1      48.100  26.587  27.961  1.00  0.00    +0.000 F 
ATOM     66  C46 UNL A   1      49.351  26.385  25.975  1.00  0.00    +0.000 C 
ATOM     67  F12 UNL A   1      50.360  25.838  26.666  1.00  0.00    +0.000 F 
ATOM     68  C47 UNL A   1      49.471  26.580  24.607  1.00  0.00    +0.000 C 
ATOM     69  F13 UNL A   1      50.590  26.205  23.971  1.00  0.00    +0.000 F 
ATOM     70  C48 UNL A   1      48.435  27.172  23.900  1.00  0.00    +0.000 C 
ATOM     71  F14 UNL A   1      48.543  27.351  22.578  1.00  0.00    +0.000 F 
ATOM     72  C49 UNL A   1      47.281  27.585  24.565  1.00  0.00    +0.000 C 
ATOM     73  F15 UNL A   1      46.301  28.167  23.860  1.00  0.00    +0.000 F 
ATOM     63  C44 UNL A   1      47.134  27.391  25.947  1.00  0.00    +0.000 C 
ATOM     64  C45 UNL A   1      48.187  26.773  26.636  1.00  0.00    +0.000 C 
ENDBRANCH   62   63
TORSDOF 19
ENDMDL
MODEL 2
REMARK VINA RESULT:      -9.3     26.257     30.920
ROOT
ATOM     26  C20 UNL A   1      21.704  35.728  47.652  1.00  0.00    +0.000 C 
ATOM     27  C21 UNL A   1      20.373  36.129  48.223  1.00  0.00    +0.000 C 
ATOM     28  N3  UNL A   1      19.991  37.289  48.698  1.00  0.00    +0.000 N 
ATOM     29  C22 UNL A   1      18.656  37.133  49.047  1.00  0.00    +0.000 C 
ATOM     30  C23 UNL A   1      17.825  38.033  49.626  1.00  0.00    +0.000 C 
ATOM     42  C30 UNL A   1      18.210  39.365  50.013  1.00  0.00    +0.000 C 
ATOM     43  C31 UNL A   1      17.463  40.319  50.681  1.00  0.00    +0.000 C 
ATOM     44  C32 UNL A   1      18.238  41.477  50.801  1.00  0.00    +0.000 C 
ATOM     45  C33 UNL A   1      19.483  41.229  50.248  1.00  0.00    +0.000 C 
ATOM     46  N4  UNL A   1      19.451  39.930  49.767  1.00  0.00    +0.000 N 
ATOM     47  C34 UNL A   1      20.619  42.110  50.160  1.00  0.00    +0.000 C 
ATOM     59  C41 UNL A   1      21.814  41.784  49.612  1.00  0.00    +0.000 C 
ATOM     60  N5  UNL A   1      22.213  40.583  49.044  1.00  0.00    +0.000 N 
ATOM     61  C42 UNL A   1      23.450  40.765  48.649  1.00  0.00    +0.000 C 
ATOM     62  C43 UNL A   1      24.391  39.792  47.992  1.00  0.00    +0.000 C 
ATOM     74  C50 UNL A   1      23.980  38.530  47.763  1.00  0.00    +0.000 C 
ATOM     75  C51 UNL A   1      24.780  37.480  47.140  1.00  0.00    +0.000 C 
ATOM     76  C52 UNL A   1      24.034  36.369  47.026  1.00  0.00    +0.000 C 
ATOM     77  C53 UNL A   1      22.712  36.620  47.600  1.00  0.00    +0.000 C 
ATOM     78  N6  UNL A   1      22.775  37.924  48.024  1.00  0.00    +0.000 N 
ATOM     79  C54 UNL A   1      23.965  42.119  48.898  1.00  0.00    +0.000 C 
ATOM     80  C55 UNL A   1      22.943  42.687  49.522  1.00  0.00    +0.000 C 
ATOM     81  C56 UNL A   1      18.281  35.781  48.694  1.00  0.00    +0.000 C 
ATOM     82  C57 UNL A   1      19.323  35.100  48.239  1.00  0.00    +0.000 C 
ATOM    114  H30 UNL A   1      16.499  40.198  51.030  1.00  0.00    +0.000 H 
ATOM    115  H31 UNL A   1      17.934  42.365  51.230  1.00  0.00    +0.000 H 
ATOM    116  H32 UNL A   1      20.200  39.476  49.316  1.00  0.00    +0.000 H 
ATOM    117  H33 UNL A   1      25.761  37.575  46.835  1.00  0.00    +0.000 H 
ATOM    118  H34 UNL A   1      24.344  35.481  46.603  1.00  0.00    +0.000 H 
ATOM    119  H35 UNL A   1      22.029  38.383  48.473  1.00  0.00    +0.000 H 
ATOM    120  H36 UNL A   1      24.883  42.523  48.652  1.00  0.00    +0.000 H 
ATOM    121  H37 UNL A   1      22.951  43.649  49.895  1.00  0.00    +0.000 H 
ATOM    122  H38 UNL A   1      17.327  35.399  48.784  1.00  0.00    +0.000 H 
ATOM    123  H39 UNL A   1      19.382  34.106  47.968  1.00  0.00    +0.000 H 
ENDROOT
BRANCH   26   25
ATOM    112  H28 UNL A   1      22.627  31.203  47.923  1.00  0.00    +0.000 H 
ATOM    113  H29 UNL A   1      22.170  33.372  48.915  1.00  0.00    +0.000 H 
ATOM     83  C58 UNL A   1      21.809  34.196  45.682  1.00  0.00    +0.000 C 
ATOM     84  C59 UNL A   1      21.996  32.935  45.119  1.00  0.00    +0.000 C 
ATOM     22  C16 UNL A   1      22.359  31.857  45.931  1.00  0.00    +0.000 C 
ATOM     23  C17 UNL A   1      22.408  32.011  47.319  1.00  0.00    +0.000 C 
ATOM     24  C18 UNL A   1      22.158  33.262  47.889  1.00  0.00    +0.000 C 
ATOM     25  C19 UNL A   1      21.891  34.373  47.072  1.00  0.00    +0.000 C 
ATOM    124  H40 UNL A   1      21.609  35.004  45.073  1.00  0.00    +0.000 H 
ATOM    125  H41 UNL A   1      21.867  32.797  44.104  1.00  0.00    +0.000 H 
BRANCH   22   20
ATOM     20  C15 UNL A   1      22.698  30.536  45.352  1.00  0.00    +0.000 C 
ATOM     21  O2  UNL A   1      23.754  30.389  44.753  1.00  0.00    +0.000 O 
BRANCH   20   19
ATOM     19  N2  UNL A   1      21.808  29.493  45.459  1.00  0.00    +0.000 N 
ATOM    111  H27 UNL A   1      22.092  28.754  46.046  1.00  0.00    +0.000 H 
BRANCH   19   18
ATOM     18  C14 UNL A   1      20.509  29.325  44.831  1.00  0.00    +0.000 C 
ATOM    109  H25 UNL A   1      20.640  29.328  43.769  1.00  0.00    +0.000 H 
ATOM    110  H26 UNL A   1      20.101  28.399  45.180  1.00  0.00    +0.000 H 
BRANCH   18   17
ATOM     17  C13 UNL A   1      19.521  30.426  45.202  1.00  0.00    +0.000 C 
ATOM    107  H23 UNL A   1      18.901  30.061  45.995  1.00  0.00    +0.000 H 
ATOM    108  H24 UNL A   1      20.113  31.275  45.475  1.00  0.00    +0.000 H 
BRANCH   17   16
ATOM    105  H21 UNL A   1      18.401  30.059  43.439  1.00  0.00    +0.000 H 
ATOM    106  H22 UNL A   1      17.738  31.305  44.543  1.00  0.00    +0.000 H 
ATOM     16  C12 UNL A   1      18.607  30.899  44.069  1.00  0.00    +0.000 C 
BRANCH   16   15
ATOM    103  H19 UNL A   1      20.233  32.023  43.306  1.00  0.00    +0.000 H 
ATOM     15  C11 UNL A   1      19.170  32.019  43.192  1.00  0.00    +0.000 C 
ATOM    104  H20 UNL A   1      18.841  31.803  42.196  1.00  0.00    +0.000 H 
BRANCH   15   14
ATOM    102  H18 UNL A   1      18.133  33.756  42.628  1.00  0.00    +0.000 H 
ATOM    101  H17 UNL A   1      19.499  34.043  43.750  1.00  0.00    +0.000 H 
ATOM     14  C10 UNL A   1      18.657  33.432  43.503  1.00  0.00    +0.000 C 
BRANCH   14   13
ATOM     99  H15 UNL A   1      17.450  32.539  45.013  1.00  0.00    +0.000 H 
ATOM    100  H16 UNL A   1      18.084  34.134  45.420  1.00  0.00    +0.000 H 
ATOM     13  C9  UNL A   1      17.654  33.525  44.653  1.00  0.00    +0.000 C 
BRANCH   13   12
ATOM     98  H14 UNL A   1      16.099  34.942  44.704  1.00  0.00    +0.000 H 
ATOM     12  N1  UNL A   1      16.414  34.138  44.233  1.00  0.00    +0.000 N 
BRANCH   12    2
ATOM      1  O1  UNL A   1      15.440  34.243  42.160  1.00  0.00    +0.000 O 
ATOM      2  C1  UNL A   1      15.658  33.636  43.202  1.00  0.00    +0.000 C 
BRANCH    2    3
ATOM      3  C2  UNL A   1      15.104  32.248  43.458  1.00  0.00    +0.000 C 
ATOM     85  H1  UNL A   1      14.039  32.283  43.371  1.00  0.00    +0.000 H 
ATOM     86  H2  UNL A   1      15.414  31.954  44.440  1.00  0.00    +0.000 H 
BRANCH    3    4
ATOM      4  C3  UNL A   1      15.641  31.204  42.475  1.00  0.00    +0.000 C 
ATOM     87  H3  UNL A   1      16.693  31.372  42.373  1.00  0.00    +0.000 H 
ATOM     88  H4  UNL A   1      15.064  31.348  41.585  1.00  0.00    +0.000 H 
BRANCH    4    5
ATOM     89  H5  UNL A   1      14.406  29.583  43.055  1.00  0.00    +0.000 H 
ATOM     90  H6  UNL A   1      16.122  29.549  43.640  1.00  0.00    +0.000 H 
ATOM      5  C4  UNL A   1      15.443  29.719  42.831  1.00  0.00    +0.000 C 
BRANCH    5    6
ATOM     91  H7  UNL A   1      16.886  28.726  41.649  1.00  0.00    +0.000 H 
ATOM     92  H8  UNL A   1      15.223  28.911  40.936  1.00  0.00    +0.000 H 
ATOM      6  C5  UNL A   1      15.827  28.665  41.785  1.00  0.00    +0.000 C 
BRANCH    6    7
ATOM     97  H13 UNL A   1      13.611  24.537  40.934  1.00  0.00    +0.000 H 
ATOM      7  C6  UNL A   1      15.492  27.187  42.065  1.00  0.00    +0.000 C 
ATOM      8  C7  UNL A   1      14.648  26.429  41.040  1.00  0.00    +0.000 C 
ATOM      9  C8  UNL A   1      14.286  25.051  41.586  1.00  0.00    +0.000 C 
ATOM     10  S1  UNL A   1      13.547  25.334  43.211  1.00  0.00    +0.000 S 
ATOM     11  S2  UNL A   1      14.606  27.031  43.659  1.00  0.00    +0.000 S 
ATOM     93  H9  UNL A   1      16.463  26.739  42.042  1.00  0.00    +0.000 H 
ATOM     94  H10 UNL A   1      15.205  26.318  40.134  1.00  0.00    +0.000 H 
ATOM     95  H11 UNL A   1      13.750  26.979  40.847  1.00  0.00    +0.000 H 
ATOM     96  H12 UNL A   1      15.163  24.445  41.677  1.00  0.00    +0.000 H 
ENDBRANCH    6    7
ENDBRANCH    5    6
ENDBRANCH    4    5
ENDBRANCH    3    4
ENDBRANCH    2    3
ENDBRANCH   12    2
ENDBRANCH   13   12
ENDBRANCH   14   13
ENDBRANCH   15   14
ENDBRANCH   16   15
ENDBRANCH   17   16
ENDBRANCH   18   17
ENDBRANCH   19   18
ENDBRANCH   20   19
ENDBRANCH   22   20
ENDBRANCH   26   25
BRANCH   30   31
ATOM     33  F1  UNL A   1      16.739  37.568  52.240  1.00  0.00    +0.000 F 
ATOM     34  C26 UNL A   1      14.600  37.044  51.410  1.00  0.00    +0.000 C 
ATOM     35  F2  UNL A   1      14.169  36.831  52.660  1.00  0.00    +0.000 F 
ATOM     36  C27 UNL A   1      13.733  36.882  50.340  1.00  0.00    +0.000 C 
ATOM     37  F3  UNL A   1      12.459  36.530  50.557  1.00  0.00    +0.000 F 
ATOM     38  C28 UNL A   1      14.188  37.079  49.045  1.00  0.00    +0.000 C 
ATOM     39  F4  UNL A   1      13.347  36.934  48.011  1.00  0.00    +0.000 F 
ATOM     40  C29 UNL A   1      15.516  37.427  48.817  1.00  0.00    +0.000 C 
ATOM     41  F5  UNL A   1      15.930  37.599  47.552  1.00  0.00    +0.000 F 
ATOM     31  C24 UNL A   1      16.410  37.605  49.884  1.00  0.00    +0.000 C 
ATOM     32  C25 UNL A   1      15.923  37.418  51.186  1.00  0.00    +0.000 C 
ENDBRANCH   30   31
BRANCH   47   48
ATOM     48  C35 UNL A   1      20.479  43.489  50.736  1.00  0.00    +0.000 C 
ATOM     49  C36 UNL A   1      20.007  44.562  49.967  1.00  0.00    +0.000 C 
ATOM     50  F6  UNL A   1      19.716  44.386  48.670  1.00  0.00    +0.000 F 
ATOM     51  C37 UNL A   1      19.867  45.832  50.522  1.00  0.00    +0.000 C 
ATOM     52  F7  UNL A   1      19.454  46.853  49.759  1.00  0.00    +0.000 F 
ATOM     53  C38 UNL A   1      20.165  46.044  51.860  1.00  0.00    +0.000 C 
ATOM     54  F8  UNL A   1      20.024  47.265  52.394  1.00  0.00    +0.000 F 
ATOM     55  C39 UNL A   1      20.618  44.992  52.643  1.00  0.00    +0.000 C 
ATOM     56  F9  UNL A   1      20.898  45.193  53.938  1.00  0.00    +0.000 F 
ATOM     57  C40 UNL A   1      20.785  43.728  52.084  1.00  0.00    +0.000 C 
ATOM     58  F10 UNL A   1      21.236  42.733  52.863  1.00  0.00    +0.000 F 
ENDBRANCH   47   48
BRANCH   62   63
ATOM     65  F11 UNL A   1      26.514  39.949  49.861  1.00  0.00    +0.000 F 
ATOM     66  C46 UNL A   1      28.072  40.675  48.250  1.00  0.00    +0.000 C 
ATOM     67  F12 UNL A   1      29.013  40.762  49.200  1.00  0.00    +0.000 F 
ATOM     68  C47 UNL A   1      28.374  41.015  46.940  1.00  0.00    +0.000 C 
ATOM     69  F13 UNL A   1      29.613  41.413  46.618  1.00  0.00    +0.000 F 
ATOM     70  C48 UNL A   1      27.390  40.950  45.965  1.00  0.00    +0.000 C 
ATOM     71  F14 UNL A   1      27.681  41.266  44.697  1.00  0.00    +0.000 F 
ATOM     72  C49 UNL A   1      26.095  40.559  46.304  1.00  0.00    +0.000 C 
ATOM     73  F15 UNL A   1      25.160  40.519  45.345  1.00  0.00    +0.000 F 
ATOM     63  C44 UNL A   1      25.768  40.204  47.621  1.00  0.00    +0.000 C 
ATOM     64  C45 UNL A   1      26.785  40.259  48.584  1.00  0.00    +0.000 C 
ENDBRANCH   62   63
TORSDOF 19
ENDMDL
MODEL 3
REMARK VINA RESULT:      -9.2     17.232     22.265
ROOT
ATOM     26  C20 UNL A   1      52.802  20.463  11.518  1.00  0.00    +0.000 C 
ATOM     27  C21 UNL A   1      52.654  21.022  12.904  1.00  0.00    +0.000 C 
ATOM     28  N3  UNL A   1      53.533  21.078  13.873  1.00  0.00    +0.000 N 
ATOM     29  C22 UNL A   1      52.901  21.737  14.920  1.00  0.00    +0.000 C 
ATOM     30  C23 UNL A   1      53.376  22.000  16.161  1.00  0.00    +0.000 C 
ATOM     42  C30 UNL A   1      54.677  21.605  16.635  1.00  0.00    +0.000 C 
ATOM     43  C31 UNL A   1      55.215  21.754  17.901  1.00  0.00    +0.000 C 
ATOM     44  C32 UNL A   1      56.524  21.260  17.881  1.00  0.00    +0.000 C 
ATOM     45  C33 UNL A   1      56.785  20.764  16.615  1.00  0.00    +0.000 C 
ATOM     46  N4  UNL A   1      55.643  20.984  15.860  1.00  0.00    +0.000 N 
ATOM     47  C34 UNL A   1      57.986  20.138  16.125  1.00  0.00    +0.000 C 
ATOM     59  C41 UNL A   1      58.157  19.663  14.867  1.00  0.00    +0.000 C 
ATOM     60  N5  UNL A   1      57.260  19.658  13.809  1.00  0.00    +0.000 N 
ATOM     61  C42 UNL A   1      57.892  19.103  12.804  1.00  0.00    +0.000 C 
ATOM     62  C43 UNL A   1      57.397  18.811  11.414  1.00  0.00    +0.000 C 
ATOM     74  C50 UNL A   1      56.127  19.119  11.089  1.00  0.00    +0.000 C 
ATOM     75  C51 UNL A   1      55.508  18.891   9.785  1.00  0.00    +0.000 C 
ATOM     76  C52 UNL A   1      54.252  19.366   9.808  1.00  0.00    +0.000 C 
ATOM     77  C53 UNL A   1      53.965  19.900  11.139  1.00  0.00    +0.000 C 
ATOM     78  N6  UNL A   1      55.131  19.700  11.836  1.00  0.00    +0.000 N 
ATOM     79  C54 UNL A   1      59.278  18.719  13.107  1.00  0.00    +0.000 C 
ATOM     80  C55 UNL A   1      59.376  19.046  14.388  1.00  0.00    +0.000 C 
ATOM     81  C56 UNL A   1      51.579  22.098  14.456  1.00  0.00    +0.000 C 
ATOM     82  C57 UNL A   1      51.354  21.624  13.239  1.00  0.00    +0.000 C 
ATOM    114  H30 UNL A   1      54.735  22.160  18.720  1.00  0.00    +0.000 H 
ATOM    115  H31 UNL A   1      57.183  21.264  18.676  1.00  0.00    +0.000 H 
ATOM    116  H32 UNL A   1      55.536  20.736  14.913  1.00  0.00    +0.000 H 
ATOM    117  H33 UNL A   1      55.963  18.439   8.977  1.00  0.00    +0.000 H 
ATOM    118  H34 UNL A   1      53.594  19.354   9.013  1.00  0.00    +0.000 H 
ATOM    119  H35 UNL A   1      55.244  19.948  12.782  1.00  0.00    +0.000 H 
ATOM    120  H36 UNL A   1      59.991  18.304  12.486  1.00  0.00    +0.000 H 
ATOM    121  H37 UNL A   1      60.213  18.882  14.968  1.00  0.00    +0.000 H 
ATOM    122  H38 UNL A   1      50.901  22.652  15.002  1.00  0.00    +0.000 H 
ATOM    123  H39 UNL A   1      50.491  21.666  12.674  1.00  0.00    +0.000 H 
ENDROOT
BRANCH   26   25
ATOM    112  H28 UNL A   1      49.059  18.933   9.271  1.00  0.00    +0.000 H 
ATOM    113  H29 UNL A   1      50.760  18.754  10.994  1.00  0.00    +0.000 H 
ATOM     83  C58 UNL A   1      51.609  21.748   9.740  1.00  0.00    +0.000 C 
ATOM     84  C59 UNL A   1      50.586  21.884   8.802  1.00  0.00    +0.000 C 
ATOM     22  C16 UNL A   1      49.696  20.828   8.586  1.00  0.00    +0.000 C 
ATOM     23  C17 UNL A   1      49.748  19.691   9.397  1.00  0.00    +0.000 C 
ATOM     24  C18 UNL A   1      50.735  19.583  10.380  1.00  0.00    +0.000 C 
ATOM     25  C19 UNL A   1      51.696  20.596  10.535  1.00  0.00    +0.000 C 
ATOM    124  H40 UNL A   1      52.306  22.501   9.849  1.00  0.00    +0.000 H 
ATOM    125  H41 UNL A   1      50.487  22.762   8.269  1.00  0.00    +0.000 H 
BRANCH   22   20
ATOM     20  C15 UNL A   1      48.683  20.885   7.507  1.00  0.00    +0.000 C 
ATOM     21  O2  UNL A   1      48.160  21.953   7.220  1.00  0.00    +0.000 O 
BRANCH   20   19
ATOM     19  N2  UNL A   1      48.311  19.731   6.856  1.00  0.00    +0.000 N 
ATOM    111  H27 UNL A   1      48.614  18.893   7.276  1.00  0.00    +0.000 H 
BRANCH   19   18
ATOM     18  C14 UNL A   1      47.534  19.573   5.638  1.00  0.00    +0.000 C 
ATOM    109  H25 UNL A   1      46.863  20.402   5.552  1.00  0.00    +0.000 H 
ATOM    110  H26 UNL A   1      48.225  19.531   4.822  1.00  0.00    +0.000 H 
BRANCH   18   17
ATOM     17  C13 UNL A   1      46.720  18.284   5.614  1.00  0.00    +0.000 C 
ATOM    107  H23 UNL A   1      47.401  17.465   5.510  1.00  0.00    +0.000 H 
ATOM    108  H24 UNL A   1      46.165  18.268   6.529  1.00  0.00    +0.000 H 
BRANCH   17   16
ATOM    105  H21 UNL A   1      45.824  17.241   4.000  1.00  0.00    +0.000 H 
ATOM    106  H22 UNL A   1      44.730  18.284   4.963  1.00  0.00    +0.000 H 
ATOM     16  C12 UNL A   1      45.685  18.181   4.492  1.00  0.00    +0.000 C 
BRANCH   16   15
ATOM    103  H19 UNL A   1      46.659  19.827   3.580  1.00  0.00    +0.000 H 
ATOM     15  C11 UNL A   1      45.751  19.282   3.431  1.00  0.00    +0.000 C 
ATOM    104  H20 UNL A   1      45.694  18.781   2.487  1.00  0.00    +0.000 H 
BRANCH   15   14
ATOM    102  H18 UNL A   1      44.968  21.171   3.912  1.00  0.00    +0.000 H 
ATOM    101  H17 UNL A   1      43.770  19.840   3.960  1.00  0.00    +0.000 H 
ATOM     14  C10 UNL A   1      44.590  20.287   3.440  1.00  0.00    +0.000 C 
BRANCH   14   13
ATOM     99  H15 UNL A   1      43.533  21.629   2.169  1.00  0.00    +0.000 H 
ATOM    100  H16 UNL A   1      44.948  20.873   1.435  1.00  0.00    +0.000 H 
ATOM     13  C9  UNL A   1      44.095  20.725   2.063  1.00  0.00    +0.000 C 
BRANCH   13   12
ATOM     98  H14 UNL A   1      43.499  19.373   0.564  1.00  0.00    +0.000 H 
ATOM     12  N1  UNL A   1      43.254  19.720   1.452  1.00  0.00    +0.000 N 
BRANCH   12    2
ATOM      1  O1  UNL A   1      42.149  18.491   3.042  1.00  0.00    +0.000 O 
ATOM      2  C1  UNL A   1      42.126  19.232   2.066  1.00  0.00    +0.000 C 
BRANCH    2    3
ATOM      3  C2  UNL A   1      40.828  19.690   1.431  1.00  0.00    +0.000 C 
ATOM     85  H1  UNL A   1      40.383  20.433   2.059  1.00  0.00    +0.000 H 
ATOM     86  H2  UNL A   1      40.200  18.829   1.328  1.00  0.00    +0.000 H 
BRANCH    3    4
ATOM      4  C3  UNL A   1      41.027  20.285   0.034  1.00  0.00    +0.000 C 
ATOM     87  H3  UNL A   1      40.670  19.565  -0.673  1.00  0.00    +0.000 H 
ATOM     88  H4  UNL A   1      42.073  20.504  -0.020  1.00  0.00    +0.000 H 
BRANCH    4    5
ATOM     89  H5  UNL A   1      40.232  21.686  -1.342  1.00  0.00    +0.000 H 
ATOM     90  H6  UNL A   1      40.958  22.359   0.178  1.00  0.00    +0.000 H 
ATOM      5  C4  UNL A   1      40.331  21.621  -0.279  1.00  0.00    +0.000 C 
BRANCH    5    6
ATOM     91  H7  UNL A   1      39.015  22.766   0.913  1.00  0.00    +0.000 H 
ATOM     92  H8  UNL A   1      38.720  20.973   0.852  1.00  0.00    +0.000 H 
ATOM      6  C5  UNL A   1      38.944  21.877   0.324  1.00  0.00    +0.000 C 
BRANCH    6    7
ATOM     97  H13 UNL A   1      35.810  24.444  -2.178  1.00  0.00    +0.000 H 
ATOM      7  C6  UNL A   1      37.745  22.059  -0.626  1.00  0.00    +0.000 C 
ATOM      8  C7  UNL A   1      37.424  23.467  -1.126  1.00  0.00    +0.000 C 
ATOM      9  C8  UNL A   1      36.111  23.454  -1.903  1.00  0.00    +0.000 C 
ATOM     10  S1  UNL A   1      34.896  22.671  -0.819  1.00  0.00    +0.000 S 
ATOM     11  S2  UNL A   1      36.212  21.446   0.165  1.00  0.00    +0.000 S 
ATOM     93  H9  UNL A   1      38.064  21.503  -1.484  1.00  0.00    +0.000 H 
ATOM     94  H10 UNL A   1      38.212  23.805  -1.765  1.00  0.00    +0.000 H 
ATOM     95  H11 UNL A   1      37.331  24.126  -0.287  1.00  0.00    +0.000 H 
ATOM     96  H12 UNL A   1      36.220  22.893  -2.807  1.00  0.00    +0.000 H 
ENDBRANCH    6    7
ENDBRANCH    5    6
ENDBRANCH    4    5
ENDBRANCH    3    4
ENDBRANCH    2    3
ENDBRANCH   12    2
ENDBRANCH   13   12
ENDBRANCH   14   13
ENDBRANCH   15   14
ENDBRANCH   16   15
ENDBRANCH   17   16
ENDBRANCH   18   17
ENDBRANCH   19   18
ENDBRANCH   20   19
ENDBRANCH   22   20
ENDBRANCH   26   25
BRANCH   30   31
ATOM     33  F1  UNL A   1      53.136  24.857  16.218  1.00  0.00    +0.000 F 
ATOM     34  C26 UNL A   1      51.526  24.826  17.935  1.00  0.00    +0.000 C 
ATOM     35  F2  UNL A   1      51.479  26.165  17.912  1.00  0.00    +0.000 F 
ATOM     36  C27 UNL A   1      50.732  24.119  18.825  1.00  0.00    +0.000 C 
ATOM     37  F3  UNL A   1      49.905  24.773  19.652  1.00  0.00    +0.000 F 
ATOM     38  C28 UNL A   1      50.801  22.735  18.864  1.00  0.00    +0.000 C 
ATOM     39  F4  UNL A   1      50.026  22.050  19.717  1.00  0.00    +0.000 F 
ATOM     40  C29 UNL A   1      51.674  22.055  18.019  1.00  0.00    +0.000 C 
ATOM     41  F5  UNL A   1      51.727  20.716  18.088  1.00  0.00    +0.000 F 
ATOM     31  C24 UNL A   1      52.480  22.749  17.104  1.00  0.00    +0.000 C 
ATOM     32  C25 UNL A   1      52.381  24.147  17.069  1.00  0.00    +0.000 C 
ENDBRANCH   30   31
BRANCH   47   48
ATOM     48  C35 UNL A   1      59.130  19.978  17.083  1.00  0.00    +0.000 C 
ATOM     49  C36 UNL A   1      59.387  18.757  17.723  1.00  0.00    +0.000 C 
ATOM     50  F6  UNL A   1      58.573  17.708  17.528  1.00  0.00    +0.000 F 
ATOM     51  C37 UNL A   1      60.463  18.621  18.596  1.00  0.00    +0.000 C 
ATOM     52  F7  UNL A   1      60.667  17.457  19.229  1.00  0.00    +0.000 F 
ATOM     53  C38 UNL A   1      61.318  19.690  18.821  1.00  0.00    +0.000 C 
ATOM     54  F8  UNL A   1      62.356  19.555  19.656  1.00  0.00    +0.000 F 
ATOM     55  C39 UNL A   1      61.090  20.902  18.185  1.00  0.00    +0.000 C 
ATOM     56  F9  UNL A   1      61.921  21.933  18.393  1.00  0.00    +0.000 F 
ATOM     57  C40 UNL A   1      60.000  21.049  17.333  1.00  0.00    +0.000 C 
ATOM     58  F10 UNL A   1      59.800  22.237  16.741  1.00  0.00    +0.000 F 
ENDBRANCH   47   48
BRANCH   62   63
ATOM     65  F11 UNL A   1      59.026  20.280   9.622  1.00  0.00    +0.000 F 
ATOM     66  C46 UNL A   1      59.888  18.346   8.590  1.00  0.00    +0.000 C 
ATOM     67  F12 UNL A   1      60.599  19.111   7.750  1.00  0.00    +0.000 F 
ATOM     68  C47 UNL A   1      59.947  16.964   8.489  1.00  0.00    +0.000 C 
ATOM     69  F13 UNL A   1      60.729  16.391   7.564  1.00  0.00    +0.000 F 
ATOM     70  C48 UNL A   1      59.188  16.177   9.342  1.00  0.00    +0.000 C 
ATOM     71  F14 UNL A   1      59.252  14.842   9.255  1.00  0.00    +0.000 F 
ATOM     72  C49 UNL A   1      58.356  16.772  10.288  1.00  0.00    +0.000 C 
ATOM     73  F15 UNL A   1      57.622  15.988  11.090  1.00  0.00    +0.000 F 
ATOM     63  C44 UNL A   1      58.285  18.167  10.413  1.00  0.00    +0.000 C 
ATOM     64  C45 UNL A   1      59.076  18.942   9.553  1.00  0.00    +0.000 C 
ENDBRANCH   62   63
TORSDOF 19
ENDMDL
MODEL 4
REMARK VINA RESULT:      -9.2      2.260      3.119
ROOT
ATOM     26  C20 UNL A   1      41.153  25.977  27.464  1.00  0.00    +0.000 C 
ATOM     27  C21 UNL A   1      40.453  27.081  28.204  1.00  0.00    +0.000 C 
ATOM     28  N3  UNL A   1      40.908  28.257  28.560  1.00  0.00    +0.000 N 
ATOM     29  C22 UNL A   1      39.841  28.906  29.170  1.00  0.00    +0.000 C 
ATOM     30  C23 UNL A   1      39.819  30.130  29.750  1.00  0.00    +0.000 C 
ATOM     42  C30 UNL A   1      40.958  31.003  29.854  1.00  0.00    +0.000 C 
ATOM     43  C31 UNL A   1      41.054  32.224  30.496  1.00  0.00    +0.000 C 
ATOM     44  C32 UNL A   1      42.344  32.726  30.294  1.00  0.00    +0.000 C 
ATOM     45  C33 UNL A   1      43.065  31.796  29.564  1.00  0.00    +0.000 C 
ATOM     46  N4  UNL A   1      42.202  30.744  29.299  1.00  0.00    +0.000 N 
ATOM     47  C34 UNL A   1      44.439  31.860  29.136  1.00  0.00    +0.000 C 
ATOM     59  C41 UNL A   1      45.079  30.895  28.432  1.00  0.00    +0.000 C 
ATOM     60  N5  UNL A   1      44.592  29.673  27.988  1.00  0.00    +0.000 N 
ATOM     61  C42 UNL A   1      45.584  29.102  27.349  1.00  0.00    +0.000 C 
ATOM     62  C43 UNL A   1      45.635  27.754  26.684  1.00  0.00    +0.000 C 
ATOM     74  C50 UNL A   1      44.551  26.956  26.728  1.00  0.00    +0.000 C 
ATOM     75  C51 UNL A   1      44.455  25.625  26.134  1.00  0.00    +0.000 C 
ATOM     76  C52 UNL A   1      43.216  25.146  26.329  1.00  0.00    +0.000 C 
ATOM     77  C53 UNL A   1      42.439  26.123  27.093  1.00  0.00    +0.000 C 
ATOM     78  N6  UNL A   1      43.317  27.160  27.296  1.00  0.00    +0.000 N 
ATOM     79  C54 UNL A   1      46.807  29.915  27.291  1.00  0.00    +0.000 C 
ATOM     80  C55 UNL A   1      46.458  30.980  28.000  1.00  0.00    +0.000 C 
ATOM     81  C56 UNL A   1      38.706  28.011  29.100  1.00  0.00    +0.000 C 
ATOM     82  C57 UNL A   1      39.048  26.846  28.569  1.00  0.00    +0.000 C 
ATOM    114  H30 UNL A   1      40.302  32.687  31.031  1.00  0.00    +0.000 H 
ATOM    115  H31 UNL A   1      42.698  33.634  30.633  1.00  0.00    +0.000 H 
ATOM    116  H32 UNL A   1      42.438  29.934  28.791  1.00  0.00    +0.000 H 
ATOM    117  H33 UNL A   1      45.216  25.133  25.642  1.00  0.00    +0.000 H 
ATOM    118  H34 UNL A   1      42.867  24.234  25.994  1.00  0.00    +0.000 H 
ATOM    119  H35 UNL A   1      43.085  27.972  27.800  1.00  0.00    +0.000 H 
ATOM    120  H36 UNL A   1      47.703  29.712  26.821  1.00  0.00    +0.000 H 
ATOM    121  H37 UNL A   1      47.088  31.767  28.215  1.00  0.00    +0.000 H 
ATOM    122  H38 UNL A   1      37.755  28.250  29.422  1.00  0.00    +0.000 H 
ATOM    123  H39 UNL A   1      38.477  25.995  28.445  1.00  0.00    +0.000 H 
ENDROOT
BRANCH   26   25
ATOM    112  H28 UNL A   1      40.523  21.397  27.291  1.00  0.00    +0.000 H 
ATOM    113  H29 UNL A   1      41.671  23.386  28.082  1.00  0.00    +0.000 H 
ATOM     83  C58 UNL A   1      39.252  24.864  26.286  1.00  0.00    +0.000 C 
ATOM     84  C59 UNL A   1      38.550  23.725  25.896  1.00  0.00    +0.000 C 
ATOM     22  C16 UNL A   1      39.051  22.458  26.207  1.00  0.00    +0.000 C 
ATOM     23  C17 UNL A   1      40.182  22.333  27.019  1.00  0.00    +0.000 C 
ATOM     24  C18 UNL A   1      40.849  23.477  27.463  1.00  0.00    +0.000 C 
ATOM     25  C19 UNL A   1      40.410  24.751  27.071  1.00  0.00    +0.000 C 
ATOM    124  H40 UNL A   1      38.917  25.796  25.996  1.00  0.00    +0.000 H 
ATOM    125  H41 UNL A   1      37.662  23.817  25.377  1.00  0.00    +0.000 H 
BRANCH   22   20
ATOM     20  C15 UNL A   1      38.406  21.228  25.694  1.00  0.00    +0.000 C 
ATOM     21  O2  UNL A   1      38.916  20.137  25.912  1.00  0.00    +0.000 O 
BRANCH   20   19
ATOM     19  N2  UNL A   1      37.256  21.319  24.945  1.00  0.00    +0.000 N 
ATOM    111  H27 UNL A   1      37.316  21.896  24.148  1.00  0.00    +0.000 H 
BRANCH   19   18
ATOM     18  C14 UNL A   1      35.966  20.686  25.160  1.00  0.00    +0.000 C 
ATOM    109  H25 UNL A   1      35.911  19.808  24.550  1.00  0.00    +0.000 H 
ATOM    110  H26 UNL A   1      35.894  20.453  26.203  1.00  0.00    +0.000 H 
BRANCH   18   17
ATOM     17  C13 UNL A   1      34.791  21.594  24.814  1.00  0.00    +0.000 C 
ATOM    107  H23 UNL A   1      34.308  21.193  23.947  1.00  0.00    +0.000 H 
ATOM    108  H24 UNL A   1      34.167  21.614  25.683  1.00  0.00    +0.000 H 
BRANCH   17   16
ATOM    105  H21 UNL A   1      36.217  23.134  24.515  1.00  0.00    +0.000 H 
ATOM    106  H22 UNL A   1      34.694  23.284  23.582  1.00  0.00    +0.000 H 
ATOM     16  C12 UNL A   1      35.150  23.052  24.521  1.00  0.00    +0.000 C 
BRANCH   16   15
ATOM    103  H19 UNL A   1      35.437  24.523  26.019  1.00  0.00    +0.000 H 
ATOM     15  C11 UNL A   1      34.604  24.078  25.517  1.00  0.00    +0.000 C 
ATOM    104  H20 UNL A   1      34.026  24.768  24.938  1.00  0.00    +0.000 H 
BRANCH   15   14
ATOM    102  H18 UNL A   1      34.065  23.813  27.530  1.00  0.00    +0.000 H 
ATOM    101  H17 UNL A   1      33.578  22.469  26.451  1.00  0.00    +0.000 H 
ATOM     14  C10 UNL A   1      33.649  23.527  26.586  1.00  0.00    +0.000 C 
BRANCH   14   13
ATOM     99  H15 UNL A   1      31.609  23.517  27.196  1.00  0.00    +0.000 H 
ATOM    100  H16 UNL A   1      32.282  25.119  26.890  1.00  0.00    +0.000 H 
ATOM     13  C9  UNL A   1      32.234  24.103  26.556  1.00  0.00    +0.000 C 
BRANCH   13   12
ATOM     98  H14 UNL A   1      31.875  23.331  24.631  1.00  0.00    +0.000 H 
ATOM     12  N1  UNL A   1      31.680  24.094  25.221  1.00  0.00    +0.000 N 
BRANCH   12    2
ATOM      1  O1  UNL A   1      30.091  25.734  25.438  1.00  0.00    +0.000 O 
ATOM      2  C1  UNL A   1      30.891  25.113  24.746  1.00  0.00    +0.000 C 
BRANCH    2    3
ATOM      3  C2  UNL A   1      31.089  25.416  23.274  1.00  0.00    +0.000 C 
ATOM     85  H1  UNL A   1      30.815  26.434  23.095  1.00  0.00    +0.000 H 
ATOM     86  H2  UNL A   1      30.475  24.735  22.720  1.00  0.00    +0.000 H 
BRANCH    3    4
ATOM      4  C3  UNL A   1      32.534  25.210  22.814  1.00  0.00    +0.000 C 
ATOM     87  H3  UNL A   1      32.499  24.753  21.847  1.00  0.00    +0.000 H 
ATOM     88  H4  UNL A   1      32.983  24.620  23.586  1.00  0.00    +0.000 H 
BRANCH    4    5
ATOM     89  H5  UNL A   1      33.793  26.497  21.696  1.00  0.00    +0.000 H 
ATOM     90  H6  UNL A   1      34.176  26.312  23.460  1.00  0.00    +0.000 H 
ATOM      5  C4  UNL A   1      33.433  26.455  22.703  1.00  0.00    +0.000 C 
BRANCH    5    6
ATOM     91  H7  UNL A   1      31.760  27.728  22.916  1.00  0.00    +0.000 H 
ATOM     92  H8  UNL A   1      33.309  28.492  22.349  1.00  0.00    +0.000 H 
ATOM      6  C5  UNL A   1      32.820  27.824  23.026  1.00  0.00    +0.000 C 
BRANCH    6    7
ATOM     97  H13 UNL A   1      33.811  27.651  27.680  1.00  0.00    +0.000 H 
ATOM      7  C6  UNL A   1      33.077  28.443  24.413  1.00  0.00    +0.000 C 
ATOM      8  C7  UNL A   1      33.555  27.526  25.538  1.00  0.00    +0.000 C 
ATOM      9  C8  UNL A   1      33.578  28.294  26.857  1.00  0.00    +0.000 C 
ATOM     10  S1  UNL A   1      31.937  29.029  27.037  1.00  0.00    +0.000 S 
ATOM     11  S2  UNL A   1      31.557  29.252  25.035  1.00  0.00    +0.000 S 
ATOM     93  H9  UNL A   1      33.889  29.108  24.204  1.00  0.00    +0.000 H 
ATOM     94  H10 UNL A   1      34.539  27.173  25.315  1.00  0.00    +0.000 H 
ATOM     95  H11 UNL A   1      32.884  26.696  25.625  1.00  0.00    +0.000 H 
ATOM     96  H12 UNL A   1      34.327  29.057  26.829  1.00  0.00    +0.000 H 
ENDBRANCH    6    7
ENDBRANCH    5    6
ENDBRANCH    4    5
ENDBRANCH    3    4
ENDBRANCH    2    3
ENDBRANCH   12    2
ENDBRANCH   13   12
ENDBRANCH   14   13
ENDBRANCH   15   14
ENDBRANCH   16   15
ENDBRANCH   17   16
ENDBRANCH   18   17
ENDBRANCH   19   18
ENDBRANCH   20   19
ENDBRANCH   22   20
ENDBRANCH   26   25
BRANCH   30   31
ATOM     33  F1  UNL A   1      39.156  30.000  32.538  1.00  0.00    +0.000 F 
ATOM     34  C26 UNL A   1      37.049  31.002  32.226  1.00  0.00    +0.000 C 
ATOM     35  F2  UNL A   1      36.806  30.894  33.538  1.00  0.00    +0.000 F 
ATOM     36  C27 UNL A   1      36.098  31.564  31.388  1.00  0.00    +0.000 C 
ATOM     37  F3  UNL A   1      34.943  32.016  31.893  1.00  0.00    +0.000 F 
ATOM     38  C28 UNL A   1      36.342  31.651  30.026  1.00  0.00    +0.000 C 
ATOM     39  F4  UNL A   1      35.428  32.206  29.217  1.00  0.00    +0.000 F 
ATOM     40  C29 UNL A   1      37.535  31.165  29.497  1.00  0.00    +0.000 C 
ATOM     41  F5  UNL A   1      37.737  31.253  28.174  1.00  0.00    +0.000 F 
ATOM     31  C24 UNL A   1      38.515  30.600  30.327  1.00  0.00    +0.000 C 
ATOM     32  C25 UNL A   1      38.255  30.538  31.703  1.00  0.00    +0.000 C 
ENDBRANCH   30   31
BRANCH   47   48
ATOM     48  C35 UNL A   1      45.232  33.076  29.513  1.00  0.00    +0.000 C 
ATOM     49  C36 UNL A   1      45.258  34.218  28.700  1.00  0.00    +0.000 C 
ATOM     50  F6  UNL A   1      44.607  34.225  27.527  1.00  0.00    +0.000 F 
ATOM     51  C37 UNL A   1      45.985  35.345  29.073  1.00  0.00    +0.000 C 
ATOM     52  F7  UNL A   1      46.031  36.410  28.260  1.00  0.00    +0.000 F 
ATOM     53  C38 UNL A   1      46.673  35.364  30.278  1.00  0.00    +0.000 C 
ATOM     54  F8  UNL A   1      47.367  36.451  30.637  1.00  0.00    +0.000 F 
ATOM     55  C39 UNL A   1      46.647  34.251  31.105  1.00  0.00    +0.000 C 
ATOM     56  F9  UNL A   1      47.302  34.270  32.274  1.00  0.00    +0.000 F 
ATOM     57  C40 UNL A   1      45.943  33.112  30.722  1.00  0.00    +0.000 C 
ATOM     58  F10 UNL A   1      45.945  32.047  31.538  1.00  0.00    +0.000 F 
ENDBRANCH   47   48
BRANCH   62   63
ATOM     65  F11 UNL A   1      47.656  26.272  28.003  1.00  0.00    +0.000 F 
ATOM     66  C46 UNL A   1      49.017  26.142  26.085  1.00  0.00    +0.000 C 
ATOM     67  F12 UNL A   1      49.945  25.479  26.788  1.00  0.00    +0.000 F 
ATOM     68  C47 UNL A   1      49.236  26.432  24.747  1.00  0.00    +0.000 C 
ATOM     69  F13 UNL A   1      50.369  26.035  24.150  1.00  0.00    +0.000 F 
ATOM     70  C48 UNL A   1      48.285  27.143  24.030  1.00  0.00    +0.000 C 
ATOM     71  F14 UNL A   1      48.488  27.415  22.735  1.00  0.00    +0.000 F 
ATOM     72  C49 UNL A   1      47.119  27.578  24.656  1.00  0.00    +0.000 C 
ATOM     73  F15 UNL A   1      46.223  28.276  23.944  1.00  0.00    +0.000 F 
ATOM     63  C44 UNL A   1      46.872  27.290  26.006  1.00  0.00    +0.000 C 
ATOM     64  C45 UNL A   1      47.839  26.553  26.705  1.00  0.00    +0.000 C 
ENDBRANCH   62   63
TORSDOF 19
ENDMDL
MODEL 5
REMARK VINA RESULT:      -9.2     34.394     40.218
ROOT
ATOM     26  C20 UNL A   1       7.273   3.118  25.967  1.00  0.00    +0.000 C 
ATOM     27  C21 UNL A   1       8.448   3.433  26.848  1.00  0.00    +0.000 C 
ATOM     28  N3  UNL A   1       8.932   4.598  27.200  1.00  0.00    +0.000 N 
ATOM     29  C22 UNL A   1       9.985   4.326  28.063  1.00  0.00    +0.000 C 
ATOM     30  C23 UNL A   1      10.835   5.197  28.659  1.00  0.00    +0.000 C 
ATOM     42  C30 UNL A   1      10.797   6.624  28.476  1.00  0.00    +0.000 C 
ATOM     43  C31 UNL A   1      11.666   7.581  28.971  1.00  0.00    +0.000 C 
ATOM     44  C32 UNL A   1      11.208   8.839  28.567  1.00  0.00    +0.000 C 
ATOM     45  C33 UNL A   1      10.080   8.664  27.784  1.00  0.00    +0.000 C 
ATOM     46  N4  UNL A   1       9.838   7.300  27.737  1.00  0.00    +0.000 N 
ATOM     47  C34 UNL A   1       9.278   9.663  27.127  1.00  0.00    +0.000 C 
ATOM     59  C41 UNL A   1       8.190   9.406  26.362  1.00  0.00    +0.000 C 
ATOM     60  N5  UNL A   1       7.624   8.182  26.036  1.00  0.00    +0.000 N 
ATOM     61  C42 UNL A   1       6.586   8.455  25.283  1.00  0.00    +0.000 C 
ATOM     62  C43 UNL A   1       5.619   7.512  24.620  1.00  0.00    +0.000 C 
ATOM     74  C50 UNL A   1       5.793   6.184  24.759  1.00  0.00    +0.000 C 
ATOM     75  C51 UNL A   1       4.941   5.153  24.173  1.00  0.00    +0.000 C 
ATOM     76  C52 UNL A   1       5.382   3.946  24.562  1.00  0.00    +0.000 C 
ATOM     77  C53 UNL A   1       6.571   4.117  25.397  1.00  0.00    +0.000 C 
ATOM     78  N6  UNL A   1       6.747   5.478  25.450  1.00  0.00    +0.000 N 
ATOM     79  C54 UNL A   1       6.359   9.891  25.072  1.00  0.00    +0.000 C 
ATOM     80  C55 UNL A   1       7.387  10.425  25.718  1.00  0.00    +0.000 C 
ATOM     81  C56 UNL A   1      10.047   2.888  28.215  1.00  0.00    +0.000 C 
ATOM     82  C57 UNL A   1       9.159   2.287  27.436  1.00  0.00    +0.000 C 
ATOM    114  H30 UNL A   1      12.507   7.397  29.541  1.00  0.00    +0.000 H 
ATOM    115  H31 UNL A   1      11.639   9.745  28.811  1.00  0.00    +0.000 H 
ATOM    116  H32 UNL A   1       9.094   6.874  27.253  1.00  0.00    +0.000 H 
ATOM    117  H33 UNL A   1       4.129   5.324  23.560  1.00  0.00    +0.000 H 
ATOM    118  H34 UNL A   1       4.953   3.042  24.310  1.00  0.00    +0.000 H 
ATOM    119  H35 UNL A   1       7.488   5.908  25.935  1.00  0.00    +0.000 H 
ATOM    120  H36 UNL A   1       5.599  10.363  24.557  1.00  0.00    +0.000 H 
ATOM    121  H37 UNL A   1       7.589  11.436  25.756  1.00  0.00    +0.000 H 
ATOM    122  H38 UNL A   1      10.697   2.397  28.848  1.00  0.00    +0.000 H 
ATOM    123  H39 UNL A   1       9.007   1.278  27.283  1.00  0.00    +0.000 H 
ENDROOT
BRANCH   26   25
ATOM    112  H28 UNL A   1       4.967  -0.693  27.212  1.00  0.00    +0.000 H 
ATOM    113  H29 UNL A   1       5.543   1.653  27.457  1.00  0.00    +0.000 H 
ATOM     83  C58 UNL A   1       7.315   0.972  24.691  1.00  0.00    +0.000 C 
ATOM     84  C59 UNL A   1       6.924  -0.354  24.507  1.00  0.00    +0.000 C 
ATOM     22  C16 UNL A   1       6.119  -0.980  25.464  1.00  0.00    +0.000 C 
ATOM     23  C17 UNL A   1       5.601  -0.244  26.533  1.00  0.00    +0.000 C 
ATOM     24  C18 UNL A   1       5.944   1.103  26.681  1.00  0.00    +0.000 C 
ATOM     25  C19 UNL A   1       6.832   1.711  25.780  1.00  0.00    +0.000 C 
ATOM    124  H40 UNL A   1       7.965   1.410  24.019  1.00  0.00    +0.000 H 
ATOM    125  H41 UNL A   1       7.227  -0.872  23.668  1.00  0.00    +0.000 H 
BRANCH   22   20
ATOM     20  C15 UNL A   1       5.796  -2.422  25.372  1.00  0.00    +0.000 C 
ATOM     21  O2  UNL A   1       4.633  -2.791  25.463  1.00  0.00    +0.000 O 
BRANCH   20   19
ATOM     19  N2  UNL A   1       6.807  -3.342  25.221  1.00  0.00    +0.000 N 
ATOM    111  H27 UNL A   1       6.849  -3.783  24.341  1.00  0.00    +0.000 H 
BRANCH   19   18
ATOM     18  C14 UNL A   1       7.822  -3.756  26.175  1.00  0.00    +0.000 C 
ATOM    109  H25 UNL A   1       7.422  -3.660  27.163  1.00  0.00    +0.000 H 
ATOM    110  H26 UNL A   1       8.083  -4.769  25.946  1.00  0.00    +0.000 H 
BRANCH   18   17
ATOM     17  C13 UNL A   1       9.098  -2.926  26.084  1.00  0.00    +0.000 C 
ATOM    107  H23 UNL A   1       9.931  -3.580  26.241  1.00  0.00    +0.000 H 
ATOM    108  H24 UNL A   1       9.086  -2.470  25.116  1.00  0.00    +0.000 H 
BRANCH   17   16
ATOM    105  H21 UNL A   1       8.988  -0.865  26.572  1.00  0.00    +0.000 H 
ATOM    106  H22 UNL A   1       8.517  -2.005  27.873  1.00  0.00    +0.000 H 
ATOM     16  C12 UNL A   1       9.207  -1.776  27.089  1.00  0.00    +0.000 C 
BRANCH   16   15
ATOM    103  H19 UNL A   1      10.825  -0.579  27.754  1.00  0.00    +0.000 H 
ATOM     15  C11 UNL A   1      10.572  -1.618  27.763  1.00  0.00    +0.000 C 
ATOM    104  H20 UNL A   1      10.461  -2.029  28.746  1.00  0.00    +0.000 H 
BRANCH   15   14
ATOM    102  H18 UNL A   1      11.379  -2.698  26.152  1.00  0.00    +0.000 H 
ATOM    101  H17 UNL A   1      11.982  -3.208  27.760  1.00  0.00    +0.000 H 
ATOM     14  C10 UNL A   1      11.730  -2.392  27.116  1.00  0.00    +0.000 C 
BRANCH   14   13
ATOM     99  H15 UNL A   1      13.031  -0.765  27.558  1.00  0.00    +0.000 H 
ATOM    100  H16 UNL A   1      13.840  -2.227  26.993  1.00  0.00    +0.000 H 
ATOM     13  C9  UNL A   1      12.998  -1.579  26.864  1.00  0.00    +0.000 C 
BRANCH   13   12
ATOM     98  H14 UNL A   1      12.919  -1.670  24.763  1.00  0.00    +0.000 H 
ATOM     12  N1  UNL A   1      13.038  -1.051  25.519  1.00  0.00    +0.000 N 
BRANCH   12    2
ATOM      1  O1  UNL A   1      14.310   0.751  24.889  1.00  0.00    +0.000 O 
ATOM      2  C1  UNL A   1      13.238   0.282  25.259  1.00  0.00    +0.000 C 
BRANCH    2    3
ATOM      3  C2  UNL A   1      12.010   1.146  25.468  1.00  0.00    +0.000 C 
ATOM     85  H1  UNL A   1      12.319   2.166  25.552  1.00  0.00    +0.000 H 
ATOM     86  H2  UNL A   1      11.524   0.803  26.358  1.00  0.00    +0.000 H 
BRANCH    3    4
ATOM      4  C3  UNL A   1      11.002   1.034  24.322  1.00  0.00    +0.000 C 
ATOM     87  H3  UNL A   1      10.147   0.511  24.698  1.00  0.00    +0.000 H 
ATOM     88  H4  UNL A   1      11.537   0.537  23.539  1.00  0.00    +0.000 H 
BRANCH    4    5
ATOM     89  H5  UNL A   1      11.344   2.986  23.575  1.00  0.00    +0.000 H 
ATOM     90  H6  UNL A   1       9.731   2.680  24.345  1.00  0.00    +0.000 H 
ATOM      5  C4  UNL A   1      10.499   2.340  23.682  1.00  0.00    +0.000 C 
BRANCH    5    6
ATOM     91  H7  UNL A   1       8.992   1.578  22.411  1.00  0.00    +0.000 H 
ATOM     92  H8  UNL A   1      10.595   1.968  21.646  1.00  0.00    +0.000 H 
ATOM      6  C5  UNL A   1       9.811   2.260  22.313  1.00  0.00    +0.000 C 
BRANCH    6    7
ATOM     97  H13 UNL A   1       7.795   6.571  22.467  1.00  0.00    +0.000 H 
ATOM      7  C6  UNL A   1       9.251   3.552  21.688  1.00  0.00    +0.000 C 
ATOM      8  C7  UNL A   1       8.859   4.697  22.621  1.00  0.00    +0.000 C 
ATOM      9  C8  UNL A   1       8.170   5.802  21.824  1.00  0.00    +0.000 C 
ATOM     10  S1  UNL A   1       6.838   4.999  20.905  1.00  0.00    +0.000 S 
ATOM     11  S2  UNL A   1       7.757   3.179  20.697  1.00  0.00    +0.000 S 
ATOM     93  H9  UNL A   1      10.092   3.900  21.124  1.00  0.00    +0.000 H 
ATOM     94  H10 UNL A   1       9.737   5.090  23.088  1.00  0.00    +0.000 H 
ATOM     95  H11 UNL A   1       8.186   4.329  23.367  1.00  0.00    +0.000 H 
ATOM     96  H12 UNL A   1       8.863   6.261  21.151  1.00  0.00    +0.000 H 
ENDBRANCH    6    7
ENDBRANCH    5    6
ENDBRANCH    4    5
ENDBRANCH    3    4
ENDBRANCH    2    3
ENDBRANCH   12    2
ENDBRANCH   13   12
ENDBRANCH   14   13
ENDBRANCH   15   14
ENDBRANCH   16   15
ENDBRANCH   17   16
ENDBRANCH   18   17
ENDBRANCH   19   18
ENDBRANCH   20   19
ENDBRANCH   22   20
ENDBRANCH   26   25
BRANCH   30   31
ATOM     33  F1  UNL A   1      10.736   5.348  31.522  1.00  0.00    +0.000 F 
ATOM     34  C26 UNL A   1      12.747   4.155  31.792  1.00  0.00    +0.000 C 
ATOM     35  F2  UNL A   1      12.639   4.279  33.121  1.00  0.00    +0.000 F 
ATOM     36  C27 UNL A   1      13.831   3.488  31.243  1.00  0.00    +0.000 C 
ATOM     37  F3  UNL A   1      14.763   2.950  32.042  1.00  0.00    +0.000 F 
ATOM     38  C28 UNL A   1      13.954   3.384  29.866  1.00  0.00    +0.000 C 
ATOM     39  F4  UNL A   1      14.996   2.728  29.335  1.00  0.00    +0.000 F 
ATOM     40  C29 UNL A   1      12.997   3.958  29.033  1.00  0.00    +0.000 C 
ATOM     41  F5  UNL A   1      13.149   3.850  27.705  1.00  0.00    +0.000 F 
ATOM     31  C24 UNL A   1      11.887   4.630  29.567  1.00  0.00    +0.000 C 
ATOM     32  C25 UNL A   1      11.773   4.708  30.962  1.00  0.00    +0.000 C 
ENDBRANCH   30   31
BRANCH   47   48
ATOM     48  C35 UNL A   1       9.686  11.099  27.283  1.00  0.00    +0.000 C 
ATOM     49  C36 UNL A   1       9.089  11.933  28.240  1.00  0.00    +0.000 C 
ATOM     50  F6  UNL A   1       8.093  11.471  29.010  1.00  0.00    +0.000 F 
ATOM     51  C37 UNL A   1       9.492  13.258  28.383  1.00  0.00    +0.000 C 
ATOM     52  F7  UNL A   1       8.880  14.050  29.274  1.00  0.00    +0.000 F 
ATOM     53  C38 UNL A   1      10.517  13.764  27.596  1.00  0.00    +0.000 C 
ATOM     54  F8  UNL A   1      10.906  15.038  27.740  1.00  0.00    +0.000 F 
ATOM     55  C39 UNL A   1      11.131  12.951  26.655  1.00  0.00    +0.000 C 
ATOM     56  F9  UNL A   1      12.128  13.435  25.901  1.00  0.00    +0.000 F 
ATOM     57  C40 UNL A   1      10.712  11.634  26.491  1.00  0.00    +0.000 C 
ATOM     58  F10 UNL A   1      11.318  10.875  25.565  1.00  0.00    +0.000 F 
ENDBRANCH   47   48
BRANCH   62   63
ATOM     65  F11 UNL A   1       5.881   8.151  21.874  1.00  0.00    +0.000 F 
ATOM     66  C46 UNL A   1       3.639   8.846  21.671  1.00  0.00    +0.000 C 
ATOM     67  F12 UNL A   1       3.853   9.162  20.386  1.00  0.00    +0.000 F 
ATOM     68  C47 UNL A   1       2.390   9.051  22.237  1.00  0.00    +0.000 C 
ATOM     69  F13 UNL A   1       1.390   9.548  21.497  1.00  0.00    +0.000 F 
ATOM     70  C48 UNL A   1       2.181   8.748  23.575  1.00  0.00    +0.000 C 
ATOM     71  F14 UNL A   1       0.973   8.934  24.122  1.00  0.00    +0.000 F 
ATOM     72  C49 UNL A   1       3.227   8.255  24.352  1.00  0.00    +0.000 C 
ATOM     73  F15 UNL A   1       3.001   7.984  25.645  1.00  0.00    +0.000 F 
ATOM     63  C44 UNL A   1       4.496   8.032  23.799  1.00  0.00    +0.000 C 
ATOM     64  C45 UNL A   1       4.678   8.327  22.441  1.00  0.00    +0.000 C 
ENDBRANCH   62   63
TORSDOF 19
ENDMDL
MODEL 6
REMARK VINA RESULT:      -9.2     23.676     29.705
ROOT
ATOM     26  C20 UNL A   1      23.725  37.038  46.746  1.00  0.00    +0.000 C 
ATOM     27  C21 UNL A   1      25.071  37.616  46.412  1.00  0.00    +0.000 C 
ATOM     28  N3  UNL A   1      25.557  38.799  46.694  1.00  0.00    +0.000 N 
ATOM     29  C22 UNL A   1      26.857  38.801  46.204  1.00  0.00    +0.000 C 
ATOM     30  C23 UNL A   1      27.758  39.812  46.206  1.00  0.00    +0.000 C 
ATOM     42  C30 UNL A   1      27.503  41.129  46.728  1.00  0.00    +0.000 C 
ATOM     43  C31 UNL A   1      28.324  42.242  46.700  1.00  0.00    +0.000 C 
ATOM     44  C32 UNL A   1      27.671  43.285  47.366  1.00  0.00    +0.000 C 
ATOM     45  C33 UNL A   1      26.425  42.834  47.769  1.00  0.00    +0.000 C 
ATOM     46  N4  UNL A   1      26.336  41.509  47.373  1.00  0.00    +0.000 N 
ATOM     47  C34 UNL A   1      25.392  43.554  48.467  1.00  0.00    +0.000 C 
ATOM     59  C41 UNL A   1      24.187  43.041  48.815  1.00  0.00    +0.000 C 
ATOM     60  N5  UNL A   1      23.683  41.769  48.585  1.00  0.00    +0.000 N 
ATOM     61  C42 UNL A   1      22.485  41.755  49.118  1.00  0.00    +0.000 C 
ATOM     62  C43 UNL A   1      21.469  40.646  49.143  1.00  0.00    +0.000 C 
ATOM     74  C50 UNL A   1      21.753  39.478  48.535  1.00  0.00    +0.000 C 
ATOM     75  C51 UNL A   1      20.867  38.319  48.474  1.00  0.00    +0.000 C 
ATOM     76  C52 UNL A   1      21.496  37.320  47.835  1.00  0.00    +0.000 C 
ATOM     77  C53 UNL A   1      22.818  37.780  47.409  1.00  0.00    +0.000 C 
ATOM     78  N6  UNL A   1      22.878  39.077  47.858  1.00  0.00    +0.000 N 
ATOM     79  C54 UNL A   1      22.107  43.014  49.775  1.00  0.00    +0.000 C 
ATOM     80  C55 UNL A   1      23.163  43.777  49.527  1.00  0.00    +0.000 C 
ATOM     81  C56 UNL A   1      27.099  37.489  45.644  1.00  0.00    +0.000 C 
ATOM     82  C57 UNL A   1      26.006  36.740  45.691  1.00  0.00    +0.000 C 
ATOM    114  H30 UNL A   1      29.258  42.294  46.265  1.00  0.00    +0.000 H 
ATOM    115  H31 UNL A   1      28.053  44.230  47.528  1.00  0.00    +0.000 H 
ATOM    116  H32 UNL A   1      25.559  40.924  47.528  1.00  0.00    +0.000 H 
ATOM    117  H33 UNL A   1      19.912  38.274  48.862  1.00  0.00    +0.000 H 
ATOM    118  H34 UNL A   1      21.108  36.378  47.669  1.00  0.00    +0.000 H 
ATOM    119  H35 UNL A   1      23.654  39.664  47.708  1.00  0.00    +0.000 H 
ATOM    120  H36 UNL A   1      21.245  43.246  50.294  1.00  0.00    +0.000 H 
ATOM    121  H37 UNL A   1      23.244  44.766  49.805  1.00  0.00    +0.000 H 
ATOM    122  H38 UNL A   1      28.004  37.178  45.258  1.00  0.00    +0.000 H 
ATOM    123  H39 UNL A   1      25.853  35.790  45.318  1.00  0.00    +0.000 H 
ENDROOT
BRANCH   26   25
ATOM    112  H28 UNL A   1      23.519  32.516  47.700  1.00  0.00    +0.000 H 
ATOM    113  H29 UNL A   1      23.883  34.835  48.322  1.00  0.00    +0.000 H 
ATOM     83  C58 UNL A   1      22.948  35.296  45.133  1.00  0.00    +0.000 C 
ATOM     84  C59 UNL A   1      22.666  33.973  44.799  1.00  0.00    +0.000 C 
ATOM     22  C16 UNL A   1      22.937  32.952  45.716  1.00  0.00    +0.000 C 
ATOM     23  C17 UNL A   1      23.367  33.267  47.008  1.00  0.00    +0.000 C 
ATOM     24  C18 UNL A   1      23.589  34.600  47.361  1.00  0.00    +0.000 C 
ATOM     25  C19 UNL A   1      23.415  35.623  46.415  1.00  0.00    +0.000 C 
ATOM    124  H40 UNL A   1      22.812  36.041  44.431  1.00  0.00    +0.000 H 
ATOM    125  H41 UNL A   1      22.258  33.746  43.879  1.00  0.00    +0.000 H 
BRANCH   22   20
ATOM     20  C15 UNL A   1      22.778  31.526  45.348  1.00  0.00    +0.000 C 
ATOM     21  O2  UNL A   1      23.630  30.976  44.664  1.00  0.00    +0.000 O 
BRANCH   20   19
ATOM     19  N2  UNL A   1      21.656  30.837  45.748  1.00  0.00    +0.000 N 
ATOM    111  H27 UNL A   1      21.749  30.331  46.588  1.00  0.00    +0.000 H 
BRANCH   19   18
ATOM     18  C14 UNL A   1      20.355  30.750  45.107  1.00  0.00    +0.000 C 
ATOM    109  H25 UNL A   1      20.498  30.508  44.075  1.00  0.00    +0.000 H 
ATOM    110  H26 UNL A   1      19.795  29.996  45.621  1.00  0.00    +0.000 H 
BRANCH   18   17
ATOM     17  C13 UNL A   1      19.559  32.048  45.196  1.00  0.00    +0.000 C 
ATOM    107  H23 UNL A   1      19.972  32.738  44.489  1.00  0.00    +0.000 H 
ATOM    108  H24 UNL A   1      18.541  31.785  44.996  1.00  0.00    +0.000 H 
BRANCH   17   16
ATOM    105  H21 UNL A   1      18.724  32.345  47.122  1.00  0.00    +0.000 H 
ATOM    106  H22 UNL A   1      20.506  32.503  47.008  1.00  0.00    +0.000 H 
ATOM     16  C12 UNL A   1      19.556  32.726  46.568  1.00  0.00    +0.000 C 
BRANCH   16   15
ATOM    103  H19 UNL A   1      18.852  34.551  47.383  1.00  0.00    +0.000 H 
ATOM     15  C11 UNL A   1      19.450  34.253  46.549  1.00  0.00    +0.000 C 
ATOM    104  H20 UNL A   1      20.457  34.615  46.584  1.00  0.00    +0.000 H 
BRANCH   15   14
ATOM    102  H18 UNL A   1      19.056  34.183  44.487  1.00  0.00    +0.000 H 
ATOM    101  H17 UNL A   1      19.251  35.837  45.147  1.00  0.00    +0.000 H 
ATOM     14  C10 UNL A   1      18.831  34.863  45.283  1.00  0.00    +0.000 C 
BRANCH   14   13
ATOM     99  H15 UNL A   1      16.895  34.186  45.855  1.00  0.00    +0.000 H 
ATOM    100  H16 UNL A   1      17.068  35.938  45.758  1.00  0.00    +0.000 H 
ATOM     13  C9  UNL A   1      17.310  35.002  45.302  1.00  0.00    +0.000 C 
BRANCH   13   12
ATOM     98  H14 UNL A   1      16.762  35.829  43.445  1.00  0.00    +0.000 H 
ATOM     12  N1  UNL A   1      16.755  34.995  43.967  1.00  0.00    +0.000 N 
BRANCH   12    2
ATOM      1  O1  UNL A   1      15.037  33.546  43.508  1.00  0.00    +0.000 O 
ATOM      2  C1  UNL A   1      16.216  33.864  43.401  1.00  0.00    +0.000 C 
BRANCH    2    3
ATOM      3  C2  UNL A   1      17.211  33.027  42.622  1.00  0.00    +0.000 C 
ATOM     85  H1  UNL A   1      18.149  33.042  43.137  1.00  0.00    +0.000 H 
ATOM     86  H2  UNL A   1      17.289  33.449  41.641  1.00  0.00    +0.000 H 
BRANCH    3    4
ATOM      4  C3  UNL A   1      16.765  31.571  42.462  1.00  0.00    +0.000 C 
ATOM     87  H3  UNL A   1      17.411  31.117  41.740  1.00  0.00    +0.000 H 
ATOM     88  H4  UNL A   1      15.734  31.633  42.183  1.00  0.00    +0.000 H 
BRANCH    4    5
ATOM     89  H5  UNL A   1      15.831  30.804  44.202  1.00  0.00    +0.000 H 
ATOM     90  H6  UNL A   1      17.632  31.007  44.267  1.00  0.00    +0.000 H 
ATOM      5  C4  UNL A   1      16.776  30.678  43.716  1.00  0.00    +0.000 C 
BRANCH    5    6
ATOM     91  H7  UNL A   1      17.562  28.831  44.376  1.00  0.00    +0.000 H 
ATOM     92  H8  UNL A   1      17.476  29.094  42.579  1.00  0.00    +0.000 H 
ATOM      6  C5  UNL A   1      16.998  29.171  43.533  1.00  0.00    +0.000 C 
BRANCH    6    7
ATOM     97  H13 UNL A   1      14.609  25.103  44.174  1.00  0.00    +0.000 H 
ATOM      7  C6  UNL A   1      15.769  28.251  43.409  1.00  0.00    +0.000 C 
ATOM      8  C7  UNL A   1      15.790  26.911  44.145  1.00  0.00    +0.000 C 
ATOM      9  C8  UNL A   1      14.568  26.086  43.753  1.00  0.00    +0.000 C 
ATOM     10  S1  UNL A   1      14.561  26.031  41.947  1.00  0.00    +0.000 S 
ATOM     11  S2  UNL A   1      15.452  27.852  41.651  1.00  0.00    +0.000 S 
ATOM     93  H9  UNL A   1      15.011  28.840  43.883  1.00  0.00    +0.000 H 
ATOM     94  H10 UNL A   1      15.778  27.086  45.200  1.00  0.00    +0.000 H 
ATOM     95  H11 UNL A   1      16.678  26.377  43.878  1.00  0.00    +0.000 H 
ATOM     96  H12 UNL A   1      13.675  26.550  44.115  1.00  0.00    +0.000 H 
ENDBRANCH    6    7
ENDBRANCH    5    6
ENDBRANCH    4    5
ENDBRANCH    3    4
ENDBRANCH    2    3
ENDBRANCH   12    2
ENDBRANCH   13   12
ENDBRANCH   14   13
ENDBRANCH   15   14
ENDBRANCH   16   15
ENDBRANCH   17   16
ENDBRANCH   18   17
ENDBRANCH   19   18
ENDBRANCH   20   19
ENDBRANCH   22   20
ENDBRANCH   26   25
BRANCH   30   31
ATOM     33  F1  UNL A   1      29.901  38.549  47.635  1.00  0.00    +0.000 F 
ATOM     34  C26 UNL A   1      31.358  38.621  45.788  1.00  0.00    +0.000 C 
ATOM     35  F2  UNL A   1      32.316  38.040  46.523  1.00  0.00    +0.000 F 
ATOM     36  C27 UNL A   1      31.610  38.961  44.468  1.00  0.00    +0.000 C 
ATOM     37  F3  UNL A   1      32.803  38.694  43.921  1.00  0.00    +0.000 F 
ATOM     38  C28 UNL A   1      30.626  39.586  43.716  1.00  0.00    +0.000 C 
ATOM     39  F4  UNL A   1      30.864  39.905  42.436  1.00  0.00    +0.000 F 
ATOM     40  C29 UNL A   1      29.391  39.881  44.287  1.00  0.00    +0.000 C 
ATOM     41  F5  UNL A   1      28.463  40.495  43.539  1.00  0.00    +0.000 F 
ATOM     31  C24 UNL A   1      29.112  39.537  45.619  1.00  0.00    +0.000 C 
ATOM     32  C25 UNL A   1      30.115  38.890  46.355  1.00  0.00    +0.000 C 
ENDBRANCH   30   31
BRANCH   47   48
ATOM     48  C35 UNL A   1      25.657  44.988  48.820  1.00  0.00    +0.000 C 
ATOM     49  C36 UNL A   1      25.341  46.033  47.939  1.00  0.00    +0.000 C 
ATOM     50  F6  UNL A   1      24.836  45.762  46.726  1.00  0.00    +0.000 F 
ATOM     51  C37 UNL A   1      25.578  47.359  48.288  1.00  0.00    +0.000 C 
ATOM     52  F7  UNL A   1      25.308  48.339  47.415  1.00  0.00    +0.000 F 
ATOM     53  C38 UNL A   1      26.105  47.668  49.534  1.00  0.00    +0.000 C 
ATOM     54  F8  UNL A   1      26.326  48.946  49.871  1.00  0.00    +0.000 F 
ATOM     55  C39 UNL A   1      26.410  46.651  50.427  1.00  0.00    +0.000 C 
ATOM     56  F9  UNL A   1      26.909  46.948  51.634  1.00  0.00    +0.000 F 
ATOM     57  C40 UNL A   1      26.199  45.322  50.070  1.00  0.00    +0.000 C 
ATOM     58  F10 UNL A   1      26.514  44.360  50.951  1.00  0.00    +0.000 F 
ENDBRANCH   47   48
BRANCH   62   63
ATOM     65  F11 UNL A   1      19.394  42.225  48.038  1.00  0.00    +0.000 F 
ATOM     66  C46 UNL A   1      17.936  41.835  49.846  1.00  0.00    +0.000 C 
ATOM     67  F12 UNL A   1      17.018  42.630  49.278  1.00  0.00    +0.000 F 
ATOM     68  C47 UNL A   1      17.674  41.238  51.070  1.00  0.00    +0.000 C 
ATOM     69  F13 UNL A   1      16.496  41.439  51.677  1.00  0.00    +0.000 F 
ATOM     70  C48 UNL A   1      18.637  40.439  51.668  1.00  0.00    +0.000 C 
ATOM     71  F14 UNL A   1      18.382  39.851  52.844  1.00  0.00    +0.000 F 
ATOM     72  C49 UNL A   1      19.871  40.249  51.049  1.00  0.00    +0.000 C 
ATOM     73  F15 UNL A   1      20.789  39.484  51.656  1.00  0.00    +0.000 F 
ATOM     63  C44 UNL A   1      20.155  40.837  49.808  1.00  0.00    +0.000 C 
ATOM     64  C45 UNL A   1      19.159  41.625  49.214  1.00  0.00    +0.000 C 
ENDBRANCH   62   63
TORSDOF 19
ENDMDL
MODEL 7
REMARK VINA RESULT:      -9.1     17.252     23.395
ROOT
ATOM     26  C20 UNL A   1      53.393  19.744  11.505  1.00  0.00    +0.000 C 
ATOM     27  C21 UNL A   1      54.757  19.128  11.364  1.00  0.00    +0.000 C 
ATOM     28  N3  UNL A   1      55.746  19.102  12.221  1.00  0.00    +0.000 N 
ATOM     29  C22 UNL A   1      56.754  18.364  11.614  1.00  0.00    +0.000 C 
ATOM     30  C23 UNL A   1      57.998  18.093  12.076  1.00  0.00    +0.000 C 
ATOM     42  C30 UNL A   1      58.519  18.563  13.333  1.00  0.00    +0.000 C 
ATOM     43  C31 UNL A   1      59.794  18.410  13.850  1.00  0.00    +0.000 C 
ATOM     44  C32 UNL A   1      59.825  18.996  15.119  1.00  0.00    +0.000 C 
ATOM     45  C33 UNL A   1      58.582  19.553  15.374  1.00  0.00    +0.000 C 
ATOM     46  N4  UNL A   1      57.791  19.278  14.271  1.00  0.00    +0.000 N 
ATOM     47  C34 UNL A   1      58.146  20.280  16.538  1.00  0.00    +0.000 C 
ATOM     59  C41 UNL A   1      56.909  20.808  16.705  1.00  0.00    +0.000 C 
ATOM     60  N5  UNL A   1      55.828  20.786  15.836  1.00  0.00    +0.000 N 
ATOM     61  C42 UNL A   1      54.859  21.419  16.451  1.00  0.00    +0.000 C 
ATOM     62  C43 UNL A   1      53.466  21.723  15.970  1.00  0.00    +0.000 C 
ATOM     74  C50 UNL A   1      53.097  21.336  14.733  1.00  0.00    +0.000 C 
ATOM     75  C51 UNL A   1      51.786  21.564  14.132  1.00  0.00    +0.000 C 
ATOM     76  C52 UNL A   1      51.759  21.000  12.914  1.00  0.00    +0.000 C 
ATOM     77  C53 UNL A   1      53.064  20.401  12.634  1.00  0.00    +0.000 C 
ATOM     78  N6  UNL A   1      53.798  20.660  13.765  1.00  0.00    +0.000 N 
ATOM     79  C54 UNL A   1      55.211  21.891  17.798  1.00  0.00    +0.000 C 
ATOM     80  C55 UNL A   1      56.483  21.527  17.888  1.00  0.00    +0.000 C 
ATOM     81  C56 UNL A   1      56.243  17.925  10.333  1.00  0.00    +0.000 C 
ATOM     82  C57 UNL A   1      55.036  18.423  10.104  1.00  0.00    +0.000 C 
ATOM    114  H30 UNL A   1      60.585  17.943  13.380  1.00  0.00    +0.000 H 
ATOM    115  H31 UNL A   1      60.636  19.012  15.757  1.00  0.00    +0.000 H 
ATOM    116  H32 UNL A   1      56.850  19.550  14.169  1.00  0.00    +0.000 H 
ATOM    117  H33 UNL A   1      51.005  22.074  14.573  1.00  0.00    +0.000 H 
ATOM    118  H34 UNL A   1      50.948  20.992  12.276  1.00  0.00    +0.000 H 
ATOM    119  H35 UNL A   1      54.738  20.388  13.872  1.00  0.00    +0.000 H 
ATOM    120  H36 UNL A   1      54.623  22.377  18.493  1.00  0.00    +0.000 H 
ATOM    121  H37 UNL A   1      57.090  21.731  18.696  1.00  0.00    +0.000 H 
ATOM    122  H38 UNL A   1      56.752  17.305   9.684  1.00  0.00    +0.000 H 
ATOM    123  H39 UNL A   1      54.448  18.339   9.260  1.00  0.00    +0.000 H 
ENDROOT
BRANCH   26   25
ATOM    112  H28 UNL A   1      50.943  21.168   7.850  1.00  0.00    +0.000 H 
ATOM    113  H29 UNL A   1      52.718  21.426   9.486  1.00  0.00    +0.000 H 
ATOM     83  C58 UNL A   1      51.633  18.378  10.377  1.00  0.00    +0.000 C 
ATOM     84  C59 UNL A   1      50.665  18.199   9.389  1.00  0.00    +0.000 C 
ATOM     22  C16 UNL A   1      50.369  19.244   8.509  1.00  0.00    +0.000 C 
ATOM     23  C17 UNL A   1      51.129  20.417   8.533  1.00  0.00    +0.000 C 
ATOM     24  C18 UNL A   1      52.141  20.570   9.483  1.00  0.00    +0.000 C 
ATOM     25  C19 UNL A   1      52.377  19.566  10.436  1.00  0.00    +0.000 C 
ATOM    124  H40 UNL A   1      51.801  17.631  11.069  1.00  0.00    +0.000 H 
ATOM    125  H41 UNL A   1      50.169  17.298   9.308  1.00  0.00    +0.000 H 
BRANCH   22   20
ATOM     20  C15 UNL A   1      49.257  19.138   7.536  1.00  0.00    +0.000 C 
ATOM     21  O2  UNL A   1      48.274  19.858   7.656  1.00  0.00    +0.000 O 
BRANCH   20   19
ATOM     19  N2  UNL A   1      49.317  18.208   6.525  1.00  0.00    +0.000 N 
ATOM    111  H27 UNL A   1      50.183  18.148   6.058  1.00  0.00    +0.000 H 
BRANCH   19   18
ATOM     18  C14 UNL A   1      48.287  17.302   6.047  1.00  0.00    +0.000 C 
ATOM    109  H25 UNL A   1      48.736  16.353   5.842  1.00  0.00    +0.000 H 
ATOM    110  H26 UNL A   1      47.541  17.234   6.812  1.00  0.00    +0.000 H 
BRANCH   18   17
ATOM     17  C13 UNL A   1      47.597  17.798   4.781  1.00  0.00    +0.000 C 
ATOM    107  H23 UNL A   1      48.235  18.524   4.320  1.00  0.00    +0.000 H 
ATOM    108  H24 UNL A   1      47.427  16.931   4.178  1.00  0.00    +0.000 H 
BRANCH   17   16
ATOM    105  H21 UNL A   1      45.481  17.751   4.644  1.00  0.00    +0.000 H 
ATOM    106  H22 UNL A   1      46.157  18.661   6.033  1.00  0.00    +0.000 H 
ATOM     16  C12 UNL A   1      46.224  18.441   4.988  1.00  0.00    +0.000 C 
BRANCH   16   15
ATOM    103  H19 UNL A   1      45.425  20.402   4.905  1.00  0.00    +0.000 H 
ATOM     15  C11 UNL A   1      46.003  19.771   4.264  1.00  0.00    +0.000 C 
ATOM    104  H20 UNL A   1      46.980  20.150   4.046  1.00  0.00    +0.000 H 
BRANCH   15   14
ATOM    102  H18 UNL A   1      45.063  18.645   2.760  1.00  0.00    +0.000 H 
ATOM    101  H17 UNL A   1      45.920  20.102   2.166  1.00  0.00    +0.000 H 
ATOM     14  C10 UNL A   1      45.279  19.682   2.912  1.00  0.00    +0.000 C 
BRANCH   14   13
ATOM     99  H15 UNL A   1      43.842  21.046   3.695  1.00  0.00    +0.000 H 
ATOM    100  H16 UNL A   1      43.909  20.971   1.934  1.00  0.00    +0.000 H 
ATOM     13  C9  UNL A   1      43.935  20.406   2.843  1.00  0.00    +0.000 C 
BRANCH   13   12
ATOM     98  H14 UNL A   1      42.746  18.823   3.558  1.00  0.00    +0.000 H 
ATOM     12  N1  UNL A   1      42.827  19.479   2.828  1.00  0.00    +0.000 N 
BRANCH   12    2
ATOM      1  O1  UNL A   1      42.141  19.669   0.648  1.00  0.00    +0.000 O 
ATOM      2  C1  UNL A   1      41.882  19.478   1.831  1.00  0.00    +0.000 C 
BRANCH    2    3
ATOM      3  C2  UNL A   1      40.469  19.220   2.316  1.00  0.00    +0.000 C 
ATOM     85  H1  UNL A   1      40.347  19.679   3.274  1.00  0.00    +0.000 H 
ATOM     86  H2  UNL A   1      40.334  18.159   2.363  1.00  0.00    +0.000 H 
BRANCH    3    4
ATOM      4  C3  UNL A   1      39.404  19.777   1.367  1.00  0.00    +0.000 C 
ATOM     87  H3  UNL A   1      38.449  19.483   1.751  1.00  0.00    +0.000 H 
ATOM     88  H4  UNL A   1      39.658  19.375   0.409  1.00  0.00    +0.000 H 
BRANCH    4    5
ATOM     89  H5  UNL A   1      40.351  21.672   1.340  1.00  0.00    +0.000 H 
ATOM     90  H6  UNL A   1      38.602  21.642   1.820  1.00  0.00    +0.000 H 
ATOM      5  C4  UNL A   1      39.365  21.301   1.152  1.00  0.00    +0.000 C 
BRANCH    5    6
ATOM     91  H7  UNL A   1      39.051  21.026  -0.919  1.00  0.00    +0.000 H 
ATOM     92  H8  UNL A   1      39.553  22.687  -0.376  1.00  0.00    +0.000 H 
ATOM      6  C5  UNL A   1      38.933  21.829  -0.222  1.00  0.00    +0.000 C 
BRANCH    6    7
ATOM     97  H13 UNL A   1      34.206  21.687   0.333  1.00  0.00    +0.000 H 
ATOM      7  C6  UNL A   1      37.500  22.369  -0.391  1.00  0.00    +0.000 C 
ATOM      8  C7  UNL A   1      36.366  21.658   0.347  1.00  0.00    +0.000 C 
ATOM      9  C8  UNL A   1      35.023  22.234  -0.091  1.00  0.00    +0.000 C 
ATOM     10  S1  UNL A   1      35.007  22.151  -1.897  1.00  0.00    +0.000 S 
ATOM     11  S2  UNL A   1      37.029  22.365  -2.160  1.00  0.00    +0.000 S 
ATOM     93  H9  UNL A   1      37.583  23.340   0.052  1.00  0.00    +0.000 H 
ATOM     94  H10 UNL A   1      36.486  21.797   1.400  1.00  0.00    +0.000 H 
ATOM     95  H11 UNL A   1      36.395  20.614   0.114  1.00  0.00    +0.000 H 
ATOM     96  H12 UNL A   1      34.929  23.249   0.236  1.00  0.00    +0.000 H 
ENDBRANCH    6    7
ENDBRANCH    5    6
ENDBRANCH    4    5
ENDBRANCH    3    4
ENDBRANCH    2    3
ENDBRANCH   12    2
ENDBRANCH   13   12
ENDBRANCH   14   13
ENDBRANCH   15   14
ENDBRANCH   16   15
ENDBRANCH   17   16
ENDBRANCH   18   17
ENDBRANCH   19   18
ENDBRANCH   20   19
ENDBRANCH   22   20
ENDBRANCH   26   25
BRANCH   30   31
ATOM     33  F1  UNL A   1      59.711  19.143  10.029  1.00  0.00    +0.000 F 
ATOM     34  C26 UNL A   1      60.570  17.025   9.469  1.00  0.00    +0.000 C 
ATOM     35  F2  UNL A   1      61.332  17.586   8.520  1.00  0.00    +0.000 F 
ATOM     36  C27 UNL A   1      60.612  15.653   9.669  1.00  0.00    +0.000 C 
ATOM     37  F3  UNL A   1      61.427  14.891   8.927  1.00  0.00    +0.000 F 
ATOM     38  C28 UNL A   1      59.805  15.071  10.634  1.00  0.00    +0.000 C 
ATOM     39  F4  UNL A   1      59.854  13.746  10.837  1.00  0.00    +0.000 F 
ATOM     40  C29 UNL A   1      58.944  15.858  11.393  1.00  0.00    +0.000 C 
ATOM     41  F5  UNL A   1      58.166  15.265  12.311  1.00  0.00    +0.000 F 
ATOM     31  C24 UNL A   1      58.891  17.249  11.214  1.00  0.00    +0.000 C 
ATOM     32  C25 UNL A   1      59.730  17.819  10.245  1.00  0.00    +0.000 C 
ENDBRANCH   30   31
BRANCH   47   48
ATOM     48  C35 UNL A   1      59.138  20.489  17.644  1.00  0.00    +0.000 C 
ATOM     49  C36 UNL A   1      59.840  21.694  17.784  1.00  0.00    +0.000 C 
ATOM     50  F6  UNL A   1      59.673  22.680  16.889  1.00  0.00    +0.000 F 
ATOM     51  C37 UNL A   1      60.745  21.877  18.826  1.00  0.00    +0.000 C 
ATOM     52  F7  UNL A   1      61.437  23.022  18.917  1.00  0.00    +0.000 F 
ATOM     53  C38 UNL A   1      60.942  20.873  19.763  1.00  0.00    +0.000 C 
ATOM     54  F8  UNL A   1      61.809  21.054  20.768  1.00  0.00    +0.000 F 
ATOM     55  C39 UNL A   1      60.246  19.679  19.652  1.00  0.00    +0.000 C 
ATOM     56  F9  UNL A   1      60.427  18.712  20.561  1.00  0.00    +0.000 F 
ATOM     57  C40 UNL A   1      59.361  19.483  18.596  1.00  0.00    +0.000 C 
ATOM     58  F10 UNL A   1      58.710  18.312  18.509  1.00  0.00    +0.000 F 
ENDBRANCH   47   48
BRANCH   62   63
ATOM     65  F11 UNL A   1      52.997  24.505  15.724  1.00  0.00    +0.000 F 
ATOM     66  C46 UNL A   1      51.440  24.547  17.492  1.00  0.00    +0.000 C 
ATOM     67  F12 UNL A   1      51.302  25.871  17.339  1.00  0.00    +0.000 F 
ATOM     68  C47 UNL A   1      50.730  23.885  18.482  1.00  0.00    +0.000 C 
ATOM     69  F13 UNL A   1      49.892  24.564  19.276  1.00  0.00    +0.000 F 
ATOM     70  C48 UNL A   1      50.897  22.518  18.655  1.00  0.00    +0.000 C 
ATOM     71  F14 UNL A   1      50.204  21.874  19.602  1.00  0.00    +0.000 F 
ATOM     72  C49 UNL A   1      51.788  21.815  17.846  1.00  0.00    +0.000 C 
ATOM     73  F15 UNL A   1      51.940  20.498  18.043  1.00  0.00    +0.000 F 
ATOM     63  C44 UNL A   1      52.511  22.462  16.833  1.00  0.00    +0.000 C 
ATOM     64  C45 UNL A   1      52.311  23.839  16.665  1.00  0.00    +0.000 C 
ENDBRANCH   62   63
TORSDOF 19
ENDMDL
MODEL 8
REMARK VINA RESULT:      -9.1     23.247     30.293
ROOT
ATOM     26  C20 UNL A   1      25.890  39.417  46.619  1.00  0.00    +0.000 C 
ATOM     27  C21 UNL A   1      25.010  40.429  47.297  1.00  0.00    +0.000 C 
ATOM     28  N3  UNL A   1      23.788  40.295  47.748  1.00  0.00    +0.000 N 
ATOM     29  C22 UNL A   1      23.462  41.514  48.328  1.00  0.00    +0.000 C 
ATOM     30  C23 UNL A   1      22.291  41.894  48.892  1.00  0.00    +0.000 C 
ATOM     42  C30 UNL A   1      21.120  41.062  48.975  1.00  0.00    +0.000 C 
ATOM     43  C31 UNL A   1      19.862  41.387  49.452  1.00  0.00    +0.000 C 
ATOM     44  C32 UNL A   1      19.056  40.246  49.374  1.00  0.00    +0.000 C 
ATOM     45  C33 UNL A   1      19.798  39.224  48.807  1.00  0.00    +0.000 C 
ATOM     46  N4  UNL A   1      21.063  39.738  48.568  1.00  0.00    +0.000 N 
ATOM     47  C34 UNL A   1      19.388  37.877  48.506  1.00  0.00    +0.000 C 
ATOM     59  C41 UNL A   1      20.176  36.935  47.933  1.00  0.00    +0.000 C 
ATOM     60  N5  UNL A   1      21.494  37.040  47.512  1.00  0.00    +0.000 N 
ATOM     61  C42 UNL A   1      21.815  35.862  47.036  1.00  0.00    +0.000 C 
ATOM     62  C43 UNL A   1      23.109  35.407  46.418  1.00  0.00    +0.000 C 
ATOM     74  C50 UNL A   1      24.120  36.287  46.283  1.00  0.00    +0.000 C 
ATOM     75  C51 UNL A   1      25.427  35.991  45.701  1.00  0.00    +0.000 C 
ATOM     76  C52 UNL A   1      26.198  37.087  45.777  1.00  0.00    +0.000 C 
ATOM     77  C53 UNL A   1      25.429  38.174  46.383  1.00  0.00    +0.000 C 
ATOM     78  N6  UNL A   1      24.203  37.611  46.639  1.00  0.00    +0.000 N 
ATOM     79  C54 UNL A   1      20.740  34.864  47.130  1.00  0.00    +0.000 C 
ATOM     80  C55 UNL A   1      19.751  35.581  47.647  1.00  0.00    +0.000 C 
ATOM     81  C56 UNL A   1      24.628  42.364  48.209  1.00  0.00    +0.000 C 
ATOM     82  C57 UNL A   1      25.590  41.762  47.524  1.00  0.00    +0.000 C 
ATOM    114  H30 UNL A   1      19.570  42.311  49.807  1.00  0.00    +0.000 H 
ATOM    115  H31 UNL A   1      18.074  40.179  49.686  1.00  0.00    +0.000 H 
ATOM    116  H32 UNL A   1      21.811  39.236  48.169  1.00  0.00    +0.000 H 
ATOM    117  H33 UNL A   1      25.712  35.085  45.297  1.00  0.00    +0.000 H 
ATOM    118  H34 UNL A   1      27.178  37.153  45.458  1.00  0.00    +0.000 H 
ATOM    119  H35 UNL A   1      23.454  38.108  47.040  1.00  0.00    +0.000 H 
ATOM    120  H36 UNL A   1      20.751  33.867  46.864  1.00  0.00    +0.000 H 
ATOM    121  H37 UNL A   1      18.802  35.219  47.824  1.00  0.00    +0.000 H 
ATOM    122  H38 UNL A   1      24.699  43.314  48.606  1.00  0.00    +0.000 H 
ATOM    123  H39 UNL A   1      26.506  42.133  47.227  1.00  0.00    +0.000 H 
ENDROOT
BRANCH   26   25
ATOM    112  H28 UNL A   1      29.210  40.885  43.752  1.00  0.00    +0.000 H 
ATOM    113  H29 UNL A   1      26.886  40.489  44.334  1.00  0.00    +0.000 H 
ATOM     83  C58 UNL A   1      28.311  39.544  47.221  1.00  0.00    +0.000 C 
ATOM     84  C59 UNL A   1      29.637  39.844  46.913  1.00  0.00    +0.000 C 
ATOM     22  C16 UNL A   1      29.971  40.270  45.624  1.00  0.00    +0.000 C 
ATOM     23  C17 UNL A   1      28.966  40.522  44.687  1.00  0.00    +0.000 C 
ATOM     24  C18 UNL A   1      27.631  40.282  45.018  1.00  0.00    +0.000 C 
ATOM     25  C19 UNL A   1      27.296  39.757  46.276  1.00  0.00    +0.000 C 
ATOM    124  H40 UNL A   1      28.075  39.164  48.151  1.00  0.00    +0.000 H 
ATOM    125  H41 UNL A   1      30.369  39.750  47.633  1.00  0.00    +0.000 H 
BRANCH   22   20
ATOM     20  C15 UNL A   1      31.383  40.467  45.222  1.00  0.00    +0.000 C 
ATOM     21  O2  UNL A   1      32.102  41.215  45.871  1.00  0.00    +0.000 O 
BRANCH   20   19
ATOM     19  N2  UNL A   1      31.870  39.836  44.101  1.00  0.00    +0.000 N 
ATOM    111  H27 UNL A   1      31.995  40.413  43.312  1.00  0.00    +0.000 H 
BRANCH   19   18
ATOM     18  C14 UNL A   1      32.228  38.440  43.915  1.00  0.00    +0.000 C 
ATOM    109  H25 UNL A   1      33.128  38.392  43.338  1.00  0.00    +0.000 H 
ATOM    110  H26 UNL A   1      32.352  38.009  44.887  1.00  0.00    +0.000 H 
BRANCH   18   17
ATOM     17  C13 UNL A   1      31.148  37.639  43.196  1.00  0.00    +0.000 C 
ATOM    107  H23 UNL A   1      30.363  38.314  42.921  1.00  0.00    +0.000 H 
ATOM    108  H24 UNL A   1      31.630  37.177  42.360  1.00  0.00    +0.000 H 
BRANCH   17   16
ATOM    105  H21 UNL A   1      30.912  35.576  43.625  1.00  0.00    +0.000 H 
ATOM    106  H22 UNL A   1      30.785  36.688  45.026  1.00  0.00    +0.000 H 
ATOM     16  C12 UNL A   1      30.526  36.499  44.005  1.00  0.00    +0.000 C 
BRANCH   16   15
ATOM    103  H19 UNL A   1      28.640  36.508  44.972  1.00  0.00    +0.000 H 
ATOM     15  C11 UNL A   1      28.998  36.422  43.968  1.00  0.00    +0.000 C 
ATOM    104  H20 UNL A   1      28.681  37.216  43.324  1.00  0.00    +0.000 H 
BRANCH   15   14
ATOM    102  H18 UNL A   1      28.343  35.309  42.311  1.00  0.00    +0.000 H 
ATOM    101  H17 UNL A   1      27.464  34.958  43.832  1.00  0.00    +0.000 H 
ATOM     14  C10 UNL A   1      28.409  35.137  43.366  1.00  0.00    +0.000 C 
BRANCH   14   13
ATOM     99  H15 UNL A   1      28.937  33.143  42.839  1.00  0.00    +0.000 H 
ATOM    100  H16 UNL A   1      30.286  34.152  43.360  1.00  0.00    +0.000 H 
ATOM     13  C9  UNL A   1      29.265  33.884  43.537  1.00  0.00    +0.000 C 
BRANCH   13   12
ATOM     98  H14 UNL A   1      28.280  33.092  45.221  1.00  0.00    +0.000 H 
ATOM     12  N1  UNL A   1      29.166  33.346  44.875  1.00  0.00    +0.000 N 
BRANCH   12    2
ATOM      1  O1  UNL A   1      31.357  32.794  45.274  1.00  0.00    +0.000 O 
ATOM      2  C1  UNL A   1      30.265  33.176  45.682  1.00  0.00    +0.000 C 
BRANCH    2    3
ATOM      3  C2  UNL A   1      30.019  33.503  47.142  1.00  0.00    +0.000 C 
ATOM     85  H1  UNL A   1      30.857  34.052  47.515  1.00  0.00    +0.000 H 
ATOM     86  H2  UNL A   1      29.886  32.577  47.661  1.00  0.00    +0.000 H 
BRANCH    3    4
ATOM      4  C3  UNL A   1      28.753  34.337  47.358  1.00  0.00    +0.000 C 
ATOM     87  H3  UNL A   1      28.205  33.884  48.158  1.00  0.00    +0.000 H 
ATOM     88  H4  UNL A   1      28.263  34.337  46.407  1.00  0.00    +0.000 H 
BRANCH    4    5
ATOM     89  H5  UNL A   1      28.370  36.387  46.987  1.00  0.00    +0.000 H 
ATOM     90  H6  UNL A   1      29.988  35.976  47.695  1.00  0.00    +0.000 H 
ATOM      5  C4  UNL A   1      28.929  35.826  47.706  1.00  0.00    +0.000 C 
BRANCH    5    6
ATOM     91  H7  UNL A   1      29.150  37.098  49.378  1.00  0.00    +0.000 H 
ATOM     92  H8  UNL A   1      28.531  35.419  49.699  1.00  0.00    +0.000 H 
ATOM      6  C5  UNL A   1      28.492  36.303  49.097  1.00  0.00    +0.000 C 
BRANCH    6    7
ATOM     97  H13 UNL A   1      25.147  39.040  51.094  1.00  0.00    +0.000 H 
ATOM      7  C6  UNL A   1      27.052  36.818  49.286  1.00  0.00    +0.000 C 
ATOM      8  C7  UNL A   1      26.829  38.027  50.194  1.00  0.00    +0.000 C 
ATOM      9  C8  UNL A   1      25.333  38.263  50.383  1.00  0.00    +0.000 C 
ATOM     10  S1  UNL A   1      24.643  36.685  50.931  1.00  0.00    +0.000 S 
ATOM     11  S2  UNL A   1      25.987  35.487  49.951  1.00  0.00    +0.000 S 
ATOM     93  H9  UNL A   1      26.808  37.140  48.294  1.00  0.00    +0.000 H 
ATOM     94  H10 UNL A   1      27.272  38.893  49.748  1.00  0.00    +0.000 H 
ATOM     95  H11 UNL A   1      27.280  37.841  51.146  1.00  0.00    +0.000 H 
ATOM     96  H12 UNL A   1      24.885  38.565  49.459  1.00  0.00    +0.000 H 
ENDBRANCH    6    7
ENDBRANCH    5    6
ENDBRANCH    4    5
ENDBRANCH    3    4
ENDBRANCH    2    3
ENDBRANCH   12    2
ENDBRANCH   13   12
ENDBRANCH   14   13
ENDBRANCH   15   14
ENDBRANCH   16   15
ENDBRANCH   17   16
ENDBRANCH   18   17
ENDBRANCH   19   18
ENDBRANCH   20   19
ENDBRANCH   22   20
ENDBRANCH   26   25
BRANCH   30   31
ATOM     33  F1  UNL A   1      22.824  42.531  51.637  1.00  0.00    +0.000 F 
ATOM     34  C26 UNL A   1      22.457  44.834  51.318  1.00  0.00    +0.000 C 
ATOM     35  F2  UNL A   1      22.705  45.052  52.616  1.00  0.00    +0.000 F 
ATOM     36  C27 UNL A   1      22.137  45.896  50.486  1.00  0.00    +0.000 C 
ATOM     37  F3  UNL A   1      22.093  47.143  50.976  1.00  0.00    +0.000 F 
ATOM     38  C28 UNL A   1      21.855  45.665  49.148  1.00  0.00    +0.000 C 
ATOM     39  F4  UNL A   1      21.557  46.693  48.341  1.00  0.00    +0.000 F 
ATOM     40  C29 UNL A   1      21.882  44.369  48.642  1.00  0.00    +0.000 C 
ATOM     41  F5  UNL A   1      21.594  44.176  47.346  1.00  0.00    +0.000 F 
ATOM     31  C24 UNL A   1      22.213  43.280  49.463  1.00  0.00    +0.000 C 
ATOM     32  C25 UNL A   1      22.511  43.539  50.809  1.00  0.00    +0.000 C 
ENDBRANCH   30   31
BRANCH   47   48
ATOM     48  C35 UNL A   1      17.976  37.488  48.830  1.00  0.00    +0.000 C 
ATOM     49  C36 UNL A   1      17.521  37.410  50.154  1.00  0.00    +0.000 C 
ATOM     50  F6  UNL A   1      18.365  37.636  51.172  1.00  0.00    +0.000 F 
ATOM     51  C37 UNL A   1      16.202  37.064  50.437  1.00  0.00    +0.000 C 
ATOM     52  F7  UNL A   1      15.799  36.955  51.711  1.00  0.00    +0.000 F 
ATOM     53  C38 UNL A   1      15.308  36.821  49.405  1.00  0.00    +0.000 C 
ATOM     54  F8  UNL A   1      14.039  36.494  49.680  1.00  0.00    +0.000 F 
ATOM     55  C39 UNL A   1      15.734  36.907  48.088  1.00  0.00    +0.000 C 
ATOM     56  F9  UNL A   1      14.870  36.682  47.089  1.00  0.00    +0.000 F 
ATOM     57  C40 UNL A   1      17.059  37.227  47.802  1.00  0.00    +0.000 C 
ATOM     58  F10 UNL A   1      17.443  37.292  46.518  1.00  0.00    +0.000 F 
ENDBRANCH   47   48
BRANCH   62   63
ATOM     65  F11 UNL A   1      22.147  34.522  43.905  1.00  0.00    +0.000 F 
ATOM     66  C46 UNL A   1      22.896  32.312  44.233  1.00  0.00    +0.000 C 
ATOM     67  F12 UNL A   1      22.379  31.961  43.048  1.00  0.00    +0.000 F 
ATOM     68  C47 UNL A   1      23.532  31.365  45.021  1.00  0.00    +0.000 C 
ATOM     69  F13 UNL A   1      23.647  30.101  44.590  1.00  0.00    +0.000 F 
ATOM     70  C48 UNL A   1      24.042  31.727  46.259  1.00  0.00    +0.000 C 
ATOM     71  F14 UNL A   1      24.668  30.817  47.017  1.00  0.00    +0.000 F 
ATOM     72  C49 UNL A   1      23.902  33.035  46.718  1.00  0.00    +0.000 C 
ATOM     73  F15 UNL A   1      24.391  33.354  47.924  1.00  0.00    +0.000 F 
ATOM     63  C44 UNL A   1      23.269  34.012  45.935  1.00  0.00    +0.000 C 
ATOM     64  C45 UNL A   1      22.779  33.627  44.680  1.00  0.00    +0.000 C 
ENDBRANCH   62   63
TORSDOF 19
ENDMDL
MODEL 9
REMARK VINA RESULT:      -9.1     23.788     29.892
ROOT
ATOM     26  C20 UNL A   1      20.539  38.058  49.529  1.00  0.00    +0.000 C 
ATOM     27  C21 UNL A   1      21.602  39.110  49.676  1.00  0.00    +0.000 C 
ATOM     28  N3  UNL A   1      22.809  39.144  49.170  1.00  0.00    +0.000 N 
ATOM     29  C22 UNL A   1      23.354  40.358  49.571  1.00  0.00    +0.000 C 
ATOM     30  C23 UNL A   1      24.599  40.841  49.343  1.00  0.00    +0.000 C 
ATOM     42  C30 UNL A   1      25.626  40.135  48.624  1.00  0.00    +0.000 C 
ATOM     43  C31 UNL A   1      26.942  40.507  48.413  1.00  0.00    +0.000 C 
ATOM     44  C32 UNL A   1      27.553  39.527  47.623  1.00  0.00    +0.000 C 
ATOM     45  C33 UNL A   1      26.630  38.524  47.380  1.00  0.00    +0.000 C 
ATOM     46  N4  UNL A   1      25.452  38.911  47.998  1.00  0.00    +0.000 N 
ATOM     47  C34 UNL A   1      26.806  37.303  46.636  1.00  0.00    +0.000 C 
ATOM     59  C41 UNL A   1      25.850  36.360  46.455  1.00  0.00    +0.000 C 
ATOM     60  N5  UNL A   1      24.545  36.340  46.926  1.00  0.00    +0.000 N 
ATOM     61  C42 UNL A   1      24.018  35.227  46.478  1.00  0.00    +0.000 C 
ATOM     62  C43 UNL A   1      22.638  34.672  46.703  1.00  0.00    +0.000 C 
ATOM     74  C50 UNL A   1      21.772  35.351  47.480  1.00  0.00    +0.000 C 
ATOM     75  C51 UNL A   1      20.407  34.935  47.790  1.00  0.00    +0.000 C 
ATOM     76  C52 UNL A   1      19.823  35.877  48.548  1.00  0.00    +0.000 C 
ATOM     77  C53 UNL A   1      20.786  36.948  48.807  1.00  0.00    +0.000 C 
ATOM     78  N6  UNL A   1      21.919  36.544  48.144  1.00  0.00    +0.000 N 
ATOM     79  C54 UNL A   1      24.925  34.427  45.644  1.00  0.00    +0.000 C 
ATOM     80  C55 UNL A   1      26.040  35.143  45.694  1.00  0.00    +0.000 C 
ATOM     81  C56 UNL A   1      22.333  41.049  50.328  1.00  0.00    +0.000 C 
ATOM     82  C57 UNL A   1      21.253  40.294  50.475  1.00  0.00    +0.000 C 
ATOM    114  H30 UNL A   1      27.395  41.361  48.775  1.00  0.00    +0.000 H 
ATOM    115  H31 UNL A   1      28.527  39.548  47.281  1.00  0.00    +0.000 H 
ATOM    116  H32 UNL A   1      24.614  38.392  47.992  1.00  0.00    +0.000 H 
ATOM    117  H33 UNL A   1      19.962  34.059  47.475  1.00  0.00    +0.000 H 
ATOM    118  H34 UNL A   1      18.851  35.849  48.894  1.00  0.00    +0.000 H 
ATOM    119  H35 UNL A   1      22.757  37.060  48.145  1.00  0.00    +0.000 H 
ATOM    120  H36 UNL A   1      24.743  33.541  45.147  1.00  0.00    +0.000 H 
ATOM    121  H37 UNL A   1      26.929  34.867  45.249  1.00  0.00    +0.000 H 
ATOM    122  H38 UNL A   1      22.433  42.005  50.703  1.00  0.00    +0.000 H 
ATOM    123  H39 UNL A   1      20.393  40.488  51.011  1.00  0.00    +0.000 H 
ENDROOT
BRANCH   26   25
ATOM    112  H28 UNL A   1      16.231  39.739  49.478  1.00  0.00    +0.000 H 
ATOM    113  H29 UNL A   1      18.373  39.272  48.435  1.00  0.00    +0.000 H 
ATOM     83  C58 UNL A   1      18.905  37.787  51.397  1.00  0.00    +0.000 C 
ATOM     84  C59 UNL A   1      17.648  37.989  51.966  1.00  0.00    +0.000 C 
ATOM     22  C16 UNL A   1      16.695  38.759  51.291  1.00  0.00    +0.000 C 
ATOM     23  C17 UNL A   1      16.953  39.214  49.996  1.00  0.00    +0.000 C 
ATOM     24  C18 UNL A   1      18.191  38.956  49.401  1.00  0.00    +0.000 C 
ATOM     25  C19 UNL A   1      19.189  38.271  50.112  1.00  0.00    +0.000 C 
ATOM    124  H40 UNL A   1      19.629  37.277  51.926  1.00  0.00    +0.000 H 
ATOM    125  H41 UNL A   1      17.422  37.573  52.882  1.00  0.00    +0.000 H 
BRANCH   22   20
ATOM     20  C15 UNL A   1      15.402  39.108  51.922  1.00  0.00    +0.000 C 
ATOM     21  O2  UNL A   1      15.346  40.028  52.727  1.00  0.00    +0.000 O 
BRANCH   20   19
ATOM     19  N2  UNL A   1      14.276  38.374  51.628  1.00  0.00    +0.000 N 
ATOM    111  H27 UNL A   1      13.426  38.758  51.946  1.00  0.00    +0.000 H 
BRANCH   19   18
ATOM     18  C14 UNL A   1      14.162  37.113  50.915  1.00  0.00    +0.000 C 
ATOM    109  H25 UNL A   1      15.118  36.865  50.505  1.00  0.00    +0.000 H 
ATOM    110  H26 UNL A   1      13.825  36.378  51.616  1.00  0.00    +0.000 H 
BRANCH   18   17
ATOM     17  C13 UNL A   1      13.144  37.161  49.780  1.00  0.00    +0.000 C 
ATOM    107  H23 UNL A   1      12.283  36.603  50.084  1.00  0.00    +0.000 H 
ATOM    108  H24 UNL A   1      12.945  38.198  49.606  1.00  0.00    +0.000 H 
BRANCH   17   16
ATOM    105  H21 UNL A   1      13.296  35.578  48.377  1.00  0.00    +0.000 H 
ATOM    106  H22 UNL A   1      13.209  37.230  47.688  1.00  0.00    +0.000 H 
ATOM     16  C12 UNL A   1      13.624  36.594  48.442  1.00  0.00    +0.000 C 
BRANCH   16   15
ATOM    103  H19 UNL A   1      15.444  37.637  48.139  1.00  0.00    +0.000 H 
ATOM     15  C11 UNL A   1      15.138  36.615  48.222  1.00  0.00    +0.000 C 
ATOM    104  H20 UNL A   1      15.562  36.102  49.061  1.00  0.00    +0.000 H 
BRANCH   15   14
ATOM    102  H18 UNL A   1      14.776  35.665  46.385  1.00  0.00    +0.000 H 
ATOM    101  H17 UNL A   1      16.155  34.990  47.307  1.00  0.00    +0.000 H 
ATOM     14  C10 UNL A   1      15.643  35.869  46.979  1.00  0.00    +0.000 C 
BRANCH   14   13
ATOM     99  H15 UNL A   1      16.013  37.231  45.384  1.00  0.00    +0.000 H 
ATOM    100  H16 UNL A   1      17.181  37.302  46.704  1.00  0.00    +0.000 H 
ATOM     13  C9  UNL A   1      16.591  36.662  46.081  1.00  0.00    +0.000 C 
BRANCH   13   12
ATOM     98  H14 UNL A   1      18.458  35.928  45.442  1.00  0.00    +0.000 H 
ATOM     12  N1  UNL A   1      17.487  35.794  45.350  1.00  0.00    +0.000 N 
BRANCH   12    2
ATOM      1  O1  UNL A   1      16.088  34.919  43.757  1.00  0.00    +0.000 O 
ATOM      2  C1  UNL A   1      17.032  34.791  44.530  1.00  0.00    +0.000 C 
BRANCH    2    3
ATOM      3  C2  UNL A   1      17.799  33.490  44.658  1.00  0.00    +0.000 C 
ATOM     85  H1  UNL A   1      18.171  33.408  45.658  1.00  0.00    +0.000 H 
ATOM     86  H2  UNL A   1      18.593  33.513  43.939  1.00  0.00    +0.000 H 
BRANCH    3    4
ATOM      4  C3  UNL A   1      16.939  32.260  44.354  1.00  0.00    +0.000 C 
ATOM     87  H3  UNL A   1      16.021  32.610  43.929  1.00  0.00    +0.000 H 
ATOM     88  H4  UNL A   1      16.849  31.755  45.293  1.00  0.00    +0.000 H 
BRANCH    4    5
ATOM     89  H5  UNL A   1      18.483  31.547  43.091  1.00  0.00    +0.000 H 
ATOM     90  H6  UNL A   1      16.784  31.120  42.622  1.00  0.00    +0.000 H 
ATOM      5  C4  UNL A   1      17.517  31.203  43.397  1.00  0.00    +0.000 C 
BRANCH    5    6
ATOM     91  H7  UNL A   1      17.264  29.738  44.897  1.00  0.00    +0.000 H 
ATOM     92  H8  UNL A   1      18.739  29.591  43.844  1.00  0.00    +0.000 H 
ATOM      6  C5  UNL A   1      17.686  29.769  43.915  1.00  0.00    +0.000 C 
BRANCH    6    7
ATOM     97  H13 UNL A   1      14.236  27.695  41.372  1.00  0.00    +0.000 H 
ATOM      7  C6  UNL A   1      17.058  28.612  43.115  1.00  0.00    +0.000 C 
ATOM      8  C7  UNL A   1      15.742  28.870  42.380  1.00  0.00    +0.000 C 
ATOM      9  C8  UNL A   1      15.206  27.563  41.804  1.00  0.00    +0.000 C 
ATOM     10  S1  UNL A   1      15.163  26.390  43.179  1.00  0.00    +0.000 S 
ATOM     11  S2  UNL A   1      16.747  27.180  44.212  1.00  0.00    +0.000 S 
ATOM     93  H9  UNL A   1      17.796  28.449  42.357  1.00  0.00    +0.000 H 
ATOM     94  H10 UNL A   1      15.910  29.567  41.586  1.00  0.00    +0.000 H 
ATOM     95  H11 UNL A   1      15.028  29.272  43.068  1.00  0.00    +0.000 H 
ATOM     96  H12 UNL A   1      15.853  27.206  41.030  1.00  0.00    +0.000 H 
ENDBRANCH    6    7
ENDBRANCH    5    6
ENDBRANCH    4    5
ENDBRANCH    3    4
ENDBRANCH    2    3
ENDBRANCH   12    2
ENDBRANCH   13   12
ENDBRANCH   14   13
ENDBRANCH   15   14
ENDBRANCH   16   15
ENDBRANCH   17   16
ENDBRANCH   18   17
ENDBRANCH   19   18
ENDBRANCH   20   19
ENDBRANCH   22   20
ENDBRANCH   26   25
BRANCH   30   31
ATOM     33  F1  UNL A   1      25.616  41.320  51.982  1.00  0.00    +0.000 F 
ATOM     34  C26 UNL A   1      25.766  43.646  51.651  1.00  0.00    +0.000 C 
ATOM     35  F2  UNL A   1      26.223  43.793  52.901  1.00  0.00    +0.000 F 
ATOM     36  C27 UNL A   1      25.601  44.757  50.838  1.00  0.00    +0.000 C 
ATOM     37  F3  UNL A   1      25.916  45.976  51.297  1.00  0.00    +0.000 F 
ATOM     38  C28 UNL A   1      25.103  44.606  49.553  1.00  0.00    +0.000 C 
ATOM     39  F4  UNL A   1      24.954  45.679  48.763  1.00  0.00    +0.000 F 
ATOM     40  C29 UNL A   1      24.758  43.343  49.082  1.00  0.00    +0.000 C 
ATOM     41  F5  UNL A   1      24.268  43.229  47.838  1.00  0.00    +0.000 F 
ATOM     31  C24 UNL A   1      24.924  42.203  49.883  1.00  0.00    +0.000 C 
ATOM     32  C25 UNL A   1      25.446  42.377  51.173  1.00  0.00    +0.000 C 
ENDBRANCH   30   31
BRANCH   47   48
ATOM     48  C35 UNL A   1      28.154  37.042  46.031  1.00  0.00    +0.000 C 
ATOM     49  C36 UNL A   1      28.628  37.787  44.942  1.00  0.00    +0.000 C 
ATOM     50  F6  UNL A   1      27.853  38.726  44.379  1.00  0.00    +0.000 F 
ATOM     51  C37 UNL A   1      29.889  37.543  44.404  1.00  0.00    +0.000 C 
ATOM     52  F7  UNL A   1      30.305  38.238  43.336  1.00  0.00    +0.000 F 
ATOM     53  C38 UNL A   1      30.709  36.574  44.962  1.00  0.00    +0.000 C 
ATOM     54  F8  UNL A   1      31.924  36.345  44.447  1.00  0.00    +0.000 F 
ATOM     55  C39 UNL A   1      30.266  35.837  46.051  1.00  0.00    +0.000 C 
ATOM     56  F9  UNL A   1      31.062  34.907  46.598  1.00  0.00    +0.000 F 
ATOM     57  C40 UNL A   1      28.996  36.060  46.574  1.00  0.00    +0.000 C 
ATOM     58  F10 UNL A   1      28.591  35.323  47.620  1.00  0.00    +0.000 F 
ENDBRANCH   47   48
BRANCH   62   63
ATOM     65  F11 UNL A   1      21.291  34.479  44.219  1.00  0.00    +0.000 F 
ATOM     66  C46 UNL A   1      21.165  32.128  44.303  1.00  0.00    +0.000 C 
ATOM     67  F12 UNL A   1      20.496  32.122  43.142  1.00  0.00    +0.000 F 
ATOM     68  C47 UNL A   1      21.435  30.934  44.955  1.00  0.00    +0.000 C 
ATOM     69  F13 UNL A   1      21.042  29.771  44.417  1.00  0.00    +0.000 F 
ATOM     70  C48 UNL A   1      22.103  30.947  46.170  1.00  0.00    +0.000 C 
ATOM     71  F14 UNL A   1      22.376  29.795  46.797  1.00  0.00    +0.000 F 
ATOM     72  C49 UNL A   1      22.490  32.158  46.743  1.00  0.00    +0.000 C 
ATOM     73  F15 UNL A   1      23.122  32.142  47.924  1.00  0.00    +0.000 F 
ATOM     63  C44 UNL A   1      22.235  33.377  46.098  1.00  0.00    +0.000 C 
ATOM     64  C45 UNL A   1      21.575  33.337  44.862  1.00  0.00    +0.000 C 
ENDBRANCH   62   63
TORSDOF 19
ENDMDL
MODEL 10
REMARK VINA RESULT:      -9.1     37.856     43.340
ROOT
ATOM     26  C20 UNL A   1      29.229 -13.854  31.019  1.00  0.00    +0.000 C 
ATOM     27  C21 UNL A   1      28.955 -13.982  32.490  1.00  0.00    +0.000 C 
ATOM     28  N3  UNL A   1      27.931 -13.550  33.183  1.00  0.00    +0.000 N 
ATOM     29  C22 UNL A   1      28.149 -13.976  34.487  1.00  0.00    +0.000 C 
ATOM     30  C23 UNL A   1      27.397 -13.740  35.589  1.00  0.00    +0.000 C 
ATOM     42  C30 UNL A   1      26.193 -12.952  35.599  1.00  0.00    +0.000 C 
ATOM     43  C31 UNL A   1      25.409 -12.588  36.680  1.00  0.00    +0.000 C 
ATOM     44  C32 UNL A   1      24.317 -11.856  36.201  1.00  0.00    +0.000 C 
ATOM     45  C33 UNL A   1      24.444 -11.727  34.829  1.00  0.00    +0.000 C 
ATOM     46  N4  UNL A   1      25.599 -12.405  34.472  1.00  0.00    +0.000 N 
ATOM     47  C34 UNL A   1      23.577 -11.039  33.907  1.00  0.00    +0.000 C 
ATOM     59  C41 UNL A   1      23.781 -10.947  32.570  1.00  0.00    +0.000 C 
ATOM     60  N5  UNL A   1      24.825 -11.457  31.811  1.00  0.00    +0.000 N 
ATOM     61  C42 UNL A   1      24.570 -11.113  30.572  1.00  0.00    +0.000 C 
ATOM     62  C43 UNL A   1      25.376 -11.373  29.329  1.00  0.00    +0.000 C 
ATOM     74  C50 UNL A   1      26.548 -12.028  29.428  1.00  0.00    +0.000 C 
ATOM     75  C51 UNL A   1      27.437 -12.347  28.314  1.00  0.00    +0.000 C 
ATOM     76  C52 UNL A   1      28.484 -13.049  28.776  1.00  0.00    +0.000 C 
ATOM     77  C53 UNL A   1      28.359 -13.200  30.226  1.00  0.00    +0.000 C 
ATOM     78  N6  UNL A   1      27.186 -12.552  30.527  1.00  0.00    +0.000 N 
ATOM     79  C54 UNL A   1      23.314 -10.369  30.403  1.00  0.00    +0.000 C 
ATOM     80  C55 UNL A   1      22.893 -10.260  31.656  1.00  0.00    +0.000 C 
ATOM     81  C56 UNL A   1      29.381 -14.735  34.483  1.00  0.00    +0.000 C 
ATOM     82  C57 UNL A   1      29.951 -14.715  33.287  1.00  0.00    +0.000 C 
ATOM    114  H30 UNL A   1      25.597 -12.817  37.668  1.00  0.00    +0.000 H 
ATOM    115  H31 UNL A   1      23.547 -11.477  36.775  1.00  0.00    +0.000 H 
ATOM    116  H32 UNL A   1      25.945 -12.488  33.554  1.00  0.00    +0.000 H 
ATOM    117  H33 UNL A   1      27.284 -12.078  27.330  1.00  0.00    +0.000 H 
ATOM    118  H34 UNL A   1      29.256 -13.421  28.200  1.00  0.00    +0.000 H 
ATOM    119  H35 UNL A   1      26.835 -12.470  31.443  1.00  0.00    +0.000 H 
ATOM    120  H36 UNL A   1      22.873 -10.021  29.537  1.00  0.00    +0.000 H 
ATOM    121  H37 UNL A   1      22.042  -9.752  31.942  1.00  0.00    +0.000 H 
ATOM    122  H38 UNL A   1      29.764 -15.227  35.305  1.00  0.00    +0.000 H 
ATOM    123  H39 UNL A   1      30.857 -15.111  32.992  1.00  0.00    +0.000 H 
ENDROOT
BRANCH   26   25
ATOM    112  H28 UNL A   1      33.579 -13.904  29.447  1.00  0.00    +0.000 H 
ATOM    113  H29 UNL A   1      31.707 -12.844  30.574  1.00  0.00    +0.000 H 
ATOM     83  C58 UNL A   1      30.337 -15.856  30.017  1.00  0.00    +0.000 C 
ATOM     84  C59 UNL A   1      31.437 -16.487  29.439  1.00  0.00    +0.000 C 
ATOM     22  C16 UNL A   1      32.598 -15.755  29.171  1.00  0.00    +0.000 C 
ATOM     23  C17 UNL A   1      32.703 -14.429  29.600  1.00  0.00    +0.000 C 
ATOM     24  C18 UNL A   1      31.622 -13.816  30.236  1.00  0.00    +0.000 C 
ATOM     25  C19 UNL A   1      30.417 -14.514  30.418  1.00  0.00    +0.000 C 
ATOM    124  H40 UNL A   1      29.458 -16.380  30.150  1.00  0.00    +0.000 H 
ATOM    125  H41 UNL A   1      31.395 -17.492  29.209  1.00  0.00    +0.000 H 
BRANCH   22   20
ATOM     20  C15 UNL A   1      33.734 -16.357  28.437  1.00  0.00    +0.000 C 
ATOM     21  O2  UNL A   1      34.375 -17.266  28.947  1.00  0.00    +0.000 O 
BRANCH   20   19
ATOM     19  N2  UNL A   1      34.086 -15.868  27.200  1.00  0.00    +0.000 N 
ATOM    111  H27 UNL A   1      34.693 -15.092  27.210  1.00  0.00    +0.000 H 
BRANCH   19   18
ATOM     18  C14 UNL A   1      33.692 -16.334  25.882  1.00  0.00    +0.000 C 
ATOM    109  H25 UNL A   1      34.574 -16.492  25.297  1.00  0.00    +0.000 H 
ATOM    110  H26 UNL A   1      33.134 -17.238  26.015  1.00  0.00    +0.000 H 
BRANCH   18   17
ATOM     17  C13 UNL A   1      32.792 -15.347  25.146  1.00  0.00    +0.000 C 
ATOM    107  H23 UNL A   1      33.063 -14.359  25.455  1.00  0.00    +0.000 H 
ATOM    108  H24 UNL A   1      32.945 -15.529  24.103  1.00  0.00    +0.000 H 
BRANCH   17   16
ATOM    105  H21 UNL A   1      30.792 -15.431  24.444  1.00  0.00    +0.000 H 
ATOM    106  H22 UNL A   1      31.175 -16.481  25.846  1.00  0.00    +0.000 H 
ATOM     16  C12 UNL A   1      31.290 -15.521  25.387  1.00  0.00    +0.000 C 
BRANCH   16   15
ATOM    103  H19 UNL A   1      29.628 -14.404  26.080  1.00  0.00    +0.000 H 
ATOM     15  C11 UNL A   1      30.657 -14.515  26.351  1.00  0.00    +0.000 C 
ATOM    104  H20 UNL A   1      30.807 -14.918  27.332  1.00  0.00    +0.000 H 
BRANCH   15   14
ATOM    102  H18 UNL A   1      32.185 -13.192  25.783  1.00  0.00    +0.000 H 
ATOM    101  H17 UNL A   1      31.473 -12.852  27.392  1.00  0.00    +0.000 H 
ATOM     14  C10 UNL A   1      31.294 -13.118  26.372  1.00  0.00    +0.000 C 
BRANCH   14   13
ATOM     99  H15 UNL A   1      30.436 -12.159  24.675  1.00  0.00    +0.000 H 
ATOM    100  H16 UNL A   1      29.473 -12.056  26.150  1.00  0.00    +0.000 H 
ATOM     13  C9  UNL A   1      30.458 -12.010  25.734  1.00  0.00    +0.000 C 
BRANCH   13   12
ATOM     98  H14 UNL A   1      31.652 -10.602  26.746  1.00  0.00    +0.000 H 
ATOM     12  N1  UNL A   1      31.003 -10.700  26.013  1.00  0.00    +0.000 N 
BRANCH   12    2
ATOM      1  O1  UNL A   1      31.454  -8.847  24.739  1.00  0.00    +0.000 O 
ATOM      2  C1  UNL A   1      30.647  -9.587  25.291  1.00  0.00    +0.000 C 
BRANCH    2    3
ATOM      3  C2  UNL A   1      29.152  -9.341  25.229  1.00  0.00    +0.000 C 
ATOM     85  H1  UNL A   1      28.680  -9.903  26.007  1.00  0.00    +0.000 H 
ATOM     86  H2  UNL A   1      28.816  -9.646  24.259  1.00  0.00    +0.000 H 
BRANCH    3    4
ATOM      4  C3  UNL A   1      28.786  -7.865  25.400  1.00  0.00    +0.000 C 
ATOM     87  H3  UNL A   1      27.884  -7.694  24.850  1.00  0.00    +0.000 H 
ATOM     88  H4  UNL A   1      29.645  -7.330  25.052  1.00  0.00    +0.000 H 
BRANCH    4    5
ATOM     89  H5  UNL A   1      28.088  -8.134  27.382  1.00  0.00    +0.000 H 
ATOM     90  H6  UNL A   1      27.977  -6.457  26.700  1.00  0.00    +0.000 H 
ATOM      5  C4  UNL A   1      28.557  -7.347  26.831  1.00  0.00    +0.000 C 
BRANCH    5    6
ATOM     91  H7  UNL A   1      29.667  -5.838  27.810  1.00  0.00    +0.000 H 
ATOM     92  H8  UNL A   1      30.613  -7.189  27.043  1.00  0.00    +0.000 H 
ATOM      6  C5  UNL A   1      29.778  -6.889  27.641  1.00  0.00    +0.000 C 
BRANCH    6    7
ATOM     97  H13 UNL A   1      32.565  -8.631  31.085  1.00  0.00    +0.000 H 
ATOM      7  C6  UNL A   1      30.046  -7.542  29.010  1.00  0.00    +0.000 C 
ATOM      8  C7  UNL A   1      31.492  -7.635  29.497  1.00  0.00    +0.000 C 
ATOM      9  C8  UNL A   1      31.554  -8.464  30.777  1.00  0.00    +0.000 C 
ATOM     10  S1  UNL A   1      30.709 -10.019  30.408  1.00  0.00    +0.000 S 
ATOM     11  S2  UNL A   1      29.397  -9.254  29.032  1.00  0.00    +0.000 S 
ATOM     93  H9  UNL A   1      29.551  -6.863  29.673  1.00  0.00    +0.000 H 
ATOM     94  H10 UNL A   1      31.865  -6.652  29.692  1.00  0.00    +0.000 H 
ATOM     95  H11 UNL A   1      32.088  -8.105  28.743  1.00  0.00    +0.000 H 
ATOM     96  H12 UNL A   1      31.059  -7.952  31.576  1.00  0.00    +0.000 H 
ENDBRANCH    6    7
ENDBRANCH    5    6
ENDBRANCH    4    5
ENDBRANCH    3    4
ENDBRANCH    2    3
ENDBRANCH   12    2
ENDBRANCH   13   12
ENDBRANCH   14   13
ENDBRANCH   15   14
ENDBRANCH   16   15
ENDBRANCH   17   16
ENDBRANCH   18   17
ENDBRANCH   19   18
ENDBRANCH   20   19
ENDBRANCH   22   20
ENDBRANCH   26   25
BRANCH   30   31
ATOM     33  F1  UNL A   1      29.449 -12.605  37.241  1.00  0.00    +0.000 F 
ATOM     34  C26 UNL A   1      29.249 -14.281  38.881  1.00  0.00    +0.000 C 
ATOM     35  F2  UNL A   1      30.225 -13.701  39.591  1.00  0.00    +0.000 F 
ATOM     36  C27 UNL A   1      28.646 -15.439  39.348  1.00  0.00    +0.000 C 
ATOM     37  F3  UNL A   1      29.026 -15.969  40.519  1.00  0.00    +0.000 F 
ATOM     38  C28 UNL A   1      27.653 -16.052  38.599  1.00  0.00    +0.000 C 
ATOM     39  F4  UNL A   1      27.061 -17.165  39.056  1.00  0.00    +0.000 F 
ATOM     40  C29 UNL A   1      27.269 -15.514  37.374  1.00  0.00    +0.000 C 
ATOM     41  F5  UNL A   1      26.314 -16.136  36.667  1.00  0.00    +0.000 F 
ATOM     31  C24 UNL A   1      27.859 -14.338  36.886  1.00  0.00    +0.000 C 
ATOM     32  C25 UNL A   1      28.848 -13.725  37.668  1.00  0.00    +0.000 C 
ENDBRANCH   30   31
BRANCH   47   48
ATOM     48  C35 UNL A   1      22.365 -10.354  34.467  1.00  0.00    +0.000 C 
ATOM     49  C36 UNL A   1      21.096 -10.946  34.414  1.00  0.00    +0.000 C 
ATOM     50  F6  UNL A   1      20.929 -12.131  33.806  1.00  0.00    +0.000 F 
ATOM     51  C37 UNL A   1      19.984 -10.304  34.953  1.00  0.00    +0.000 C 
ATOM     52  F7  UNL A   1      18.773 -10.869  34.854  1.00  0.00    +0.000 F 
ATOM     53  C38 UNL A   1      20.126  -9.076  35.583  1.00  0.00    +0.000 C 
ATOM     54  F8  UNL A   1      19.057  -8.463  36.107  1.00  0.00    +0.000 F 
ATOM     55  C39 UNL A   1      21.376  -8.480  35.660  1.00  0.00    +0.000 C 
ATOM     56  F9  UNL A   1      21.517  -7.298  36.276  1.00  0.00    +0.000 F 
ATOM     57  C40 UNL A   1      22.485  -9.107  35.098  1.00  0.00    +0.000 C 
ATOM     58  F10 UNL A   1      23.679  -8.500  35.179  1.00  0.00    +0.000 F 
ENDBRANCH   47   48
BRANCH   62   63
ATOM     65  F11 UNL A   1      23.511 -12.796  27.743  1.00  0.00    +0.000 F 
ATOM     66  C46 UNL A   1      23.550 -11.203  26.007  1.00  0.00    +0.000 C 
ATOM     67  F12 UNL A   1      22.695 -11.954  25.299  1.00  0.00    +0.000 F 
ATOM     68  C47 UNL A   1      24.025 -10.011  25.483  1.00  0.00    +0.000 C 
ATOM     69  F13 UNL A   1      23.616  -9.598  24.276  1.00  0.00    +0.000 F 
ATOM     70  C48 UNL A   1      24.932  -9.251  26.208  1.00  0.00    +0.000 C 
ATOM     71  F14 UNL A   1      25.383  -8.093  25.710  1.00  0.00    +0.000 F 
ATOM     72  C49 UNL A   1      25.376  -9.692  27.453  1.00  0.00    +0.000 C 
ATOM     73  F15 UNL A   1      26.263  -8.945  28.125  1.00  0.00    +0.000 F 
ATOM     63  C44 UNL A   1      24.904 -10.891  28.006  1.00  0.00    +0.000 C 
ATOM     64  C45 UNL A   1      23.974 -11.632  27.264  1.00  0.00    +0.000 C 
ENDBRANCH   62   63
TORSDOF 19
ENDMDL
