MODEL 1
REMARK VINA RESULT:     -11.4      0.000      0.000
ROOT
ATOM     33  C23 UNL A   1      53.209  19.963  11.623  1.00  0.00    +0.000 C 
ATOM     34  C24 UNL A   1      54.558  19.331  11.432  1.00  0.00    +0.000 C 
ATOM     35  N5  UNL A   1      55.572  19.279  12.258  1.00  0.00    +0.000 N 
ATOM     36  C25 UNL A   1      56.551  18.540  11.607  1.00  0.00    +0.000 C 
ATOM     37  C26 UNL A   1      57.807  18.249  12.025  1.00  0.00    +0.000 C 
ATOM     49  C33 UNL A   1      58.368  18.693  13.275  1.00  0.00    +0.000 C 
ATOM     50  C34 UNL A   1      59.658  18.529  13.748  1.00  0.00    +0.000 C 
ATOM     51  C35 UNL A   1      59.721  19.062  15.040  1.00  0.00    +0.000 C 
ATOM     52  C36 UNL A   1      58.485  19.604  15.353  1.00  0.00    +0.000 C 
ATOM     53  N6  UNL A   1      57.667  19.379  14.257  1.00  0.00    +0.000 N 
ATOM     54  C37 UNL A   1      58.076  20.272  16.563  1.00  0.00    +0.000 C 
ATOM     66  C44 UNL A   1      56.860  20.838  16.764  1.00  0.00    +0.000 C 
ATOM     67  N7  UNL A   1      55.770  20.887  15.907  1.00  0.00    +0.000 N 
ATOM     68  C45 UNL A   1      54.827  21.522  16.561  1.00  0.00    +0.000 C 
ATOM     69  C46 UNL A   1      53.434  21.869  16.113  1.00  0.00    +0.000 C 
ATOM     81  C53 UNL A   1      53.036  21.529  14.872  1.00  0.00    +0.000 C 
ATOM     82  C54 UNL A   1      51.716  21.793  14.308  1.00  0.00    +0.000 C 
ATOM     83  C55 UNL A   1      51.645  21.242  13.086  1.00  0.00    +0.000 C 
ATOM     84  C56 UNL A   1      52.931  20.624  12.763  1.00  0.00    +0.000 C 
ATOM     85  N8  UNL A   1      53.705  20.868  13.871  1.00  0.00    +0.000 N 
ATOM     86  C57 UNL A   1      55.212  21.937  17.918  1.00  0.00    +0.000 C 
ATOM     87  C58 UNL A   1      56.470  21.524  17.978  1.00  0.00    +0.000 C 
ATOM     88  C59 UNL A   1      55.991  18.121  10.340  1.00  0.00    +0.000 C 
ATOM     89  C60 UNL A   1      54.786  18.639  10.154  1.00  0.00    +0.000 C 
ATOM    119  H25 UNL A   1      60.439  18.091  13.236  1.00  0.00    +0.000 H 
ATOM    120  H26 UNL A   1      60.548  19.052  15.657  1.00  0.00    +0.000 H 
ATOM    121  H27 UNL A   1      56.728  19.665  14.184  1.00  0.00    +0.000 H 
ATOM    122  H28 UNL A   1      50.959  22.317  14.774  1.00  0.00    +0.000 H 
ATOM    123  H29 UNL A   1      50.814  21.252  12.473  1.00  0.00    +0.000 H 
ATOM    124  H30 UNL A   1      54.648  20.595  13.942  1.00  0.00    +0.000 H 
ATOM    125  H31 UNL A   1      54.649  22.421  18.635  1.00  0.00    +0.000 H 
ATOM    126  H32 UNL A   1      57.092  21.673  18.788  1.00  0.00    +0.000 H 
ATOM    127  H33 UNL A   1      56.469  17.502   9.667  1.00  0.00    +0.000 H 
ATOM    128  H34 UNL A   1      54.168  18.574   9.330  1.00  0.00    +0.000 H 
ENDROOT
BRANCH   33   32
ATOM    129  H35 UNL A   1      52.398  21.713   9.765  1.00  0.00    +0.000 H 
ATOM    130  H36 UNL A   1      50.668  21.455   8.087  1.00  0.00    +0.000 H 
ATOM    117  H23 UNL A   1      49.987  17.513   9.386  1.00  0.00    +0.000 H 
ATOM    118  H24 UNL A   1      51.564  17.844  11.202  1.00  0.00    +0.000 H 
ATOM     90  C61 UNL A   1      51.877  20.825   9.696  1.00  0.00    +0.000 C 
ATOM     91  C62 UNL A   1      50.912  20.665   8.704  1.00  0.00    +0.000 C 
ATOM     29  C19 UNL A   1      50.275  19.431   8.547  1.00  0.00    +0.000 C 
ATOM     30  C20 UNL A   1      50.500  18.406   9.470  1.00  0.00    +0.000 C 
ATOM     31  C21 UNL A   1      51.419  18.590  10.505  1.00  0.00    +0.000 C 
ATOM     32  C22 UNL A   1      52.146  19.788  10.602  1.00  0.00    +0.000 C 
BRANCH   29   27
ATOM     27  C18 UNL A   1      49.344  19.183   7.422  1.00  0.00    +0.000 C 
ATOM     28  O5  UNL A   1      48.255  19.747   7.402  1.00  0.00    +0.000 O 
BRANCH   27   26
ATOM     26  N4  UNL A   1      49.683  18.307   6.421  1.00  0.00    +0.000 N 
ATOM    116  H22 UNL A   1      48.925  17.832   6.008  1.00  0.00    +0.000 H 
BRANCH   26   25
ATOM     25  C17 UNL A   1      50.989  17.975   5.877  1.00  0.00    +0.000 C 
ATOM    114  H20 UNL A   1      51.041  18.337   4.872  1.00  0.00    +0.000 H 
ATOM    115  H21 UNL A   1      51.723  18.433   6.505  1.00  0.00    +0.000 H 
BRANCH   25   24
ATOM    113  H19 UNL A   1      50.588  16.054   6.584  1.00  0.00    +0.000 H 
ATOM    112  H18 UNL A   1      52.297  16.331   6.104  1.00  0.00    +0.000 H 
ATOM     24  C16 UNL A   1      51.264  16.475   5.869  1.00  0.00    +0.000 C 
BRANCH   24   23
ATOM    111  H17 UNL A   1      51.803  15.081   4.414  1.00  0.00    +0.000 H 
ATOM    110  H16 UNL A   1      50.867  16.486   3.789  1.00  0.00    +0.000 H 
ATOM     23  C15 UNL A   1      50.977  15.746   4.554  1.00  0.00    +0.000 C 
BRANCH   23   22
ATOM    108  H14 UNL A   1      49.756  14.299   3.609  1.00  0.00    +0.000 H 
ATOM    109  H15 UNL A   1      49.789  14.261   5.409  1.00  0.00    +0.000 H 
ATOM     22  C14 UNL A   1      49.733  14.856   4.522  1.00  0.00    +0.000 C 
BRANCH   22   21
ATOM    106  H12 UNL A   1      47.889  15.228   5.487  1.00  0.00    +0.000 H 
ATOM    107  H13 UNL A   1      48.613  16.610   4.582  1.00  0.00    +0.000 H 
ATOM     21  C13 UNL A   1      48.381  15.565   4.598  1.00  0.00    +0.000 C 
BRANCH   21   20
ATOM    105  H11 UNL A   1      46.801  14.522   3.697  1.00  0.00    +0.000 H 
ATOM     20  C12 UNL A   1      47.426  15.350   3.432  1.00  0.00    +0.000 C 
ATOM    104  H10 UNL A   1      48.007  15.169   2.552  1.00  0.00    +0.000 H 
BRANCH   20   19
ATOM     19  N3  UNL A   1      46.538  16.470   3.168  1.00  0.00    +0.000 N 
ATOM    103  H9  UNL A   1      46.729  16.957   2.335  1.00  0.00    +0.000 H 
BRANCH   19   17
ATOM     17  C11 UNL A   1      45.474  16.963   3.891  1.00  0.00    +0.000 C 
ATOM     18  O4  UNL A   1      45.054  16.318   4.854  1.00  0.00    +0.000 O 
BRANCH   17   16
ATOM    131  H37 UNL A   1      42.925  17.610   3.152  1.00  0.00    +0.000 H 
ATOM    100  H6  UNL A   1      43.520  21.721   2.505  1.00  0.00    +0.000 H 
ATOM    101  H7  UNL A   1      45.691  21.556   3.597  1.00  0.00    +0.000 H 
ATOM     11  C6  UNL A   1      43.100  19.658   2.673  1.00  0.00    +0.000 C 
ATOM     12  C7  UNL A   1      43.872  20.808   2.830  1.00  0.00    +0.000 C 
ATOM     13  C8  UNL A   1      45.129  20.707   3.431  1.00  0.00    +0.000 C 
ATOM     14  C9  UNL A   1      45.624  19.456   3.810  1.00  0.00    +0.000 C 
ATOM     16  C10 UNL A   1      44.862  18.292   3.623  1.00  0.00    +0.000 C 
ATOM     92  C63 UNL A   1      43.557  18.425   3.150  1.00  0.00    +0.000 C 
BRANCH   11   10
ATOM     10  C5  UNL A   1      41.868  19.696   1.857  1.00  0.00    +0.000 C 
ATOM     99  H5  UNL A   1      41.168  18.942   1.940  1.00  0.00    +0.000 H 
BRANCH   10    9
ATOM      9  N2  UNL A   1      41.669  20.679   1.037  1.00  0.00    +0.000 N 
BRANCH    9    8
ATOM     97  H3  UNL A   1      38.817  22.110  -2.157  1.00  0.00    +0.000 H 
ATOM     98  H4  UNL A   1      40.993  21.391  -1.360  1.00  0.00    +0.000 H 
ATOM    132  H38 UNL A   1      39.400  20.772   2.477  1.00  0.00    +0.000 H 
ATOM    133  H39 UNL A   1      37.213  21.473   1.686  1.00  0.00    +0.000 H 
ATOM      6  C2  UNL A   1      38.939  21.821  -1.174  1.00  0.00    +0.000 C 
ATOM      5  C1  UNL A   1      37.856  21.845  -0.293  1.00  0.00    +0.000 C 
ATOM      7  C3  UNL A   1      40.190  21.401  -0.712  1.00  0.00    +0.000 C 
ATOM      8  C4  UNL A   1      40.371  20.996   0.615  1.00  0.00    +0.000 C 
ATOM     93  C64 UNL A   1      39.276  21.044   1.489  1.00  0.00    +0.000 C 
ATOM     94  C65 UNL A   1      38.018  21.457   1.039  1.00  0.00    +0.000 C 
BRANCH    5    2
ATOM      2  S1  UNL A   1      36.269  22.365  -0.875  1.00  0.00    +0.000 S 
ATOM      3  O1  UNL A   1      35.797  21.432  -1.866  1.00  0.00    +0.000 O 
ATOM      4  O2  UNL A   1      36.311  23.793  -1.101  1.00  0.00    +0.000 O 
BRANCH    2    1
ATOM      1  N1  UNL A   1      35.285  22.126   0.467  1.00  0.00    +0.000 N 
ATOM     95  H1  UNL A   1      34.309  22.241   0.197  1.00  0.00    +0.000 H 
ATOM     96  H2  UNL A   1      35.522  22.808   1.188  1.00  0.00    +0.000 H 
ENDBRANCH    2    1
ENDBRANCH    5    2
ENDBRANCH    9    8
ENDBRANCH   10    9
ENDBRANCH   11   10
BRANCH   14   15
ATOM    102  H8  UNL A   1      47.585  19.023   3.887  1.00  0.00    +0.000 H 
ATOM     15  O3  UNL A   1      46.885  19.444   4.346  1.00  0.00    +0.000 O 
ENDBRANCH   14   15
ENDBRANCH   17   16
ENDBRANCH   19   17
ENDBRANCH   20   19
ENDBRANCH   21   20
ENDBRANCH   22   21
ENDBRANCH   23   22
ENDBRANCH   24   23
ENDBRANCH   25   24
ENDBRANCH   26   25
ENDBRANCH   27   26
ENDBRANCH   29   27
ENDBRANCH   33   32
BRANCH   37   38
ATOM     38  C27 UNL A   1      58.661  17.402  11.125  1.00  0.00    +0.000 C 
ATOM     39  C28 UNL A   1      58.672  16.003  11.215  1.00  0.00    +0.000 C 
ATOM     40  F1  UNL A   1      57.937  15.381  12.149  1.00  0.00    +0.000 F 
ATOM     41  C29 UNL A   1      59.474  15.236  10.373  1.00  0.00    +0.000 C 
ATOM     42  F2  UNL A   1      59.510  13.904  10.515  1.00  0.00    +0.000 F 
ATOM     43  C30 UNL A   1      60.248  15.849   9.400  1.00  0.00    +0.000 C 
ATOM     44  F3  UNL A   1      61.017  15.110   8.588  1.00  0.00    +0.000 F 
ATOM     45  C31 UNL A   1      60.233  17.230   9.274  1.00  0.00    +0.000 C 
ATOM     46  F4  UNL A   1      60.970  17.824   8.326  1.00  0.00    +0.000 F 
ATOM     47  C32 UNL A   1      59.456  18.002  10.135  1.00  0.00    +0.000 C 
ATOM     48  F5  UNL A   1      59.478  19.336  10.000  1.00  0.00    +0.000 F 
ENDBRANCH   37   38
BRANCH   54   55
ATOM     65  F10 UNL A   1      59.669  22.581  17.058  1.00  0.00    +0.000 F 
ATOM     55  C38 UNL A   1      59.072  20.363  17.682  1.00  0.00    +0.000 C 
ATOM     56  C39 UNL A   1      59.298  19.282  18.547  1.00  0.00    +0.000 C 
ATOM     57  F6  UNL A   1      58.574  18.159  18.426  1.00  0.00    +0.000 F 
ATOM     58  C40 UNL A   1      60.248  19.363  19.561  1.00  0.00    +0.000 C 
ATOM     59  F7  UNL A   1      60.419  18.332  20.401  1.00  0.00    +0.000 F 
ATOM     60  C41 UNL A   1      61.011  20.512  19.710  1.00  0.00    +0.000 C 
ATOM     61  F8  UNL A   1      61.934  20.582  20.679  1.00  0.00    +0.000 F 
ATOM     62  C42 UNL A   1      60.813  21.587  18.858  1.00  0.00    +0.000 C 
ATOM     63  F9  UNL A   1      61.559  22.693  18.992  1.00  0.00    +0.000 F 
ATOM     64  C43 UNL A   1      59.843  21.521  17.862  1.00  0.00    +0.000 C 
ENDBRANCH   54   55
BRANCH   69   70
ATOM     70  C47 UNL A   1      52.492  22.579  17.018  1.00  0.00    +0.000 C 
ATOM     71  C48 UNL A   1      52.334  23.969  16.948  1.00  0.00    +0.000 C 
ATOM     72  F11 UNL A   1      53.069  24.683  16.083  1.00  0.00    +0.000 F 
ATOM     73  C49 UNL A   1      51.442  24.634  17.786  1.00  0.00    +0.000 C 
ATOM     74  F12 UNL A   1      51.335  25.968  17.722  1.00  0.00    +0.000 F 
ATOM     75  C50 UNL A   1      50.672  23.920  18.691  1.00  0.00    +0.000 C 
ATOM     76  F13 UNL A   1      49.804  24.560  19.487  1.00  0.00    +0.000 F 
ATOM     77  C51 UNL A   1      50.803  22.541  18.771  1.00  0.00    +0.000 C 
ATOM     78  F14 UNL A   1      50.046  21.845  19.630  1.00  0.00    +0.000 F 
ATOM     79  C52 UNL A   1      51.715  21.879  17.953  1.00  0.00    +0.000 C 
ATOM     80  F15 UNL A   1      51.823  20.545  18.052  1.00  0.00    +0.000 F 
ENDBRANCH   69   70
TORSDOF 21
ENDMDL
MODEL 2
REMARK VINA RESULT:     -11.1      4.030      8.853
ROOT
ATOM     33  C23 UNL A   1      52.731  20.251  11.614  1.00  0.00    +0.000 C 
ATOM     34  C24 UNL A   1      52.578  20.823  12.994  1.00  0.00    +0.000 C 
ATOM     35  N5  UNL A   1      53.447  20.868  13.972  1.00  0.00    +0.000 N 
ATOM     36  C25 UNL A   1      52.815  21.545  15.007  1.00  0.00    +0.000 C 
ATOM     37  C26 UNL A   1      53.278  21.802  16.254  1.00  0.00    +0.000 C 
ATOM     49  C33 UNL A   1      54.567  21.384  16.742  1.00  0.00    +0.000 C 
ATOM     50  C34 UNL A   1      55.092  21.517  18.016  1.00  0.00    +0.000 C 
ATOM     51  C35 UNL A   1      56.404  21.030  18.001  1.00  0.00    +0.000 C 
ATOM     52  C36 UNL A   1      56.680  20.547  16.732  1.00  0.00    +0.000 C 
ATOM     53  N6  UNL A   1      55.540  20.762  15.972  1.00  0.00    +0.000 N 
ATOM     54  C37 UNL A   1      57.892  19.940  16.245  1.00  0.00    +0.000 C 
ATOM     66  C44 UNL A   1      58.059  19.429  15.000  1.00  0.00    +0.000 C 
ATOM     67  N7  UNL A   1      57.156  19.389  13.946  1.00  0.00    +0.000 N 
ATOM     68  C45 UNL A   1      57.789  18.815  12.952  1.00  0.00    +0.000 C 
ATOM     69  C46 UNL A   1      57.291  18.505  11.567  1.00  0.00    +0.000 C 
ATOM     81  C53 UNL A   1      56.022  18.814  11.237  1.00  0.00    +0.000 C 
ATOM     82  C54 UNL A   1      55.409  18.580   9.933  1.00  0.00    +0.000 C 
ATOM     83  C55 UNL A   1      54.167  19.088   9.938  1.00  0.00    +0.000 C 
ATOM     84  C56 UNL A   1      53.880  19.644  11.260  1.00  0.00    +0.000 C 
ATOM     85  N8  UNL A   1      55.029  19.412  11.975  1.00  0.00    +0.000 N 
ATOM     86  C57 UNL A   1      59.175  18.437  13.260  1.00  0.00    +0.000 C 
ATOM     87  C58 UNL A   1      59.277  18.804  14.530  1.00  0.00    +0.000 C 
ATOM     88  C59 UNL A   1      51.510  21.937  14.520  1.00  0.00    +0.000 C 
ATOM     89  C60 UNL A   1      51.289  21.459  13.304  1.00  0.00    +0.000 C 
ATOM    119  H25 UNL A   1      54.600  21.905  18.835  1.00  0.00    +0.000 H 
ATOM    120  H26 UNL A   1      57.057  21.031  18.800  1.00  0.00    +0.000 H 
ATOM    121  H27 UNL A   1      55.435  20.509  15.026  1.00  0.00    +0.000 H 
ATOM    122  H28 UNL A   1      55.858  18.102   9.137  1.00  0.00    +0.000 H 
ATOM    123  H29 UNL A   1      53.517  19.087   9.135  1.00  0.00    +0.000 H 
ATOM    124  H30 UNL A   1      55.133  19.651  12.924  1.00  0.00    +0.000 H 
ATOM    125  H31 UNL A   1      59.882  18.001  12.648  1.00  0.00    +0.000 H 
ATOM    126  H32 UNL A   1      60.119  18.661  15.109  1.00  0.00    +0.000 H 
ATOM    127  H33 UNL A   1      50.838  22.513  15.051  1.00  0.00    +0.000 H 
ATOM    128  H34 UNL A   1      50.436  21.517  12.726  1.00  0.00    +0.000 H 
ENDROOT
BRANCH   33   32
ATOM    129  H35 UNL A   1      52.228  22.401  10.097  1.00  0.00    +0.000 H 
ATOM    130  H36 UNL A   1      50.485  22.719   8.442  1.00  0.00    +0.000 H 
ATOM    117  H23 UNL A   1      49.156  18.779   9.076  1.00  0.00    +0.000 H 
ATOM    118  H24 UNL A   1      50.759  18.533  10.882  1.00  0.00    +0.000 H 
ATOM     90  C61 UNL A   1      51.568  21.635   9.892  1.00  0.00    +0.000 C 
ATOM     91  C62 UNL A   1      50.593  21.806   8.911  1.00  0.00    +0.000 C 
ATOM     29  C19 UNL A   1      49.761  20.738   8.564  1.00  0.00    +0.000 C 
ATOM     30  C20 UNL A   1      49.809  19.548   9.296  1.00  0.00    +0.000 C 
ATOM     31  C21 UNL A   1      50.742  19.400  10.324  1.00  0.00    +0.000 C 
ATOM     32  C22 UNL A   1      51.657  20.429  10.604  1.00  0.00    +0.000 C 
BRANCH   29   27
ATOM     27  C18 UNL A   1      48.806  20.841   7.438  1.00  0.00    +0.000 C 
ATOM     28  O5  UNL A   1      48.269  21.917   7.195  1.00  0.00    +0.000 O 
BRANCH   27   26
ATOM     26  N4  UNL A   1      48.500  19.735   6.684  1.00  0.00    +0.000 N 
ATOM    116  H22 UNL A   1      47.753  19.190   7.025  1.00  0.00    +0.000 H 
BRANCH   26   25
ATOM     25  C17 UNL A   1      49.109  19.247   5.458  1.00  0.00    +0.000 C 
ATOM    114  H20 UNL A   1      49.080  18.178   5.465  1.00  0.00    +0.000 H 
ATOM    115  H21 UNL A   1      48.554  19.656   4.640  1.00  0.00    +0.000 H 
BRANCH   25   24
ATOM    113  H19 UNL A   1      50.605  20.679   5.711  1.00  0.00    +0.000 H 
ATOM    112  H18 UNL A   1      50.803  19.642   4.257  1.00  0.00    +0.000 H 
ATOM     24  C16 UNL A   1      50.559  19.693   5.297  1.00  0.00    +0.000 C 
BRANCH   24   23
ATOM    111  H17 UNL A   1      52.105  18.294   5.321  1.00  0.00    +0.000 H 
ATOM    110  H16 UNL A   1      51.086  18.303   6.805  1.00  0.00    +0.000 H 
ATOM     23  C15 UNL A   1      51.602  18.876   6.063  1.00  0.00    +0.000 C 
BRANCH   23   22
ATOM    108  H14 UNL A   1      52.353  20.670   6.899  1.00  0.00    +0.000 H 
ATOM    109  H15 UNL A   1      52.888  19.139   7.683  1.00  0.00    +0.000 H 
ATOM     22  C14 UNL A   1      52.704  19.667   6.771  1.00  0.00    +0.000 C 
BRANCH   22   21
ATOM    106  H12 UNL A   1      53.874  19.912   5.028  1.00  0.00    +0.000 H 
ATOM    107  H13 UNL A   1      54.593  20.517   6.567  1.00  0.00    +0.000 H 
ATOM     21  C13 UNL A   1      54.058  19.736   6.068  1.00  0.00    +0.000 C 
BRANCH   21   20
ATOM    105  H11 UNL A   1      54.704  18.028   7.099  1.00  0.00    +0.000 H 
ATOM     20  C12 UNL A   1      54.953  18.508   6.175  1.00  0.00    +0.000 C 
ATOM    104  H10 UNL A   1      55.972  18.831   6.134  1.00  0.00    +0.000 H 
BRANCH   20   19
ATOM     19  N3  UNL A   1      54.747  17.521   5.128  1.00  0.00    +0.000 N 
ATOM    103  H9  UNL A   1      54.971  17.832   4.222  1.00  0.00    +0.000 H 
BRANCH   19   17
ATOM     17  C11 UNL A   1      54.289  16.224   5.193  1.00  0.00    +0.000 C 
ATOM     18  O4  UNL A   1      54.775  15.459   6.029  1.00  0.00    +0.000 O 
BRANCH   17   16
ATOM    131  H37 UNL A   1      51.593  16.388   5.600  1.00  0.00    +0.000 H 
ATOM    100  H6  UNL A   1      50.360  13.978   2.384  1.00  0.00    +0.000 H 
ATOM    101  H7  UNL A   1      52.620  14.066   1.480  1.00  0.00    +0.000 H 
ATOM     11  C6  UNL A   1      50.832  15.108   4.105  1.00  0.00    +0.000 C 
ATOM     12  C7  UNL A   1      51.108  14.467   2.898  1.00  0.00    +0.000 C 
ATOM     13  C8  UNL A   1      52.411  14.495   2.395  1.00  0.00    +0.000 C 
ATOM     14  C9  UNL A   1      53.431  15.104   3.131  1.00  0.00    +0.000 C 
ATOM     16  C10 UNL A   1      53.163  15.721   4.363  1.00  0.00    +0.000 C 
ATOM     92  C63 UNL A   1      51.836  15.807   4.784  1.00  0.00    +0.000 C 
BRANCH   11   10
ATOM     10  C5  UNL A   1      49.522  14.918   4.764  1.00  0.00    +0.000 C 
ATOM     99  H5  UNL A   1      49.471  14.492   5.703  1.00  0.00    +0.000 H 
BRANCH   10    9
ATOM      9  N2  UNL A   1      48.438  15.288   4.159  1.00  0.00    +0.000 N 
BRANCH    9    8
ATOM     97  H3  UNL A   1      44.983  12.718   5.519  1.00  0.00    +0.000 H 
ATOM     98  H4  UNL A   1      47.197  13.054   4.582  1.00  0.00    +0.000 H 
ATOM    132  H38 UNL A   1      46.805  17.203   5.105  1.00  0.00    +0.000 H 
ATOM    133  H39 UNL A   1      44.596  16.878   6.060  1.00  0.00    +0.000 H 
ATOM      6  C2  UNL A   1      45.372  13.671   5.436  1.00  0.00    +0.000 C 
ATOM      5  C1  UNL A   1      44.627  14.774   5.857  1.00  0.00    +0.000 C 
ATOM      7  C3  UNL A   1      46.649  13.868   4.901  1.00  0.00    +0.000 C 
ATOM      8  C4  UNL A   1      47.195  15.152   4.792  1.00  0.00    +0.000 C 
ATOM     93  C64 UNL A   1      46.425  16.249   5.203  1.00  0.00    +0.000 C 
ATOM     94  C65 UNL A   1      45.149  16.065   5.744  1.00  0.00    +0.000 C 
BRANCH    5    2
ATOM      2  S1  UNL A   1      43.016  14.530   6.543  1.00  0.00    +0.000 S 
ATOM      3  O1  UNL A   1      42.218  15.709   6.315  1.00  0.00    +0.000 O 
ATOM      4  O2  UNL A   1      43.162  13.924   7.847  1.00  0.00    +0.000 O 
BRANCH    2    1
ATOM      1  N1  UNL A   1      42.360  13.349   5.542  1.00  0.00    +0.000 N 
ATOM     95  H1  UNL A   1      43.113  12.849   5.069  1.00  0.00    +0.000 H 
ATOM     96  H2  UNL A   1      41.756  13.789   4.849  1.00  0.00    +0.000 H 
ENDBRANCH    2    1
ENDBRANCH    5    2
ENDBRANCH    9    8
ENDBRANCH   10    9
ENDBRANCH   11   10
BRANCH   14   15
ATOM    102  H8  UNL A   1      54.925  15.620   1.890  1.00  0.00    +0.000 H 
ATOM     15  O3  UNL A   1      54.688  15.041   2.587  1.00  0.00    +0.000 O 
ENDBRANCH   14   15
ENDBRANCH   17   16
ENDBRANCH   19   17
ENDBRANCH   20   19
ENDBRANCH   21   20
ENDBRANCH   22   21
ENDBRANCH   23   22
ENDBRANCH   24   23
ENDBRANCH   25   24
ENDBRANCH   26   25
ENDBRANCH   27   26
ENDBRANCH   29   27
ENDBRANCH   33   32
BRANCH   37   38
ATOM     38  C27 UNL A   1      52.389  22.582  17.179  1.00  0.00    +0.000 C 
ATOM     39  C28 UNL A   1      52.306  23.981  17.125  1.00  0.00    +0.000 C 
ATOM     40  F1  UNL A   1      53.064  24.669  16.255  1.00  0.00    +0.000 F 
ATOM     41  C29 UNL A   1      51.478  24.686  17.995  1.00  0.00    +0.000 C 
ATOM     42  F2  UNL A   1      51.458  26.026  17.961  1.00  0.00    +0.000 F 
ATOM     43  C30 UNL A   1      50.686  24.005  18.907  1.00  0.00    +0.000 C 
ATOM     44  F3  UNL A   1      49.886  24.684  19.741  1.00  0.00    +0.000 F 
ATOM     45  C31 UNL A   1      50.730  22.620  18.961  1.00  0.00    +0.000 C 
ATOM     46  F4  UNL A   1      49.956  21.959  19.832  1.00  0.00    +0.000 F 
ATOM     47  C32 UNL A   1      51.581  21.915  18.114  1.00  0.00    +0.000 C 
ATOM     48  F5  UNL A   1      51.615  20.577  18.204  1.00  0.00    +0.000 F 
ENDBRANCH   37   38
BRANCH   54   55
ATOM     65  F10 UNL A   1      59.559  22.160  16.883  1.00  0.00    +0.000 F 
ATOM     55  C38 UNL A   1      59.058  19.853  17.186  1.00  0.00    +0.000 C 
ATOM     56  C39 UNL A   1      59.416  18.641  17.794  1.00  0.00    +0.000 C 
ATOM     57  F6  UNL A   1      58.675  17.541  17.591  1.00  0.00    +0.000 F 
ATOM     58  C40 UNL A   1      60.520  18.562  18.638  1.00  0.00    +0.000 C 
ATOM     59  F7  UNL A   1      60.819  17.401  19.240  1.00  0.00    +0.000 F 
ATOM     60  C41 UNL A   1      61.304  19.682  18.867  1.00  0.00    +0.000 C 
ATOM     61  F8  UNL A   1      62.373  19.601  19.670  1.00  0.00    +0.000 F 
ATOM     62  C42 UNL A   1      60.976  20.888  18.266  1.00  0.00    +0.000 C 
ATOM     63  F9  UNL A   1      61.741  21.969  18.474  1.00  0.00    +0.000 F 
ATOM     64  C43 UNL A   1      59.856  20.978  17.444  1.00  0.00    +0.000 C 
ENDBRANCH   54   55
BRANCH   69   70
ATOM     70  C47 UNL A   1      58.177  17.866  10.558  1.00  0.00    +0.000 C 
ATOM     71  C48 UNL A   1      58.984  18.639   9.714  1.00  0.00    +0.000 C 
ATOM     72  F11 UNL A   1      58.934  19.978   9.782  1.00  0.00    +0.000 F 
ATOM     73  C49 UNL A   1      59.825  18.041   8.777  1.00  0.00    +0.000 C 
ATOM     74  F12 UNL A   1      60.561  18.804   7.959  1.00  0.00    +0.000 F 
ATOM     75  C50 UNL A   1      59.893  16.659   8.685  1.00  0.00    +0.000 C 
ATOM     76  F13 UNL A   1      60.712  16.085   7.793  1.00  0.00    +0.000 F 
ATOM     77  C51 UNL A   1      59.111  15.873   9.518  1.00  0.00    +0.000 C 
ATOM     78  F14 UNL A   1      59.189  14.537   9.447  1.00  0.00    +0.000 F 
ATOM     79  C52 UNL A   1      58.250  16.471  10.436  1.00  0.00    +0.000 C 
ATOM     80  F15 UNL A   1      57.503  15.687  11.229  1.00  0.00    +0.000 F 
ENDBRANCH   69   70
TORSDOF 21
ENDMDL
MODEL 3
REMARK VINA RESULT:     -11.1     17.936     22.945
ROOT
ATOM     33  C23 UNL A   1      41.650  26.495  27.595  1.00  0.00    +0.000 C 
ATOM     34  C24 UNL A   1      43.046  26.802  27.135  1.00  0.00    +0.000 C 
ATOM     35  N5  UNL A   1      43.775  27.867  27.355  1.00  0.00    +0.000 N 
ATOM     36  C25 UNL A   1      44.999  27.618  26.747  1.00  0.00    +0.000 C 
ATOM     37  C26 UNL A   1      46.074  28.437  26.649  1.00  0.00    +0.000 C 
ATOM     49  C33 UNL A   1      46.124  29.776  27.177  1.00  0.00    +0.000 C 
ATOM     50  C34 UNL A   1      47.132  30.715  27.051  1.00  0.00    +0.000 C 
ATOM     51  C35 UNL A   1      46.770  31.847  27.792  1.00  0.00    +0.000 C 
ATOM     52  C36 UNL A   1      45.515  31.632  28.338  1.00  0.00    +0.000 C 
ATOM     53  N6  UNL A   1      45.126  30.361  27.944  1.00  0.00    +0.000 N 
ATOM     54  C37 UNL A   1      44.729  32.516  29.161  1.00  0.00    +0.000 C 
ATOM     66  C44 UNL A   1      43.473  32.255  29.600  1.00  0.00    +0.000 C 
ATOM     67  N7  UNL A   1      42.693  31.126  29.391  1.00  0.00    +0.000 N 
ATOM     68  C45 UNL A   1      41.570  31.342  30.032  1.00  0.00    +0.000 C 
ATOM     69  C46 UNL A   1      40.359  30.456  30.142  1.00  0.00    +0.000 C 
ATOM     81  C53 UNL A   1      40.348  29.271  29.502  1.00  0.00    +0.000 C 
ATOM     82  C54 UNL A   1      39.249  28.310  29.526  1.00  0.00    +0.000 C 
ATOM     83  C55 UNL A   1      39.617  27.209  28.853  1.00  0.00    +0.000 C 
ATOM     84  C56 UNL A   1      40.962  27.405  28.311  1.00  0.00    +0.000 C 
ATOM     85  N8  UNL A   1      41.306  28.669  28.723  1.00  0.00    +0.000 N 
ATOM     86  C57 UNL A   1      41.516  32.632  30.734  1.00  0.00    +0.000 C 
ATOM     87  C58 UNL A   1      42.687  33.162  30.411  1.00  0.00    +0.000 C 
ATOM     88  C59 UNL A   1      44.931  26.283  26.194  1.00  0.00    +0.000 C 
ATOM     89  C60 UNL A   1      43.724  25.760  26.349  1.00  0.00    +0.000 C 
ATOM    119  H25 UNL A   1      47.999  30.603  26.504  1.00  0.00    +0.000 H 
ATOM    120  H26 UNL A   1      47.342  32.697  27.912  1.00  0.00    +0.000 H 
ATOM    121  H27 UNL A   1      44.268  29.936  28.173  1.00  0.00    +0.000 H 
ATOM    122  H28 UNL A   1      38.337  28.453  29.988  1.00  0.00    +0.000 H 
ATOM    123  H29 UNL A   1      39.043  26.359  28.736  1.00  0.00    +0.000 H 
ATOM    124  H30 UNL A   1      42.157  29.102  28.485  1.00  0.00    +0.000 H 
ATOM    125  H31 UNL A   1      40.764  33.021  31.324  1.00  0.00    +0.000 H 
ATOM    126  H32 UNL A   1      42.999  34.102  30.702  1.00  0.00    +0.000 H 
ATOM    127  H33 UNL A   1      45.721  25.801  25.736  1.00  0.00    +0.000 H 
ATOM    128  H34 UNL A   1      43.355  24.858  26.007  1.00  0.00    +0.000 H 
ENDROOT
BRANCH   33   32
ATOM    129  H35 UNL A   1      39.697  25.851  25.879  1.00  0.00    +0.000 H 
ATOM    130  H36 UNL A   1      38.705  23.680  25.452  1.00  0.00    +0.000 H 
ATOM    117  H23 UNL A   1      41.356  21.920  28.202  1.00  0.00    +0.000 H 
ATOM    118  H24 UNL A   1      42.201  24.118  28.788  1.00  0.00    +0.000 H 
ATOM     90  C61 UNL A   1      40.041  25.019  26.384  1.00  0.00    +0.000 C 
ATOM     91  C62 UNL A   1      39.498  23.767  26.106  1.00  0.00    +0.000 C 
ATOM     29  C19 UNL A   1      40.028  22.627  26.718  1.00  0.00    +0.000 C 
ATOM     30  C20 UNL A   1      41.004  22.757  27.710  1.00  0.00    +0.000 C 
ATOM     31  C21 UNL A   1      41.502  24.020  28.037  1.00  0.00    +0.000 C 
ATOM     32  C22 UNL A   1      41.053  25.158  27.346  1.00  0.00    +0.000 C 
BRANCH   29   27
ATOM     27  C18 UNL A   1      39.567  21.270  26.348  1.00  0.00    +0.000 C 
ATOM     28  O5  UNL A   1      40.112  20.289  26.844  1.00  0.00    +0.000 O 
BRANCH   27   26
ATOM     26  N4  UNL A   1      38.555  21.105  25.435  1.00  0.00    +0.000 N 
ATOM    116  H22 UNL A   1      38.840  20.780  24.549  1.00  0.00    +0.000 H 
BRANCH   26   25
ATOM     25  C17 UNL A   1      37.128  21.336  25.576  1.00  0.00    +0.000 C 
ATOM    114  H20 UNL A   1      36.627  20.391  25.572  1.00  0.00    +0.000 H 
ATOM    115  H21 UNL A   1      36.978  21.863  26.495  1.00  0.00    +0.000 H 
BRANCH   25   24
ATOM    113  H19 UNL A   1      35.744  21.629  24.042  1.00  0.00    +0.000 H 
ATOM    112  H18 UNL A   1      37.342  22.403  23.764  1.00  0.00    +0.000 H 
ATOM     24  C16 UNL A   1      36.552  22.196  24.456  1.00  0.00    +0.000 C 
BRANCH   24   23
ATOM    111  H17 UNL A   1      36.734  24.245  24.798  1.00  0.00    +0.000 H 
ATOM    110  H16 UNL A   1      35.552  23.413  25.871  1.00  0.00    +0.000 H 
ATOM     23  C15 UNL A   1      35.941  23.533  24.881  1.00  0.00    +0.000 C 
BRANCH   23   22
ATOM    108  H14 UNL A   1      33.906  24.022  24.566  1.00  0.00    +0.000 H 
ATOM    109  H15 UNL A   1      35.115  25.073  23.744  1.00  0.00    +0.000 H 
ATOM     22  C14 UNL A   1      34.814  24.080  24.003  1.00  0.00    +0.000 C 
BRANCH   22   21
ATOM    106  H12 UNL A   1      35.164  23.874  21.928  1.00  0.00    +0.000 H 
ATOM    107  H13 UNL A   1      34.852  22.352  22.844  1.00  0.00    +0.000 H 
ATOM     21  C13 UNL A   1      34.578  23.372  22.670  1.00  0.00    +0.000 C 
BRANCH   21   20
ATOM    105  H11 UNL A   1      33.170  23.607  21.134  1.00  0.00    +0.000 H 
ATOM     20  C12 UNL A   1      33.142  23.318  22.164  1.00  0.00    +0.000 C 
ATOM    104  H10 UNL A   1      32.551  23.976  22.766  1.00  0.00    +0.000 H 
BRANCH   20   19
ATOM     19  N3  UNL A   1      32.538  21.997  22.208  1.00  0.00    +0.000 N 
ATOM    103  H9  UNL A   1      32.254  21.647  21.333  1.00  0.00    +0.000 H 
BRANCH   19   17
ATOM     17  C11 UNL A   1      32.297  21.154  23.269  1.00  0.00    +0.000 C 
ATOM     18  O4  UNL A   1      32.075  19.961  23.048  1.00  0.00    +0.000 O 
BRANCH   17   16
ATOM    131  H37 UNL A   1      30.880  23.067  24.607  1.00  0.00    +0.000 H 
ATOM    100  H6  UNL A   1      33.018  22.966  28.226  1.00  0.00    +0.000 H 
ATOM    101  H7  UNL A   1      34.108  20.913  27.499  1.00  0.00    +0.000 H 
ATOM     11  C6  UNL A   1      31.930  23.213  26.432  1.00  0.00    +0.000 C 
ATOM     12  C7  UNL A   1      32.830  22.581  27.288  1.00  0.00    +0.000 C 
ATOM     13  C8  UNL A   1      33.476  21.419  26.859  1.00  0.00    +0.000 C 
ATOM     14  C9  UNL A   1      33.265  20.940  25.564  1.00  0.00    +0.000 C 
ATOM     16  C10 UNL A   1      32.384  21.594  24.687  1.00  0.00    +0.000 C 
ATOM     92  C63 UNL A   1      31.643  22.670  25.176  1.00  0.00    +0.000 C 
BRANCH   11   10
ATOM     10  C5  UNL A   1      31.396  24.549  26.772  1.00  0.00    +0.000 C 
ATOM     99  H5  UNL A   1      30.537  24.635  27.337  1.00  0.00    +0.000 H 
BRANCH   10    9
ATOM      9  N2  UNL A   1      32.010  25.613  26.359  1.00  0.00    +0.000 N 
BRANCH    9    8
ATOM     97  H3  UNL A   1      31.532  29.707  24.517  1.00  0.00    +0.000 H 
ATOM     98  H4  UNL A   1      32.627  28.097  25.966  1.00  0.00    +0.000 H 
ATOM    132  H38 UNL A   1      29.945  25.119  24.709  1.00  0.00    +0.000 H 
ATOM    133  H39 UNL A   1      28.852  26.716  23.243  1.00  0.00    +0.000 H 
ATOM      6  C2  UNL A   1      31.198  28.731  24.553  1.00  0.00    +0.000 C 
ATOM      5  C1  UNL A   1      30.111  28.329  23.775  1.00  0.00    +0.000 C 
ATOM      7  C3  UNL A   1      31.829  27.800  25.383  1.00  0.00    +0.000 C 
ATOM      8  C4  UNL A   1      31.396  26.470  25.436  1.00  0.00    +0.000 C 
ATOM     93  C64 UNL A   1      30.292  26.089  24.661  1.00  0.00    +0.000 C 
ATOM     94  C65 UNL A   1      29.654  27.010  23.823  1.00  0.00    +0.000 C 
BRANCH    5    2
ATOM      2  S1  UNL A   1      29.315  29.501  22.716  1.00  0.00    +0.000 S 
ATOM      3  O1  UNL A   1      27.967  29.063  22.452  1.00  0.00    +0.000 O 
ATOM      4  O2  UNL A   1      30.238  29.869  21.666  1.00  0.00    +0.000 O 
BRANCH    2    1
ATOM      1  N1  UNL A   1      29.159  30.851  23.706  1.00  0.00    +0.000 N 
ATOM     95  H1  UNL A   1      29.602  30.665  24.605  1.00  0.00    +0.000 H 
ATOM     96  H2  UNL A   1      28.170  31.055  23.848  1.00  0.00    +0.000 H 
ENDBRANCH    2    1
ENDBRANCH    5    2
ENDBRANCH    9    8
ENDBRANCH   10    9
ENDBRANCH   11   10
BRANCH   14   15
ATOM    102  H8  UNL A   1      34.529  19.402  25.837  1.00  0.00    +0.000 H 
ATOM     15  O3  UNL A   1      33.976  19.823  25.209  1.00  0.00    +0.000 O 
ENDBRANCH   14   15
ENDBRANCH   17   16
ENDBRANCH   19   17
ENDBRANCH   20   19
ENDBRANCH   21   20
ENDBRANCH   22   21
ENDBRANCH   23   22
ENDBRANCH   24   23
ENDBRANCH   25   24
ENDBRANCH   26   25
ENDBRANCH   27   26
ENDBRANCH   29   27
ENDBRANCH   33   32
BRANCH   37   38
ATOM     38  C27 UNL A   1      47.292  27.904  25.951  1.00  0.00    +0.000 C 
ATOM     39  C28 UNL A   1      47.380  27.844  24.553  1.00  0.00    +0.000 C 
ATOM     40  F1  UNL A   1      46.343  28.234  23.794  1.00  0.00    +0.000 F 
ATOM     41  C29 UNL A   1      48.518  27.342  23.925  1.00  0.00    +0.000 C 
ATOM     42  F2  UNL A   1      48.555  27.244  22.589  1.00  0.00    +0.000 F 
ATOM     43  C30 UNL A   1      49.604  26.928  24.681  1.00  0.00    +0.000 C 
ATOM     44  F3  UNL A   1      50.699  26.448  24.076  1.00  0.00    +0.000 F 
ATOM     45  C31 UNL A   1      49.551  27.002  26.064  1.00  0.00    +0.000 C 
ATOM     46  F4  UNL A   1      50.604  26.615  26.796  1.00  0.00    +0.000 F 
ATOM     47  C32 UNL A   1      48.402  27.474  26.695  1.00  0.00    +0.000 C 
ATOM     48  F5  UNL A   1      48.375  27.515  28.036  1.00  0.00    +0.000 F 
ENDBRANCH   37   38
BRANCH   54   55
ATOM     65  F10 UNL A   1      46.284  32.880  31.520  1.00  0.00    +0.000 F 
ATOM     55  C38 UNL A   1      45.337  33.830  29.554  1.00  0.00    +0.000 C 
ATOM     56  C39 UNL A   1      45.145  34.984  28.779  1.00  0.00    +0.000 C 
ATOM     57  F6  UNL A   1      44.460  34.916  27.627  1.00  0.00    +0.000 F 
ATOM     58  C40 UNL A   1      45.684  36.206  29.169  1.00  0.00    +0.000 C 
ATOM     59  F7  UNL A   1      45.521  37.287  28.392  1.00  0.00    +0.000 F 
ATOM     60  C41 UNL A   1      46.397  36.307  30.355  1.00  0.00    +0.000 C 
ATOM     61  F8  UNL A   1      46.903  37.488  30.735  1.00  0.00    +0.000 F 
ATOM     62  C42 UNL A   1      46.587  35.182  31.142  1.00  0.00    +0.000 C 
ATOM     63  F9  UNL A   1      47.264  35.280  32.296  1.00  0.00    +0.000 F 
ATOM     64  C43 UNL A   1      46.076  33.952  30.741  1.00  0.00    +0.000 C 
ENDBRANCH   54   55
BRANCH   69   70
ATOM     70  C47 UNL A   1      39.177  30.869  30.944  1.00  0.00    +0.000 C 
ATOM     71  C48 UNL A   1      38.108  31.556  30.354  1.00  0.00    +0.000 C 
ATOM     72  F11 UNL A   1      38.161  31.884  29.054  1.00  0.00    +0.000 F 
ATOM     73  C49 UNL A   1      36.994  31.931  31.101  1.00  0.00    +0.000 C 
ATOM     74  F12 UNL A   1      36.001  32.616  30.519  1.00  0.00    +0.000 F 
ATOM     75  C50 UNL A   1      36.916  31.606  32.446  1.00  0.00    +0.000 C 
ATOM     76  F13 UNL A   1      35.838  31.956  33.161  1.00  0.00    +0.000 F 
ATOM     77  C51 UNL A   1      37.958  30.917  33.051  1.00  0.00    +0.000 C 
ATOM     78  F14 UNL A   1      37.878  30.583  34.346  1.00  0.00    +0.000 F 
ATOM     79  C52 UNL A   1      39.084  30.565  32.310  1.00  0.00    +0.000 C 
ATOM     80  F15 UNL A   1      40.078  29.901  32.920  1.00  0.00    +0.000 F 
ENDBRANCH   69   70
TORSDOF 21
ENDMDL
MODEL 4
REMARK VINA RESULT:     -10.9     41.783     48.231
ROOT
ATOM     33  C23 UNL A   1      10.770   2.825  21.377  1.00  0.00    +0.000 C 
ATOM     34  C24 UNL A   1       9.817   3.725  22.109  1.00  0.00    +0.000 C 
ATOM     35  N5  UNL A   1       9.384   4.916  21.780  1.00  0.00    +0.000 N 
ATOM     36  C25 UNL A   1       8.488   5.281  22.775  1.00  0.00    +0.000 C 
ATOM     37  C26 UNL A   1       7.812   6.447  22.917  1.00  0.00    +0.000 C 
ATOM     49  C33 UNL A   1       7.926   7.564  22.015  1.00  0.00    +0.000 C 
ATOM     50  C34 UNL A   1       7.354   8.819  22.121  1.00  0.00    +0.000 C 
ATOM     51  C35 UNL A   1       7.686   9.549  20.974  1.00  0.00    +0.000 C 
ATOM     52  C36 UNL A   1       8.507   8.767  20.177  1.00  0.00    +0.000 C 
ATOM     53  N6  UNL A   1       8.654   7.555  20.833  1.00  0.00    +0.000 N 
ATOM     54  C37 UNL A   1       9.109   9.097  18.910  1.00  0.00    +0.000 C 
ATOM     66  C44 UNL A   1       9.961   8.295  18.224  1.00  0.00    +0.000 C 
ATOM     67  N7  UNL A   1      10.415   7.025  18.550  1.00  0.00    +0.000 N 
ATOM     68  C45 UNL A   1      11.202   6.661  17.566  1.00  0.00    +0.000 C 
ATOM     69  C46 UNL A   1      11.974   5.381  17.395  1.00  0.00    +0.000 C 
ATOM     81  C53 UNL A   1      11.912   4.441  18.357  1.00  0.00    +0.000 C 
ATOM     82  C54 UNL A   1      12.599   3.153  18.322  1.00  0.00    +0.000 C 
ATOM     83  C55 UNL A   1      12.243   2.439  19.401  1.00  0.00    +0.000 C 
ATOM     84  C56 UNL A   1      11.337   3.237  20.227  1.00  0.00    +0.000 C 
ATOM     85  N8  UNL A   1      11.219   4.422  19.543  1.00  0.00    +0.000 N 
ATOM     86  C57 UNL A   1      11.324   7.659  16.493  1.00  0.00    +0.000 C 
ATOM     87  C58 UNL A   1      10.574   8.647  16.960  1.00  0.00    +0.000 C 
ATOM     88  C59 UNL A   1       8.400   4.165  23.693  1.00  0.00    +0.000 C 
ATOM     89  C60 UNL A   1       9.251   3.205  23.363  1.00  0.00    +0.000 C 
ATOM    119  H25 UNL A   1       6.783   9.160  22.909  1.00  0.00    +0.000 H 
ATOM    120  H26 UNL A   1       7.371  10.508  20.757  1.00  0.00    +0.000 H 
ATOM    121  H27 UNL A   1       9.196   6.799  20.510  1.00  0.00    +0.000 H 
ATOM    122  H28 UNL A   1      13.252   2.841  17.586  1.00  0.00    +0.000 H 
ATOM    123  H29 UNL A   1      12.558   1.479  19.614  1.00  0.00    +0.000 H 
ATOM    124  H30 UNL A   1      10.689   5.184  19.870  1.00  0.00    +0.000 H 
ATOM    125  H31 UNL A   1      11.854   7.603  15.610  1.00  0.00    +0.000 H 
ATOM    126  H32 UNL A   1      10.444   9.553  16.483  1.00  0.00    +0.000 H 
ATOM    127  H33 UNL A   1       7.759   4.124  24.501  1.00  0.00    +0.000 H 
ATOM    128  H34 UNL A   1       9.461   2.323  23.856  1.00  0.00    +0.000 H 
ENDROOT
BRANCH   33   32
ATOM    129  H35 UNL A   1      12.781   1.959  22.919  1.00  0.00    +0.000 H 
ATOM    130  H36 UNL A   1      13.219  -0.285  23.727  1.00  0.00    +0.000 H 
ATOM    117  H23 UNL A   1       9.696  -1.646  21.876  1.00  0.00    +0.000 H 
ATOM    118  H24 UNL A   1       9.372   0.547  20.888  1.00  0.00    +0.000 H 
ATOM     90  C61 UNL A   1      12.132   1.191  22.684  1.00  0.00    +0.000 C 
ATOM     91  C62 UNL A   1      12.364  -0.088  23.184  1.00  0.00    +0.000 C 
ATOM     29  C19 UNL A   1      11.435  -1.106  22.948  1.00  0.00    +0.000 C 
ATOM     30  C20 UNL A   1      10.352  -0.879  22.095  1.00  0.00    +0.000 C 
ATOM     31  C21 UNL A   1      10.156   0.388  21.540  1.00  0.00    +0.000 C 
ATOM     32  C22 UNL A   1      11.023   1.444  21.863  1.00  0.00    +0.000 C 
BRANCH   29   27
ATOM     27  C18 UNL A   1      11.579  -2.440  23.574  1.00  0.00    +0.000 C 
ATOM     28  O5  UNL A   1      12.163  -3.333  22.967  1.00  0.00    +0.000 O 
BRANCH   27   26
ATOM     26  N4  UNL A   1      11.042  -2.688  24.812  1.00  0.00    +0.000 N 
ATOM    116  H22 UNL A   1      10.087  -2.934  24.811  1.00  0.00    +0.000 H 
BRANCH   26   25
ATOM     25  C17 UNL A   1      11.666  -2.644  26.124  1.00  0.00    +0.000 C 
ATOM    114  H20 UNL A   1      11.085  -2.008  26.757  1.00  0.00    +0.000 H 
ATOM    115  H21 UNL A   1      11.704  -3.648  26.493  1.00  0.00    +0.000 H 
BRANCH   25   24
ATOM    113  H19 UNL A   1      13.327  -1.989  25.045  1.00  0.00    +0.000 H 
ATOM    112  H18 UNL A   1      13.720  -2.823  26.588  1.00  0.00    +0.000 H 
ATOM     24  C16 UNL A   1      13.096  -2.116  26.083  1.00  0.00    +0.000 C 
BRANCH   24   23
ATOM    111  H17 UNL A   1      13.541  -0.949  27.753  1.00  0.00    +0.000 H 
ATOM    110  H16 UNL A   1      12.445  -0.159  26.563  1.00  0.00    +0.000 H 
ATOM     23  C15 UNL A   1      13.325  -0.746  26.725  1.00  0.00    +0.000 C 
BRANCH   23   22
ATOM    108  H14 UNL A   1      15.402  -0.521  26.391  1.00  0.00    +0.000 H 
ATOM    109  H15 UNL A   1      14.312   0.247  25.180  1.00  0.00    +0.000 H 
ATOM     22  C14 UNL A   1      14.521   0.059  26.212  1.00  0.00    +0.000 C 
BRANCH   22   21
ATOM    106  H12 UNL A   1      15.028   2.104  26.052  1.00  0.00    +0.000 H 
ATOM    107  H13 UNL A   1      13.810   1.677  27.311  1.00  0.00    +0.000 H 
ATOM     21  C13 UNL A   1      14.738   1.436  26.836  1.00  0.00    +0.000 C 
BRANCH   21   20
ATOM    105  H11 UNL A   1      16.690   1.869  27.470  1.00  0.00    +0.000 H 
ATOM     20  C12 UNL A   1      15.787   1.535  27.937  1.00  0.00    +0.000 C 
ATOM    104  H10 UNL A   1      15.885   0.572  28.393  1.00  0.00    +0.000 H 
BRANCH   20   19
ATOM     19  N3  UNL A   1      15.477   2.501  28.977  1.00  0.00    +0.000 N 
ATOM    103  H9  UNL A   1      15.846   2.282  29.863  1.00  0.00    +0.000 H 
BRANCH   19   17
ATOM     17  C11 UNL A   1      14.752   3.671  28.930  1.00  0.00    +0.000 C 
ATOM     18  O4  UNL A   1      15.236   4.652  28.362  1.00  0.00    +0.000 O 
BRANCH   17   16
ATOM    131  H37 UNL A   1      12.363   3.171  27.704  1.00  0.00    +0.000 H 
ATOM    100  H6  UNL A   1       9.827   4.559  30.757  1.00  0.00    +0.000 H 
ATOM    101  H7  UNL A   1      11.731   4.634  32.273  1.00  0.00    +0.000 H 
ATOM     11  C6  UNL A   1      10.973   3.940  29.093  1.00  0.00    +0.000 C 
ATOM     12  C7  UNL A   1      10.773   4.326  30.418  1.00  0.00    +0.000 C 
ATOM     13  C8  UNL A   1      11.870   4.396  31.279  1.00  0.00    +0.000 C 
ATOM     14  C9  UNL A   1      13.156   4.141  30.795  1.00  0.00    +0.000 C 
ATOM     16  C10 UNL A   1      13.364   3.784  29.454  1.00  0.00    +0.000 C 
ATOM     92  C63 UNL A   1      12.248   3.584  28.642  1.00  0.00    +0.000 C 
BRANCH   11   10
ATOM     10  C5  UNL A   1       9.875   4.060  28.111  1.00  0.00    +0.000 C 
ATOM     99  H5  UNL A   1       9.085   4.700  28.293  1.00  0.00    +0.000 H 
BRANCH   10    9
ATOM      9  N2  UNL A   1       9.906   3.361  27.021  1.00  0.00    +0.000 N 
BRANCH    9    8
ATOM     97  H3  UNL A   1       6.251   0.795  26.352  1.00  0.00    +0.000 H 
ATOM     98  H4  UNL A   1       7.454   2.903  26.322  1.00  0.00    +0.000 H 
ATOM    132  H38 UNL A   1      10.921   0.960  27.682  1.00  0.00    +0.000 H 
ATOM    133  H39 UNL A   1       9.733  -1.157  27.700  1.00  0.00    +0.000 H 
ATOM      6  C2  UNL A   1       7.245   0.828  26.630  1.00  0.00    +0.000 C 
ATOM      5  C1  UNL A   1       7.904  -0.335  27.029  1.00  0.00    +0.000 C 
ATOM      7  C3  UNL A   1       7.943   2.040  26.608  1.00  0.00    +0.000 C 
ATOM      8  C4  UNL A   1       9.293   2.101  26.972  1.00  0.00    +0.000 C 
ATOM     93  C64 UNL A   1       9.933   0.926  27.387  1.00  0.00    +0.000 C 
ATOM     94  C65 UNL A   1       9.248  -0.293  27.408  1.00  0.00    +0.000 C 
BRANCH    5    2
ATOM      2  S1  UNL A   1       7.029  -1.872  27.048  1.00  0.00    +0.000 S 
ATOM      3  O1  UNL A   1       6.360  -2.023  28.316  1.00  0.00    +0.000 O 
ATOM      4  O2  UNL A   1       7.887  -2.893  26.490  1.00  0.00    +0.000 O 
BRANCH    2    1
ATOM      1  N1  UNL A   1       5.804  -1.616  25.926  1.00  0.00    +0.000 N 
ATOM     95  H1  UNL A   1       4.957  -2.095  26.232  1.00  0.00    +0.000 H 
ATOM     96  H2  UNL A   1       6.093  -1.981  25.018  1.00  0.00    +0.000 H 
ENDBRANCH    2    1
ENDBRANCH    5    2
ENDBRANCH    9    8
ENDBRANCH   10    9
ENDBRANCH   11   10
BRANCH   14   15
ATOM    102  H8  UNL A   1      14.865   4.897  31.534  1.00  0.00    +0.000 H 
ATOM     15  O3  UNL A   1      14.179   4.281  31.696  1.00  0.00    +0.000 O 
ENDBRANCH   14   15
ENDBRANCH   17   16
ENDBRANCH   19   17
ENDBRANCH   20   19
ENDBRANCH   21   20
ENDBRANCH   22   21
ENDBRANCH   23   22
ENDBRANCH   24   23
ENDBRANCH   25   24
ENDBRANCH   26   25
ENDBRANCH   27   26
ENDBRANCH   29   27
ENDBRANCH   33   32
BRANCH   37   38
ATOM     38  C27 UNL A   1       6.878   6.572  24.086  1.00  0.00    +0.000 C 
ATOM     39  C28 UNL A   1       5.583   6.035  24.062  1.00  0.00    +0.000 C 
ATOM     40  F1  UNL A   1       5.127   5.421  22.959  1.00  0.00    +0.000 F 
ATOM     41  C29 UNL A   1       4.731   6.166  25.157  1.00  0.00    +0.000 C 
ATOM     42  F2  UNL A   1       3.479   5.693  25.089  1.00  0.00    +0.000 F 
ATOM     43  C30 UNL A   1       5.171   6.798  26.310  1.00  0.00    +0.000 C 
ATOM     44  F3  UNL A   1       4.352   6.920  27.364  1.00  0.00    +0.000 F 
ATOM     45  C31 UNL A   1       6.457   7.313  26.367  1.00  0.00    +0.000 C 
ATOM     46  F4  UNL A   1       6.889   7.913  27.484  1.00  0.00    +0.000 F 
ATOM     47  C32 UNL A   1       7.300   7.212  25.263  1.00  0.00    +0.000 C 
ATOM     48  F5  UNL A   1       8.532   7.737  25.343  1.00  0.00    +0.000 F 
ENDBRANCH   37   38
BRANCH   54   55
ATOM     65  F10 UNL A   1       6.906   9.525  17.155  1.00  0.00    +0.000 F 
ATOM     55  C38 UNL A   1       8.782  10.431  18.307  1.00  0.00    +0.000 C 
ATOM     56  C39 UNL A   1       9.578  11.559  18.556  1.00  0.00    +0.000 C 
ATOM     57  F6  UNL A   1      10.619  11.477  19.399  1.00  0.00    +0.000 F 
ATOM     58  C40 UNL A   1       9.288  12.785  17.964  1.00  0.00    +0.000 C 
ATOM     59  F7  UNL A   1      10.039  13.859  18.249  1.00  0.00    +0.000 F 
ATOM     60  C41 UNL A   1       8.218  12.900  17.089  1.00  0.00    +0.000 C 
ATOM     61  F8  UNL A   1       7.948  14.078  16.510  1.00  0.00    +0.000 F 
ATOM     62  C42 UNL A   1       7.426  11.795  16.818  1.00  0.00    +0.000 C 
ATOM     63  F9  UNL A   1       6.400  11.901  15.962  1.00  0.00    +0.000 F 
ATOM     64  C43 UNL A   1       7.695  10.575  17.431  1.00  0.00    +0.000 C 
ENDBRANCH   54   55
BRANCH   69   70
ATOM     70  C47 UNL A   1      12.801   5.140  16.183  1.00  0.00    +0.000 C 
ATOM     71  C48 UNL A   1      12.260   4.510  15.055  1.00  0.00    +0.000 C 
ATOM     72  F11 UNL A   1      10.990   4.079  15.073  1.00  0.00    +0.000 F 
ATOM     73  C49 UNL A   1      13.030   4.295  13.914  1.00  0.00    +0.000 C 
ATOM     74  F12 UNL A   1      12.498   3.660  12.861  1.00  0.00    +0.000 F 
ATOM     75  C50 UNL A   1      14.346   4.728  13.870  1.00  0.00    +0.000 C 
ATOM     76  F13 UNL A   1      15.082   4.533  12.767  1.00  0.00    +0.000 F 
ATOM     77  C51 UNL A   1      14.900   5.364  14.972  1.00  0.00    +0.000 C 
ATOM     78  F14 UNL A   1      16.165   5.803  14.926  1.00  0.00    +0.000 F 
ATOM     79  C52 UNL A   1      14.139   5.555  16.122  1.00  0.00    +0.000 C 
ATOM     80  F15 UNL A   1      14.700   6.171  17.174  1.00  0.00    +0.000 F 
ENDBRANCH   69   70
TORSDOF 21
ENDMDL
MODEL 5
REMARK VINA RESULT:     -10.9      4.005      5.446
ROOT
ATOM     33  C23 UNL A   1      52.836  20.769  11.633  1.00  0.00    +0.000 C 
ATOM     34  C24 UNL A   1      54.125  20.055  11.343  1.00  0.00    +0.000 C 
ATOM     35  N5  UNL A   1      55.169  19.886  12.115  1.00  0.00    +0.000 N 
ATOM     36  C25 UNL A   1      56.061  19.117  11.380  1.00  0.00    +0.000 C 
ATOM     37  C26 UNL A   1      57.311  18.716  11.720  1.00  0.00    +0.000 C 
ATOM     49  C33 UNL A   1      57.958  19.050  12.962  1.00  0.00    +0.000 C 
ATOM     50  C34 UNL A   1      59.252  18.770  13.363  1.00  0.00    +0.000 C 
ATOM     51  C35 UNL A   1      59.412  19.225  14.676  1.00  0.00    +0.000 C 
ATOM     52  C36 UNL A   1      58.234  19.835  15.077  1.00  0.00    +0.000 C 
ATOM     53  N6  UNL A   1      57.354  19.729  14.012  1.00  0.00    +0.000 N 
ATOM     54  C37 UNL A   1      57.930  20.462  16.338  1.00  0.00    +0.000 C 
ATOM     66  C44 UNL A   1      56.769  21.100  16.627  1.00  0.00    +0.000 C 
ATOM     67  N7  UNL A   1      55.647  21.273  15.829  1.00  0.00    +0.000 N 
ATOM     68  C45 UNL A   1      54.784  21.936  16.560  1.00  0.00    +0.000 C 
ATOM     69  C46 UNL A   1      53.401  22.404  16.199  1.00  0.00    +0.000 C 
ATOM     81  C53 UNL A   1      52.924  22.162  14.963  1.00  0.00    +0.000 C 
ATOM     82  C54 UNL A   1      51.602  22.548  14.478  1.00  0.00    +0.000 C 
ATOM     83  C55 UNL A   1      51.436  22.071  13.235  1.00  0.00    +0.000 C 
ATOM     84  C56 UNL A   1      52.658  21.383  12.818  1.00  0.00    +0.000 C 
ATOM     85  N8  UNL A   1      53.497  21.511  13.898  1.00  0.00    +0.000 N 
ATOM     86  C57 UNL A   1      55.259  22.247  17.916  1.00  0.00    +0.000 C 
ATOM     87  C58 UNL A   1      56.485  21.744  17.893  1.00  0.00    +0.000 C 
ATOM     88  C59 UNL A   1      55.416  18.809  10.122  1.00  0.00    +0.000 C 
ATOM     89  C60 UNL A   1      54.244  19.420  10.022  1.00  0.00    +0.000 C 
ATOM    119  H25 UNL A   1      59.976  18.307  12.791  1.00  0.00    +0.000 H 
ATOM    120  H26 UNL A   1      60.264  19.123  15.250  1.00  0.00    +0.000 H 
ATOM    121  H27 UNL A   1      56.435  20.084  13.999  1.00  0.00    +0.000 H 
ATOM    122  H28 UNL A   1      50.907  23.098  15.007  1.00  0.00    +0.000 H 
ATOM    123  H29 UNL A   1      50.582  22.174  12.664  1.00  0.00    +0.000 H 
ATOM    124  H30 UNL A   1      54.420  21.169  13.908  1.00  0.00    +0.000 H 
ATOM    125  H31 UNL A   1      54.766  22.730  18.683  1.00  0.00    +0.000 H 
ATOM    126  H32 UNL A   1      57.152  21.804  18.678  1.00  0.00    +0.000 H 
ATOM    127  H33 UNL A   1      55.816  18.195   9.395  1.00  0.00    +0.000 H 
ATOM    128  H34 UNL A   1      53.587  19.444   9.227  1.00  0.00    +0.000 H 
ENDROOT
BRANCH   33   32
ATOM    129  H35 UNL A   1      52.386  22.406   9.561  1.00  0.00    +0.000 H 
ATOM    130  H36 UNL A   1      50.572  22.358   7.954  1.00  0.00    +0.000 H 
ATOM    117  H23 UNL A   1      49.027  18.904   9.789  1.00  0.00    +0.000 H 
ATOM    118  H24 UNL A   1      50.715  19.076  11.525  1.00  0.00    +0.000 H 
ATOM     90  C61 UNL A   1      51.665  21.669   9.620  1.00  0.00    +0.000 C 
ATOM     91  C62 UNL A   1      50.647  21.620   8.670  1.00  0.00    +0.000 C 
ATOM     29  C19 UNL A   1      49.727  20.568   8.691  1.00  0.00    +0.000 C 
ATOM     30  C20 UNL A   1      49.741  19.649   9.744  1.00  0.00    +0.000 C 
ATOM     31  C21 UNL A   1      50.722  19.737  10.734  1.00  0.00    +0.000 C 
ATOM     32  C22 UNL A   1      51.717  20.725  10.657  1.00  0.00    +0.000 C 
BRANCH   29   27
ATOM     27  C18 UNL A   1      48.716  20.409   7.622  1.00  0.00    +0.000 C 
ATOM     28  O5  UNL A   1      48.035  21.373   7.284  1.00  0.00    +0.000 O 
BRANCH   27   26
ATOM     26  N4  UNL A   1      48.518  19.187   7.029  1.00  0.00    +0.000 N 
ATOM    116  H22 UNL A   1      47.575  18.930   6.906  1.00  0.00    +0.000 H 
BRANCH   26   25
ATOM     25  C17 UNL A   1      49.489  18.215   6.554  1.00  0.00    +0.000 C 
ATOM    114  H20 UNL A   1      49.625  17.471   7.310  1.00  0.00    +0.000 H 
ATOM    115  H21 UNL A   1      49.105  17.797   5.647  1.00  0.00    +0.000 H 
BRANCH   25   24
ATOM    113  H19 UNL A   1      50.746  19.878   6.467  1.00  0.00    +0.000 H 
ATOM    112  H18 UNL A   1      51.062  18.637   5.206  1.00  0.00    +0.000 H 
ATOM     24  C16 UNL A   1      50.844  18.837   6.235  1.00  0.00    +0.000 C 
BRANCH   24   23
ATOM    111  H17 UNL A   1      52.348  19.187   7.637  1.00  0.00    +0.000 H 
ATOM    110  H16 UNL A   1      52.760  17.951   6.394  1.00  0.00    +0.000 H 
ATOM     23  C15 UNL A   1      52.026  18.339   7.069  1.00  0.00    +0.000 C 
BRANCH   23   22
ATOM    108  H14 UNL A   1      51.660  17.725   9.061  1.00  0.00    +0.000 H 
ATOM    109  H15 UNL A   1      50.817  16.792   7.771  1.00  0.00    +0.000 H 
ATOM     22  C14 UNL A   1      51.724  17.253   8.103  1.00  0.00    +0.000 C 
BRANCH   22   21
ATOM    106  H12 UNL A   1      52.828  15.864   9.252  1.00  0.00    +0.000 H 
ATOM    107  H13 UNL A   1      52.344  15.331   7.599  1.00  0.00    +0.000 H 
ATOM     21  C13 UNL A   1      52.735  16.113   8.215  1.00  0.00    +0.000 C 
BRANCH   21   20
ATOM    105  H11 UNL A   1      54.819  15.936   8.371  1.00  0.00    +0.000 H 
ATOM     20  C12 UNL A   1      54.135  16.381   7.678  1.00  0.00    +0.000 C 
ATOM    104  H10 UNL A   1      54.262  17.440   7.588  1.00  0.00    +0.000 H 
BRANCH   20   19
ATOM     19  N3  UNL A   1      54.407  15.779   6.384  1.00  0.00    +0.000 N 
ATOM    103  H9  UNL A   1      54.855  14.903   6.424  1.00  0.00    +0.000 H 
BRANCH   19   17
ATOM     17  C11 UNL A   1      54.143  16.230   5.109  1.00  0.00    +0.000 C 
ATOM     18  O4  UNL A   1      54.906  17.052   4.596  1.00  0.00    +0.000 O 
BRANCH   17   16
ATOM    131  H37 UNL A   1      51.442  16.390   5.482  1.00  0.00    +0.000 H 
ATOM    100  H6  UNL A   1      50.257  13.892   2.315  1.00  0.00    +0.000 H 
ATOM    101  H7  UNL A   1      52.526  13.969   1.435  1.00  0.00    +0.000 H 
ATOM     11  C6  UNL A   1      50.705  15.068   4.012  1.00  0.00    +0.000 C 
ATOM     12  C7  UNL A   1      50.997  14.398   2.825  1.00  0.00    +0.000 C 
ATOM     13  C8  UNL A   1      52.305  14.420   2.336  1.00  0.00    +0.000 C 
ATOM     14  C9  UNL A   1      53.314  15.053   3.067  1.00  0.00    +0.000 C 
ATOM     16  C10 UNL A   1      53.029  15.700   4.279  1.00  0.00    +0.000 C 
ATOM     92  C63 UNL A   1      51.697  15.789   4.684  1.00  0.00    +0.000 C 
BRANCH   11   10
ATOM     10  C5  UNL A   1      49.388  14.889   4.661  1.00  0.00    +0.000 C 
ATOM     99  H5  UNL A   1      49.314  14.360   5.545  1.00  0.00    +0.000 H 
BRANCH   10    9
ATOM      9  N2  UNL A   1      48.328  15.397   4.118  1.00  0.00    +0.000 N 
BRANCH    9    8
ATOM     97  H3  UNL A   1      44.259  16.604   5.657  1.00  0.00    +0.000 H 
ATOM     98  H4  UNL A   1      46.430  17.068   4.677  1.00  0.00    +0.000 H 
ATOM    132  H38 UNL A   1      47.347  12.970   4.734  1.00  0.00    +0.000 H 
ATOM    133  H39 UNL A   1      45.171  12.492   5.699  1.00  0.00    +0.000 H 
ATOM      6  C2  UNL A   1      44.912  15.831   5.456  1.00  0.00    +0.000 C 
ATOM      5  C1  UNL A   1      44.557  14.514   5.750  1.00  0.00    +0.000 C 
ATOM      7  C3  UNL A   1      46.162  16.094   4.887  1.00  0.00    +0.000 C 
ATOM      8  C4  UNL A   1      47.056  15.057   4.598  1.00  0.00    +0.000 C 
ATOM     93  C64 UNL A   1      46.689  13.742   4.917  1.00  0.00    +0.000 C 
ATOM     94  C65 UNL A   1      45.440  13.465   5.482  1.00  0.00    +0.000 C 
BRANCH    5    2
ATOM      2  S1  UNL A   1      42.973  14.175   6.461  1.00  0.00    +0.000 S 
ATOM      3  O1  UNL A   1      43.135  13.876   7.862  1.00  0.00    +0.000 O 
ATOM      4  O2  UNL A   1      42.241  13.316   5.557  1.00  0.00    +0.000 O 
BRANCH    2    1
ATOM      1  N1  UNL A   1      42.214  15.674   6.411  1.00  0.00    +0.000 N 
ATOM     95  H1  UNL A   1      42.914  16.412   6.485  1.00  0.00    +0.000 H 
ATOM     96  H2  UNL A   1      41.557  15.749   7.187  1.00  0.00    +0.000 H 
ENDBRANCH    2    1
ENDBRANCH    5    2
ENDBRANCH    9    8
ENDBRANCH   10    9
ENDBRANCH   11   10
BRANCH   14   15
ATOM    102  H8  UNL A   1      54.715  14.570   1.709  1.00  0.00    +0.000 H 
ATOM     15  O3  UNL A   1      54.577  14.983   2.539  1.00  0.00    +0.000 O 
ENDBRANCH   14   15
ENDBRANCH   17   16
ENDBRANCH   19   17
ENDBRANCH   20   19
ENDBRANCH   21   20
ENDBRANCH   22   21
ENDBRANCH   23   22
ENDBRANCH   24   23
ENDBRANCH   25   24
ENDBRANCH   26   25
ENDBRANCH   27   26
ENDBRANCH   29   27
ENDBRANCH   33   32
BRANCH   37   38
ATOM     38  C27 UNL A   1      58.058  17.862  10.737  1.00  0.00    +0.000 C 
ATOM     39  C28 UNL A   1      58.871  18.418   9.738  1.00  0.00    +0.000 C 
ATOM     40  F1  UNL A   1      58.969  19.751   9.612  1.00  0.00    +0.000 F 
ATOM     41  C29 UNL A   1      59.553  17.608   8.833  1.00  0.00    +0.000 C 
ATOM     42  F2  UNL A   1      60.278  18.164   7.853  1.00  0.00    +0.000 F 
ATOM     43  C30 UNL A   1      59.469  16.227   8.935  1.00  0.00    +0.000 C 
ATOM     44  F3  UNL A   1      60.128  15.448   8.066  1.00  0.00    +0.000 F 
ATOM     45  C31 UNL A   1      58.693  15.654   9.931  1.00  0.00    +0.000 C 
ATOM     46  F4  UNL A   1      58.621  14.321  10.040  1.00  0.00    +0.000 F 
ATOM     47  C32 UNL A   1      57.985  16.463  10.818  1.00  0.00    +0.000 C 
ATOM     48  F5  UNL A   1      57.228  15.877  11.758  1.00  0.00    +0.000 F 
ENDBRANCH   37   38
BRANCH   54   55
ATOM     65  F10 UNL A   1      58.365  18.204  18.018  1.00  0.00    +0.000 F 
ATOM     55  C38 UNL A   1      58.979  20.421  17.410  1.00  0.00    +0.000 C 
ATOM     56  C39 UNL A   1      59.802  21.528  17.669  1.00  0.00    +0.000 C 
ATOM     57  F6  UNL A   1      59.707  22.630  16.911  1.00  0.00    +0.000 F 
ATOM     58  C40 UNL A   1      60.748  21.493  18.689  1.00  0.00    +0.000 C 
ATOM     59  F7  UNL A   1      61.551  22.548  18.892  1.00  0.00    +0.000 F 
ATOM     60  C41 UNL A   1      60.870  20.366  19.488  1.00  0.00    +0.000 C 
ATOM     61  F8  UNL A   1      61.773  20.340  20.478  1.00  0.00    +0.000 F 
ATOM     62  C42 UNL A   1      60.058  19.267  19.259  1.00  0.00    +0.000 C 
ATOM     63  F9  UNL A   1      60.164  18.182  20.040  1.00  0.00    +0.000 F 
ATOM     64  C43 UNL A   1      59.131  19.286  18.221  1.00  0.00    +0.000 C 
ENDBRANCH   54   55
BRANCH   69   70
ATOM     70  C47 UNL A   1      52.555  23.128  17.184  1.00  0.00    +0.000 C 
ATOM     71  C48 UNL A   1      52.611  24.523  17.296  1.00  0.00    +0.000 C 
ATOM     72  F11 UNL A   1      53.466  25.221  16.535  1.00  0.00    +0.000 F 
ATOM     73  C49 UNL A   1      51.808  25.204  18.210  1.00  0.00    +0.000 C 
ATOM     74  F12 UNL A   1      51.906  26.535  18.320  1.00  0.00    +0.000 F 
ATOM     75  C50 UNL A   1      50.918  24.505  19.010  1.00  0.00    +0.000 C 
ATOM     76  F13 UNL A   1      50.137  25.163  19.878  1.00  0.00    +0.000 F 
ATOM     77  C51 UNL A   1      50.837  23.124  18.909  1.00  0.00    +0.000 C 
ATOM     78  F14 UNL A   1      49.963  22.447  19.666  1.00  0.00    +0.000 F 
ATOM     79  C52 UNL A   1      51.658  22.440  18.016  1.00  0.00    +0.000 C 
ATOM     80  F15 UNL A   1      51.561  21.104  17.940  1.00  0.00    +0.000 F 
ENDBRANCH   69   70
TORSDOF 21
ENDMDL
MODEL 6
REMARK VINA RESULT:     -10.9     17.717     22.620
ROOT
ATOM     33  C23 UNL A   1      42.278  25.722  27.693  1.00  0.00    +0.000 C 
ATOM     34  C24 UNL A   1      43.615  26.153  27.163  1.00  0.00    +0.000 C 
ATOM     35  N5  UNL A   1      44.206  27.318  27.255  1.00  0.00    +0.000 N 
ATOM     36  C25 UNL A   1      45.441  27.165  26.639  1.00  0.00    +0.000 C 
ATOM     37  C26 UNL A   1      46.401  28.098  26.428  1.00  0.00    +0.000 C 
ATOM     49  C33 UNL A   1      46.287  29.479  26.819  1.00  0.00    +0.000 C 
ATOM     50  C34 UNL A   1      47.164  30.520  26.570  1.00  0.00    +0.000 C 
ATOM     51  C35 UNL A   1      46.672  31.667  27.204  1.00  0.00    +0.000 C 
ATOM     52  C36 UNL A   1      45.464  31.353  27.806  1.00  0.00    +0.000 C 
ATOM     53  N6  UNL A   1      45.235  30.010  27.552  1.00  0.00    +0.000 N 
ATOM     54  C37 UNL A   1      44.586  32.211  28.559  1.00  0.00    +0.000 C 
ATOM     66  C44 UNL A   1      43.380  31.841  29.059  1.00  0.00    +0.000 C 
ATOM     67  N7  UNL A   1      42.749  30.608  28.987  1.00  0.00    +0.000 N 
ATOM     68  C45 UNL A   1      41.618  30.744  29.636  1.00  0.00    +0.000 C 
ATOM     69  C46 UNL A   1      40.532  29.730  29.869  1.00  0.00    +0.000 C 
ATOM     81  C53 UNL A   1      40.662  28.493  29.351  1.00  0.00    +0.000 C 
ATOM     82  C54 UNL A   1      39.697  27.409  29.504  1.00  0.00    +0.000 C 
ATOM     83  C55 UNL A   1      40.192  26.300  28.932  1.00  0.00    +0.000 C 
ATOM     84  C56 UNL A   1      41.491  26.607  28.334  1.00  0.00    +0.000 C 
ATOM     85  N8  UNL A   1      41.677  27.940  28.609  1.00  0.00    +0.000 N 
ATOM     86  C57 UNL A   1      41.411  32.083  30.207  1.00  0.00    +0.000 C 
ATOM     87  C58 UNL A   1      42.499  32.720  29.799  1.00  0.00    +0.000 C 
ATOM     88  C59 UNL A   1      45.536  25.782  26.224  1.00  0.00    +0.000 C 
ATOM     89  C60 UNL A   1      44.408  25.130  26.466  1.00  0.00    +0.000 C 
ATOM    119  H25 UNL A   1      48.029  30.463  26.011  1.00  0.00    +0.000 H 
ATOM    120  H26 UNL A   1      47.133  32.590  27.222  1.00  0.00    +0.000 H 
ATOM    121  H27 UNL A   1      44.443  29.506  27.848  1.00  0.00    +0.000 H 
ATOM    122  H28 UNL A   1      38.782  27.483  29.975  1.00  0.00    +0.000 H 
ATOM    123  H29 UNL A   1      39.729  25.377  28.918  1.00  0.00    +0.000 H 
ATOM    124  H30 UNL A   1      42.462  28.450  28.303  1.00  0.00    +0.000 H 
ATOM    125  H31 UNL A   1      40.624  32.433  30.777  1.00  0.00    +0.000 H 
ATOM    126  H32 UNL A   1      42.692  33.717  29.985  1.00  0.00    +0.000 H 
ATOM    127  H33 UNL A   1      46.373  25.358  25.794  1.00  0.00    +0.000 H 
ATOM    128  H34 UNL A   1      44.153  24.159  26.227  1.00  0.00    +0.000 H 
ENDROOT
BRANCH   33   32
ATOM    129  H35 UNL A   1      40.893  24.542  25.728  1.00  0.00    +0.000 H 
ATOM    130  H36 UNL A   1      40.187  22.230  25.543  1.00  0.00    +0.000 H 
ATOM    117  H23 UNL A   1      42.123  21.343  29.171  1.00  0.00    +0.000 H 
ATOM    118  H24 UNL A   1      42.643  23.695  29.464  1.00  0.00    +0.000 H 
ATOM     90  C61 UNL A   1      41.143  23.867  26.468  1.00  0.00    +0.000 C 
ATOM     91  C62 UNL A   1      40.772  22.530  26.339  1.00  0.00    +0.000 C 
ATOM     29  C19 UNL A   1      41.192  21.597  27.291  1.00  0.00    +0.000 C 
ATOM     30  C20 UNL A   1      41.861  22.025  28.441  1.00  0.00    +0.000 C 
ATOM     31  C21 UNL A   1      42.175  23.376  28.603  1.00  0.00    +0.000 C 
ATOM     32  C22 UNL A   1      41.854  24.302  27.597  1.00  0.00    +0.000 C 
BRANCH   29   27
ATOM     27  C18 UNL A   1      40.932  20.150  27.117  1.00  0.00    +0.000 C 
ATOM     28  O5  UNL A   1      41.219  19.370  28.020  1.00  0.00    +0.000 O 
BRANCH   27   26
ATOM     26  N4  UNL A   1      40.399  19.676  25.944  1.00  0.00    +0.000 N 
ATOM    116  H22 UNL A   1      41.054  19.496  25.230  1.00  0.00    +0.000 H 
BRANCH   26   25
ATOM     25  C17 UNL A   1      39.016  19.398  25.595  1.00  0.00    +0.000 C 
ATOM    114  H20 UNL A   1      38.995  18.910  24.644  1.00  0.00    +0.000 H 
ATOM    115  H21 UNL A   1      38.608  18.783  26.370  1.00  0.00    +0.000 H 
BRANCH   25   24
ATOM    113  H19 UNL A   1      38.716  21.346  24.911  1.00  0.00    +0.000 H 
ATOM    112  H18 UNL A   1      37.980  20.997  26.513  1.00  0.00    +0.000 H 
ATOM     24  C16 UNL A   1      38.160  20.658  25.514  1.00  0.00    +0.000 C 
BRANCH   24   23
ATOM    111  H17 UNL A   1      36.267  19.791  25.405  1.00  0.00    +0.000 H 
ATOM    110  H16 UNL A   1      36.989  20.207  23.809  1.00  0.00    +0.000 H 
ATOM     23  C15 UNL A   1      36.805  20.507  24.820  1.00  0.00    +0.000 C 
BRANCH   23   22
ATOM    108  H14 UNL A   1      34.897  21.421  24.850  1.00  0.00    +0.000 H 
ATOM    109  H15 UNL A   1      36.242  22.357  25.597  1.00  0.00    +0.000 H 
ATOM     22  C14 UNL A   1      35.913  21.749  24.781  1.00  0.00    +0.000 C 
BRANCH   22   21
ATOM    106  H12 UNL A   1      36.902  23.248  23.665  1.00  0.00    +0.000 H 
ATOM    107  H13 UNL A   1      36.067  21.962  22.716  1.00  0.00    +0.000 H 
ATOM     21  C13 UNL A   1      36.030  22.639  23.544  1.00  0.00    +0.000 C 
BRANCH   21   20
ATOM    105  H11 UNL A   1      35.245  24.371  22.661  1.00  0.00    +0.000 H 
ATOM     20  C12 UNL A   1      34.858  23.565  23.250  1.00  0.00    +0.000 C 
ATOM    104  H10 UNL A   1      34.446  23.891  24.183  1.00  0.00    +0.000 H 
BRANCH   20   19
ATOM     19  N3  UNL A   1      33.792  22.957  22.471  1.00  0.00    +0.000 N 
ATOM    103  H9  UNL A   1      33.975  22.893  21.506  1.00  0.00    +0.000 H 
BRANCH   19   17
ATOM     17  C11 UNL A   1      32.569  22.457  22.858  1.00  0.00    +0.000 C 
ATOM     18  O4  UNL A   1      32.035  21.584  22.170  1.00  0.00    +0.000 O 
BRANCH   17   16
ATOM    131  H37 UNL A   1      31.382  24.814  23.561  1.00  0.00    +0.000 H 
ATOM    100  H6  UNL A   1      30.613  23.912  27.594  1.00  0.00    +0.000 H 
ATOM    101  H7  UNL A   1      31.142  21.577  27.150  1.00  0.00    +0.000 H 
ATOM     11  C6  UNL A   1      31.042  24.550  25.626  1.00  0.00    +0.000 C 
ATOM     12  C7  UNL A   1      30.932  23.619  26.658  1.00  0.00    +0.000 C 
ATOM     13  C8  UNL A   1      31.263  22.285  26.409  1.00  0.00    +0.000 C 
ATOM     14  C9  UNL A   1      31.756  21.909  25.157  1.00  0.00    +0.000 C 
ATOM     16  C10 UNL A   1      31.899  22.851  24.126  1.00  0.00    +0.000 C 
ATOM     92  C63 UNL A   1      31.435  24.148  24.346  1.00  0.00    +0.000 C 
BRANCH   11   10
ATOM     10  C5  UNL A   1      30.904  25.994  25.912  1.00  0.00    +0.000 C 
ATOM     99  H5  UNL A   1      30.290  26.315  26.678  1.00  0.00    +0.000 H 
BRANCH   10    9
ATOM      9  N2  UNL A   1      31.556  26.857  25.198  1.00  0.00    +0.000 N 
BRANCH    9    8
ATOM     97  H3  UNL A   1      30.574  31.181  24.350  1.00  0.00    +0.000 H 
ATOM     98  H4  UNL A   1      31.824  29.420  25.457  1.00  0.00    +0.000 H 
ATOM    132  H38 UNL A   1      29.662  26.522  23.319  1.00  0.00    +0.000 H 
ATOM    133  H39 UNL A   1      28.417  28.276  22.192  1.00  0.00    +0.000 H 
ATOM      6  C2  UNL A   1      30.383  30.192  24.126  1.00  0.00    +0.000 C 
ATOM      5  C1  UNL A   1      29.404  29.857  23.191  1.00  0.00    +0.000 C 
ATOM      7  C3  UNL A   1      31.105  29.174  24.759  1.00  0.00    +0.000 C 
ATOM      8  C4  UNL A   1      30.867  27.828  24.460  1.00  0.00    +0.000 C 
ATOM     93  C64 UNL A   1      29.867  27.510  23.531  1.00  0.00    +0.000 C 
ATOM     94  C65 UNL A   1      29.141  28.518  22.887  1.00  0.00    +0.000 C 
BRANCH    5    2
ATOM      2  S1  UNL A   1      28.495  31.140  22.380  1.00  0.00    +0.000 S 
ATOM      3  O1  UNL A   1      27.800  30.586  21.245  1.00  0.00    +0.000 O 
ATOM      4  O2  UNL A   1      29.340  32.309  22.286  1.00  0.00    +0.000 O 
BRANCH    2    1
ATOM      1  N1  UNL A   1      27.296  31.510  23.499  1.00  0.00    +0.000 N 
ATOM     95  H1  UNL A   1      26.380  31.364  23.076  1.00  0.00    +0.000 H 
ATOM     96  H2  UNL A   1      27.388  32.484  23.786  1.00  0.00    +0.000 H 
ENDBRANCH    2    1
ENDBRANCH    5    2
ENDBRANCH    9    8
ENDBRANCH   10    9
ENDBRANCH   11   10
BRANCH   14   15
ATOM    102  H8  UNL A   1      32.645  20.178  25.657  1.00  0.00    +0.000 H 
ATOM     15  O3  UNL A   1      32.102  20.591  25.015  1.00  0.00    +0.000 O 
ENDBRANCH   14   15
ENDBRANCH   17   16
ENDBRANCH   19   17
ENDBRANCH   20   19
ENDBRANCH   21   20
ENDBRANCH   22   21
ENDBRANCH   23   22
ENDBRANCH   24   23
ENDBRANCH   25   24
ENDBRANCH   26   25
ENDBRANCH   27   26
ENDBRANCH   29   27
ENDBRANCH   33   32
BRANCH   37   38
ATOM     38  C27 UNL A   1      47.665  27.653  25.751  1.00  0.00    +0.000 C 
ATOM     39  C28 UNL A   1      48.803  27.276  26.479  1.00  0.00    +0.000 C 
ATOM     40  F1  UNL A   1      48.800  27.342  27.819  1.00  0.00    +0.000 F 
ATOM     41  C29 UNL A   1      49.968  26.870  25.831  1.00  0.00    +0.000 C 
ATOM     42  F2  UNL A   1      51.060  26.568  26.546  1.00  0.00    +0.000 F 
ATOM     43  C30 UNL A   1      50.005  26.795  24.447  1.00  0.00    +0.000 C 
ATOM     44  F3  UNL A   1      51.124  26.402  23.824  1.00  0.00    +0.000 F 
ATOM     45  C31 UNL A   1      48.883  27.138  23.707  1.00  0.00    +0.000 C 
ATOM     46  F4  UNL A   1      48.911  27.053  22.370  1.00  0.00    +0.000 F 
ATOM     47  C32 UNL A   1      47.727  27.574  24.351  1.00  0.00    +0.000 C 
ATOM     48  F5  UNL A   1      46.666  27.916  23.605  1.00  0.00    +0.000 F 
ENDBRANCH   37   38
BRANCH   54   55
ATOM     65  F10 UNL A   1      43.896  34.381  26.848  1.00  0.00    +0.000 F 
ATOM     55  C38 UNL A   1      45.027  33.625  28.801  1.00  0.00    +0.000 C 
ATOM     56  C39 UNL A   1      45.844  33.958  29.891  1.00  0.00    +0.000 C 
ATOM     57  F6  UNL A   1      46.197  33.018  30.781  1.00  0.00    +0.000 F 
ATOM     58  C40 UNL A   1      46.277  35.266  30.088  1.00  0.00    +0.000 C 
ATOM     59  F7  UNL A   1      47.025  35.569  31.159  1.00  0.00    +0.000 F 
ATOM     60  C41 UNL A   1      45.928  36.259  29.185  1.00  0.00    +0.000 C 
ATOM     61  F8  UNL A   1      46.356  37.515  29.369  1.00  0.00    +0.000 F 
ATOM     62  C42 UNL A   1      45.131  35.949  28.093  1.00  0.00    +0.000 C 
ATOM     63  F9  UNL A   1      44.804  36.904  27.211  1.00  0.00    +0.000 F 
ATOM     64  C43 UNL A   1      44.672  34.648  27.909  1.00  0.00    +0.000 C 
ENDBRANCH   54   55
BRANCH   69   70
ATOM     70  C47 UNL A   1      39.321  30.070  30.661  1.00  0.00    +0.000 C 
ATOM     71  C48 UNL A   1      38.189  30.621  30.046  1.00  0.00    +0.000 C 
ATOM     72  F11 UNL A   1      38.203  30.885  28.731  1.00  0.00    +0.000 F 
ATOM     73  C49 UNL A   1      37.048  30.929  30.784  1.00  0.00    +0.000 C 
ATOM     74  F12 UNL A   1      35.991  31.485  30.177  1.00  0.00    +0.000 F 
ATOM     75  C50 UNL A   1      37.008  30.668  32.145  1.00  0.00    +0.000 C 
ATOM     76  F13 UNL A   1      35.905  30.952  32.852  1.00  0.00    +0.000 F 
ATOM     77  C51 UNL A   1      38.113  30.114  32.774  1.00  0.00    +0.000 C 
ATOM     78  F14 UNL A   1      38.071  29.842  34.085  1.00  0.00    +0.000 F 
ATOM     79  C52 UNL A   1      39.264  29.832  32.042  1.00  0.00    +0.000 C 
ATOM     80  F15 UNL A   1      40.319  29.297  32.675  1.00  0.00    +0.000 F 
ENDBRANCH   69   70
TORSDOF 21
ENDMDL
MODEL 7
REMARK VINA RESULT:     -10.8     33.738     40.449
ROOT
ATOM     33  C23 UNL A   1      46.287  10.801  47.800  1.00  0.00    +0.000 C 
ATOM     34  C24 UNL A   1      47.428  11.762  47.970  1.00  0.00    +0.000 C 
ATOM     35  N5  UNL A   1      48.334  11.814  48.915  1.00  0.00    +0.000 N 
ATOM     36  C25 UNL A   1      49.180  12.859  48.569  1.00  0.00    +0.000 C 
ATOM     37  C26 UNL A   1      50.243  13.347  49.254  1.00  0.00    +0.000 C 
ATOM     49  C33 UNL A   1      50.686  12.842  50.527  1.00  0.00    +0.000 C 
ATOM     50  C34 UNL A   1      51.694  13.325  51.343  1.00  0.00    +0.000 C 
ATOM     51  C35 UNL A   1      51.814  12.470  52.444  1.00  0.00    +0.000 C 
ATOM     52  C36 UNL A   1      50.847  11.483  52.341  1.00  0.00    +0.000 C 
ATOM     53  N6  UNL A   1      50.156  11.729  51.165  1.00  0.00    +0.000 N 
ATOM     54  C37 UNL A   1      50.576  10.393  53.243  1.00  0.00    +0.000 C 
ATOM     66  C44 UNL A   1      49.560   9.504  53.104  1.00  0.00    +0.000 C 
ATOM     67  N7  UNL A   1      48.604   9.424  52.101  1.00  0.00    +0.000 N 
ATOM     68  C45 UNL A   1      47.857   8.389  52.399  1.00  0.00    +0.000 C 
ATOM     69  C46 UNL A   1      46.665   7.839  51.664  1.00  0.00    +0.000 C 
ATOM     81  C53 UNL A   1      46.237   8.457  50.547  1.00  0.00    +0.000 C 
ATOM     82  C54 UNL A   1      45.104   8.033  49.730  1.00  0.00    +0.000 C 
ATOM     83  C55 UNL A   1      45.020   8.828  48.652  1.00  0.00    +0.000 C 
ATOM     84  C56 UNL A   1      46.067   9.847  48.725  1.00  0.00    +0.000 C 
ATOM     85  N8  UNL A   1      46.724   9.566  49.898  1.00  0.00    +0.000 N 
ATOM     86  C57 UNL A   1      48.266   7.685  53.623  1.00  0.00    +0.000 C 
ATOM     87  C58 UNL A   1      49.287   8.425  54.030  1.00  0.00    +0.000 C 
ATOM     88  C59 UNL A   1      48.711  13.380  47.302  1.00  0.00    +0.000 C 
ATOM     89  C60 UNL A   1      47.593  12.780  46.922  1.00  0.00    +0.000 C 
ATOM    119  H25 UNL A   1      52.259  14.171  51.170  1.00  0.00    +0.000 H 
ATOM    120  H26 UNL A   1      52.506  12.559  53.204  1.00  0.00    +0.000 H 
ATOM    121  H27 UNL A   1      49.399  11.195  50.831  1.00  0.00    +0.000 H 
ATOM    122  H28 UNL A   1      44.470   7.247  49.946  1.00  0.00    +0.000 H 
ATOM    123  H29 UNL A   1      44.327   8.735  47.892  1.00  0.00    +0.000 H 
ATOM    124  H30 UNL A   1      47.472  10.106  50.241  1.00  0.00    +0.000 H 
ATOM    125  H31 UNL A   1      47.863   6.837  54.052  1.00  0.00    +0.000 H 
ATOM    126  H32 UNL A   1      49.820   8.253  54.897  1.00  0.00    +0.000 H 
ATOM    127  H33 UNL A   1      49.186  14.124  46.766  1.00  0.00    +0.000 H 
ATOM    128  H34 UNL A   1      46.994  12.976  46.104  1.00  0.00    +0.000 H 
ENDROOT
BRANCH   33   32
ATOM    129  H35 UNL A   1      46.884   9.848  45.369  1.00  0.00    +0.000 H 
ATOM    130  H36 UNL A   1      45.543   9.889  43.350  1.00  0.00    +0.000 H 
ATOM    117  H23 UNL A   1      42.407  11.729  45.463  1.00  0.00    +0.000 H 
ATOM    118  H24 UNL A   1      43.825  11.884  47.426  1.00  0.00    +0.000 H 
ATOM     90  C61 UNL A   1      45.939  10.261  45.388  1.00  0.00    +0.000 C 
ATOM     91  C62 UNL A   1      45.154  10.246  44.236  1.00  0.00    +0.000 C 
ATOM     29  C19 UNL A   1      43.839  10.717  44.285  1.00  0.00    +0.000 C 
ATOM     30  C20 UNL A   1      43.359  11.331  45.445  1.00  0.00    +0.000 C 
ATOM     31  C21 UNL A   1      44.170  11.406  46.580  1.00  0.00    +0.000 C 
ATOM     32  C22 UNL A   1      45.452  10.835  46.572  1.00  0.00    +0.000 C 
BRANCH   29   27
ATOM     27  C18 UNL A   1      42.934  10.594  43.120  1.00  0.00    +0.000 C 
ATOM     28  O5  UNL A   1      42.563   9.482  42.756  1.00  0.00    +0.000 O 
BRANCH   27   26
ATOM     26  N4  UNL A   1      42.534  11.711  42.430  1.00  0.00    +0.000 N 
ATOM    116  H22 UNL A   1      43.157  12.016  41.730  1.00  0.00    +0.000 H 
BRANCH   26   25
ATOM     25  C17 UNL A   1      41.330  12.513  42.575  1.00  0.00    +0.000 C 
ATOM    114  H20 UNL A   1      40.539  12.041  42.032  1.00  0.00    +0.000 H 
ATOM    115  H21 UNL A   1      41.113  12.578  43.621  1.00  0.00    +0.000 H 
BRANCH   25   24
ATOM    113  H19 UNL A   1      42.281  14.368  42.641  1.00  0.00    +0.000 H 
ATOM    112  H18 UNL A   1      40.555  14.432  42.146  1.00  0.00    +0.000 H 
ATOM     24  C16 UNL A   1      41.498  13.935  42.053  1.00  0.00    +0.000 C 
BRANCH   24   23
ATOM    111  H17 UNL A   1      41.094  13.832  40.009  1.00  0.00    +0.000 H 
ATOM    110  H16 UNL A   1      42.785  13.408  40.457  1.00  0.00    +0.000 H 
ATOM     23  C15 UNL A   1      41.955  14.068  40.599  1.00  0.00    +0.000 C 
BRANCH   23   22
ATOM    108  H14 UNL A   1      41.600  15.864  39.537  1.00  0.00    +0.000 H 
ATOM    109  H15 UNL A   1      42.579  16.007  41.042  1.00  0.00    +0.000 H 
ATOM     22  C14 UNL A   1      42.387  15.463  40.141  1.00  0.00    +0.000 C 
BRANCH   22   21
ATOM    106  H12 UNL A   1      44.252  14.669  39.544  1.00  0.00    +0.000 H 
ATOM    107  H13 UNL A   1      43.369  15.651  38.316  1.00  0.00    +0.000 H 
ATOM     21  C13 UNL A   1      43.682  15.550  39.335  1.00  0.00    +0.000 C 
BRANCH   21   20
ATOM    105  H11 UNL A   1      44.498  17.388  38.741  1.00  0.00    +0.000 H 
ATOM     20  C12 UNL A   1      44.577  16.753  39.600  1.00  0.00    +0.000 C 
ATOM    104  H10 UNL A   1      45.573  16.399  39.766  1.00  0.00    +0.000 H 
BRANCH   20   19
ATOM     19  N3  UNL A   1      44.182  17.555  40.746  1.00  0.00    +0.000 N 
ATOM    103  H9  UNL A   1      43.387  18.117  40.599  1.00  0.00    +0.000 H 
BRANCH   19   17
ATOM     17  C11 UNL A   1      44.736  17.661  42.002  1.00  0.00    +0.000 C 
ATOM     18  O4  UNL A   1      45.025  18.778  42.436  1.00  0.00    +0.000 O 
BRANCH   17   16
ATOM    131  H37 UNL A   1      42.949  16.421  43.654  1.00  0.00    +0.000 H 
ATOM    100  H6  UNL A   1      45.621  13.783  45.546  1.00  0.00    +0.000 H 
ATOM    101  H7  UNL A   1      47.305  14.324  43.872  1.00  0.00    +0.000 H 
ATOM     11  C6  UNL A   1      44.188  15.128  44.770  1.00  0.00    +0.000 C 
ATOM     12  C7  UNL A   1      45.427  14.490  44.820  1.00  0.00    +0.000 C 
ATOM     13  C8  UNL A   1      46.402  14.822  43.876  1.00  0.00    +0.000 C 
ATOM     14  C9  UNL A   1      46.152  15.827  42.938  1.00  0.00    +0.000 C 
ATOM     16  C10 UNL A   1      44.918  16.494  42.906  1.00  0.00    +0.000 C 
ATOM     92  C63 UNL A   1      43.908  16.057  43.763  1.00  0.00    +0.000 C 
BRANCH   11   10
ATOM     10  C5  UNL A   1      43.219  14.955  45.874  1.00  0.00    +0.000 C 
ATOM     99  H5  UNL A   1      42.330  14.457  45.709  1.00  0.00    +0.000 H 
BRANCH   10    9
ATOM      9  N2  UNL A   1      43.489  15.430  47.048  1.00  0.00    +0.000 N 
BRANCH    9    8
ATOM     97  H3  UNL A   1      41.800  12.701  50.223  1.00  0.00    +0.000 H 
ATOM     98  H4  UNL A   1      41.620  14.095  48.245  1.00  0.00    +0.000 H 
ATOM    132  H38 UNL A   1      45.749  14.852  48.385  1.00  0.00    +0.000 H 
ATOM    133  H39 UNL A   1      45.945  13.445  50.355  1.00  0.00    +0.000 H 
ATOM      6  C2  UNL A   1      42.640  13.153  49.830  1.00  0.00    +0.000 C 
ATOM      5  C1  UNL A   1      43.886  12.972  50.434  1.00  0.00    +0.000 C 
ATOM      7  C3  UNL A   1      42.542  13.953  48.687  1.00  0.00    +0.000 C 
ATOM      8  C4  UNL A   1      43.672  14.565  48.135  1.00  0.00    +0.000 C 
ATOM     93  C64 UNL A   1      44.911  14.386  48.766  1.00  0.00    +0.000 C 
ATOM     94  C65 UNL A   1      45.025  13.584  49.906  1.00  0.00    +0.000 C 
BRANCH    5    2
ATOM      2  S1  UNL A   1      44.018  11.952  51.873  1.00  0.00    +0.000 S 
ATOM      3  O1  UNL A   1      43.695  10.592  51.524  1.00  0.00    +0.000 O 
ATOM      4  O2  UNL A   1      43.398  12.644  52.982  1.00  0.00    +0.000 O 
BRANCH    2    1
ATOM      1  N1  UNL A   1      45.671  11.953  52.179  1.00  0.00    +0.000 N 
ATOM     95  H1  UNL A   1      45.846  11.568  53.106  1.00  0.00    +0.000 H 
ATOM     96  H2  UNL A   1      46.024  12.909  52.135  1.00  0.00    +0.000 H 
ENDBRANCH    2    1
ENDBRANCH    5    2
ENDBRANCH    9    8
ENDBRANCH   10    9
ENDBRANCH   11   10
BRANCH   14   15
ATOM    102  H8  UNL A   1      47.464  17.009  41.978  1.00  0.00    +0.000 H 
ATOM     15  O3  UNL A   1      47.181  16.122  42.082  1.00  0.00    +0.000 O 
ENDBRANCH   14   15
ENDBRANCH   17   16
ENDBRANCH   19   17
ENDBRANCH   20   19
ENDBRANCH   21   20
ENDBRANCH   22   21
ENDBRANCH   23   22
ENDBRANCH   24   23
ENDBRANCH   25   24
ENDBRANCH   26   25
ENDBRANCH   27   26
ENDBRANCH   29   27
ENDBRANCH   33   32
BRANCH   37   38
ATOM     38  C27 UNL A   1      51.008  14.481  48.634  1.00  0.00    +0.000 C 
ATOM     39  C28 UNL A   1      52.100  14.261  47.783  1.00  0.00    +0.000 C 
ATOM     40  F1  UNL A   1      52.517  13.011  47.528  1.00  0.00    +0.000 F 
ATOM     41  C29 UNL A   1      52.799  15.328  47.222  1.00  0.00    +0.000 C 
ATOM     42  F2  UNL A   1      53.874  15.094  46.456  1.00  0.00    +0.000 F 
ATOM     43  C30 UNL A   1      52.395  16.632  47.468  1.00  0.00    +0.000 C 
ATOM     44  F3  UNL A   1      53.066  17.657  46.925  1.00  0.00    +0.000 F 
ATOM     45  C31 UNL A   1      51.302  16.873  48.286  1.00  0.00    +0.000 C 
ATOM     46  F4  UNL A   1      50.901  18.130  48.515  1.00  0.00    +0.000 F 
ATOM     47  C32 UNL A   1      50.620  15.809  48.873  1.00  0.00    +0.000 C 
ATOM     48  F5  UNL A   1      49.578  16.077  49.675  1.00  0.00    +0.000 F 
ENDBRANCH   37   38
BRANCH   54   55
ATOM     65  F10 UNL A   1      50.048  11.589  55.774  1.00  0.00    +0.000 F 
ATOM     55  C38 UNL A   1      51.473  10.231  54.435  1.00  0.00    +0.000 C 
ATOM     56  C39 UNL A   1      52.661   9.490  54.359  1.00  0.00    +0.000 C 
ATOM     57  F6  UNL A   1      52.987   8.853  53.224  1.00  0.00    +0.000 F 
ATOM     58  C40 UNL A   1      53.505   9.375  55.461  1.00  0.00    +0.000 C 
ATOM     59  F7  UNL A   1      54.615   8.628  55.376  1.00  0.00    +0.000 F 
ATOM     60  C41 UNL A   1      53.194  10.022  56.647  1.00  0.00    +0.000 C 
ATOM     61  F8  UNL A   1      54.014   9.920  57.702  1.00  0.00    +0.000 F 
ATOM     62  C42 UNL A   1      52.031  10.771  56.740  1.00  0.00    +0.000 C 
ATOM     63  F9  UNL A   1      51.735  11.409  57.882  1.00  0.00    +0.000 F 
ATOM     64  C43 UNL A   1      51.170  10.864  55.651  1.00  0.00    +0.000 C 
ENDBRANCH   54   55
BRANCH   69   70
ATOM     70  C47 UNL A   1      45.956   6.627  52.151  1.00  0.00    +0.000 C 
ATOM     71  C48 UNL A   1      46.300   5.352  51.683  1.00  0.00    +0.000 C 
ATOM     72  F11 UNL A   1      47.257   5.218  50.752  1.00  0.00    +0.000 F 
ATOM     73  C49 UNL A   1      45.645   4.214  52.148  1.00  0.00    +0.000 C 
ATOM     74  F12 UNL A   1      45.972   3.010  51.659  1.00  0.00    +0.000 F 
ATOM     75  C50 UNL A   1      44.652   4.326  53.108  1.00  0.00    +0.000 C 
ATOM     76  F13 UNL A   1      44.032   3.229  53.564  1.00  0.00    +0.000 F 
ATOM     77  C51 UNL A   1      44.300   5.577  53.594  1.00  0.00    +0.000 C 
ATOM     78  F14 UNL A   1      43.354   5.687  54.537  1.00  0.00    +0.000 F 
ATOM     79  C52 UNL A   1      44.936   6.717  53.110  1.00  0.00    +0.000 C 
ATOM     80  F15 UNL A   1      44.575   7.915  53.596  1.00  0.00    +0.000 F 
ENDBRANCH   69   70
TORSDOF 21
ENDMDL
MODEL 8
REMARK VINA RESULT:     -10.8     46.096     50.951
ROOT
ATOM     33  C23 UNL A   1      13.705  53.528   5.733  1.00  0.00    +0.000 C 
ATOM     34  C24 UNL A   1      14.644  54.057   4.687  1.00  0.00    +0.000 C 
ATOM     35  N5  UNL A   1      15.174  53.439   3.661  1.00  0.00    +0.000 N 
ATOM     36  C25 UNL A   1      15.924  54.396   2.991  1.00  0.00    +0.000 C 
ATOM     37  C26 UNL A   1      16.706  54.240   1.895  1.00  0.00    +0.000 C 
ATOM     49  C33 UNL A   1      16.907  52.986   1.216  1.00  0.00    +0.000 C 
ATOM     50  C34 UNL A   1      17.749  52.706   0.154  1.00  0.00    +0.000 C 
ATOM     51  C35 UNL A   1      17.555  51.371  -0.218  1.00  0.00    +0.000 C 
ATOM     52  C36 UNL A   1      16.630  50.804   0.644  1.00  0.00    +0.000 C 
ATOM     53  N6  UNL A   1      16.248  51.804   1.525  1.00  0.00    +0.000 N 
ATOM     54  C37 UNL A   1      16.126  49.455   0.661  1.00  0.00    +0.000 C 
ATOM     66  C44 UNL A   1      15.268  48.958   1.587  1.00  0.00    +0.000 C 
ATOM     67  N7  UNL A   1      14.684  49.603   2.668  1.00  0.00    +0.000 N 
ATOM     68  C45 UNL A   1      13.920  48.710   3.249  1.00  0.00    +0.000 C 
ATOM     69  C46 UNL A   1      13.057  48.856   4.473  1.00  0.00    +0.000 C 
ATOM     81  C53 UNL A   1      13.032  50.033   5.126  1.00  0.00    +0.000 C 
ATOM     82  C54 UNL A   1      12.238  50.320   6.317  1.00  0.00    +0.000 C 
ATOM     83  C55 UNL A   1      12.393  51.613   6.644  1.00  0.00    +0.000 C 
ATOM     84  C56 UNL A   1      13.332  52.235   5.711  1.00  0.00    +0.000 C 
ATOM     85  N8  UNL A   1      13.681  51.214   4.860  1.00  0.00    +0.000 N 
ATOM     86  C57 UNL A   1      13.923  47.396   2.591  1.00  0.00    +0.000 C 
ATOM     87  C58 UNL A   1      14.785  47.593   1.604  1.00  0.00    +0.000 C 
ATOM     88  C59 UNL A   1      15.740  55.646   3.695  1.00  0.00    +0.000 C 
ATOM     89  C60 UNL A   1      15.010  55.478   4.788  1.00  0.00    +0.000 C 
ATOM    119  H25 UNL A   1      18.408  53.366  -0.286  1.00  0.00    +0.000 H 
ATOM    120  H26 UNL A   1      18.021  50.890  -1.003  1.00  0.00    +0.000 H 
ATOM    121  H27 UNL A   1      15.606  51.693   2.263  1.00  0.00    +0.000 H 
ATOM    122  H28 UNL A   1      11.652  49.639   6.825  1.00  0.00    +0.000 H 
ATOM    123  H29 UNL A   1      11.923  52.091   7.428  1.00  0.00    +0.000 H 
ATOM    124  H30 UNL A   1      14.334  51.319   4.130  1.00  0.00    +0.000 H 
ATOM    125  H31 UNL A   1      13.393  46.545   2.834  1.00  0.00    +0.000 H 
ATOM    126  H32 UNL A   1      15.075  46.865   0.932  1.00  0.00    +0.000 H 
ATOM    127  H33 UNL A   1      16.128  56.552   3.387  1.00  0.00    +0.000 H 
ATOM    128  H34 UNL A   1      14.764  56.163   5.520  1.00  0.00    +0.000 H 
ENDROOT
BRANCH   33   32
ATOM    129  H35 UNL A   1      14.609  54.091   8.190  1.00  0.00    +0.000 H 
ATOM    130  H36 UNL A   1      13.662  55.578   9.854  1.00  0.00    +0.000 H 
ATOM    117  H23 UNL A   1      10.600  56.639   7.173  1.00  0.00    +0.000 H 
ATOM    118  H24 UNL A   1      11.422  54.993   5.589  1.00  0.00    +0.000 H 
ATOM     90  C61 UNL A   1      13.749  54.620   7.977  1.00  0.00    +0.000 C 
ATOM     91  C62 UNL A   1      13.230  55.506   8.920  1.00  0.00    +0.000 C 
ATOM     29  C19 UNL A   1      12.122  56.295   8.597  1.00  0.00    +0.000 C 
ATOM     30  C20 UNL A   1      11.451  56.095   7.387  1.00  0.00    +0.000 C 
ATOM     31  C21 UNL A   1      11.933  55.160   6.469  1.00  0.00    +0.000 C 
ATOM     32  C22 UNL A   1      13.110  54.444   6.740  1.00  0.00    +0.000 C 
BRANCH   29   27
ATOM     27  C18 UNL A   1      11.626  57.340   9.521  1.00  0.00    +0.000 C 
ATOM     28  O5  UNL A   1      12.053  58.486   9.424  1.00  0.00    +0.000 O 
BRANCH   27   26
ATOM     26  N4  UNL A   1      10.715  57.026  10.499  1.00  0.00    +0.000 N 
ATOM    116  H22 UNL A   1       9.772  57.047  10.214  1.00  0.00    +0.000 H 
BRANCH   26   25
ATOM     25  C17 UNL A   1      10.930  56.667  11.891  1.00  0.00    +0.000 C 
ATOM    114  H20 UNL A   1      11.706  57.288  12.287  1.00  0.00    +0.000 H 
ATOM    115  H21 UNL A   1      10.003  56.810  12.405  1.00  0.00    +0.000 H 
BRANCH   25   24
ATOM    113  H19 UNL A   1      11.899  54.954  11.197  1.00  0.00    +0.000 H 
ATOM    112  H18 UNL A   1      10.441  54.634  12.197  1.00  0.00    +0.000 H 
ATOM     24  C16 UNL A   1      11.335  55.208  12.071  1.00  0.00    +0.000 C 
BRANCH   24   23
ATOM    111  H17 UNL A   1      11.674  54.302  13.919  1.00  0.00    +0.000 H 
ATOM    110  H16 UNL A   1      12.571  55.843  13.668  1.00  0.00    +0.000 H 
ATOM     23  C15 UNL A   1      12.256  54.907  13.255  1.00  0.00    +0.000 C 
BRANCH   23   22
ATOM    108  H14 UNL A   1      13.790  54.279  11.940  1.00  0.00    +0.000 H 
ATOM    109  H15 UNL A   1      14.232  54.396  13.682  1.00  0.00    +0.000 H 
ATOM     22  C14 UNL A   1      13.511  54.086  12.955  1.00  0.00    +0.000 C 
BRANCH   22   21
ATOM    106  H12 UNL A   1      12.690  52.386  13.906  1.00  0.00    +0.000 H 
ATOM    107  H13 UNL A   1      13.106  52.205  12.161  1.00  0.00    +0.000 H 
ATOM     21  C13 UNL A   1      13.396  52.572  13.123  1.00  0.00    +0.000 C 
BRANCH   21   20
ATOM    105  H11 UNL A   1      14.374  50.871  13.864  1.00  0.00    +0.000 H 
ATOM     20  C12 UNL A   1      14.674  51.819  13.468  1.00  0.00    +0.000 C 
ATOM    104  H10 UNL A   1      15.230  52.407  14.169  1.00  0.00    +0.000 H 
BRANCH   20   19
ATOM     19  N3  UNL A   1      15.533  51.539  12.329  1.00  0.00    +0.000 N 
ATOM    103  H9  UNL A   1      16.489  51.451  12.547  1.00  0.00    +0.000 H 
BRANCH   19   17
ATOM     17  C11 UNL A   1      15.231  51.378  10.995  1.00  0.00    +0.000 C 
ATOM     18  O4  UNL A   1      15.249  52.363  10.254  1.00  0.00    +0.000 O 
BRANCH   17   16
ATOM    131  H37 UNL A   1      12.938  50.343   9.931  1.00  0.00    +0.000 H 
ATOM    100  H6  UNL A   1      14.317  46.431   9.242  1.00  0.00    +0.000 H 
ATOM    101  H7  UNL A   1      16.595  47.185   9.657  1.00  0.00    +0.000 H 
ATOM     11  C6  UNL A   1      13.450  48.316   9.640  1.00  0.00    +0.000 C 
ATOM     12  C7  UNL A   1      14.500  47.407   9.521  1.00  0.00    +0.000 C 
ATOM     13  C8  UNL A   1      15.803  47.834   9.787  1.00  0.00    +0.000 C 
ATOM     14  C9  UNL A   1      16.035  49.139  10.227  1.00  0.00    +0.000 C 
ATOM     16  C10 UNL A   1      14.976  50.048  10.379  1.00  0.00    +0.000 C 
ATOM     92  C63 UNL A   1      13.701  49.650   9.978  1.00  0.00    +0.000 C 
BRANCH   11   10
ATOM     10  C5  UNL A   1      12.050  47.846   9.573  1.00  0.00    +0.000 C 
ATOM     99  H5  UNL A   1      11.316  48.460   9.186  1.00  0.00    +0.000 H 
BRANCH   10    9
ATOM      9  N2  UNL A   1      11.747  46.662  10.000  1.00  0.00    +0.000 N 
BRANCH    9    8
ATOM     97  H3  UNL A   1       9.469  47.564  13.792  1.00  0.00    +0.000 H 
ATOM     98  H4  UNL A   1       9.864  47.752  11.405  1.00  0.00    +0.000 H 
ATOM    132  H38 UNL A   1      13.138  45.140  11.727  1.00  0.00    +0.000 H 
ATOM    133  H39 UNL A   1      12.741  44.931  14.113  1.00  0.00    +0.000 H 
ATOM      6  C2  UNL A   1      10.245  47.045  13.353  1.00  0.00    +0.000 C 
ATOM      5  C1  UNL A   1      11.077  46.235  14.127  1.00  0.00    +0.000 C 
ATOM      7  C3  UNL A   1      10.473  47.146  11.977  1.00  0.00    +0.000 C 
ATOM      8  C4  UNL A   1      11.514  46.441  11.364  1.00  0.00    +0.000 C 
ATOM     93  C64 UNL A   1      12.350  45.646  12.160  1.00  0.00    +0.000 C 
ATOM     94  C65 UNL A   1      12.130  45.532  13.537  1.00  0.00    +0.000 C 
BRANCH    5    2
ATOM      2  S1  UNL A   1      10.787  46.095  15.866  1.00  0.00    +0.000 S 
ATOM      3  O1  UNL A   1       9.844  47.106  16.274  1.00  0.00    +0.000 O 
ATOM      4  O2  UNL A   1      12.058  45.898  16.527  1.00  0.00    +0.000 O 
BRANCH    2    1
ATOM      1  N1  UNL A   1       9.959  44.637  15.989  1.00  0.00    +0.000 N 
ATOM     95  H1  UNL A   1      10.563  43.938  16.420  1.00  0.00    +0.000 H 
ATOM     96  H2  UNL A   1       9.685  44.323  15.058  1.00  0.00    +0.000 H 
ENDBRANCH    2    1
ENDBRANCH    5    2
ENDBRANCH    9    8
ENDBRANCH   10    9
ENDBRANCH   11   10
BRANCH   14   15
ATOM    102  H8  UNL A   1      17.532  50.224  11.015  1.00  0.00    +0.000 H 
ATOM     15  O3  UNL A   1      17.337  49.459  10.512  1.00  0.00    +0.000 O 
ENDBRANCH   14   15
ENDBRANCH   17   16
ENDBRANCH   19   17
ENDBRANCH   20   19
ENDBRANCH   21   20
ENDBRANCH   22   21
ENDBRANCH   23   22
ENDBRANCH   24   23
ENDBRANCH   25   24
ENDBRANCH   26   25
ENDBRANCH   27   26
ENDBRANCH   29   27
ENDBRANCH   33   32
BRANCH   37   38
ATOM     38  C27 UNL A   1      17.397  55.458   1.355  1.00  0.00    +0.000 C 
ATOM     39  C28 UNL A   1      16.745  56.365   0.506  1.00  0.00    +0.000 C 
ATOM     40  F1  UNL A   1      15.480  56.139   0.120  1.00  0.00    +0.000 F 
ATOM     41  C29 UNL A   1      17.406  57.488   0.012  1.00  0.00    +0.000 C 
ATOM     42  F2  UNL A   1      16.780  58.310  -0.842  1.00  0.00    +0.000 F 
ATOM     43  C30 UNL A   1      18.715  57.748   0.389  1.00  0.00    +0.000 C 
ATOM     44  F3  UNL A   1      19.349  58.830  -0.084  1.00  0.00    +0.000 F 
ATOM     45  C31 UNL A   1      19.371  56.879   1.248  1.00  0.00    +0.000 C 
ATOM     46  F4  UNL A   1      20.631  57.135   1.625  1.00  0.00    +0.000 F 
ATOM     47  C32 UNL A   1      18.723  55.739   1.719  1.00  0.00    +0.000 C 
ATOM     48  F5  UNL A   1      19.392  54.909   2.533  1.00  0.00    +0.000 F 
ENDBRANCH   37   38
BRANCH   54   55
ATOM     65  F10 UNL A   1      14.556  48.782  -1.618  1.00  0.00    +0.000 F 
ATOM     55  C38 UNL A   1      16.594  48.520  -0.416  1.00  0.00    +0.000 C 
ATOM     56  C39 UNL A   1      17.845  47.889  -0.342  1.00  0.00    +0.000 C 
ATOM     57  F6  UNL A   1      18.680  48.165   0.671  1.00  0.00    +0.000 F 
ATOM     58  C40 UNL A   1      18.255  46.997  -1.328  1.00  0.00    +0.000 C 
ATOM     59  F7  UNL A   1      19.472  46.437  -1.258  1.00  0.00    +0.000 F 
ATOM     60  C41 UNL A   1      17.413  46.693  -2.388  1.00  0.00    +0.000 C 
ATOM     61  F8  UNL A   1      17.806  45.824  -3.329  1.00  0.00    +0.000 F 
ATOM     62  C42 UNL A   1      16.167  47.295  -2.473  1.00  0.00    +0.000 C 
ATOM     63  F9  UNL A   1      15.346  46.992  -3.488  1.00  0.00    +0.000 F 
ATOM     64  C43 UNL A   1      15.765  48.210  -1.505  1.00  0.00    +0.000 C 
ENDBRANCH   54   55
BRANCH   69   70
ATOM     70  C47 UNL A   1      12.234  47.722   4.970  1.00  0.00    +0.000 C 
ATOM     71  C48 UNL A   1      12.712  46.869   5.973  1.00  0.00    +0.000 C 
ATOM     72  F11 UNL A   1      13.945  47.046   6.470  1.00  0.00    +0.000 F 
ATOM     73  C49 UNL A   1      11.936  45.814   6.450  1.00  0.00    +0.000 C 
ATOM     74  F12 UNL A   1      12.431  44.993   7.386  1.00  0.00    +0.000 F 
ATOM     75  C50 UNL A   1      10.660  45.608   5.951  1.00  0.00    +0.000 C 
ATOM     76  F13 UNL A   1       9.909  44.602   6.420  1.00  0.00    +0.000 F 
ATOM     77  C51 UNL A   1      10.161  46.447   4.965  1.00  0.00    +0.000 C 
ATOM     78  F14 UNL A   1       8.919  46.264   4.495  1.00  0.00    +0.000 F 
ATOM     79  C52 UNL A   1      10.946  47.484   4.469  1.00  0.00    +0.000 C 
ATOM     80  F15 UNL A   1      10.439  48.280   3.514  1.00  0.00    +0.000 F 
ENDBRANCH   69   70
TORSDOF 21
ENDMDL
MODEL 9
REMARK VINA RESULT:     -10.8     46.004     50.783
ROOT
ATOM     33  C23 UNL A   1      14.440  53.992   4.725  1.00  0.00    +0.000 C 
ATOM     34  C24 UNL A   1      15.418  54.388   3.658  1.00  0.00    +0.000 C 
ATOM     35  N5  UNL A   1      15.896  53.676   2.668  1.00  0.00    +0.000 N 
ATOM     36  C25 UNL A   1      16.722  54.533   1.952  1.00  0.00    +0.000 C 
ATOM     37  C26 UNL A   1      17.489  54.257   0.869  1.00  0.00    +0.000 C 
ATOM     49  C33 UNL A   1      17.587  52.957   0.256  1.00  0.00    +0.000 C 
ATOM     50  C34 UNL A   1      18.404  52.555  -0.787  1.00  0.00    +0.000 C 
ATOM     51  C35 UNL A   1      18.101  51.223  -1.090  1.00  0.00    +0.000 C 
ATOM     52  C36 UNL A   1      17.133  50.779  -0.204  1.00  0.00    +0.000 C 
ATOM     53  N6  UNL A   1      16.834  51.851   0.623  1.00  0.00    +0.000 N 
ATOM     54  C37 UNL A   1      16.521  49.477  -0.119  1.00  0.00    +0.000 C 
ATOM     66  C44 UNL A   1      15.626  49.101   0.828  1.00  0.00    +0.000 C 
ATOM     67  N7  UNL A   1      15.096  49.846   1.872  1.00  0.00    +0.000 N 
ATOM     68  C45 UNL A   1      14.262  49.050   2.495  1.00  0.00    +0.000 C 
ATOM     69  C46 UNL A   1      13.414  49.328   3.706  1.00  0.00    +0.000 C 
ATOM     81  C53 UNL A   1      13.485  50.536   4.297  1.00  0.00    +0.000 C 
ATOM     82  C54 UNL A   1      12.717  50.948   5.468  1.00  0.00    +0.000 C 
ATOM     83  C55 UNL A   1      12.976  52.239   5.729  1.00  0.00    +0.000 C 
ATOM     84  C56 UNL A   1      13.963  52.733   4.769  1.00  0.00    +0.000 C 
ATOM     85  N8  UNL A   1      14.228  51.645   3.974  1.00  0.00    +0.000 N 
ATOM     86  C57 UNL A   1      14.158  47.707   1.905  1.00  0.00    +0.000 C 
ATOM     87  C58 UNL A   1      15.034  47.782   0.913  1.00  0.00    +0.000 C 
ATOM     88  C59 UNL A   1      16.640  55.829   2.590  1.00  0.00    +0.000 C 
ATOM     89  C60 UNL A   1      15.900  55.777   3.687  1.00  0.00    +0.000 C 
ATOM    119  H25 UNL A   1      19.114  53.136  -1.257  1.00  0.00    +0.000 H 
ATOM    120  H26 UNL A   1      18.527  50.665  -1.847  1.00  0.00    +0.000 H 
ATOM    121  H27 UNL A   1      16.185  51.830   1.363  1.00  0.00    +0.000 H 
ATOM    122  H28 UNL A   1      12.077  50.344   6.008  1.00  0.00    +0.000 H 
ATOM    123  H29 UNL A   1      12.547  52.794   6.486  1.00  0.00    +0.000 H 
ATOM    124  H30 UNL A   1      14.887  51.658   3.242  1.00  0.00    +0.000 H 
ATOM    125  H31 UNL A   1      13.560  46.916   2.190  1.00  0.00    +0.000 H 
ATOM    126  H32 UNL A   1      15.263  46.999   0.281  1.00  0.00    +0.000 H 
ATOM    127  H33 UNL A   1      17.101  56.683   2.237  1.00  0.00    +0.000 H 
ATOM    128  H34 UNL A   1      15.710  56.517   4.381  1.00  0.00    +0.000 H 
ENDROOT
BRANCH   33   32
ATOM    129  H35 UNL A   1      15.443  54.673   7.114  1.00  0.00    +0.000 H 
ATOM    130  H36 UNL A   1      14.621  56.317   8.694  1.00  0.00    +0.000 H 
ATOM    117  H23 UNL A   1      11.539  57.350   6.025  1.00  0.00    +0.000 H 
ATOM    118  H24 UNL A   1      12.230  55.560   4.540  1.00  0.00    +0.000 H 
ATOM     90  C61 UNL A   1      14.604  55.230   6.887  1.00  0.00    +0.000 C 
ATOM     91  C62 UNL A   1      14.159  56.204   7.779  1.00  0.00    +0.000 C 
ATOM     29  C19 UNL A   1      13.083  57.026   7.430  1.00  0.00    +0.000 C 
ATOM     30  C20 UNL A   1      12.367  56.779   6.255  1.00  0.00    +0.000 C 
ATOM     31  C21 UNL A   1      12.774  55.759   5.392  1.00  0.00    +0.000 C 
ATOM     32  C22 UNL A   1      13.922  55.003   5.682  1.00  0.00    +0.000 C 
BRANCH   29   27
ATOM     27  C18 UNL A   1      12.667  58.155   8.292  1.00  0.00    +0.000 C 
ATOM     28  O5  UNL A   1      13.361  59.166   8.342  1.00  0.00    +0.000 O 
BRANCH   27   26
ATOM     26  N4  UNL A   1      11.527  58.066   9.052  1.00  0.00    +0.000 N 
ATOM    116  H22 UNL A   1      10.762  58.592   8.721  1.00  0.00    +0.000 H 
BRANCH   26   25
ATOM     25  C17 UNL A   1      11.277  57.314  10.270  1.00  0.00    +0.000 C 
ATOM    114  H20 UNL A   1      12.133  57.399  10.905  1.00  0.00    +0.000 H 
ATOM    115  H21 UNL A   1      10.400  57.724  10.725  1.00  0.00    +0.000 H 
BRANCH   25   24
ATOM    113  H19 UNL A   1      11.464  55.622   9.064  1.00  0.00    +0.000 H 
ATOM    112  H18 UNL A   1       9.951  55.685  10.031  1.00  0.00    +0.000 H 
ATOM     24  C16 UNL A   1      11.010  55.835  10.009  1.00  0.00    +0.000 C 
BRANCH   24   23
ATOM    111  H17 UNL A   1      10.948  54.043  11.074  1.00  0.00    +0.000 H 
ATOM    110  H16 UNL A   1      11.813  55.380  11.915  1.00  0.00    +0.000 H 
ATOM     23  C15 UNL A   1      11.642  54.854  10.999  1.00  0.00    +0.000 C 
BRANCH   23   22
ATOM    108  H14 UNL A   1      13.081  54.370   9.524  1.00  0.00    +0.000 H 
ATOM    109  H15 UNL A   1      13.712  54.685  11.182  1.00  0.00    +0.000 H 
ATOM     22  C14 UNL A   1      12.966  54.214  10.577  1.00  0.00    +0.000 C 
BRANCH   22   21
ATOM    106  H12 UNL A   1      12.345  52.428  11.522  1.00  0.00    +0.000 H 
ATOM    107  H13 UNL A   1      13.065  52.256   9.878  1.00  0.00    +0.000 H 
ATOM     21  C13 UNL A   1      13.119  52.717  10.842  1.00  0.00    +0.000 C 
BRANCH   21   20
ATOM    105  H11 UNL A   1      14.233  51.391  12.026  1.00  0.00    +0.000 H 
ATOM     20  C12 UNL A   1      14.446  52.256  11.431  1.00  0.00    +0.000 C 
ATOM    104  H10 UNL A   1      14.858  53.063  12.000  1.00  0.00    +0.000 H 
BRANCH   20   19
ATOM     19  N3  UNL A   1      15.431  51.846  10.444  1.00  0.00    +0.000 N 
ATOM    103  H9  UNL A   1      16.367  51.965  10.725  1.00  0.00    +0.000 H 
BRANCH   19   17
ATOM     17  C11 UNL A   1      15.274  51.320   9.181  1.00  0.00    +0.000 C 
ATOM     18  O4  UNL A   1      15.482  52.040   8.203  1.00  0.00    +0.000 O 
BRANCH   17   16
ATOM    131  H37 UNL A   1      12.899  50.133   8.541  1.00  0.00    +0.000 H 
ATOM    100  H6  UNL A   1      14.152  46.127   8.787  1.00  0.00    +0.000 H 
ATOM    101  H7  UNL A   1      16.467  46.880   8.873  1.00  0.00    +0.000 H 
ATOM     11  C6  UNL A   1      13.351  48.081   8.743  1.00  0.00    +0.000 C 
ATOM     12  C7  UNL A   1      14.373  47.135   8.801  1.00  0.00    +0.000 C 
ATOM     13  C8  UNL A   1      15.698  47.568   8.878  1.00  0.00    +0.000 C 
ATOM     14  C9  UNL A   1      15.983  48.934   8.961  1.00  0.00    +0.000 C 
ATOM     16  C10 UNL A   1      14.954  49.888   8.936  1.00  0.00    +0.000 C 
ATOM     92  C63 UNL A   1      13.648  49.447   8.719  1.00  0.00    +0.000 C 
BRANCH   11   10
ATOM     10  C5  UNL A   1      11.940  47.659   8.873  1.00  0.00    +0.000 C 
ATOM     99  H5  UNL A   1      11.181  48.281   8.551  1.00  0.00    +0.000 H 
BRANCH   10    9
ATOM      9  N2  UNL A   1      11.658  46.506   9.392  1.00  0.00    +0.000 N 
BRANCH    9    8
ATOM     97  H3  UNL A   1      10.872  48.030  13.569  1.00  0.00    +0.000 H 
ATOM     98  H4  UNL A   1      10.720  48.161  11.151  1.00  0.00    +0.000 H 
ATOM    132  H38 UNL A   1      12.748  44.499  10.810  1.00  0.00    +0.000 H 
ATOM    133  H39 UNL A   1      12.892  44.348  13.229  1.00  0.00    +0.000 H 
ATOM      6  C2  UNL A   1      11.266  47.277  12.984  1.00  0.00    +0.000 C 
ATOM      5  C1  UNL A   1      11.894  46.180  13.576  1.00  0.00    +0.000 C 
ATOM      7  C3  UNL A   1      11.176  47.346  11.590  1.00  0.00    +0.000 C 
ATOM      8  C4  UNL A   1      11.696  46.329  10.782  1.00  0.00    +0.000 C 
ATOM     93  C64 UNL A   1      12.338  45.243  11.394  1.00  0.00    +0.000 C 
ATOM     94  C65 UNL A   1      12.431  45.159  12.786  1.00  0.00    +0.000 C 
BRANCH    5    2
ATOM      2  S1  UNL A   1      12.002  46.081  15.338  1.00  0.00    +0.000 S 
ATOM      3  O1  UNL A   1      13.380  45.894  15.721  1.00  0.00    +0.000 O 
ATOM      4  O2  UNL A   1      10.935  45.230  15.815  1.00  0.00    +0.000 O 
BRANCH    2    1
ATOM      1  N1  UNL A   1      11.614  47.644  15.822  1.00  0.00    +0.000 N 
ATOM     95  H1  UNL A   1      12.443  48.235  15.759  1.00  0.00    +0.000 H 
ATOM     96  H2  UNL A   1      11.279  47.628  16.785  1.00  0.00    +0.000 H 
ENDBRANCH    2    1
ENDBRANCH    5    2
ENDBRANCH    9    8
ENDBRANCH   10    9
ENDBRANCH   11   10
BRANCH   14   15
ATOM    102  H8  UNL A   1      17.963  48.737   8.679  1.00  0.00    +0.000 H 
ATOM     15  O3  UNL A   1      17.306  49.268   9.084  1.00  0.00    +0.000 O 
ENDBRANCH   14   15
ENDBRANCH   17   16
ENDBRANCH   19   17
ENDBRANCH   20   19
ENDBRANCH   21   20
ENDBRANCH   22   21
ENDBRANCH   23   22
ENDBRANCH   24   23
ENDBRANCH   25   24
ENDBRANCH   26   25
ENDBRANCH   27   26
ENDBRANCH   29   27
ENDBRANCH   33   32
BRANCH   37   38
ATOM     38  C27 UNL A   1      18.276  55.386   0.269  1.00  0.00    +0.000 C 
ATOM     39  C28 UNL A   1      19.472  55.843   0.842  1.00  0.00    +0.000 C 
ATOM     40  F1  UNL A   1      19.926  55.298   1.981  1.00  0.00    +0.000 F 
ATOM     41  C29 UNL A   1      20.185  56.896   0.272  1.00  0.00    +0.000 C 
ATOM     42  F2  UNL A   1      21.295  57.352   0.869  1.00  0.00    +0.000 F 
ATOM     43  C30 UNL A   1      19.740  57.483  -0.903  1.00  0.00    +0.000 C 
ATOM     44  F3  UNL A   1      20.429  58.492  -1.453  1.00  0.00    +0.000 F 
ATOM     45  C31 UNL A   1      18.575  57.029  -1.503  1.00  0.00    +0.000 C 
ATOM     46  F4  UNL A   1      18.149  57.586  -2.645  1.00  0.00    +0.000 F 
ATOM     47  C32 UNL A   1      17.843  55.998  -0.917  1.00  0.00    +0.000 C 
ATOM     48  F5  UNL A   1      16.709  55.596  -1.512  1.00  0.00    +0.000 F 
ENDBRANCH   37   38
BRANCH   54   55
ATOM     65  F10 UNL A   1      15.058  49.031  -2.522  1.00  0.00    +0.000 F 
ATOM     55  C38 UNL A   1      16.911  48.453  -1.144  1.00  0.00    +0.000 C 
ATOM     56  C39 UNL A   1      18.025  47.621  -0.957  1.00  0.00    +0.000 C 
ATOM     57  F6  UNL A   1      18.806  47.772   0.123  1.00  0.00    +0.000 F 
ATOM     58  C40 UNL A   1      18.358  46.650  -1.897  1.00  0.00    +0.000 C 
ATOM     59  F7  UNL A   1      19.451  45.893  -1.717  1.00  0.00    +0.000 F 
ATOM     60  C41 UNL A   1      17.570  46.471  -3.024  1.00  0.00    +0.000 C 
ATOM     61  F8  UNL A   1      17.886  45.527  -3.921  1.00  0.00    +0.000 F 
ATOM     62  C42 UNL A   1      16.457  47.273  -3.222  1.00  0.00    +0.000 C 
ATOM     63  F9  UNL A   1      15.685  47.092  -4.303  1.00  0.00    +0.000 F 
ATOM     64  C43 UNL A   1      16.137  48.265  -2.299  1.00  0.00    +0.000 C 
ENDBRANCH   54   55
BRANCH   69   70
ATOM     70  C47 UNL A   1      12.501  48.293   4.258  1.00  0.00    +0.000 C 
ATOM     71  C48 UNL A   1      11.153  48.245   3.881  1.00  0.00    +0.000 C 
ATOM     72  F11 UNL A   1      10.660  49.167   3.041  1.00  0.00    +0.000 F 
ATOM     73  C49 UNL A   1      10.299  47.267   4.387  1.00  0.00    +0.000 C 
ATOM     74  F12 UNL A   1       9.006  47.265   4.036  1.00  0.00    +0.000 F 
ATOM     75  C50 UNL A   1      10.782  46.304   5.258  1.00  0.00    +0.000 C 
ATOM     76  F13 UNL A   1       9.963  45.356   5.734  1.00  0.00    +0.000 F 
ATOM     77  C51 UNL A   1      12.117  46.325   5.638  1.00  0.00    +0.000 C 
ATOM     78  F14 UNL A   1      12.593  45.383   6.464  1.00  0.00    +0.000 F 
ATOM     79  C52 UNL A   1      12.964  47.318   5.154  1.00  0.00    +0.000 C 
ATOM     80  F15 UNL A   1      14.250  47.316   5.538  1.00  0.00    +0.000 F 
ENDBRANCH   69   70
TORSDOF 21
ENDMDL
MODEL 10
REMARK VINA RESULT:     -10.6     41.778     47.523
ROOT
ATOM     33  C23 UNL A   1      10.619   3.055  21.206  1.00  0.00    +0.000 C 
ATOM     34  C24 UNL A   1      11.159   3.514  19.882  1.00  0.00    +0.000 C 
ATOM     35  N5  UNL A   1      11.000   4.664  19.277  1.00  0.00    +0.000 N 
ATOM     36  C25 UNL A   1      11.747   4.583  18.109  1.00  0.00    +0.000 C 
ATOM     37  C26 UNL A   1      11.865   5.498  17.117  1.00  0.00    +0.000 C 
ATOM     49  C33 UNL A   1      11.190   6.771  17.105  1.00  0.00    +0.000 C 
ATOM     50  C34 UNL A   1      11.173   7.728  16.106  1.00  0.00    +0.000 C 
ATOM     51  C35 UNL A   1      10.445   8.830  16.569  1.00  0.00    +0.000 C 
ATOM     52  C36 UNL A   1       9.966   8.540  17.836  1.00  0.00    +0.000 C 
ATOM     53  N6  UNL A   1      10.423   7.269  18.148  1.00  0.00    +0.000 N 
ATOM     54  C37 UNL A   1       9.157   9.361  18.701  1.00  0.00    +0.000 C 
ATOM     66  C44 UNL A   1       8.670   8.973  19.906  1.00  0.00    +0.000 C 
ATOM     67  N7  UNL A   1       8.843   7.766  20.568  1.00  0.00    +0.000 N 
ATOM     68  C45 UNL A   1       8.195   7.883  21.702  1.00  0.00    +0.000 C 
ATOM     69  C46 UNL A   1       8.038   6.877  22.809  1.00  0.00    +0.000 C 
ATOM     81  C53 UNL A   1       8.595   5.658  22.677  1.00  0.00    +0.000 C 
ATOM     82  C54 UNL A   1       8.531   4.589  23.670  1.00  0.00    +0.000 C 
ATOM     83  C55 UNL A   1       9.266   3.551  23.242  1.00  0.00    +0.000 C 
ATOM     84  C56 UNL A   1       9.818   3.864  21.924  1.00  0.00    +0.000 C 
ATOM     85  N8  UNL A   1       9.344   5.125  21.656  1.00  0.00    +0.000 N 
ATOM     86  C57 UNL A   1       7.548   9.188  21.894  1.00  0.00    +0.000 C 
ATOM     87  C58 UNL A   1       7.841   9.802  20.756  1.00  0.00    +0.000 C 
ATOM     88  C59 UNL A   1      12.399   3.291  18.115  1.00  0.00    +0.000 C 
ATOM     89  C60 UNL A   1      12.017   2.566  19.156  1.00  0.00    +0.000 C 
ATOM    119  H25 UNL A   1      11.618   7.643  15.179  1.00  0.00    +0.000 H 
ATOM    120  H26 UNL A   1      10.293   9.711  16.053  1.00  0.00    +0.000 H 
ATOM    121  H27 UNL A   1      10.230   6.789  18.986  1.00  0.00    +0.000 H 
ATOM    122  H28 UNL A   1       8.006   4.626  24.557  1.00  0.00    +0.000 H 
ATOM    123  H29 UNL A   1       9.419   2.672  23.761  1.00  0.00    +0.000 H 
ATOM    124  H30 UNL A   1       9.524   5.602  20.814  1.00  0.00    +0.000 H 
ATOM    125  H31 UNL A   1       7.008   9.535  22.702  1.00  0.00    +0.000 H 
ATOM    126  H32 UNL A   1       7.519  10.751  20.508  1.00  0.00    +0.000 H 
ATOM    127  H33 UNL A   1      13.072   2.975  17.399  1.00  0.00    +0.000 H 
ATOM    128  H34 UNL A   1      12.258   1.591  19.395  1.00  0.00    +0.000 H 
ENDROOT
BRANCH   33   32
ATOM    129  H35 UNL A   1      12.867   2.475  22.543  1.00  0.00    +0.000 H 
ATOM    130  H36 UNL A   1      13.573   0.354  23.481  1.00  0.00    +0.000 H 
ATOM    117  H23 UNL A   1       9.963  -1.406  22.233  1.00  0.00    +0.000 H 
ATOM    118  H24 UNL A   1       9.351   0.655  21.106  1.00  0.00    +0.000 H 
ATOM     90  C61 UNL A   1      12.255   1.648  22.463  1.00  0.00    +0.000 C 
ATOM     91  C62 UNL A   1      12.644   0.441  23.039  1.00  0.00    +0.000 C 
ATOM     29  C19 UNL A   1      11.775  -0.653  23.017  1.00  0.00    +0.000 C 
ATOM     30  C20 UNL A   1      10.579  -0.581  22.296  1.00  0.00    +0.000 C 
ATOM     31  C21 UNL A   1      10.219   0.610  21.661  1.00  0.00    +0.000 C 
ATOM     32  C22 UNL A   1      11.036   1.747  21.775  1.00  0.00    +0.000 C 
BRANCH   29   27
ATOM     27  C18 UNL A   1      12.097  -1.907  23.733  1.00  0.00    +0.000 C 
ATOM     28  O5  UNL A   1      12.136  -2.966  23.114  1.00  0.00    +0.000 O 
BRANCH   27   26
ATOM     26  N4  UNL A   1      12.326  -1.895  25.087  1.00  0.00    +0.000 N 
ATOM    116  H22 UNL A   1      11.524  -2.018  25.647  1.00  0.00    +0.000 H 
BRANCH   26   25
ATOM     25  C17 UNL A   1      13.570  -1.729  25.819  1.00  0.00    +0.000 C 
ATOM    114  H20 UNL A   1      13.738  -2.606  26.408  1.00  0.00    +0.000 H 
ATOM    115  H21 UNL A   1      14.347  -1.576  25.100  1.00  0.00    +0.000 H 
BRANCH   25   24
ATOM    113  H19 UNL A   1      13.808  -0.892  27.715  1.00  0.00    +0.000 H 
ATOM    112  H18 UNL A   1      12.585  -0.071  26.685  1.00  0.00    +0.000 H 
ATOM     24  C16 UNL A   1      13.556  -0.517  26.744  1.00  0.00    +0.000 C 
BRANCH   24   23
ATOM    111  H17 UNL A   1      14.804   0.475  25.399  1.00  0.00    +0.000 H 
ATOM    110  H16 UNL A   1      15.430   0.408  27.086  1.00  0.00    +0.000 H 
ATOM     23  C15 UNL A   1      14.590   0.570  26.443  1.00  0.00    +0.000 C 
BRANCH   23   22
ATOM    108  H14 UNL A   1      13.929   2.422  25.661  1.00  0.00    +0.000 H 
ATOM    109  H15 UNL A   1      13.285   1.965  27.279  1.00  0.00    +0.000 H 
ATOM     22  C14 UNL A   1      14.134   2.019  26.630  1.00  0.00    +0.000 C 
BRANCH   22   21
ATOM    106  H12 UNL A   1      16.100   2.577  27.169  1.00  0.00    +0.000 H 
ATOM    107  H13 UNL A   1      14.931   3.923  26.895  1.00  0.00    +0.000 H 
ATOM     21  C13 UNL A   1      15.114   2.961  27.328  1.00  0.00    +0.000 C 
BRANCH   21   20
ATOM    105  H11 UNL A   1      15.814   2.776  29.295  1.00  0.00    +0.000 H 
ATOM     20  C12 UNL A   1      14.931   3.157  28.827  1.00  0.00    +0.000 C 
ATOM    104  H10 UNL A   1      14.043   2.639  29.126  1.00  0.00    +0.000 H 
BRANCH   20   19
ATOM     19  N3  UNL A   1      14.808   4.544  29.241  1.00  0.00    +0.000 N 
ATOM    103  H9  UNL A   1      15.656   4.971  29.502  1.00  0.00    +0.000 H 
BRANCH   19   17
ATOM     17  C11 UNL A   1      13.703   5.362  29.331  1.00  0.00    +0.000 C 
ATOM     18  O4  UNL A   1      13.856   6.583  29.270  1.00  0.00    +0.000 O 
BRANCH   17   16
ATOM    131  H37 UNL A   1      12.273   3.911  27.512  1.00  0.00    +0.000 H 
ATOM    100  H6  UNL A   1       8.573   3.938  29.508  1.00  0.00    +0.000 H 
ATOM    101  H7  UNL A   1       9.682   4.784  31.505  1.00  0.00    +0.000 H 
ATOM     11  C6  UNL A   1      10.330   3.943  28.336  1.00  0.00    +0.000 C 
ATOM     12  C7  UNL A   1       9.581   4.155  29.492  1.00  0.00    +0.000 C 
ATOM     13  C8  UNL A   1      10.213   4.667  30.628  1.00  0.00    +0.000 C 
ATOM     14  C9  UNL A   1      11.564   5.019  30.577  1.00  0.00    +0.000 C 
ATOM     16  C10 UNL A   1      12.314   4.837  29.404  1.00  0.00    +0.000 C 
ATOM     92  C63 UNL A   1      11.705   4.197  28.323  1.00  0.00    +0.000 C 
BRANCH   11   10
ATOM     10  C5  UNL A   1       9.654   3.605  27.065  1.00  0.00    +0.000 C 
ATOM     99  H5  UNL A   1      10.011   3.982  26.172  1.00  0.00    +0.000 H 
BRANCH   10    9
ATOM      9  N2  UNL A   1       8.613   2.836  27.074  1.00  0.00    +0.000 N 
BRANCH    9    8
ATOM     97  H3  UNL A   1       7.342  -0.526  24.341  1.00  0.00    +0.000 H 
ATOM     98  H4  UNL A   1       7.361   1.792  25.061  1.00  0.00    +0.000 H 
ATOM    132  H38 UNL A   1      10.024   0.822  28.161  1.00  0.00    +0.000 H 
ATOM    133  H39 UNL A   1      10.026  -1.497  27.439  1.00  0.00    +0.000 H 
ATOM      6  C2  UNL A   1       7.916  -0.240  25.149  1.00  0.00    +0.000 C 
ATOM      5  C1  UNL A   1       8.682  -1.181  25.839  1.00  0.00    +0.000 C 
ATOM      7  C3  UNL A   1       7.934   1.096  25.564  1.00  0.00    +0.000 C 
ATOM      8  C4  UNL A   1       8.715   1.503  26.651  1.00  0.00    +0.000 C 
ATOM     93  C64 UNL A   1       9.464   0.541  27.342  1.00  0.00    +0.000 C 
ATOM     94  C65 UNL A   1       9.459  -0.797  26.935  1.00  0.00    +0.000 C 
BRANCH    5    2
ATOM      2  S1  UNL A   1       8.671  -2.870  25.312  1.00  0.00    +0.000 S 
ATOM      3  O1  UNL A   1       9.646  -3.611  26.072  1.00  0.00    +0.000 O 
ATOM      4  O2  UNL A   1       8.619  -2.898  23.868  1.00  0.00    +0.000 O 
BRANCH    2    1
ATOM      1  N1  UNL A   1       7.176  -3.417  25.852  1.00  0.00    +0.000 N 
ATOM     95  H1  UNL A   1       7.313  -4.095  26.602  1.00  0.00    +0.000 H 
ATOM     96  H2  UNL A   1       6.678  -3.860  25.080  1.00  0.00    +0.000 H 
ENDBRANCH    2    1
ENDBRANCH    5    2
ENDBRANCH    9    8
ENDBRANCH   10    9
ENDBRANCH   11   10
BRANCH   14   15
ATOM    102  H8  UNL A   1      12.874   6.072  31.679  1.00  0.00    +0.000 H 
ATOM     15  O3  UNL A   1      12.091   5.559  31.721  1.00  0.00    +0.000 O 
ENDBRANCH   14   15
ENDBRANCH   17   16
ENDBRANCH   19   17
ENDBRANCH   20   19
ENDBRANCH   21   20
ENDBRANCH   22   21
ENDBRANCH   23   22
ENDBRANCH   24   23
ENDBRANCH   25   24
ENDBRANCH   26   25
ENDBRANCH   27   26
ENDBRANCH   29   27
ENDBRANCH   33   32
BRANCH   37   38
ATOM     38  C27 UNL A   1      12.766   5.162  15.964  1.00  0.00    +0.000 C 
ATOM     39  C28 UNL A   1      12.289   4.515  14.815  1.00  0.00    +0.000 C 
ATOM     40  F1  UNL A   1      11.003   4.141  14.735  1.00  0.00    +0.000 F 
ATOM     41  C29 UNL A   1      13.144   4.207  13.758  1.00  0.00    +0.000 C 
ATOM     42  F2  UNL A   1      12.677   3.539  12.694  1.00  0.00    +0.000 F 
ATOM     43  C30 UNL A   1      14.479   4.577  13.812  1.00  0.00    +0.000 C 
ATOM     44  F3  UNL A   1      15.299   4.284  12.793  1.00  0.00    +0.000 F 
ATOM     45  C31 UNL A   1      14.967   5.241  14.927  1.00  0.00    +0.000 C 
ATOM     46  F4  UNL A   1      16.254   5.611  14.976  1.00  0.00    +0.000 F 
ATOM     47  C32 UNL A   1      14.122   5.522  15.998  1.00  0.00    +0.000 C 
ATOM     48  F5  UNL A   1      14.630   6.148  17.070  1.00  0.00    +0.000 F 
ENDBRANCH   37   38
BRANCH   54   55
ATOM     65  F10 UNL A   1       6.820   9.968  17.190  1.00  0.00    +0.000 F 
ATOM     55  C38 UNL A   1       8.814  10.745  18.232  1.00  0.00    +0.000 C 
ATOM     56  C39 UNL A   1       9.659  11.834  18.493  1.00  0.00    +0.000 C 
ATOM     57  F6  UNL A   1      10.768  11.665  19.229  1.00  0.00    +0.000 F 
ATOM     58  C40 UNL A   1       9.350  13.107  18.025  1.00  0.00    +0.000 C 
ATOM     59  F7  UNL A   1      10.152  14.141  18.321  1.00  0.00    +0.000 F 
ATOM     60  C41 UNL A   1       8.210  13.312  17.262  1.00  0.00    +0.000 C 
ATOM     61  F8  UNL A   1       7.922  14.537  16.801  1.00  0.00    +0.000 F 
ATOM     62  C42 UNL A   1       7.368  12.247  16.981  1.00  0.00    +0.000 C 
ATOM     63  F9  UNL A   1       6.273  12.439  16.231  1.00  0.00    +0.000 F 
ATOM     64  C43 UNL A   1       7.658  10.977  17.472  1.00  0.00    +0.000 C 
ENDBRANCH   54   55
BRANCH   69   70
ATOM     70  C47 UNL A   1       7.279   7.207  24.044  1.00  0.00    +0.000 C 
ATOM     71  C48 UNL A   1       7.851   7.990  25.055  1.00  0.00    +0.000 C 
ATOM     72  F11 UNL A   1       9.116   8.420  24.933  1.00  0.00    +0.000 F 
ATOM     73  C49 UNL A   1       7.136   8.312  26.207  1.00  0.00    +0.000 C 
ATOM     74  F12 UNL A   1       7.719   9.035  27.173  1.00  0.00    +0.000 F 
ATOM     75  C50 UNL A   1       5.828   7.879  26.358  1.00  0.00    +0.000 C 
ATOM     76  F13 UNL A   1       5.137   8.200  27.461  1.00  0.00    +0.000 F 
ATOM     77  C51 UNL A   1       5.237   7.111  25.366  1.00  0.00    +0.000 C 
ATOM     78  F14 UNL A   1       3.966   6.707  25.499  1.00  0.00    +0.000 F 
ATOM     79  C52 UNL A   1       5.960   6.766  24.227  1.00  0.00    +0.000 C 
ATOM     80  F15 UNL A   1       5.364   6.020  23.283  1.00  0.00    +0.000 F 
ENDBRANCH   69   70
TORSDOF 21
ENDMDL
