MODEL 1
REMARK VINA RESULT:     -11.2      0.000      0.000
ROOT
ATOM    129  H35 UNL A   1      38.901  26.937  29.511  1.00  0.00    +0.000 H 
ATOM    130  H36 UNL A   1      39.928  24.822  28.492  1.00  0.00    +0.000 H 
ATOM     36  C29 UNL A   1      42.533  25.224  27.403  1.00  0.00    +0.000 C 
ATOM     37  C30 UNL A   1      41.670  26.224  28.114  1.00  0.00    +0.000 C 
ATOM     38  N4  UNL A   1      41.923  27.479  28.390  1.00  0.00    +0.000 N 
ATOM     39  C31 UNL A   1      40.794  27.959  29.035  1.00  0.00    +0.000 C 
ATOM     40  C32 UNL A   1      40.575  29.198  29.537  1.00  0.00    +0.000 C 
ATOM     52  C39 UNL A   1      41.528  30.276  29.512  1.00  0.00    +0.000 C 
ATOM     53  C40 UNL A   1      41.447  31.516  30.123  1.00  0.00    +0.000 C 
ATOM     54  C41 UNL A   1      42.590  32.249  29.779  1.00  0.00    +0.000 C 
ATOM     55  C42 UNL A   1      43.384  31.459  28.965  1.00  0.00    +0.000 C 
ATOM     56  N5  UNL A   1      42.731  30.246  28.826  1.00  0.00    +0.000 N 
ATOM     57  C43 UNL A   1      44.639  31.784  28.341  1.00  0.00    +0.000 C 
ATOM     69  C50 UNL A   1      45.425  30.904  27.678  1.00  0.00    +0.000 C 
ATOM     70  N6  UNL A   1      45.200  29.559  27.430  1.00  0.00    +0.000 N 
ATOM     71  C51 UNL A   1      46.236  29.142  26.749  1.00  0.00    +0.000 C 
ATOM     72  C52 UNL A   1      46.517  27.775  26.205  1.00  0.00    +0.000 C 
ATOM     84  C59 UNL A   1      45.615  26.790  26.370  1.00  0.00    +0.000 C 
ATOM     85  C60 UNL A   1      45.757  25.426  25.871  1.00  0.00    +0.000 C 
ATOM     86  C61 UNL A   1      44.652  24.729  26.184  1.00  0.00    +0.000 C 
ATOM     87  C62 UNL A   1      43.737  25.595  26.927  1.00  0.00    +0.000 C 
ATOM     88  N7  UNL A   1      44.393  26.799  26.993  1.00  0.00    +0.000 N 
ATOM     89  C63 UNL A   1      47.246  30.179  26.489  1.00  0.00    +0.000 C 
ATOM     90  C64 UNL A   1      46.704  31.234  27.083  1.00  0.00    +0.000 C 
ATOM     91  C65 UNL A   1      39.846  26.866  29.102  1.00  0.00    +0.000 C 
ATOM     92  C66 UNL A   1      40.351  25.761  28.567  1.00  0.00    +0.000 C 
ATOM    121  H27 UNL A   1      40.677  31.844  30.728  1.00  0.00    +0.000 H 
ATOM    122  H28 UNL A   1      42.803  33.213  30.080  1.00  0.00    +0.000 H 
ATOM    123  H29 UNL A   1      43.071  29.475  28.315  1.00  0.00    +0.000 H 
ATOM    124  H30 UNL A   1      46.574  25.055  25.361  1.00  0.00    +0.000 H 
ATOM    125  H31 UNL A   1      44.477  23.742  25.939  1.00  0.00    +0.000 H 
ATOM    126  H32 UNL A   1      44.022  27.592  27.444  1.00  0.00    +0.000 H 
ATOM    127  H33 UNL A   1      48.139  30.105  25.978  1.00  0.00    +0.000 H 
ATOM    128  H34 UNL A   1      47.139  32.169  27.117  1.00  0.00    +0.000 H 
ENDROOT
BRANCH   36   35
ATOM     33  C26 UNL A   1      42.182  21.470  27.756  1.00  0.00    +0.000 C 
ATOM     34  C27 UNL A   1      42.509  22.801  28.030  1.00  0.00    +0.000 C 
ATOM     35  C28 UNL A   1      42.075  23.831  27.181  1.00  0.00    +0.000 C 
ATOM    132  H38 UNL A   1      40.322  21.961  25.011  1.00  0.00    +0.000 H 
ATOM    131  H37 UNL A   1      40.961  24.261  25.435  1.00  0.00    +0.000 H 
ATOM    119  H25 UNL A   1      42.547  20.716  28.356  1.00  0.00    +0.000 H 
ATOM    120  H26 UNL A   1      43.074  23.029  28.863  1.00  0.00    +0.000 H 
ATOM     93  C67 UNL A   1      41.280  23.513  26.071  1.00  0.00    +0.000 C 
ATOM     94  C68 UNL A   1      40.919  22.186  25.822  1.00  0.00    +0.000 C 
ATOM     32  C25 UNL A   1      41.361  21.159  26.667  1.00  0.00    +0.000 C 
BRANCH   32    2
ATOM      1  O1  UNL A   1      41.884  18.895  26.376  1.00  0.00    +0.000 O 
ATOM      2  C1  UNL A   1      41.016  19.763  26.301  1.00  0.00    +0.000 C 
BRANCH    2    3
ATOM      3  N1  UNL A   1      39.761  19.417  25.871  1.00  0.00    +0.000 N 
ATOM     95  H1  UNL A   1      39.577  18.451  25.867  1.00  0.00    +0.000 H 
BRANCH    3    4
ATOM     97  H3  UNL A   1      38.251  20.730  26.282  1.00  0.00    +0.000 H 
ATOM      4  C2  UNL A   1      38.663  20.251  25.420  1.00  0.00    +0.000 C 
ATOM     96  H2  UNL A   1      39.040  20.958  24.711  1.00  0.00    +0.000 H 
BRANCH    4    5
ATOM     98  H4  UNL A   1      37.699  18.421  24.991  1.00  0.00    +0.000 H 
ATOM     99  H5  UNL A   1      37.599  19.691  23.719  1.00  0.00    +0.000 H 
ATOM      5  C3  UNL A   1      37.542  19.454  24.762  1.00  0.00    +0.000 C 
BRANCH    5    6
ATOM    100  H6  UNL A   1      35.965  20.853  24.978  1.00  0.00    +0.000 H 
ATOM    101  H7  UNL A   1      36.049  19.562  26.222  1.00  0.00    +0.000 H 
ATOM      6  C4  UNL A   1      36.116  19.814  25.185  1.00  0.00    +0.000 C 
BRANCH    6    7
ATOM    103  H9  UNL A   1      35.067  19.288  23.457  1.00  0.00    +0.000 H 
ATOM    102  H8  UNL A   1      35.146  17.994  24.705  1.00  0.00    +0.000 H 
ATOM      7  C5  UNL A   1      34.997  19.032  24.494  1.00  0.00    +0.000 C 
BRANCH    7    8
ATOM    105  H11 UNL A   1      33.126  18.477  25.250  1.00  0.00    +0.000 H 
ATOM    104  H10 UNL A   1      33.619  20.160  25.649  1.00  0.00    +0.000 H 
ATOM      8  C6  UNL A   1      33.562  19.391  24.905  1.00  0.00    +0.000 C 
BRANCH    8    9
ATOM      9  C7  UNL A   1      32.644  19.889  23.788  1.00  0.00    +0.000 C 
ATOM    106  H12 UNL A   1      31.716  19.361  23.850  1.00  0.00    +0.000 H 
ATOM    107  H13 UNL A   1      33.145  19.711  22.860  1.00  0.00    +0.000 H 
BRANCH    9   10
ATOM     10  N2  UNL A   1      32.372  21.313  23.870  1.00  0.00    +0.000 N 
ATOM    108  H14 UNL A   1      31.560  21.574  24.363  1.00  0.00    +0.000 H 
BRANCH   10   11
ATOM     11  C8  UNL A   1      33.114  22.338  23.339  1.00  0.00    +0.000 C 
ATOM     12  O2  UNL A   1      32.716  22.949  22.350  1.00  0.00    +0.000 O 
BRANCH   11   13
ATOM     13  C9  UNL A   1      34.376  22.760  23.966  1.00  0.00    +0.000 C 
ATOM     14  C10 UNL A   1      35.532  22.744  23.173  1.00  0.00    +0.000 C 
ATOM    109  H15 UNL A   1      35.473  22.461  22.183  1.00  0.00    +0.000 H 
ATOM     15  C11 UNL A   1      36.764  23.111  23.720  1.00  0.00    +0.000 C 
ATOM     17  C13 UNL A   1      35.697  23.468  25.851  1.00  0.00    +0.000 C 
ATOM     18  C14 UNL A   1      34.452  23.103  25.318  1.00  0.00    +0.000 C 
ATOM    110  H16 UNL A   1      37.611  23.113  23.132  1.00  0.00    +0.000 H 
ATOM    112  H18 UNL A   1      35.763  23.740  26.844  1.00  0.00    +0.000 H 
ATOM     16  C12 UNL A   1      36.847  23.472  25.062  1.00  0.00    +0.000 C 
ATOM    111  H17 UNL A   1      37.755  23.742  25.470  1.00  0.00    +0.000 H 
BRANCH   18   19
ATOM     19  N3  UNL A   1      33.356  23.261  26.162  1.00  0.00    +0.000 N 
BRANCH   19   20
ATOM    113  H19 UNL A   1      33.191  24.659  27.640  1.00  0.00    +0.000 H 
ATOM     20  C15 UNL A   1      33.040  24.418  26.649  1.00  0.00    +0.000 C 
BRANCH   20   21
ATOM     26  C20 UNL A   1      32.787  29.952  27.370  1.00  0.00    +0.000 C 
ATOM    117  H23 UNL A   1      34.826  30.342  26.966  1.00  0.00    +0.000 H 
ATOM    114  H20 UNL A   1      30.547  25.048  26.378  1.00  0.00    +0.000 H 
ATOM    115  H21 UNL A   1      30.776  29.306  27.538  1.00  0.00    +0.000 H 
ATOM    116  H22 UNL A   1      32.666  30.772  27.986  1.00  0.00    +0.000 H 
ATOM     21  C16 UNL A   1      32.446  25.371  25.688  1.00  0.00    +0.000 C 
ATOM     22  C17 UNL A   1      31.227  25.768  26.089  1.00  0.00    +0.000 C 
ATOM     23  O3  UNL A   1      30.837  27.100  26.136  1.00  0.00    +0.000 O 
ATOM     24  C18 UNL A   1      31.882  27.985  26.324  1.00  0.00    +0.000 C 
ATOM    118  H24 UNL A   1      35.131  28.395  25.535  1.00  0.00    +0.000 H 
ATOM     25  C19 UNL A   1      31.701  29.102  27.127  1.00  0.00    +0.000 C 
ATOM     27  C21 UNL A   1      34.037  29.700  26.790  1.00  0.00    +0.000 C 
ATOM     28  C22 UNL A   1      34.218  28.584  25.975  1.00  0.00    +0.000 C 
ATOM     29  C23 UNL A   1      33.137  27.729  25.768  1.00  0.00    +0.000 C 
ATOM     30  C24 UNL A   1      33.300  26.432  25.104  1.00  0.00    +0.000 C 
ATOM     31  O4  UNL A   1      34.123  26.230  24.224  1.00  0.00    +0.000 O 
ENDBRANCH   20   21
ENDBRANCH   19   20
ENDBRANCH   18   19
ENDBRANCH   11   13
ENDBRANCH   10   11
ENDBRANCH    9   10
ENDBRANCH    8    9
ENDBRANCH    7    8
ENDBRANCH    6    7
ENDBRANCH    5    6
ENDBRANCH    4    5
ENDBRANCH    3    4
ENDBRANCH    2    3
ENDBRANCH   32    2
ENDBRANCH   36   35
BRANCH   40   41
ATOM     41  C33 UNL A   1      39.247  29.460  30.171  1.00  0.00    +0.000 C 
ATOM     42  C34 UNL A   1      39.031  29.214  31.533  1.00  0.00    +0.000 C 
ATOM     43  F1  UNL A   1      40.004  28.676  32.284  1.00  0.00    +0.000 F 
ATOM     44  C35 UNL A   1      37.808  29.512  32.125  1.00  0.00    +0.000 C 
ATOM     45  F2  UNL A   1      37.615  29.261  33.428  1.00  0.00    +0.000 F 
ATOM     46  C36 UNL A   1      36.785  30.069  31.369  1.00  0.00    +0.000 C 
ATOM     47  F3  UNL A   1      35.609  30.359  31.943  1.00  0.00    +0.000 F 
ATOM     48  C37 UNL A   1      36.980  30.320  30.019  1.00  0.00    +0.000 C 
ATOM     49  F4  UNL A   1      35.993  30.857  29.289  1.00  0.00    +0.000 F 
ATOM     50  C38 UNL A   1      38.201  30.015  29.422  1.00  0.00    +0.000 C 
ATOM     51  F5  UNL A   1      38.364  30.266  28.114  1.00  0.00    +0.000 F 
ENDBRANCH   40   41
BRANCH   57   58
ATOM     65  C48 UNL A   1      46.430  34.907  29.559  1.00  0.00    +0.000 C 
ATOM     66  F9  UNL A   1      47.259  35.266  30.549  1.00  0.00    +0.000 F 
ATOM     67  C49 UNL A   1      45.996  33.588  29.462  1.00  0.00    +0.000 C 
ATOM     68  F10 UNL A   1      46.423  32.694  30.366  1.00  0.00    +0.000 F 
ATOM     58  C44 UNL A   1      45.128  33.194  28.435  1.00  0.00    +0.000 C 
ATOM     59  C45 UNL A   1      44.712  34.160  27.508  1.00  0.00    +0.000 C 
ATOM     60  F6  UNL A   1      43.895  33.820  26.500  1.00  0.00    +0.000 F 
ATOM     61  C46 UNL A   1      45.157  35.475  27.604  1.00  0.00    +0.000 C 
ATOM     62  F7  UNL A   1      44.767  36.380  26.696  1.00  0.00    +0.000 F 
ATOM     63  C47 UNL A   1      46.012  35.848  28.630  1.00  0.00    +0.000 C 
ATOM     64  F8  UNL A   1      46.442  37.115  28.718  1.00  0.00    +0.000 F 
ENDBRANCH   57   58
BRANCH   72   73
ATOM     73  C53 UNL A   1      47.770  27.490  25.472  1.00  0.00    +0.000 C 
ATOM     74  C54 UNL A   1      48.918  27.069  26.154  1.00  0.00    +0.000 C 
ATOM     75  F11 UNL A   1      48.904  26.965  27.491  1.00  0.00    +0.000 F 
ATOM     76  C55 UNL A   1      50.088  26.766  25.461  1.00  0.00    +0.000 C 
ATOM     77  F12 UNL A   1      51.180  26.374  26.133  1.00  0.00    +0.000 F 
ATOM     78  C56 UNL A   1      50.125  26.871  24.079  1.00  0.00    +0.000 C 
ATOM     79  F13 UNL A   1      51.249  26.573  23.413  1.00  0.00    +0.000 F 
ATOM     80  C57 UNL A   1      48.998  27.289  23.386  1.00  0.00    +0.000 C 
ATOM     81  F14 UNL A   1      49.031  27.390  22.051  1.00  0.00    +0.000 F 
ATOM     82  C58 UNL A   1      47.832  27.603  24.077  1.00  0.00    +0.000 C 
ATOM     83  F15 UNL A   1      46.754  28.008  23.390  1.00  0.00    +0.000 F 
ENDBRANCH   72   73
TORSDOF 18
ENDMDL
MODEL 2
REMARK VINA RESULT:     -11.0     37.921     42.795
ROOT
ATOM    129  H35 UNL A   1      11.568  49.762   6.393  1.00  0.00    +0.000 H 
ATOM    130  H36 UNL A   1      11.875  52.254   6.908  1.00  0.00    +0.000 H 
ATOM     36  C29 UNL A   1      13.666  53.578   5.127  1.00  0.00    +0.000 C 
ATOM     37  C30 UNL A   1      13.222  52.146   5.086  1.00  0.00    +0.000 C 
ATOM     38  N4  UNL A   1      13.550  51.208   4.234  1.00  0.00    +0.000 N 
ATOM     39  C31 UNL A   1      12.885  50.065   4.654  1.00  0.00    +0.000 C 
ATOM     40  C32 UNL A   1      12.887  48.835   4.088  1.00  0.00    +0.000 C 
ATOM     52  C39 UNL A   1      13.588  48.486   2.881  1.00  0.00    +0.000 C 
ATOM     53  C40 UNL A   1      13.530  47.306   2.158  1.00  0.00    +0.000 C 
ATOM     54  C41 UNL A   1      14.423  47.407   1.084  1.00  0.00    +0.000 C 
ATOM     55  C42 UNL A   1      15.025  48.653   1.133  1.00  0.00    +0.000 C 
ATOM     56  N5  UNL A   1      14.490  49.311   2.229  1.00  0.00    +0.000 N 
ATOM     57  C43 UNL A   1      16.027  49.206   0.262  1.00  0.00    +0.000 C 
ATOM     69  C50 UNL A   1      16.457  50.488   0.293  1.00  0.00    +0.000 C 
ATOM     70  N6  UNL A   1      16.076  51.509   1.149  1.00  0.00    +0.000 N 
ATOM     71  C51 UNL A   1      16.774  52.556   0.791  1.00  0.00    +0.000 C 
ATOM     72  C52 UNL A   1      16.773  53.934   1.381  1.00  0.00    +0.000 C 
ATOM     84  C59 UNL A   1      15.999  54.207   2.447  1.00  0.00    +0.000 C 
ATOM     85  C60 UNL A   1      15.924  55.496   3.126  1.00  0.00    +0.000 C 
ATOM     86  C61 UNL A   1      15.084  55.393   4.168  1.00  0.00    +0.000 C 
ATOM     87  C62 UNL A   1      14.544  54.034   4.212  1.00  0.00    +0.000 C 
ATOM     88  N7  UNL A   1      15.140  53.401   3.151  1.00  0.00    +0.000 N 
ATOM     89  C63 UNL A   1      17.680  52.321  -0.342  1.00  0.00    +0.000 C 
ATOM     90  C64 UNL A   1      17.444  51.044  -0.612  1.00  0.00    +0.000 C 
ATOM     91  C65 UNL A   1      12.142  50.422   5.845  1.00  0.00    +0.000 C 
ATOM     92  C66 UNL A   1      12.296  51.707   6.140  1.00  0.00    +0.000 C 
ATOM    121  H27 UNL A   1      12.933  46.493   2.374  1.00  0.00    +0.000 H 
ATOM    122  H28 UNL A   1      14.601  46.678   0.375  1.00  0.00    +0.000 H 
ATOM    123  H29 UNL A   1      14.716  50.229   2.504  1.00  0.00    +0.000 H 
ATOM    124  H30 UNL A   1      16.434  56.350   2.850  1.00  0.00    +0.000 H 
ATOM    125  H31 UNL A   1      14.857  56.150   4.831  1.00  0.00    +0.000 H 
ATOM    126  H32 UNL A   1      14.968  52.461   2.917  1.00  0.00    +0.000 H 
ATOM    127  H33 UNL A   1      18.330  52.976  -0.804  1.00  0.00    +0.000 H 
ATOM    128  H34 UNL A   1      17.902  50.515  -1.370  1.00  0.00    +0.000 H 
ENDROOT
BRANCH   36   35
ATOM     33  C26 UNL A   1      11.583  56.178   6.926  1.00  0.00    +0.000 C 
ATOM     34  C27 UNL A   1      11.983  55.213   5.998  1.00  0.00    +0.000 C 
ATOM     35  C28 UNL A   1      13.182  54.505   6.178  1.00  0.00    +0.000 C 
ATOM    132  H38 UNL A   1      14.106  55.859   9.109  1.00  0.00    +0.000 H 
ATOM    131  H37 UNL A   1      14.846  54.246   7.457  1.00  0.00    +0.000 H 
ATOM    119  H25 UNL A   1      10.726  56.729   6.760  1.00  0.00    +0.000 H 
ATOM    120  H26 UNL A   1      11.393  55.018   5.174  1.00  0.00    +0.000 H 
ATOM     93  C67 UNL A   1      13.959  54.755   7.318  1.00  0.00    +0.000 C 
ATOM     94  C68 UNL A   1      13.536  55.690   8.266  1.00  0.00    +0.000 C 
ATOM     32  C25 UNL A   1      12.342  56.401   8.079  1.00  0.00    +0.000 C 
BRANCH   32    2
ATOM      1  O1  UNL A   1      12.431  58.581   8.930  1.00  0.00    +0.000 O 
ATOM      2  C1  UNL A   1      11.991  57.442   9.076  1.00  0.00    +0.000 C 
BRANCH    2    3
ATOM      3  N1  UNL A   1      11.201  57.166  10.162  1.00  0.00    +0.000 N 
ATOM     95  H1  UNL A   1      10.965  57.947  10.712  1.00  0.00    +0.000 H 
BRANCH    3    4
ATOM     97  H3  UNL A   1       9.728  56.115  11.111  1.00  0.00    +0.000 H 
ATOM      4  C2  UNL A   1      10.659  55.904  10.630  1.00  0.00    +0.000 C 
ATOM     96  H2  UNL A   1      10.536  55.254   9.789  1.00  0.00    +0.000 H 
BRANCH    4    5
ATOM     98  H4  UNL A   1      10.932  54.868  12.450  1.00  0.00    +0.000 H 
ATOM     99  H5  UNL A   1      12.278  55.947  11.939  1.00  0.00    +0.000 H 
ATOM      5  C3  UNL A   1      11.555  55.213  11.652  1.00  0.00    +0.000 C 
BRANCH    5    6
ATOM    100  H6  UNL A   1      12.508  54.143  10.090  1.00  0.00    +0.000 H 
ATOM    101  H7  UNL A   1      11.799  53.150  11.407  1.00  0.00    +0.000 H 
ATOM      6  C4  UNL A   1      12.366  54.019  11.144  1.00  0.00    +0.000 C 
BRANCH    6    7
ATOM    103  H9  UNL A   1      14.230  54.776  11.703  1.00  0.00    +0.000 H 
ATOM    102  H8  UNL A   1      13.592  53.489  12.787  1.00  0.00    +0.000 H 
ATOM      7  C5  UNL A   1      13.743  53.826  11.783  1.00  0.00    +0.000 C 
BRANCH    7    8
ATOM    105  H11 UNL A   1      14.041  52.091  10.651  1.00  0.00    +0.000 H 
ATOM    104  H10 UNL A   1      15.274  53.373  10.385  1.00  0.00    +0.000 H 
ATOM      8  C6  UNL A   1      14.681  52.828  11.091  1.00  0.00    +0.000 C 
BRANCH    8    9
ATOM      9  C7  UNL A   1      15.634  52.053  12.002  1.00  0.00    +0.000 C 
ATOM    106  H12 UNL A   1      15.267  52.109  13.005  1.00  0.00    +0.000 H 
ATOM    107  H13 UNL A   1      16.602  52.499  11.904  1.00  0.00    +0.000 H 
BRANCH    9   10
ATOM     10  N2  UNL A   1      15.760  50.654  11.632  1.00  0.00    +0.000 N 
ATOM    108  H14 UNL A   1      15.089  50.041  12.012  1.00  0.00    +0.000 H 
BRANCH   10   11
ATOM     11  C8  UNL A   1      16.706  50.086  10.816  1.00  0.00    +0.000 C 
ATOM     12  O2  UNL A   1      17.758  49.657  11.286  1.00  0.00    +0.000 O 
BRANCH   11   13
ATOM     13  C9  UNL A   1      16.466  49.935   9.373  1.00  0.00    +0.000 C 
ATOM     14  C10 UNL A   1      17.088  50.849   8.512  1.00  0.00    +0.000 C 
ATOM    109  H15 UNL A   1      17.703  51.583   8.897  1.00  0.00    +0.000 H 
ATOM     15  C11 UNL A   1      16.877  50.771   7.133  1.00  0.00    +0.000 C 
ATOM     17  C13 UNL A   1      15.399  48.899   7.479  1.00  0.00    +0.000 C 
ATOM     18  C14 UNL A   1      15.600  48.964   8.865  1.00  0.00    +0.000 C 
ATOM    110  H16 UNL A   1      17.347  51.435   6.500  1.00  0.00    +0.000 H 
ATOM    112  H18 UNL A   1      14.775  48.176   7.090  1.00  0.00    +0.000 H 
ATOM     16  C12 UNL A   1      16.030  49.795   6.616  1.00  0.00    +0.000 C 
ATOM    111  H17 UNL A   1      15.871  49.734   5.598  1.00  0.00    +0.000 H 
BRANCH   18   19
ATOM     19  N3  UNL A   1      15.022  47.941   9.614  1.00  0.00    +0.000 N 
BRANCH   19   20
ATOM    113  H19 UNL A   1      14.645  46.410   8.319  1.00  0.00    +0.000 H 
ATOM     20  C15 UNL A   1      14.286  47.032   9.060  1.00  0.00    +0.000 C 
BRANCH   20   21
ATOM     26  C20 UNL A   1      12.377  49.552  13.665  1.00  0.00    +0.000 C 
ATOM    117  H23 UNL A   1      12.290  51.503  12.855  1.00  0.00    +0.000 H 
ATOM    114  H20 UNL A   1      13.233  45.160  10.497  1.00  0.00    +0.000 H 
ATOM    115  H21 UNL A   1      12.379  47.490  14.154  1.00  0.00    +0.000 H 
ATOM    116  H22 UNL A   1      12.517  49.871  14.636  1.00  0.00    +0.000 H 
ATOM     21  C16 UNL A   1      12.898  46.946   9.558  1.00  0.00    +0.000 C 
ATOM     22  C17 UNL A   1      12.806  46.094  10.592  1.00  0.00    +0.000 C 
ATOM     23  O3  UNL A   1      12.165  46.410  11.784  1.00  0.00    +0.000 O 
ATOM     24  C18 UNL A   1      12.156  47.760  12.076  1.00  0.00    +0.000 C 
ATOM    118  H24 UNL A   1      11.988  50.761  10.555  1.00  0.00    +0.000 H 
ATOM     25  C19 UNL A   1      12.312  48.180  13.389  1.00  0.00    +0.000 C 
ATOM     27  C21 UNL A   1      12.255  50.495  12.636  1.00  0.00    +0.000 C 
ATOM     28  C22 UNL A   1      12.088  50.075  11.318  1.00  0.00    +0.000 C 
ATOM     29  C23 UNL A   1      12.059  48.707  11.054  1.00  0.00    +0.000 C 
ATOM     30  C24 UNL A   1      12.099  48.189   9.683  1.00  0.00    +0.000 C 
ATOM     31  O4  UNL A   1      11.604  48.773   8.732  1.00  0.00    +0.000 O 
ENDBRANCH   20   21
ENDBRANCH   19   20
ENDBRANCH   18   19
ENDBRANCH   11   13
ENDBRANCH   10   11
ENDBRANCH    9   10
ENDBRANCH    8    9
ENDBRANCH    7    8
ENDBRANCH    6    7
ENDBRANCH    5    6
ENDBRANCH    4    5
ENDBRANCH    3    4
ENDBRANCH    2    3
ENDBRANCH   32    2
ENDBRANCH   36   35
BRANCH   40   41
ATOM     41  C33 UNL A   1      12.093  47.764   4.764  1.00  0.00    +0.000 C 
ATOM     42  C34 UNL A   1      12.711  46.809   5.582  1.00  0.00    +0.000 C 
ATOM     43  F1  UNL A   1      14.045  46.802   5.724  1.00  0.00    +0.000 F 
ATOM     44  C35 UNL A   1      11.957  45.850   6.250  1.00  0.00    +0.000 C 
ATOM     45  F2  UNL A   1      12.565  44.937   7.021  1.00  0.00    +0.000 F 
ATOM     46  C36 UNL A   1      10.574  45.835   6.120  1.00  0.00    +0.000 C 
ATOM     47  F3  UNL A   1       9.850  44.913   6.769  1.00  0.00    +0.000 F 
ATOM     48  C37 UNL A   1       9.945  46.773   5.315  1.00  0.00    +0.000 C 
ATOM     49  F4  UNL A   1       8.611  46.759   5.189  1.00  0.00    +0.000 F 
ATOM     50  C38 UNL A   1      10.698  47.729   4.639  1.00  0.00    +0.000 C 
ATOM     51  F5  UNL A   1      10.066  48.625   3.865  1.00  0.00    +0.000 F 
ENDBRANCH   40   41
BRANCH   57   58
ATOM     65  C48 UNL A   1      16.497  47.102  -2.868  1.00  0.00    +0.000 C 
ATOM     66  F9  UNL A   1      15.807  46.775  -3.969  1.00  0.00    +0.000 F 
ATOM     67  C49 UNL A   1      15.933  47.956  -1.924  1.00  0.00    +0.000 C 
ATOM     68  F10 UNL A   1      14.702  48.442  -2.140  1.00  0.00    +0.000 F 
ATOM     58  C44 UNL A   1      16.638  48.309  -0.765  1.00  0.00    +0.000 C 
ATOM     59  C45 UNL A   1      17.925  47.782  -0.584  1.00  0.00    +0.000 C 
ATOM     60  F6  UNL A   1      18.640  48.109   0.503  1.00  0.00    +0.000 F 
ATOM     61  C46 UNL A   1      18.488  46.937  -1.535  1.00  0.00    +0.000 C 
ATOM     62  F7  UNL A   1      19.728  46.461  -1.355  1.00  0.00    +0.000 F 
ATOM     63  C47 UNL A   1      17.774  46.595  -2.673  1.00  0.00    +0.000 C 
ATOM     64  F8  UNL A   1      18.320  45.783  -3.590  1.00  0.00    +0.000 F 
ENDBRANCH   57   58
BRANCH   72   73
ATOM     73  C53 UNL A   1      17.625  55.003   0.815  1.00  0.00    +0.000 C 
ATOM     74  C54 UNL A   1      18.821  55.374   1.443  1.00  0.00    +0.000 C 
ATOM     75  F11 UNL A   1      19.181  54.792   2.596  1.00  0.00    +0.000 F 
ATOM     76  C55 UNL A   1      19.641  56.355   0.891  1.00  0.00    +0.000 C 
ATOM     77  F12 UNL A   1      20.777  56.703   1.513  1.00  0.00    +0.000 F 
ATOM     78  C56 UNL A   1      19.285  56.972  -0.299  1.00  0.00    +0.000 C 
ATOM     79  F13 UNL A   1      20.079  57.911  -0.832  1.00  0.00    +0.000 F 
ATOM     80  C57 UNL A   1      18.103  56.620  -0.934  1.00  0.00    +0.000 C 
ATOM     81  F14 UNL A   1      17.757  57.214  -2.084  1.00  0.00    +0.000 F 
ATOM     82  C58 UNL A   1      17.276  55.648  -0.378  1.00  0.00    +0.000 C 
ATOM     83  F15 UNL A   1      16.137  55.323  -1.007  1.00  0.00    +0.000 F 
ENDBRANCH   72   73
TORSDOF 18
ENDMDL
MODEL 3
REMARK VINA RESULT:     -10.9     39.377     43.608
ROOT
ATOM    129  H35 UNL A   1      16.632  56.706   2.808  1.00  0.00    +0.000 H 
ATOM    130  H36 UNL A   1      15.130  56.445   4.868  1.00  0.00    +0.000 H 
ATOM     36  C29 UNL A   1      14.101  53.808   5.207  1.00  0.00    +0.000 C 
ATOM     37  C30 UNL A   1      15.043  54.296   4.147  1.00  0.00    +0.000 C 
ATOM     38  N4  UNL A   1      15.594  53.628   3.165  1.00  0.00    +0.000 N 
ATOM     39  C31 UNL A   1      16.359  54.547   2.464  1.00  0.00    +0.000 C 
ATOM     40  C32 UNL A   1      17.138  54.338   1.376  1.00  0.00    +0.000 C 
ATOM     52  C39 UNL A   1      17.339  53.062   0.741  1.00  0.00    +0.000 C 
ATOM     53  C40 UNL A   1      18.220  52.731  -0.274  1.00  0.00    +0.000 C 
ATOM     54  C41 UNL A   1      18.026  51.382  -0.599  1.00  0.00    +0.000 C 
ATOM     55  C42 UNL A   1      17.034  50.875   0.222  1.00  0.00    +0.000 C 
ATOM     56  N5  UNL A   1      16.635  51.910   1.052  1.00  0.00    +0.000 N 
ATOM     57  C43 UNL A   1      16.472  49.551   0.245  1.00  0.00    +0.000 C 
ATOM     69  C50 UNL A   1      15.606  49.094   1.179  1.00  0.00    +0.000 C 
ATOM     70  N6  UNL A   1      15.061  49.771   2.259  1.00  0.00    +0.000 N 
ATOM     71  C51 UNL A   1      14.277  48.912   2.860  1.00  0.00    +0.000 C 
ATOM     72  C52 UNL A   1      13.426  49.108   4.078  1.00  0.00    +0.000 C 
ATOM     84  C59 UNL A   1      13.382  50.311   4.679  1.00  0.00    +0.000 C 
ATOM     85  C60 UNL A   1      12.580  50.637   5.853  1.00  0.00    +0.000 C 
ATOM     86  C61 UNL A   1      12.750  51.935   6.153  1.00  0.00    +0.000 C 
ATOM     87  C62 UNL A   1      13.695  52.523   5.202  1.00  0.00    +0.000 C 
ATOM     88  N7  UNL A   1      14.020  51.485   4.366  1.00  0.00    +0.000 N 
ATOM     89  C63 UNL A   1      14.238  47.584   2.231  1.00  0.00    +0.000 C 
ATOM     90  C64 UNL A   1      15.072  47.747   1.212  1.00  0.00    +0.000 C 
ATOM     91  C65 UNL A   1      16.195  55.826   3.124  1.00  0.00    +0.000 C 
ATOM     92  C66 UNL A   1      15.409  55.719   4.188  1.00  0.00    +0.000 C 
ATOM    121  H27 UNL A   1      18.902  53.368  -0.715  1.00  0.00    +0.000 H 
ATOM    122  H28 UNL A   1      18.536  50.857  -1.327  1.00  0.00    +0.000 H 
ATOM    123  H29 UNL A   1      15.953  51.838   1.759  1.00  0.00    +0.000 H 
ATOM    124  H30 UNL A   1      11.979  49.977   6.372  1.00  0.00    +0.000 H 
ATOM    125  H31 UNL A   1      12.289  52.437   6.927  1.00  0.00    +0.000 H 
ATOM    126  H32 UNL A   1      14.650  51.573   3.614  1.00  0.00    +0.000 H 
ATOM    127  H33 UNL A   1      13.702  46.747   2.509  1.00  0.00    +0.000 H 
ATOM    128  H34 UNL A   1      15.310  47.009   0.532  1.00  0.00    +0.000 H 
ENDROOT
BRANCH   36   35
ATOM     33  C26 UNL A   1      13.749  55.680   8.479  1.00  0.00    +0.000 C 
ATOM     34  C27 UNL A   1      14.293  54.920   7.441  1.00  0.00    +0.000 C 
ATOM     35  C28 UNL A   1      13.576  54.719   6.251  1.00  0.00    +0.000 C 
ATOM    132  H38 UNL A   1      10.871  56.562   7.005  1.00  0.00    +0.000 H 
ATOM    131  H37 UNL A   1      11.776  55.173   5.237  1.00  0.00    +0.000 H 
ATOM    119  H25 UNL A   1      14.262  55.779   9.368  1.00  0.00    +0.000 H 
ATOM    120  H26 UNL A   1      15.231  54.502   7.548  1.00  0.00    +0.000 H 
ATOM     93  C67 UNL A   1      12.317  55.319   6.104  1.00  0.00    +0.000 C 
ATOM     94  C68 UNL A   1      11.792  56.113   7.126  1.00  0.00    +0.000 C 
ATOM     32  C25 UNL A   1      12.508  56.304   8.316  1.00  0.00    +0.000 C 
BRANCH   32    2
ATOM      1  O1  UNL A   1      11.828  58.311   9.313  1.00  0.00    +0.000 O 
ATOM      2  C1  UNL A   1      11.860  57.085   9.398  1.00  0.00    +0.000 C 
BRANCH    2    3
ATOM      3  N1  UNL A   1      11.307  56.478  10.496  1.00  0.00    +0.000 N 
ATOM     95  H1  UNL A   1      11.538  56.891  11.359  1.00  0.00    +0.000 H 
BRANCH    3    4
ATOM     97  H3  UNL A   1       9.783  55.479  11.420  1.00  0.00    +0.000 H 
ATOM      4  C2  UNL A   1      10.435  55.322  10.588  1.00  0.00    +0.000 C 
ATOM     96  H2  UNL A   1       9.896  55.228   9.669  1.00  0.00    +0.000 H 
BRANCH    4    5
ATOM     98  H4  UNL A   1      10.651  53.468  11.576  1.00  0.00    +0.000 H 
ATOM     99  H5  UNL A   1      12.175  54.321  11.144  1.00  0.00    +0.000 H 
ATOM      5  C3  UNL A   1      11.193  54.023  10.841  1.00  0.00    +0.000 C 
BRANCH    5    6
ATOM    100  H6  UNL A   1      11.664  52.140   9.990  1.00  0.00    +0.000 H 
ATOM    101  H7  UNL A   1      12.161  53.581   9.040  1.00  0.00    +0.000 H 
ATOM      6  C4  UNL A   1      11.400  53.113   9.629  1.00  0.00    +0.000 C 
BRANCH    6    7
ATOM    103  H9  UNL A   1       9.864  53.951   8.488  1.00  0.00    +0.000 H 
ATOM    102  H8  UNL A   1      10.517  52.405   7.839  1.00  0.00    +0.000 H 
ATOM      7  C5  UNL A   1      10.195  52.955   8.698  1.00  0.00    +0.000 C 
BRANCH    7    8
ATOM    105  H11 UNL A   1       9.350  51.637  10.087  1.00  0.00    +0.000 H 
ATOM    104  H10 UNL A   1       8.268  52.982   9.585  1.00  0.00    +0.000 H 
ATOM      8  C6  UNL A   1       8.972  52.235   9.284  1.00  0.00    +0.000 C 
BRANCH    8    9
ATOM      9  C7  UNL A   1       8.251  51.261   8.351  1.00  0.00    +0.000 C 
ATOM    106  H12 UNL A   1       7.307  51.685   8.081  1.00  0.00    +0.000 H 
ATOM    107  H13 UNL A   1       8.138  50.337   8.878  1.00  0.00    +0.000 H 
BRANCH    9   10
ATOM     10  N2  UNL A   1       8.997  50.981   7.136  1.00  0.00    +0.000 N 
ATOM    108  H14 UNL A   1       9.522  51.727   6.766  1.00  0.00    +0.000 H 
BRANCH   10   11
ATOM     11  C8  UNL A   1       9.054  49.797   6.444  1.00  0.00    +0.000 C 
ATOM     12  O2  UNL A   1       9.246  49.794   5.230  1.00  0.00    +0.000 O 
BRANCH   11   13
ATOM     13  C9  UNL A   1       8.935  48.508   7.142  1.00  0.00    +0.000 C 
ATOM     14  C10 UNL A   1       7.824  47.708   6.843  1.00  0.00    +0.000 C 
ATOM    109  H15 UNL A   1       7.136  48.023   6.141  1.00  0.00    +0.000 H 
ATOM     15  C11 UNL A   1       7.645  46.484   7.492  1.00  0.00    +0.000 C 
ATOM     17  C13 UNL A   1       9.656  46.877   8.761  1.00  0.00    +0.000 C 
ATOM     18  C14 UNL A   1       9.850  48.108   8.119  1.00  0.00    +0.000 C 
ATOM    110  H16 UNL A   1       6.835  45.889   7.260  1.00  0.00    +0.000 H 
ATOM    112  H18 UNL A   1      10.333  46.563   9.473  1.00  0.00    +0.000 H 
ATOM     16  C12 UNL A   1       8.562  46.069   8.454  1.00  0.00    +0.000 C 
ATOM    111  H17 UNL A   1       8.432  45.166   8.937  1.00  0.00    +0.000 H 
BRANCH   18   19
ATOM     19  N3  UNL A   1      11.041  48.768   8.412  1.00  0.00    +0.000 N 
BRANCH   19   20
ATOM    113  H19 UNL A   1      10.535  49.946  10.000  1.00  0.00    +0.000 H 
ATOM     20  C15 UNL A   1      11.236  49.329   9.562  1.00  0.00    +0.000 C 
BRANCH   20   21
ATOM     26  C20 UNL A   1      16.232  50.797   7.538  1.00  0.00    +0.000 C 
ATOM    117  H23 UNL A   1      16.107  52.846   8.047  1.00  0.00    +0.000 H 
ATOM    114  H20 UNL A   1      12.606  47.142   9.419  1.00  0.00    +0.000 H 
ATOM    115  H21 UNL A   1      16.173  48.691   7.320  1.00  0.00    +0.000 H 
ATOM    116  H22 UNL A   1      16.866  50.949   6.738  1.00  0.00    +0.000 H 
ATOM     21  C16 UNL A   1      12.532  49.028  10.205  1.00  0.00    +0.000 C 
ATOM     22  C17 UNL A   1      13.148  48.000   9.599  1.00  0.00    +0.000 C 
ATOM     23  O3  UNL A   1      14.478  48.037   9.200  1.00  0.00    +0.000 O 
ATOM     24  C18 UNL A   1      14.945  49.306   8.919  1.00  0.00    +0.000 C 
ATOM    118  H24 UNL A   1      14.587  52.503   9.919  1.00  0.00    +0.000 H 
ATOM     25  C19 UNL A   1      15.824  49.497   7.861  1.00  0.00    +0.000 C 
ATOM     27  C21 UNL A   1      15.786  51.895   8.287  1.00  0.00    +0.000 C 
ATOM     28  C22 UNL A   1      14.913  51.703   9.356  1.00  0.00    +0.000 C 
ATOM     29  C23 UNL A   1      14.488  50.408   9.645  1.00  0.00    +0.000 C 
ATOM     30  C24 UNL A   1      13.414  50.150  10.609  1.00  0.00    +0.000 C 
ATOM     31  O4  UNL A   1      13.215  50.847  11.592  1.00  0.00    +0.000 O 
ENDBRANCH   20   21
ENDBRANCH   19   20
ENDBRANCH   18   19
ENDBRANCH   11   13
ENDBRANCH   10   11
ENDBRANCH    9   10
ENDBRANCH    8    9
ENDBRANCH    7    8
ENDBRANCH    6    7
ENDBRANCH    5    6
ENDBRANCH    4    5
ENDBRANCH    3    4
ENDBRANCH    2    3
ENDBRANCH   32    2
ENDBRANCH   36   35
BRANCH   40   41
ATOM     41  C33 UNL A   1      17.847  55.520   0.798  1.00  0.00    +0.000 C 
ATOM     42  C34 UNL A   1      19.103  55.918   1.273  1.00  0.00    +0.000 C 
ATOM     43  F1  UNL A   1      19.669  55.274   2.306  1.00  0.00    +0.000 F 
ATOM     44  C35 UNL A   1      19.778  56.986   0.692  1.00  0.00    +0.000 C 
ATOM     45  F2  UNL A   1      20.976  57.359   1.166  1.00  0.00    +0.000 F 
ATOM     46  C36 UNL A   1      19.214  57.668  -0.378  1.00  0.00    +0.000 C 
ATOM     47  F3  UNL A   1      19.869  58.694  -0.939  1.00  0.00    +0.000 F 
ATOM     48  C37 UNL A   1      17.971  57.289  -0.862  1.00  0.00    +0.000 C 
ATOM     49  F4  UNL A   1      17.427  57.947  -1.894  1.00  0.00    +0.000 F 
ATOM     50  C38 UNL A   1      17.290  56.225  -0.278  1.00  0.00    +0.000 C 
ATOM     51  F5  UNL A   1      16.088  55.879  -0.763  1.00  0.00    +0.000 F 
ENDBRANCH   40   41
BRANCH   57   58
ATOM     65  C48 UNL A   1      18.428  46.959  -1.729  1.00  0.00    +0.000 C 
ATOM     66  F9  UNL A   1      19.548  46.236  -1.600  1.00  0.00    +0.000 F 
ATOM     67  C49 UNL A   1      18.043  47.831  -0.714  1.00  0.00    +0.000 C 
ATOM     68  F10 UNL A   1      18.806  47.926   0.385  1.00  0.00    +0.000 F 
ATOM     58  C44 UNL A   1      16.875  48.597  -0.832  1.00  0.00    +0.000 C 
ATOM     59  C45 UNL A   1      16.106  48.460  -1.995  1.00  0.00    +0.000 C 
ATOM     60  F6  UNL A   1      14.972  49.163  -2.140  1.00  0.00    +0.000 F 
ATOM     61  C46 UNL A   1      16.489  47.581  -3.004  1.00  0.00    +0.000 C 
ATOM     62  F7  UNL A   1      15.729  47.448  -4.099  1.00  0.00    +0.000 F 
ATOM     63  C47 UNL A   1      17.650  46.835  -2.872  1.00  0.00    +0.000 C 
ATOM     64  F8  UNL A   1      18.016  45.985  -3.842  1.00  0.00    +0.000 F 
ENDBRANCH   57   58
BRANCH   72   73
ATOM     73  C53 UNL A   1      12.618  47.997   4.628  1.00  0.00    +0.000 C 
ATOM     74  C54 UNL A   1      11.387  47.655   4.056  1.00  0.00    +0.000 C 
ATOM     75  F11 UNL A   1      10.904  48.369   3.029  1.00  0.00    +0.000 F 
ATOM     76  C55 UNL A   1      10.644  46.586   4.549  1.00  0.00    +0.000 C 
ATOM     77  F12 UNL A   1       9.462  46.282   3.995  1.00  0.00    +0.000 F 
ATOM     78  C56 UNL A   1      11.123  45.838   5.614  1.00  0.00    +0.000 C 
ATOM     79  F13 UNL A   1      10.410  44.805   6.084  1.00  0.00    +0.000 F 
ATOM     80  C57 UNL A   1      12.340  46.162   6.195  1.00  0.00    +0.000 C 
ATOM     81  F14 UNL A   1      12.806  45.440   7.223  1.00  0.00    +0.000 F 
ATOM     82  C58 UNL A   1      13.079  47.237   5.710  1.00  0.00    +0.000 C 
ATOM     83  F15 UNL A   1      14.253  47.536   6.287  1.00  0.00    +0.000 F 
ENDBRANCH   72   73
TORSDOF 18
ENDMDL
MODEL 4
REMARK VINA RESULT:     -10.9     38.361     43.511
ROOT
ATOM    129  H35 UNL A   1      17.094  56.700   2.133  1.00  0.00    +0.000 H 
ATOM    130  H36 UNL A   1      15.591  56.596   4.206  1.00  0.00    +0.000 H 
ATOM     36  C29 UNL A   1      14.427  54.030   4.649  1.00  0.00    +0.000 C 
ATOM     37  C30 UNL A   1      15.388  54.429   3.569  1.00  0.00    +0.000 C 
ATOM     38  N4  UNL A   1      15.898  53.696   2.611  1.00  0.00    +0.000 N 
ATOM     39  C31 UNL A   1      16.707  54.547   1.873  1.00  0.00    +0.000 C 
ATOM     40  C32 UNL A   1      17.468  54.256   0.791  1.00  0.00    +0.000 C 
ATOM     52  C39 UNL A   1      17.599  52.949   0.205  1.00  0.00    +0.000 C 
ATOM     53  C40 UNL A   1      18.457  52.534  -0.800  1.00  0.00    +0.000 C 
ATOM     54  C41 UNL A   1      18.192  51.186  -1.073  1.00  0.00    +0.000 C 
ATOM     55  C42 UNL A   1      17.178  50.762  -0.230  1.00  0.00    +0.000 C 
ATOM     56  N5  UNL A   1      16.838  51.847   0.561  1.00  0.00    +0.000 N 
ATOM     57  C43 UNL A   1      16.549  49.471  -0.155  1.00  0.00    +0.000 C 
ATOM     69  C50 UNL A   1      15.665  49.095   0.798  1.00  0.00    +0.000 C 
ATOM     70  N6  UNL A   1      15.161  49.840   1.853  1.00  0.00    +0.000 N 
ATOM     71  C51 UNL A   1      14.337  49.047   2.489  1.00  0.00    +0.000 C 
ATOM     72  C52 UNL A   1      13.503  49.333   3.702  1.00  0.00    +0.000 C 
ATOM     84  C59 UNL A   1      13.525  50.558   4.256  1.00  0.00    +0.000 C 
ATOM     85  C60 UNL A   1      12.747  50.970   5.420  1.00  0.00    +0.000 C 
ATOM     86  C61 UNL A   1      12.986  52.268   5.669  1.00  0.00    +0.000 C 
ATOM     87  C62 UNL A   1      13.955  52.769   4.694  1.00  0.00    +0.000 C 
ATOM     88  N7  UNL A   1      14.221  51.685   3.897  1.00  0.00    +0.000 N 
ATOM     89  C63 UNL A   1      14.225  47.700   1.911  1.00  0.00    +0.000 C 
ATOM     90  C64 UNL A   1      15.061  47.780   0.885  1.00  0.00    +0.000 C 
ATOM     91  C65 UNL A   1      16.613  55.857   2.484  1.00  0.00    +0.000 C 
ATOM     92  C66 UNL A   1      15.828  55.831   3.554  1.00  0.00    +0.000 C 
ATOM    121  H27 UNL A   1      19.169  53.117  -1.267  1.00  0.00    +0.000 H 
ATOM    122  H28 UNL A   1      18.670  50.607  -1.782  1.00  0.00    +0.000 H 
ATOM    123  H29 UNL A   1      16.157  51.838   1.272  1.00  0.00    +0.000 H 
ATOM    124  H30 UNL A   1      12.115  50.363   5.965  1.00  0.00    +0.000 H 
ATOM    125  H31 UNL A   1      12.556  52.822   6.426  1.00  0.00    +0.000 H 
ATOM    126  H32 UNL A   1      14.851  51.712   3.141  1.00  0.00    +0.000 H 
ATOM    127  H33 UNL A   1      13.649  46.903   2.222  1.00  0.00    +0.000 H 
ATOM    128  H34 UNL A   1      15.257  47.006   0.232  1.00  0.00    +0.000 H 
ENDROOT
BRANCH   36   35
ATOM     33  C26 UNL A   1      14.128  55.974   7.884  1.00  0.00    +0.000 C 
ATOM     34  C27 UNL A   1      14.635  55.146   6.879  1.00  0.00    +0.000 C 
ATOM     35  C28 UNL A   1      13.955  55.007   5.659  1.00  0.00    +0.000 C 
ATOM    132  H38 UNL A   1      11.431  57.137   6.269  1.00  0.00    +0.000 H 
ATOM    131  H37 UNL A   1      12.263  55.635   4.557  1.00  0.00    +0.000 H 
ATOM    119  H25 UNL A   1      14.608  56.030   8.796  1.00  0.00    +0.000 H 
ATOM    120  H26 UNL A   1      15.517  54.633   7.034  1.00  0.00    +0.000 H 
ATOM     93  C67 UNL A   1      12.776  55.735   5.448  1.00  0.00    +0.000 C 
ATOM     94  C68 UNL A   1      12.293  56.594   6.438  1.00  0.00    +0.000 C 
ATOM     32  C25 UNL A   1      12.970  56.724   7.657  1.00  0.00    +0.000 C 
BRANCH   32    2
ATOM      1  O1  UNL A   1      12.590  58.792   8.689  1.00  0.00    +0.000 O 
ATOM      2  C1  UNL A   1      12.361  57.585   8.702  1.00  0.00    +0.000 C 
BRANCH    2    3
ATOM      3  N1  UNL A   1      11.559  57.068   9.687  1.00  0.00    +0.000 N 
ATOM     95  H1  UNL A   1      11.714  57.440  10.584  1.00  0.00    +0.000 H 
BRANCH    3    4
ATOM     97  H3  UNL A   1       9.741  56.354  10.287  1.00  0.00    +0.000 H 
ATOM      4  C2  UNL A   1      10.518  56.059   9.615  1.00  0.00    +0.000 C 
ATOM     96  H2  UNL A   1      10.171  55.999   8.604  1.00  0.00    +0.000 H 
BRANCH    4    5
ATOM     98  H4  UNL A   1      10.184  54.192  10.543  1.00  0.00    +0.000 H 
ATOM     99  H5  UNL A   1      11.852  54.854  10.666  1.00  0.00    +0.000 H 
ATOM      5  C3  UNL A   1      10.997  54.678  10.047  1.00  0.00    +0.000 C 
BRANCH    5    6
ATOM    100  H6  UNL A   1      12.039  52.955   9.386  1.00  0.00    +0.000 H 
ATOM    101  H7  UNL A   1      12.062  54.365   8.275  1.00  0.00    +0.000 H 
ATOM      6  C4  UNL A   1      11.484  53.750   8.932  1.00  0.00    +0.000 C 
BRANCH    6    7
ATOM    103  H9  UNL A   1       9.962  53.935   7.514  1.00  0.00    +0.000 H 
ATOM    102  H8  UNL A   1      10.853  52.373   7.452  1.00  0.00    +0.000 H 
ATOM      7  C5  UNL A   1      10.393  53.123   8.062  1.00  0.00    +0.000 C 
BRANCH    7    8
ATOM    105  H11 UNL A   1       8.915  53.179   9.542  1.00  0.00    +0.000 H 
ATOM    104  H10 UNL A   1       8.469  52.229   8.082  1.00  0.00    +0.000 H 
ATOM      8  C6  UNL A   1       9.222  52.466   8.805  1.00  0.00    +0.000 C 
BRANCH    8    9
ATOM      9  C7  UNL A   1       9.545  51.188   9.580  1.00  0.00    +0.000 C 
ATOM    106  H12 UNL A   1       8.732  50.503   9.460  1.00  0.00    +0.000 H 
ATOM    107  H13 UNL A   1       9.689  51.463  10.604  1.00  0.00    +0.000 H 
BRANCH    9   10
ATOM     10  N2  UNL A   1      10.765  50.543   9.127  1.00  0.00    +0.000 N 
ATOM    108  H14 UNL A   1      11.609  50.987   9.372  1.00  0.00    +0.000 H 
BRANCH   10   11
ATOM     11  C8  UNL A   1      10.878  49.386   8.399  1.00  0.00    +0.000 C 
ATOM     12  O2  UNL A   1      10.439  49.326   7.252  1.00  0.00    +0.000 O 
BRANCH   11   13
ATOM     13  C9  UNL A   1      11.567  48.209   8.952  1.00  0.00    +0.000 C 
ATOM     14  C10 UNL A   1      10.773  47.147   9.405  1.00  0.00    +0.000 C 
ATOM    109  H15 UNL A   1       9.746  47.201   9.328  1.00  0.00    +0.000 H 
ATOM     15  C11 UNL A   1      11.370  46.013   9.963  1.00  0.00    +0.000 C 
ATOM     17  C13 UNL A   1      13.539  47.017   9.651  1.00  0.00    +0.000 C 
ATOM     18  C14 UNL A   1      12.956  48.161   9.089  1.00  0.00    +0.000 C 
ATOM    110  H16 UNL A   1      10.786  45.226  10.283  1.00  0.00    +0.000 H 
ATOM    112  H18 UNL A   1      14.565  46.962   9.742  1.00  0.00    +0.000 H 
ATOM     16  C12 UNL A   1      12.755  45.949  10.087  1.00  0.00    +0.000 C 
ATOM    111  H17 UNL A   1      13.199  45.114  10.499  1.00  0.00    +0.000 H 
BRANCH   18   19
ATOM     19  N3  UNL A   1      13.840  49.106   8.572  1.00  0.00    +0.000 N 
BRANCH   19   20
ATOM    113  H19 UNL A   1      15.575  48.034   8.669  1.00  0.00    +0.000 H 
ATOM     20  C15 UNL A   1      15.122  48.961   8.683  1.00  0.00    +0.000 C 
BRANCH   20   21
ATOM     26  C20 UNL A   1      14.194  52.843  12.591  1.00  0.00    +0.000 C 
ATOM    117  H23 UNL A   1      15.039  51.769  14.205  1.00  0.00    +0.000 H 
ATOM    114  H20 UNL A   1      14.799  51.183   7.402  1.00  0.00    +0.000 H 
ATOM    115  H21 UNL A   1      13.593  53.764  10.780  1.00  0.00    +0.000 H 
ATOM    116  H22 UNL A   1      13.542  53.383  13.182  1.00  0.00    +0.000 H 
ATOM     21  C16 UNL A   1      15.893  50.213   8.833  1.00  0.00    +0.000 C 
ATOM     22  C17 UNL A   1      15.213  51.263   8.343  1.00  0.00    +0.000 C 
ATOM     23  O3  UNL A   1      15.038  52.450   9.043  1.00  0.00    +0.000 O 
ATOM     24  C18 UNL A   1      15.066  52.302  10.416  1.00  0.00    +0.000 C 
ATOM    118  H24 UNL A   1      16.560  50.469  12.816  1.00  0.00    +0.000 H 
ATOM     25  C19 UNL A   1      14.210  53.055  11.207  1.00  0.00    +0.000 C 
ATOM     27  C21 UNL A   1      15.051  51.905  13.182  1.00  0.00    +0.000 C 
ATOM     28  C22 UNL A   1      15.919  51.155  12.390  1.00  0.00    +0.000 C 
ATOM     29  C23 UNL A   1      15.901  51.353  11.011  1.00  0.00    +0.000 C 
ATOM     30  C24 UNL A   1      16.623  50.462  10.098  1.00  0.00    +0.000 C 
ATOM     31  O4  UNL A   1      17.673  49.911  10.393  1.00  0.00    +0.000 O 
ENDBRANCH   20   21
ENDBRANCH   19   20
ENDBRANCH   18   19
ENDBRANCH   11   13
ENDBRANCH   10   11
ENDBRANCH    9   10
ENDBRANCH    8    9
ENDBRANCH    7    8
ENDBRANCH    6    7
ENDBRANCH    5    6
ENDBRANCH    4    5
ENDBRANCH    3    4
ENDBRANCH    2    3
ENDBRANCH   32    2
ENDBRANCH   36   35
BRANCH   40   41
ATOM     41  C33 UNL A   1      18.234  55.377   0.166  1.00  0.00    +0.000 C 
ATOM     42  C34 UNL A   1      19.444  55.824   0.714  1.00  0.00    +0.000 C 
ATOM     43  F1  UNL A   1      19.907  55.289   1.854  1.00  0.00    +0.000 F 
ATOM     44  C35 UNL A   1      20.176  56.832   0.095  1.00  0.00    +0.000 C 
ATOM     45  F2  UNL A   1      21.326  57.254   0.638  1.00  0.00    +0.000 F 
ATOM     46  C36 UNL A   1      19.718  57.402  -1.086  1.00  0.00    +0.000 C 
ATOM     47  F3  UNL A   1      20.428  58.369  -1.683  1.00  0.00    +0.000 F 
ATOM     48  C37 UNL A   1      18.523  56.972  -1.643  1.00  0.00    +0.000 C 
ATOM     49  F4  UNL A   1      18.081  57.522  -2.782  1.00  0.00    +0.000 F 
ATOM     50  C38 UNL A   1      17.783  55.969  -1.021  1.00  0.00    +0.000 C 
ATOM     51  F5  UNL A   1      16.630  55.572  -1.579  1.00  0.00    +0.000 F 
ENDBRANCH   40   41
BRANCH   57   58
ATOM     65  C48 UNL A   1      16.417  47.339  -3.298  1.00  0.00    +0.000 C 
ATOM     66  F9  UNL A   1      15.648  47.204  -4.386  1.00  0.00    +0.000 F 
ATOM     67  C49 UNL A   1      16.104  48.301  -2.341  1.00  0.00    +0.000 C 
ATOM     68  F10 UNL A   1      15.030  49.082  -2.533  1.00  0.00    +0.000 F 
ATOM     58  C44 UNL A   1      16.896  48.457  -1.196  1.00  0.00    +0.000 C 
ATOM     59  C45 UNL A   1      18.012  47.623  -1.041  1.00  0.00    +0.000 C 
ATOM     60  F6  UNL A   1      18.806  47.751   0.033  1.00  0.00    +0.000 F 
ATOM     61  C46 UNL A   1      18.327  46.669  -2.004  1.00  0.00    +0.000 C 
ATOM     62  F7  UNL A   1      19.410  45.896  -1.850  1.00  0.00    +0.000 F 
ATOM     63  C47 UNL A   1      17.529  46.526  -3.129  1.00  0.00    +0.000 C 
ATOM     64  F8  UNL A   1      17.836  45.610  -4.058  1.00  0.00    +0.000 F 
ENDBRANCH   57   58
BRANCH   72   73
ATOM     73  C53 UNL A   1      12.642  48.287   4.295  1.00  0.00    +0.000 C 
ATOM     74  C54 UNL A   1      13.132  47.435   5.292  1.00  0.00    +0.000 C 
ATOM     75  F11 UNL A   1      14.411  47.529   5.685  1.00  0.00    +0.000 F 
ATOM     76  C55 UNL A   1      12.311  46.475   5.877  1.00  0.00    +0.000 C 
ATOM     77  F12 UNL A   1      12.803  45.661   6.822  1.00  0.00    +0.000 F 
ATOM     78  C56 UNL A   1      10.986  46.357   5.482  1.00  0.00    +0.000 C 
ATOM     79  F13 UNL A   1      10.195  45.437   6.050  1.00  0.00    +0.000 F 
ATOM     80  C57 UNL A   1      10.483  47.191   4.494  1.00  0.00    +0.000 C 
ATOM     81  F14 UNL A   1       9.204  47.080   4.112  1.00  0.00    +0.000 F 
ATOM     82  C58 UNL A   1      11.305  48.144   3.901  1.00  0.00    +0.000 C 
ATOM     83  F15 UNL A   1      10.800  48.939   2.946  1.00  0.00    +0.000 F 
ENDBRANCH   72   73
TORSDOF 18
ENDMDL
MODEL 5
REMARK VINA RESULT:     -10.9      0.964      2.213
ROOT
ATOM    129  H35 UNL A   1      38.804  26.832  29.210  1.00  0.00    +0.000 H 
ATOM    130  H36 UNL A   1      39.730  24.759  28.020  1.00  0.00    +0.000 H 
ATOM     36  C29 UNL A   1      42.314  25.152  26.879  1.00  0.00    +0.000 C 
ATOM     37  C30 UNL A   1      41.506  26.128  27.682  1.00  0.00    +0.000 C 
ATOM     38  N4  UNL A   1      41.808  27.353  28.033  1.00  0.00    +0.000 N 
ATOM     39  C31 UNL A   1      40.715  27.824  28.745  1.00  0.00    +0.000 C 
ATOM     40  C32 UNL A   1      40.553  29.032  29.335  1.00  0.00    +0.000 C 
ATOM     52  C39 UNL A   1      41.540  30.079  29.353  1.00  0.00    +0.000 C 
ATOM     53  C40 UNL A   1      41.518  31.276  30.048  1.00  0.00    +0.000 C 
ATOM     54  C41 UNL A   1      42.675  31.995  29.718  1.00  0.00    +0.000 C 
ATOM     55  C42 UNL A   1      43.418  31.238  28.828  1.00  0.00    +0.000 C 
ATOM     56  N5  UNL A   1      42.721  30.058  28.629  1.00  0.00    +0.000 N 
ATOM     57  C43 UNL A   1      44.665  31.565  28.189  1.00  0.00    +0.000 C 
ATOM     69  C50 UNL A   1      45.401  30.708  27.445  1.00  0.00    +0.000 C 
ATOM     70  N6  UNL A   1      45.124  29.390  27.114  1.00  0.00    +0.000 N 
ATOM     71  C51 UNL A   1      46.126  28.989  26.374  1.00  0.00    +0.000 C 
ATOM     72  C52 UNL A   1      46.344  27.653  25.731  1.00  0.00    +0.000 C 
ATOM     84  C59 UNL A   1      45.416  26.688  25.858  1.00  0.00    +0.000 C 
ATOM     85  C60 UNL A   1      45.497  25.357  25.265  1.00  0.00    +0.000 C 
ATOM     86  C61 UNL A   1      44.380  24.676  25.565  1.00  0.00    +0.000 C 
ATOM     87  C62 UNL A   1      43.516  25.518  26.392  1.00  0.00    +0.000 C 
ATOM     88  N7  UNL A   1      44.213  26.693  26.518  1.00  0.00    +0.000 N 
ATOM     89  C63 UNL A   1      47.162  30.008  26.153  1.00  0.00    +0.000 C 
ATOM     90  C64 UNL A   1      46.673  31.037  26.833  1.00  0.00    +0.000 C 
ATOM     91  C65 UNL A   1      39.734  26.759  28.767  1.00  0.00    +0.000 C 
ATOM     92  C66 UNL A   1      40.186  25.677  28.145  1.00  0.00    +0.000 C 
ATOM    121  H27 UNL A   1      40.778  31.586  30.697  1.00  0.00    +0.000 H 
ATOM    122  H28 UNL A   1      42.929  32.929  30.077  1.00  0.00    +0.000 H 
ATOM    123  H29 UNL A   1      43.020  29.314  28.057  1.00  0.00    +0.000 H 
ATOM    124  H30 UNL A   1      46.286  24.997  24.706  1.00  0.00    +0.000 H 
ATOM    125  H31 UNL A   1      44.165  23.714  25.260  1.00  0.00    +0.000 H 
ATOM    126  H32 UNL A   1      43.883  27.465  27.033  1.00  0.00    +0.000 H 
ATOM    127  H33 UNL A   1      48.037  29.941  25.610  1.00  0.00    +0.000 H 
ATOM    128  H34 UNL A   1      47.139  31.954  26.916  1.00  0.00    +0.000 H 
ENDROOT
BRANCH   36   35
ATOM     33  C26 UNL A   1      39.936  22.247  26.394  1.00  0.00    +0.000 C 
ATOM     34  C27 UNL A   1      40.422  23.547  26.554  1.00  0.00    +0.000 C 
ATOM     35  C28 UNL A   1      41.804  23.794  26.579  1.00  0.00    +0.000 C 
ATOM    132  H38 UNL A   1      42.864  20.648  26.067  1.00  0.00    +0.000 H 
ATOM    131  H37 UNL A   1      43.710  22.890  26.432  1.00  0.00    +0.000 H 
ATOM    119  H25 UNL A   1      38.920  22.069  26.427  1.00  0.00    +0.000 H 
ATOM    120  H26 UNL A   1      39.761  24.333  26.655  1.00  0.00    +0.000 H 
ATOM     93  C67 UNL A   1      42.692  22.722  26.408  1.00  0.00    +0.000 C 
ATOM     94  C68 UNL A   1      42.204  21.429  26.206  1.00  0.00    +0.000 C 
ATOM     32  C25 UNL A   1      40.823  21.186  26.189  1.00  0.00    +0.000 C 
BRANCH   32    2
ATOM      1  O1  UNL A   1      41.192  18.873  26.163  1.00  0.00    +0.000 O 
ATOM      2  C1  UNL A   1      40.368  19.779  26.058  1.00  0.00    +0.000 C 
BRANCH    2    3
ATOM      3  N1  UNL A   1      39.057  19.464  25.811  1.00  0.00    +0.000 N 
ATOM     95  H1  UNL A   1      38.703  18.718  26.346  1.00  0.00    +0.000 H 
BRANCH    3    4
ATOM     97  H3  UNL A   1      37.833  21.011  25.278  1.00  0.00    +0.000 H 
ATOM      4  C2  UNL A   1      38.110  20.056  24.885  1.00  0.00    +0.000 C 
ATOM     96  H2  UNL A   1      38.577  20.139  23.926  1.00  0.00    +0.000 H 
BRANCH    4    5
ATOM     98  H4  UNL A   1      36.910  18.391  25.385  1.00  0.00    +0.000 H 
ATOM     99  H5  UNL A   1      36.772  18.993  23.695  1.00  0.00    +0.000 H 
ATOM      5  C3  UNL A   1      36.833  19.237  24.735  1.00  0.00    +0.000 C 
BRANCH    5    6
ATOM    100  H6  UNL A   1      35.555  20.922  24.599  1.00  0.00    +0.000 H 
ATOM    101  H7  UNL A   1      35.468  19.988  26.130  1.00  0.00    +0.000 H 
ATOM      6  C4  UNL A   1      35.523  19.957  25.062  1.00  0.00    +0.000 C 
BRANCH    6    7
ATOM    103  H9  UNL A   1      34.368  19.099  23.549  1.00  0.00    +0.000 H 
ATOM    102  H8  UNL A   1      34.135  18.362  25.173  1.00  0.00    +0.000 H 
ATOM      7  C5  UNL A   1      34.243  19.259  24.600  1.00  0.00    +0.000 C 
BRANCH    7    8
ATOM    105  H11 UNL A   1      32.247  19.400  25.212  1.00  0.00    +0.000 H 
ATOM    104  H10 UNL A   1      33.162  20.945  25.301  1.00  0.00    +0.000 H 
ATOM      8  C6  UNL A   1      32.942  20.061  24.738  1.00  0.00    +0.000 C 
BRANCH    8    9
ATOM      9  C7  UNL A   1      32.273  20.493  23.432  1.00  0.00    +0.000 C 
ATOM    106  H12 UNL A   1      31.260  20.151  23.440  1.00  0.00    +0.000 H 
ATOM    107  H13 UNL A   1      32.834  20.066  22.628  1.00  0.00    +0.000 H 
BRANCH    9   10
ATOM     10  N2  UNL A   1      32.273  21.934  23.245  1.00  0.00    +0.000 N 
ATOM    108  H14 UNL A   1      31.429  22.399  23.448  1.00  0.00    +0.000 H 
BRANCH   10   11
ATOM     11  C8  UNL A   1      33.311  22.722  22.818  1.00  0.00    +0.000 C 
ATOM     12  O2  UNL A   1      33.325  23.169  21.673  1.00  0.00    +0.000 O 
BRANCH   11   13
ATOM     13  C9  UNL A   1      34.406  23.088  23.730  1.00  0.00    +0.000 C 
ATOM     14  C10 UNL A   1      35.716  23.008  23.238  1.00  0.00    +0.000 C 
ATOM    109  H15 UNL A   1      35.882  22.718  22.262  1.00  0.00    +0.000 H 
ATOM     15  C11 UNL A   1      36.797  23.320  24.065  1.00  0.00    +0.000 C 
ATOM     17  C13 UNL A   1      35.269  23.751  25.878  1.00  0.00    +0.000 C 
ATOM     18  C14 UNL A   1      34.172  23.442  25.061  1.00  0.00    +0.000 C 
ATOM    110  H16 UNL A   1      37.759  23.275  23.697  1.00  0.00    +0.000 H 
ATOM    112  H18 UNL A   1      35.109  24.030  26.859  1.00  0.00    +0.000 H 
ATOM     16  C12 UNL A   1      36.573  23.691  25.388  1.00  0.00    +0.000 C 
ATOM    111  H17 UNL A   1      37.369  23.921  26.003  1.00  0.00    +0.000 H 
BRANCH   18   19
ATOM     19  N3  UNL A   1      32.915  23.661  25.618  1.00  0.00    +0.000 N 
BRANCH   19   20
ATOM    113  H19 UNL A   1      32.964  24.205  27.585  1.00  0.00    +0.000 H 
ATOM     20  C15 UNL A   1      32.750  24.473  26.612  1.00  0.00    +0.000 C 
BRANCH   20   21
ATOM     26  C20 UNL A   1      33.042  26.786  21.536  1.00  0.00    +0.000 C 
ATOM    117  H23 UNL A   1      31.512  25.624  20.652  1.00  0.00    +0.000 H 
ATOM    114  H20 UNL A   1      33.908  26.759  26.949  1.00  0.00    +0.000 H 
ATOM    115  H21 UNL A   1      34.383  27.927  22.713  1.00  0.00    +0.000 H 
ATOM    116  H22 UNL A   1      33.548  26.945  20.650  1.00  0.00    +0.000 H 
ATOM     21  C16 UNL A   1      32.231  25.812  26.260  1.00  0.00    +0.000 C 
ATOM     22  C17 UNL A   1      33.226  26.711  26.177  1.00  0.00    +0.000 C 
ATOM     23  O3  UNL A   1      33.382  27.576  25.102  1.00  0.00    +0.000 O 
ATOM     24  C18 UNL A   1      32.865  27.095  23.914  1.00  0.00    +0.000 C 
ATOM    118  H24 UNL A   1      30.326  25.218  22.740  1.00  0.00    +0.000 H 
ATOM     25  C19 UNL A   1      33.534  27.341  22.723  1.00  0.00    +0.000 C 
ATOM     27  C21 UNL A   1      31.872  26.015  21.537  1.00  0.00    +0.000 C 
ATOM     28  C22 UNL A   1      31.193  25.776  22.730  1.00  0.00    +0.000 C 
ATOM     29  C23 UNL A   1      31.712  26.307  23.909  1.00  0.00    +0.000 C 
ATOM     30  C24 UNL A   1      31.180  25.927  25.222  1.00  0.00    +0.000 C 
ATOM     31  O4  UNL A   1      30.007  25.645  25.412  1.00  0.00    +0.000 O 
ENDBRANCH   20   21
ENDBRANCH   19   20
ENDBRANCH   18   19
ENDBRANCH   11   13
ENDBRANCH   10   11
ENDBRANCH    9   10
ENDBRANCH    8    9
ENDBRANCH    7    8
ENDBRANCH    6    7
ENDBRANCH    5    6
ENDBRANCH    4    5
ENDBRANCH    3    4
ENDBRANCH    2    3
ENDBRANCH   32    2
ENDBRANCH   36   35
BRANCH   40   41
ATOM     41  C33 UNL A   1      39.253  29.292  30.026  1.00  0.00    +0.000 C 
ATOM     42  C34 UNL A   1      39.057  28.929  31.365  1.00  0.00    +0.000 C 
ATOM     43  F1  UNL A   1      40.021  28.281  32.037  1.00  0.00    +0.000 F 
ATOM     44  C35 UNL A   1      37.863  29.224  32.015  1.00  0.00    +0.000 C 
ATOM     45  F2  UNL A   1      37.689  28.861  33.293  1.00  0.00    +0.000 F 
ATOM     46  C36 UNL A   1      36.850  29.894  31.342  1.00  0.00    +0.000 C 
ATOM     47  F3  UNL A   1      35.703  30.181  31.972  1.00  0.00    +0.000 F 
ATOM     48  C37 UNL A   1      37.026  30.261  30.016  1.00  0.00    +0.000 C 
ATOM     49  F4  UNL A   1      36.049  30.907  29.366  1.00  0.00    +0.000 F 
ATOM     50  C38 UNL A   1      38.217  29.961  29.360  1.00  0.00    +0.000 C 
ATOM     51  F5  UNL A   1      38.362  30.325  28.078  1.00  0.00    +0.000 F 
ENDBRANCH   40   41
BRANCH   57   58
ATOM     65  C48 UNL A   1      45.344  35.264  27.642  1.00  0.00    +0.000 C 
ATOM     66  F9  UNL A   1      44.971  36.238  26.802  1.00  0.00    +0.000 F 
ATOM     67  C49 UNL A   1      44.823  33.981  27.493  1.00  0.00    +0.000 C 
ATOM     68  F10 UNL A   1      43.947  33.746  26.505  1.00  0.00    +0.000 F 
ATOM     58  C44 UNL A   1      45.203  32.949  28.362  1.00  0.00    +0.000 C 
ATOM     59  C45 UNL A   1      46.116  33.242  29.384  1.00  0.00    +0.000 C 
ATOM     60  F6  UNL A   1      46.491  32.285  30.247  1.00  0.00    +0.000 F 
ATOM     61  C46 UNL A   1      46.627  34.527  29.535  1.00  0.00    +0.000 C 
ATOM     62  F7  UNL A   1      47.482  34.793  30.532  1.00  0.00    +0.000 F 
ATOM     63  C47 UNL A   1      46.244  35.535  28.664  1.00  0.00    +0.000 C 
ATOM     64  F8  UNL A   1      46.734  36.774  28.814  1.00  0.00    +0.000 F 
ENDBRANCH   57   58
BRANCH   72   73
ATOM     73  C53 UNL A   1      47.566  27.380  24.943  1.00  0.00    +0.000 C 
ATOM     74  C54 UNL A   1      47.643  27.739  23.592  1.00  0.00    +0.000 C 
ATOM     75  F11 UNL A   1      46.583  28.294  22.985  1.00  0.00    +0.000 F 
ATOM     76  C55 UNL A   1      48.806  27.516  22.859  1.00  0.00    +0.000 C 
ATOM     77  F12 UNL A   1      48.855  27.857  21.564  1.00  0.00    +0.000 F 
ATOM     78  C56 UNL A   1      49.911  26.939  23.467  1.00  0.00    +0.000 C 
ATOM     79  F13 UNL A   1      51.032  26.731  22.762  1.00  0.00    +0.000 F 
ATOM     80  C57 UNL A   1      49.854  26.575  24.804  1.00  0.00    +0.000 C 
ATOM     81  F14 UNL A   1      50.921  26.019  25.393  1.00  0.00    +0.000 F 
ATOM     82  C58 UNL A   1      48.689  26.787  25.535  1.00  0.00    +0.000 C 
ATOM     83  F15 UNL A   1      48.653  26.425  26.826  1.00  0.00    +0.000 F 
ENDBRANCH   72   73
TORSDOF 18
ENDMDL
MODEL 6
REMARK VINA RESULT:     -10.5     40.131     47.358
ROOT
ATOM    129  H35 UNL A   1       6.128  -9.190  32.604  1.00  0.00    +0.000 H 
ATOM    130  H36 UNL A   1       6.806  -9.337  30.137  1.00  0.00    +0.000 H 
ATOM     36  C29 UNL A   1       6.220  -6.978  28.646  1.00  0.00    +0.000 C 
ATOM     37  C30 UNL A   1       6.005  -7.215  30.111  1.00  0.00    +0.000 C 
ATOM     38  N4  UNL A   1       5.513  -6.403  31.012  1.00  0.00    +0.000 N 
ATOM     39  C31 UNL A   1       5.508  -7.115  32.202  1.00  0.00    +0.000 C 
ATOM     40  C32 UNL A   1       5.110  -6.700  33.429  1.00  0.00    +0.000 C 
ATOM     52  C39 UNL A   1       4.627  -5.380  33.735  1.00  0.00    +0.000 C 
ATOM     53  C40 UNL A   1       4.340  -4.829  34.972  1.00  0.00    +0.000 C 
ATOM     54  C41 UNL A   1       3.851  -3.532  34.771  1.00  0.00    +0.000 C 
ATOM     55  C42 UNL A   1       3.847  -3.274  33.411  1.00  0.00    +0.000 C 
ATOM     56  N5  UNL A   1       4.343  -4.408  32.789  1.00  0.00    +0.000 N 
ATOM     57  C43 UNL A   1       3.409  -2.092  32.718  1.00  0.00    +0.000 C 
ATOM     69  C50 UNL A   1       3.574  -1.864  31.395  1.00  0.00    +0.000 C 
ATOM     70  N6  UNL A   1       4.147  -2.689  30.439  1.00  0.00    +0.000 N 
ATOM     71  C51 UNL A   1       4.068  -2.035  29.309  1.00  0.00    +0.000 C 
ATOM     72  C52 UNL A   1       4.522  -2.457  27.944  1.00  0.00    +0.000 C 
ATOM     84  C59 UNL A   1       5.069  -3.673  27.766  1.00  0.00    +0.000 C 
ATOM     85  C60 UNL A   1       5.529  -4.211  26.490  1.00  0.00    +0.000 C 
ATOM     86  C61 UNL A   1       5.979  -5.462  26.679  1.00  0.00    +0.000 C 
ATOM     87  C62 UNL A   1       5.859  -5.802  28.098  1.00  0.00    +0.000 C 
ATOM     88  N7  UNL A   1       5.312  -4.679  28.667  1.00  0.00    +0.000 N 
ATOM     89  C63 UNL A   1       3.437  -0.712  29.417  1.00  0.00    +0.000 C 
ATOM     90  C64 UNL A   1       3.160  -0.654  30.713  1.00  0.00    +0.000 C 
ATOM     91  C65 UNL A   1       6.035  -8.432  31.910  1.00  0.00    +0.000 C 
ATOM     92  C66 UNL A   1       6.382  -8.537  30.633  1.00  0.00    +0.000 C 
ATOM    121  H27 UNL A   1       4.464  -5.294  35.885  1.00  0.00    +0.000 H 
ATOM    122  H28 UNL A   1       3.547  -2.879  35.511  1.00  0.00    +0.000 H 
ATOM    123  H29 UNL A   1       4.475  -4.509  31.818  1.00  0.00    +0.000 H 
ATOM    124  H30 UNL A   1       5.513  -3.711  25.587  1.00  0.00    +0.000 H 
ATOM    125  H31 UNL A   1       6.348  -6.084  25.944  1.00  0.00    +0.000 H 
ATOM    126  H32 UNL A   1       5.114  -4.603  29.628  1.00  0.00    +0.000 H 
ATOM    127  H33 UNL A   1       3.257  -0.013  28.679  1.00  0.00    +0.000 H 
ATOM    128  H34 UNL A   1       2.708   0.149  31.176  1.00  0.00    +0.000 H 
ENDROOT
BRANCH   36   35
ATOM     33  C26 UNL A   1       8.666  -8.881  26.472  1.00  0.00    +0.000 C 
ATOM     34  C27 UNL A   1       8.146  -7.967  27.391  1.00  0.00    +0.000 C 
ATOM     35  C28 UNL A   1       6.797  -8.027  27.772  1.00  0.00    +0.000 C 
ATOM    132  H38 UNL A   1       5.912 -10.727  25.981  1.00  0.00    +0.000 H 
ATOM    131  H37 UNL A   1       4.987  -9.089  27.510  1.00  0.00    +0.000 H 
ATOM    119  H25 UNL A   1       9.646  -8.797  26.159  1.00  0.00    +0.000 H 
ATOM    120  H26 UNL A   1       8.759  -7.241  27.795  1.00  0.00    +0.000 H 
ATOM     93  C67 UNL A   1       5.982  -9.038  27.243  1.00  0.00    +0.000 C 
ATOM     94  C68 UNL A   1       6.514  -9.977  26.356  1.00  0.00    +0.000 C 
ATOM     32  C25 UNL A   1       7.861  -9.909  25.972  1.00  0.00    +0.000 C 
BRANCH   32    2
ATOM      1  O1  UNL A   1       9.413 -11.457  25.148  1.00  0.00    +0.000 O 
ATOM      2  C1  UNL A   1       8.344 -10.881  24.960  1.00  0.00    +0.000 C 
BRANCH    2    3
ATOM      3  N1  UNL A   1       7.637 -11.144  23.815  1.00  0.00    +0.000 N 
ATOM     95  H1  UNL A   1       7.540 -12.099  23.599  1.00  0.00    +0.000 H 
BRANCH    3    4
ATOM     97  H3  UNL A   1       7.205 -10.611  21.890  1.00  0.00    +0.000 H 
ATOM      4  C2  UNL A   1       7.008 -10.238  22.873  1.00  0.00    +0.000 C 
ATOM     96  H2  UNL A   1       5.959 -10.201  23.083  1.00  0.00    +0.000 H 
BRANCH    4    5
ATOM     98  H4  UNL A   1       8.006  -8.596  21.996  1.00  0.00    +0.000 H 
ATOM     99  H5  UNL A   1       8.259  -8.830  23.762  1.00  0.00    +0.000 H 
ATOM      5  C3  UNL A   1       7.568  -8.822  22.945  1.00  0.00    +0.000 C 
BRANCH    5    6
ATOM    100  H6  UNL A   1       6.018  -8.010  24.141  1.00  0.00    +0.000 H 
ATOM    101  H7  UNL A   1       5.960  -7.602  22.394  1.00  0.00    +0.000 H 
ATOM      6  C4  UNL A   1       6.565  -7.713  23.270  1.00  0.00    +0.000 C 
BRANCH    6    7
ATOM    103  H9  UNL A   1       7.031  -5.780  22.632  1.00  0.00    +0.000 H 
ATOM    102  H8  UNL A   1       6.653  -5.915  24.385  1.00  0.00    +0.000 H 
ATOM      7  C5  UNL A   1       7.162  -6.330  23.540  1.00  0.00    +0.000 C 
BRANCH    7    8
ATOM    105  H11 UNL A   1       8.882  -7.180  24.375  1.00  0.00    +0.000 H 
ATOM    104  H10 UNL A   1       9.179  -6.205  22.894  1.00  0.00    +0.000 H 
ATOM      8  C6  UNL A   1       8.668  -6.284  23.832  1.00  0.00    +0.000 C 
BRANCH    8    9
ATOM      9  C7  UNL A   1       9.149  -5.139  24.723  1.00  0.00    +0.000 C 
ATOM    106  H12 UNL A   1      10.216  -5.178  24.781  1.00  0.00    +0.000 H 
ATOM    107  H13 UNL A   1       8.691  -5.266  25.682  1.00  0.00    +0.000 H 
BRANCH    9   10
ATOM     10  N2  UNL A   1       8.760  -3.830  24.226  1.00  0.00    +0.000 N 
ATOM    108  H14 UNL A   1       8.206  -3.821  23.411  1.00  0.00    +0.000 H 
BRANCH   10   11
ATOM     11  C8  UNL A   1       9.073  -2.606  24.759  1.00  0.00    +0.000 C 
ATOM     12  O2  UNL A   1       8.413  -1.611  24.467  1.00  0.00    +0.000 O 
BRANCH   11   13
ATOM     13  C9  UNL A   1      10.173  -2.462  25.726  1.00  0.00    +0.000 C 
ATOM     14  C10 UNL A   1       9.837  -2.390  27.085  1.00  0.00    +0.000 C 
ATOM    109  H15 UNL A   1       8.849  -2.456  27.376  1.00  0.00    +0.000 H 
ATOM     15  C11 UNL A   1      10.836  -2.228  28.047  1.00  0.00    +0.000 C 
ATOM     17  C13 UNL A   1      12.494  -2.171  26.299  1.00  0.00    +0.000 C 
ATOM     18  C14 UNL A   1      11.503  -2.333  25.320  1.00  0.00    +0.000 C 
ATOM    110  H16 UNL A   1      10.589  -2.191  29.048  1.00  0.00    +0.000 H 
ATOM    112  H18 UNL A   1      13.481  -2.091  26.013  1.00  0.00    +0.000 H 
ATOM     16  C12 UNL A   1      12.167  -2.117  27.654  1.00  0.00    +0.000 C 
ATOM    111  H17 UNL A   1      12.908  -1.997  28.361  1.00  0.00    +0.000 H 
BRANCH   18   19
ATOM     19  N3  UNL A   1      11.957  -2.502  24.014  1.00  0.00    +0.000 N 
BRANCH   19   20
ATOM    113  H19 UNL A   1      13.878  -2.191  23.397  1.00  0.00    +0.000 H 
ATOM     20  C15 UNL A   1      12.935  -1.797  23.544  1.00  0.00    +0.000 C 
BRANCH   20   21
ATOM     26  C20 UNL A   1      10.024   1.630  26.858  1.00  0.00    +0.000 C 
ATOM    117  H23 UNL A   1      11.565   1.974  28.264  1.00  0.00    +0.000 H 
ATOM    114  H20 UNL A   1      10.993  -0.901  22.093  1.00  0.00    +0.000 H 
ATOM    115  H21 UNL A   1       8.738   1.268  25.214  1.00  0.00    +0.000 H 
ATOM    116  H22 UNL A   1       9.259   1.790  27.532  1.00  0.00    +0.000 H 
ATOM     21  C16 UNL A   1      12.613  -0.389  23.231  1.00  0.00    +0.000 C 
ATOM     22  C17 UNL A   1      11.339  -0.262  22.824  1.00  0.00    +0.000 C 
ATOM     23  O3  UNL A   1      10.466   0.687  23.341  1.00  0.00    +0.000 O 
ATOM     24  C18 UNL A   1      10.755   1.070  24.636  1.00  0.00    +0.000 C 
ATOM    118  H24 UNL A   1      13.379   1.570  26.689  1.00  0.00    +0.000 H 
ATOM     25  C19 UNL A   1       9.720   1.315  25.527  1.00  0.00    +0.000 C 
ATOM     27  C21 UNL A   1      11.355   1.727  27.284  1.00  0.00    +0.000 C 
ATOM     28  C22 UNL A   1      12.396   1.491  26.387  1.00  0.00    +0.000 C 
ATOM     29  C23 UNL A   1      12.078   1.147  25.075  1.00  0.00    +0.000 C 
ATOM     30  C24 UNL A   1      13.102   0.679  24.135  1.00  0.00    +0.000 C 
ATOM     31  O4  UNL A   1      14.260   1.067  24.160  1.00  0.00    +0.000 O 
ENDBRANCH   20   21
ENDBRANCH   19   20
ENDBRANCH   18   19
ENDBRANCH   11   13
ENDBRANCH   10   11
ENDBRANCH    9   10
ENDBRANCH    8    9
ENDBRANCH    7    8
ENDBRANCH    6    7
ENDBRANCH    5    6
ENDBRANCH    4    5
ENDBRANCH    3    4
ENDBRANCH    2    3
ENDBRANCH   32    2
ENDBRANCH   36   35
BRANCH   40   41
ATOM     41  C33 UNL A   1       5.190  -7.687  34.549  1.00  0.00    +0.000 C 
ATOM     42  C34 UNL A   1       4.102  -8.508  34.871  1.00  0.00    +0.000 C 
ATOM     43  F1  UNL A   1       2.940  -8.379  34.213  1.00  0.00    +0.000 F 
ATOM     44  C35 UNL A   1       4.204  -9.461  35.880  1.00  0.00    +0.000 C 
ATOM     45  F2  UNL A   1       3.150 -10.233  36.182  1.00  0.00    +0.000 F 
ATOM     46  C36 UNL A   1       5.396  -9.614  36.576  1.00  0.00    +0.000 C 
ATOM     47  F3  UNL A   1       5.493 -10.536  37.544  1.00  0.00    +0.000 F 
ATOM     48  C37 UNL A   1       6.484  -8.810  36.271  1.00  0.00    +0.000 C 
ATOM     49  F4  UNL A   1       7.634  -8.958  36.942  1.00  0.00    +0.000 F 
ATOM     50  C38 UNL A   1       6.382  -7.850  35.267  1.00  0.00    +0.000 C 
ATOM     51  F5  UNL A   1       7.447  -7.083  34.992  1.00  0.00    +0.000 F 
ENDBRANCH   40   41
BRANCH   57   58
ATOM     65  C48 UNL A   1       0.699   0.067  34.279  1.00  0.00    +0.000 C 
ATOM     66  F9  UNL A   1      -0.639   0.129  34.311  1.00  0.00    +0.000 F 
ATOM     67  C49 UNL A   1       1.330  -0.943  33.558  1.00  0.00    +0.000 C 
ATOM     68  F10 UNL A   1       0.578  -1.845  32.909  1.00  0.00    +0.000 F 
ATOM     58  C44 UNL A   1       2.728  -1.024  33.511  1.00  0.00    +0.000 C 
ATOM     59  C45 UNL A   1       3.473  -0.063  34.210  1.00  0.00    +0.000 C 
ATOM     60  F6  UNL A   1       4.814  -0.115  34.205  1.00  0.00    +0.000 F 
ATOM     61  C46 UNL A   1       2.838   0.939  34.937  1.00  0.00    +0.000 C 
ATOM     62  F7  UNL A   1       3.567   1.835  35.617  1.00  0.00    +0.000 F 
ATOM     63  C47 UNL A   1       1.453   1.006  34.968  1.00  0.00    +0.000 C 
ATOM     64  F8  UNL A   1       0.844   1.970  35.672  1.00  0.00    +0.000 F 
ENDBRANCH   57   58
BRANCH   72   73
ATOM     73  C53 UNL A   1       4.365  -1.558  26.779  1.00  0.00    +0.000 C 
ATOM     74  C54 UNL A   1       5.414  -0.726  26.370  1.00  0.00    +0.000 C 
ATOM     75  F11 UNL A   1       6.560  -0.702  27.066  1.00  0.00    +0.000 F 
ATOM     76  C55 UNL A   1       5.280   0.093  25.252  1.00  0.00    +0.000 C 
ATOM     77  F12 UNL A   1       6.292   0.891  24.883  1.00  0.00    +0.000 F 
ATOM     78  C56 UNL A   1       4.101   0.086  24.522  1.00  0.00    +0.000 C 
ATOM     79  F13 UNL A   1       3.976   0.870  23.442  1.00  0.00    +0.000 F 
ATOM     80  C57 UNL A   1       3.050  -0.730  24.912  1.00  0.00    +0.000 C 
ATOM     81  F14 UNL A   1       1.911  -0.739  24.208  1.00  0.00    +0.000 F 
ATOM     82  C58 UNL A   1       3.178  -1.541  26.036  1.00  0.00    +0.000 C 
ATOM     83  F15 UNL A   1       2.149  -2.322  26.399  1.00  0.00    +0.000 F 
ENDBRANCH   72   73
TORSDOF 18
ENDMDL
MODEL 7
REMARK VINA RESULT:     -10.5     38.255     43.337
ROOT
ATOM    129  H35 UNL A   1      11.936  50.124   6.586  1.00  0.00    +0.000 H 
ATOM    130  H36 UNL A   1      12.210  52.651   6.910  1.00  0.00    +0.000 H 
ATOM     36  C29 UNL A   1      13.902  53.878   4.971  1.00  0.00    +0.000 C 
ATOM     37  C30 UNL A   1      13.488  52.438   5.049  1.00  0.00    +0.000 C 
ATOM     38  N4  UNL A   1      13.804  51.447   4.253  1.00  0.00    +0.000 N 
ATOM     39  C31 UNL A   1      13.181  50.326   4.779  1.00  0.00    +0.000 C 
ATOM     40  C32 UNL A   1      13.187  49.058   4.302  1.00  0.00    +0.000 C 
ATOM     52  C39 UNL A   1      13.850  48.637   3.096  1.00  0.00    +0.000 C 
ATOM     53  C40 UNL A   1      13.790  47.408   2.462  1.00  0.00    +0.000 C 
ATOM     54  C41 UNL A   1      14.639  47.448   1.348  1.00  0.00    +0.000 C 
ATOM     55  C42 UNL A   1      15.215  48.706   1.286  1.00  0.00    +0.000 C 
ATOM     56  N5  UNL A   1      14.708  49.430   2.352  1.00  0.00    +0.000 N 
ATOM     57  C43 UNL A   1      16.172  49.213   0.339  1.00  0.00    +0.000 C 
ATOM     69  C50 UNL A   1      16.575  50.502   0.262  1.00  0.00    +0.000 C 
ATOM     70  N6  UNL A   1      16.204  51.575   1.058  1.00  0.00    +0.000 N 
ATOM     71  C51 UNL A   1      16.865  52.606   0.600  1.00  0.00    +0.000 C 
ATOM     72  C52 UNL A   1      16.858  54.023   1.090  1.00  0.00    +0.000 C 
ATOM     84  C59 UNL A   1      16.118  54.356   2.163  1.00  0.00    +0.000 C 
ATOM     85  C60 UNL A   1      16.042  55.689   2.752  1.00  0.00    +0.000 C 
ATOM     86  C61 UNL A   1      15.244  55.646   3.831  1.00  0.00    +0.000 C 
ATOM     87  C62 UNL A   1      14.735  54.283   3.992  1.00  0.00    +0.000 C 
ATOM     88  N7  UNL A   1      15.304  53.587   2.956  1.00  0.00    +0.000 N 
ATOM     89  C63 UNL A   1      17.733  52.308  -0.549  1.00  0.00    +0.000 C 
ATOM     90  C64 UNL A   1      17.514  51.010  -0.718  1.00  0.00    +0.000 C 
ATOM     91  C65 UNL A   1      12.475  50.753   5.970  1.00  0.00    +0.000 C 
ATOM     92  C66 UNL A   1      12.613  52.058   6.167  1.00  0.00    +0.000 C 
ATOM    121  H27 UNL A   1      13.219  46.601   2.758  1.00  0.00    +0.000 H 
ATOM    122  H28 UNL A   1      14.806  46.673   0.687  1.00  0.00    +0.000 H 
ATOM    123  H29 UNL A   1      14.924  50.370   2.552  1.00  0.00    +0.000 H 
ATOM    124  H30 UNL A   1      16.522  56.531   2.396  1.00  0.00    +0.000 H 
ATOM    125  H31 UNL A   1      15.025  56.444   4.447  1.00  0.00    +0.000 H 
ATOM    126  H32 UNL A   1      15.143  52.629   2.796  1.00  0.00    +0.000 H 
ATOM    127  H33 UNL A   1      18.350  52.940  -1.082  1.00  0.00    +0.000 H 
ATOM    128  H34 UNL A   1      17.955  50.437  -1.454  1.00  0.00    +0.000 H 
ENDROOT
BRANCH   36   35
ATOM     33  C26 UNL A   1      11.863  56.597   6.639  1.00  0.00    +0.000 C 
ATOM     34  C27 UNL A   1      12.244  55.576   5.764  1.00  0.00    +0.000 C 
ATOM     35  C28 UNL A   1      13.439  54.868   5.971  1.00  0.00    +0.000 C 
ATOM    132  H38 UNL A   1      14.408  56.380   8.809  1.00  0.00    +0.000 H 
ATOM    131  H37 UNL A   1      15.115  54.668   7.245  1.00  0.00    +0.000 H 
ATOM    119  H25 UNL A   1      11.010  57.145   6.451  1.00  0.00    +0.000 H 
ATOM    120  H26 UNL A   1      11.643  55.339   4.959  1.00  0.00    +0.000 H 
ATOM     93  C67 UNL A   1      14.231  55.176   7.086  1.00  0.00    +0.000 C 
ATOM     94  C68 UNL A   1      13.827  56.169   7.983  1.00  0.00    +0.000 C 
ATOM     32  C25 UNL A   1      12.637  56.878   7.769  1.00  0.00    +0.000 C 
BRANCH   32    2
ATOM      1  O1  UNL A   1      12.809  59.087   8.529  1.00  0.00    +0.000 O 
ATOM      2  C1  UNL A   1      12.307  57.979   8.708  1.00  0.00    +0.000 C 
BRANCH    2    3
ATOM      3  N1  UNL A   1      11.469  57.790   9.776  1.00  0.00    +0.000 N 
ATOM     95  H1  UNL A   1      11.032  58.607  10.108  1.00  0.00    +0.000 H 
BRANCH    3    4
ATOM     97  H3  UNL A   1      11.894  55.862  10.302  1.00  0.00    +0.000 H 
ATOM      4  C2  UNL A   1      11.123  56.578  10.494  1.00  0.00    +0.000 C 
ATOM     96  H2  UNL A   1      11.044  56.809  11.535  1.00  0.00    +0.000 H 
BRANCH    4    5
ATOM     98  H4  UNL A   1       9.325  56.674   9.390  1.00  0.00    +0.000 H 
ATOM     99  H5  UNL A   1       9.267  55.738  10.926  1.00  0.00    +0.000 H 
ATOM      5  C3  UNL A   1       9.807  55.965  10.030  1.00  0.00    +0.000 C 
BRANCH    5    6
ATOM    100  H6  UNL A   1       9.662  54.835   8.243  1.00  0.00    +0.000 H 
ATOM    101  H7  UNL A   1       9.231  53.973   9.758  1.00  0.00    +0.000 H 
ATOM      6  C4  UNL A   1       9.906  54.643   9.267  1.00  0.00    +0.000 C 
BRANCH    6    7
ATOM    103  H9  UNL A   1      11.601  53.921   8.283  1.00  0.00    +0.000 H 
ATOM    102  H8  UNL A   1      11.906  54.516   9.953  1.00  0.00    +0.000 H 
ATOM      7  C5  UNL A   1      11.272  53.953   9.301  1.00  0.00    +0.000 C 
BRANCH    7    8
ATOM    105  H11 UNL A   1      11.486  51.909   8.907  1.00  0.00    +0.000 H 
ATOM    104  H10 UNL A   1      12.030  52.411  10.546  1.00  0.00    +0.000 H 
ATOM      8  C6  UNL A   1      11.286  52.495   9.780  1.00  0.00    +0.000 C 
BRANCH    8    9
ATOM      9  C7  UNL A   1       9.971  51.956  10.343  1.00  0.00    +0.000 C 
ATOM    106  H12 UNL A   1       9.490  51.373   9.586  1.00  0.00    +0.000 H 
ATOM    107  H13 UNL A   1       9.380  52.798  10.637  1.00  0.00    +0.000 H 
BRANCH    9   10
ATOM     10  N2  UNL A   1      10.156  51.124  11.520  1.00  0.00    +0.000 N 
ATOM    108  H14 UNL A   1      10.278  50.160  11.357  1.00  0.00    +0.000 H 
BRANCH   10   11
ATOM     11  C8  UNL A   1      10.183  51.524  12.832  1.00  0.00    +0.000 C 
ATOM     12  O2  UNL A   1       9.668  50.829  13.706  1.00  0.00    +0.000 O 
BRANCH   11   13
ATOM     13  C9  UNL A   1      10.865  52.765  13.229  1.00  0.00    +0.000 C 
ATOM     14  C10 UNL A   1      10.085  53.924  13.352  1.00  0.00    +0.000 C 
ATOM    109  H15 UNL A   1       9.068  53.881  13.182  1.00  0.00    +0.000 H 
ATOM     15  C11 UNL A   1      10.682  55.137  13.702  1.00  0.00    +0.000 C 
ATOM     17  C13 UNL A   1      12.830  54.047  13.770  1.00  0.00    +0.000 C 
ATOM     18  C14 UNL A   1      12.247  52.821  13.418  1.00  0.00    +0.000 C 
ATOM    110  H16 UNL A   1      10.105  55.986  13.807  1.00  0.00    +0.000 H 
ATOM    112  H18 UNL A   1      13.848  54.098  13.928  1.00  0.00    +0.000 H 
ATOM     16  C12 UNL A   1      12.057  55.199  13.910  1.00  0.00    +0.000 C 
ATOM    111  H17 UNL A   1      12.501  56.094  14.168  1.00  0.00    +0.000 H 
BRANCH   18   19
ATOM     19  N3  UNL A   1      13.095  51.716  13.433  1.00  0.00    +0.000 N 
BRANCH   19   20
ATOM    113  H19 UNL A   1      13.211  50.522  11.781  1.00  0.00    +0.000 H 
ATOM     20  C15 UNL A   1      13.641  51.270  12.347  1.00  0.00    +0.000 C 
BRANCH   20   21
ATOM     26  C20 UNL A   1      16.850  49.707   8.050  1.00  0.00    +0.000 C 
ATOM    117  H23 UNL A   1      15.642  50.542   6.529  1.00  0.00    +0.000 H 
ATOM    114  H20 UNL A   1      15.982  50.821  13.347  1.00  0.00    +0.000 H 
ATOM    115  H21 UNL A   1      17.957  49.144   9.767  1.00  0.00    +0.000 H 
ATOM    116  H22 UNL A   1      17.245  48.968   7.447  1.00  0.00    +0.000 H 
ATOM     21  C16 UNL A   1      14.922  51.904  11.972  1.00  0.00    +0.000 C 
ATOM     22  C17 UNL A   1      15.966  51.161  12.373  1.00  0.00    +0.000 C 
ATOM     23  O3  UNL A   1      17.026  50.824  11.540  1.00  0.00    +0.000 O 
ATOM     24  C18 UNL A   1      16.693  50.774  10.200  1.00  0.00    +0.000 C 
ATOM    118  H24 UNL A   1      14.683  52.272   7.950  1.00  0.00    +0.000 H 
ATOM     25  C19 UNL A   1      17.252  49.797   9.389  1.00  0.00    +0.000 C 
ATOM     27  C21 UNL A   1      15.918  50.609   7.521  1.00  0.00    +0.000 C 
ATOM     28  C22 UNL A   1      15.363  51.598   8.332  1.00  0.00    +0.000 C 
ATOM     29  C23 UNL A   1      15.747  51.654   9.670  1.00  0.00    +0.000 C 
ATOM     30  C24 UNL A   1      15.056  52.520  10.631  1.00  0.00    +0.000 C 
ATOM     31  O4  UNL A   1      14.564  53.596  10.328  1.00  0.00    +0.000 O 
ENDBRANCH   20   21
ENDBRANCH   19   20
ENDBRANCH   18   19
ENDBRANCH   11   13
ENDBRANCH   10   11
ENDBRANCH    9   10
ENDBRANCH    8    9
ENDBRANCH    7    8
ENDBRANCH    6    7
ENDBRANCH    5    6
ENDBRANCH    4    5
ENDBRANCH    3    4
ENDBRANCH    2    3
ENDBRANCH   32    2
ENDBRANCH   36   35
BRANCH   40   41
ATOM     41  C33 UNL A   1      12.443  48.024   5.083  1.00  0.00    +0.000 C 
ATOM     42  C34 UNL A   1      11.177  47.580   4.679  1.00  0.00    +0.000 C 
ATOM     43  F1  UNL A   1      10.581  48.125   3.608  1.00  0.00    +0.000 F 
ATOM     44  C35 UNL A   1      10.516  46.578   5.382  1.00  0.00    +0.000 C 
ATOM     45  F2  UNL A   1       9.301  46.172   4.987  1.00  0.00    +0.000 F 
ATOM     46  C36 UNL A   1      11.112  45.999   6.495  1.00  0.00    +0.000 C 
ATOM     47  F3  UNL A   1      10.475  45.030   7.168  1.00  0.00    +0.000 F 
ATOM     48  C37 UNL A   1      12.364  46.425   6.910  1.00  0.00    +0.000 C 
ATOM     49  F4  UNL A   1      12.939  45.866   7.983  1.00  0.00    +0.000 F 
ATOM     50  C38 UNL A   1      13.025  47.433   6.212  1.00  0.00    +0.000 C 
ATOM     51  F5  UNL A   1      14.235  47.829   6.635  1.00  0.00    +0.000 F 
ENDBRANCH   40   41
BRANCH   57   58
ATOM     65  C48 UNL A   1      18.627  46.906  -1.419  1.00  0.00    +0.000 C 
ATOM     66  F9  UNL A   1      19.880  46.461  -1.253  1.00  0.00    +0.000 F 
ATOM     67  C49 UNL A   1      18.071  47.779  -0.488  1.00  0.00    +0.000 C 
ATOM     68  F10 UNL A   1      18.806  48.157   0.569  1.00  0.00    +0.000 F 
ATOM     58  C44 UNL A   1      16.763  48.256  -0.645  1.00  0.00    +0.000 C 
ATOM     59  C45 UNL A   1      16.030  47.830  -1.762  1.00  0.00    +0.000 C 
ATOM     60  F6  UNL A   1      14.768  48.250  -1.940  1.00  0.00    +0.000 F 
ATOM     61  C46 UNL A   1      16.586  46.950  -2.685  1.00  0.00    +0.000 C 
ATOM     62  F7  UNL A   1      15.862  46.537  -3.734  1.00  0.00    +0.000 F 
ATOM     63  C47 UNL A   1      17.884  46.492  -2.515  1.00  0.00    +0.000 C 
ATOM     64  F8  UNL A   1      18.417  45.641  -3.404  1.00  0.00    +0.000 F 
ENDBRANCH   57   58
BRANCH   72   73
ATOM     73  C53 UNL A   1      17.665  55.064   0.417  1.00  0.00    +0.000 C 
ATOM     74  C54 UNL A   1      18.909  55.449   0.929  1.00  0.00    +0.000 C 
ATOM     75  F11 UNL A   1      19.360  54.908   2.070  1.00  0.00    +0.000 F 
ATOM     76  C55 UNL A   1      19.685  56.403   0.276  1.00  0.00    +0.000 C 
ATOM     77  F12 UNL A   1      20.869  56.767   0.789  1.00  0.00    +0.000 F 
ATOM     78  C56 UNL A   1      19.234  56.979  -0.902  1.00  0.00    +0.000 C 
ATOM     79  F13 UNL A   1      19.985  57.892  -1.534  1.00  0.00    +0.000 F 
ATOM     80  C57 UNL A   1      18.003  56.612  -1.425  1.00  0.00    +0.000 C 
ATOM     81  F14 UNL A   1      17.566  57.165  -2.564  1.00  0.00    +0.000 F 
ATOM     82  C58 UNL A   1      17.221  55.667  -0.768  1.00  0.00    +0.000 C 
ATOM     83  F15 UNL A   1      16.032  55.326  -1.288  1.00  0.00    +0.000 F 
ENDBRANCH   72   73
TORSDOF 18
ENDMDL
MODEL 8
REMARK VINA RESULT:     -10.5     38.209     42.899
ROOT
ATOM    129  H35 UNL A   1      15.343  47.071   0.651  1.00  0.00    +0.000 H 
ATOM    130  H36 UNL A   1      13.741  46.945   2.648  1.00  0.00    +0.000 H 
ATOM     36  C29 UNL A   1      13.390  49.435   3.992  1.00  0.00    +0.000 C 
ATOM     37  C30 UNL A   1      14.209  49.161   2.766  1.00  0.00    +0.000 C 
ATOM     38  N4  UNL A   1      14.927  49.993   2.054  1.00  0.00    +0.000 N 
ATOM     39  C31 UNL A   1      15.499  49.233   1.045  1.00  0.00    +0.000 C 
ATOM     40  C32 UNL A   1      16.310  49.641   0.040  1.00  0.00    +0.000 C 
ATOM     52  C39 UNL A   1      16.718  51.002  -0.186  1.00  0.00    +0.000 C 
ATOM     53  C40 UNL A   1      17.417  51.528  -1.258  1.00  0.00    +0.000 C 
ATOM     54  C41 UNL A   1      17.626  52.892  -1.018  1.00  0.00    +0.000 C 
ATOM     55  C42 UNL A   1      17.047  53.214   0.197  1.00  0.00    +0.000 C 
ATOM     56  N5  UNL A   1      16.476  52.051   0.687  1.00  0.00    +0.000 N 
ATOM     57  C43 UNL A   1      17.024  54.481   0.878  1.00  0.00    +0.000 C 
ATOM     69  C50 UNL A   1      16.308  54.746   1.996  1.00  0.00    +0.000 C 
ATOM     70  N6  UNL A   1      15.496  53.893   2.727  1.00  0.00    +0.000 N 
ATOM     71  C51 UNL A   1      15.032  54.606   3.721  1.00  0.00    +0.000 C 
ATOM     72  C52 UNL A   1      14.115  54.188   4.830  1.00  0.00    +0.000 C 
ATOM     84  C59 UNL A   1      13.688  52.914   4.903  1.00  0.00    +0.000 C 
ATOM     85  C60 UNL A   1      12.815  52.377   5.941  1.00  0.00    +0.000 C 
ATOM     86  C61 UNL A   1      12.631  51.065   5.722  1.00  0.00    +0.000 C 
ATOM     87  C62 UNL A   1      13.356  50.678   4.512  1.00  0.00    +0.000 C 
ATOM     88  N7  UNL A   1      13.952  51.840   4.091  1.00  0.00    +0.000 N 
ATOM     89  C63 UNL A   1      15.493  56.002   3.733  1.00  0.00    +0.000 C 
ATOM     90  C64 UNL A   1      16.265  56.037   2.655  1.00  0.00    +0.000 C 
ATOM     91  C65 UNL A   1      15.056  47.867   1.241  1.00  0.00    +0.000 C 
ATOM     92  C66 UNL A   1      14.235  47.774   2.280  1.00  0.00    +0.000 C 
ATOM    121  H27 UNL A   1      17.731  51.006  -2.091  1.00  0.00    +0.000 H 
ATOM    122  H28 UNL A   1      18.127  53.546  -1.641  1.00  0.00    +0.000 H 
ATOM    123  H29 UNL A   1      15.973  51.979   1.531  1.00  0.00    +0.000 H 
ATOM    124  H30 UNL A   1      12.404  52.917   6.719  1.00  0.00    +0.000 H 
ATOM    125  H31 UNL A   1      12.069  50.432   6.312  1.00  0.00    +0.000 H 
ATOM    126  H32 UNL A   1      14.514  51.898   3.285  1.00  0.00    +0.000 H 
ATOM    127  H33 UNL A   1      15.274  56.755   4.404  1.00  0.00    +0.000 H 
ATOM    128  H34 UNL A   1      16.769  56.875   2.327  1.00  0.00    +0.000 H 
ENDROOT
BRANCH   36   35
ATOM     33  C26 UNL A   1      10.558  47.131   4.995  1.00  0.00    +0.000 C 
ATOM     34  C27 UNL A   1      11.318  48.062   4.281  1.00  0.00    +0.000 C 
ATOM     35  C28 UNL A   1      12.634  48.356   4.671  1.00  0.00    +0.000 C 
ATOM    132  H38 UNL A   1      12.862  46.217   7.251  1.00  0.00    +0.000 H 
ATOM    131  H37 UNL A   1      14.154  47.893   6.068  1.00  0.00    +0.000 H 
ATOM    119  H25 UNL A   1       9.575  46.959   4.732  1.00  0.00    +0.000 H 
ATOM    120  H26 UNL A   1      10.910  48.536   3.461  1.00  0.00    +0.000 H 
ATOM     93  C67 UNL A   1      13.189  47.680   5.767  1.00  0.00    +0.000 C 
ATOM     94  C68 UNL A   1      12.442  46.720   6.453  1.00  0.00    +0.000 C 
ATOM     32  C25 UNL A   1      11.125  46.435   6.066  1.00  0.00    +0.000 C 
BRANCH   32    2
ATOM      1  O1  UNL A   1      10.005  44.403   6.386  1.00  0.00    +0.000 O 
ATOM      2  C1  UNL A   1      10.354  45.469   6.888  1.00  0.00    +0.000 C 
BRANCH    2    3
ATOM      3  N1  UNL A   1      10.010  45.740   8.187  1.00  0.00    +0.000 N 
ATOM     95  H1  UNL A   1      10.514  45.233   8.863  1.00  0.00    +0.000 H 
BRANCH    3    4
ATOM     97  H3  UNL A   1       8.362  46.919   7.923  1.00  0.00    +0.000 H 
ATOM      4  C2  UNL A   1       9.019  46.655   8.723  1.00  0.00    +0.000 C 
ATOM     96  H2  UNL A   1       8.501  46.166   9.521  1.00  0.00    +0.000 H 
BRANCH    4    5
ATOM     98  H4  UNL A   1      10.663  47.759   9.456  1.00  0.00    +0.000 H 
ATOM     99  H5  UNL A   1       9.050  48.197  10.122  1.00  0.00    +0.000 H 
ATOM      5  C3  UNL A   1       9.629  47.945   9.258  1.00  0.00    +0.000 C 
BRANCH    5    6
ATOM    100  H6  UNL A   1       8.559  49.578   8.433  1.00  0.00    +0.000 H 
ATOM    101  H7  UNL A   1       9.774  48.808   7.359  1.00  0.00    +0.000 H 
ATOM      6  C4  UNL A   1       9.543  49.166   8.340  1.00  0.00    +0.000 C 
BRANCH    6    7
ATOM    103  H9  UNL A   1      11.415  49.799   9.016  1.00  0.00    +0.000 H 
ATOM    102  H8  UNL A   1      10.714  50.812   7.705  1.00  0.00    +0.000 H 
ATOM      7  C5  UNL A   1      10.547  50.286   8.621  1.00  0.00    +0.000 C 
BRANCH    7    8
ATOM    105  H11 UNL A   1      10.207  52.268   9.201  1.00  0.00    +0.000 H 
ATOM    104  H10 UNL A   1       9.156  51.063  10.022  1.00  0.00    +0.000 H 
ATOM      8  C6  UNL A   1      10.140  51.316   9.684  1.00  0.00    +0.000 C 
BRANCH    8    9
ATOM      9  C7  UNL A   1      11.045  51.413  10.912  1.00  0.00    +0.000 C 
ATOM    106  H12 UNL A   1      10.509  51.042  11.760  1.00  0.00    +0.000 H 
ATOM    107  H13 UNL A   1      11.316  52.442  11.029  1.00  0.00    +0.000 H 
BRANCH    9   10
ATOM     10  N2  UNL A   1      12.275  50.652  10.773  1.00  0.00    +0.000 N 
ATOM    108  H14 UNL A   1      12.825  50.856   9.982  1.00  0.00    +0.000 H 
BRANCH   10   11
ATOM     11  C8  UNL A   1      12.759  49.684  11.615  1.00  0.00    +0.000 C 
ATOM     12  O2  UNL A   1      13.289  49.992  12.681  1.00  0.00    +0.000 O 
BRANCH   11   13
ATOM     13  C9  UNL A   1      12.615  48.257  11.288  1.00  0.00    +0.000 C 
ATOM     14  C10 UNL A   1      11.777  47.485  12.104  1.00  0.00    +0.000 C 
ATOM    109  H15 UNL A   1      11.275  47.926  12.891  1.00  0.00    +0.000 H 
ATOM     15  C11 UNL A   1      11.620  46.119  11.857  1.00  0.00    +0.000 C 
ATOM     17  C13 UNL A   1      13.161  46.289  10.011  1.00  0.00    +0.000 C 
ATOM     18  C14 UNL A   1      13.329  47.661  10.246  1.00  0.00    +0.000 C 
ATOM    110  H16 UNL A   1      10.992  45.555  12.450  1.00  0.00    +0.000 H 
ATOM    112  H18 UNL A   1      13.670  45.841   9.235  1.00  0.00    +0.000 H 
ATOM     16  C12 UNL A   1      12.315  45.520  10.810  1.00  0.00    +0.000 C 
ATOM    111  H17 UNL A   1      12.202  44.511  10.624  1.00  0.00    +0.000 H 
BRANCH   18   19
ATOM     19  N3  UNL A   1      14.096  48.351   9.310  1.00  0.00    +0.000 N 
BRANCH   19   20
ATOM    113  H19 UNL A   1      15.831  47.279   9.393  1.00  0.00    +0.000 H 
ATOM     20  C15 UNL A   1      15.379  48.194   9.241  1.00  0.00    +0.000 C 
BRANCH   20   21
ATOM     26  C20 UNL A   1      14.697  53.141  11.744  1.00  0.00    +0.000 C 
ATOM    117  H23 UNL A   1      15.650  52.627  13.560  1.00  0.00    +0.000 H 
ATOM    114  H20 UNL A   1      14.966  49.892   7.337  1.00  0.00    +0.000 H 
ATOM    115  H21 UNL A   1      13.975  53.442   9.775  1.00  0.00    +0.000 H 
ATOM    116  H22 UNL A   1      14.084  53.854  12.170  1.00  0.00    +0.000 H 
ATOM     21  C16 UNL A   1      16.154  49.413   8.931  1.00  0.00    +0.000 C 
ATOM     22  C17 UNL A   1      15.440  50.262   8.174  1.00  0.00    +0.000 C 
ATOM     23  O3  UNL A   1      15.307  51.614   8.465  1.00  0.00    +0.000 O 
ATOM     24  C18 UNL A   1      15.427  51.914   9.808  1.00  0.00    +0.000 C 
ATOM    118  H24 UNL A   1      17.081  50.923  12.570  1.00  0.00    +0.000 H 
ATOM     25  C19 UNL A   1      14.621  52.897  10.367  1.00  0.00    +0.000 C 
ATOM     27  C21 UNL A   1      15.594  52.426  12.549  1.00  0.00    +0.000 C 
ATOM     28  C22 UNL A   1      16.411  51.447  11.988  1.00  0.00    +0.000 C 
ATOM     29  C23 UNL A   1      16.301  51.191  10.622  1.00  0.00    +0.000 C 
ATOM     30  C24 UNL A   1      16.966  50.042  10.000  1.00  0.00    +0.000 C 
ATOM     31  O4  UNL A   1      18.034  49.596  10.389  1.00  0.00    +0.000 O 
ENDBRANCH   20   21
ENDBRANCH   19   20
ENDBRANCH   18   19
ENDBRANCH   11   13
ENDBRANCH   10   11
ENDBRANCH    9   10
ENDBRANCH    8    9
ENDBRANCH    7    8
ENDBRANCH    6    7
ENDBRANCH    5    6
ENDBRANCH    4    5
ENDBRANCH    3    4
ENDBRANCH    2    3
ENDBRANCH   32    2
ENDBRANCH   36   35
BRANCH   40   41
ATOM     41  C33 UNL A   1      16.809  48.600  -0.909  1.00  0.00    +0.000 C 
ATOM     42  C34 UNL A   1      18.022  47.935  -0.686  1.00  0.00    +0.000 C 
ATOM     43  F1  UNL A   1      18.792  48.269   0.361  1.00  0.00    +0.000 F 
ATOM     44  C35 UNL A   1      18.451  46.930  -1.546  1.00  0.00    +0.000 C 
ATOM     45  F2  UNL A   1      19.619  46.311  -1.322  1.00  0.00    +0.000 F 
ATOM     46  C36 UNL A   1      17.672  46.566  -2.636  1.00  0.00    +0.000 C 
ATOM     47  F3  UNL A   1      18.086  45.594  -3.461  1.00  0.00    +0.000 F 
ATOM     48  C37 UNL A   1      16.469  47.213  -2.874  1.00  0.00    +0.000 C 
ATOM     49  F4  UNL A   1      15.718  46.862  -3.926  1.00  0.00    +0.000 F 
ATOM     50  C38 UNL A   1      16.040  48.225  -2.019  1.00  0.00    +0.000 C 
ATOM     51  F5  UNL A   1      14.873  48.837  -2.270  1.00  0.00    +0.000 F 
ENDBRANCH   40   41
BRANCH   57   58
ATOM     65  C48 UNL A   1      19.852  56.955   0.316  1.00  0.00    +0.000 C 
ATOM     66  F9  UNL A   1      21.062  57.229   0.824  1.00  0.00    +0.000 F 
ATOM     67  C49 UNL A   1      19.106  55.899   0.830  1.00  0.00    +0.000 C 
ATOM     68  F10 UNL A   1      19.619  55.166   1.829  1.00  0.00    +0.000 F 
ATOM     58  C44 UNL A   1      17.838  55.599   0.312  1.00  0.00    +0.000 C 
ATOM     59  C45 UNL A   1      17.345  56.388  -0.736  1.00  0.00    +0.000 C 
ATOM     60  F6  UNL A   1      16.143  56.123  -1.271  1.00  0.00    +0.000 F 
ATOM     61  C46 UNL A   1      18.098  57.437  -1.253  1.00  0.00    +0.000 C 
ATOM     62  F7  UNL A   1      17.619  58.166  -2.270  1.00  0.00    +0.000 F 
ATOM     63  C47 UNL A   1      19.349  57.722  -0.725  1.00  0.00    +0.000 C 
ATOM     64  F8  UNL A   1      20.075  58.731  -1.227  1.00  0.00    +0.000 F 
ENDBRANCH   57   58
BRANCH   72   73
ATOM     73  C53 UNL A   1      13.677  55.156   5.860  1.00  0.00    +0.000 C 
ATOM     74  C54 UNL A   1      12.608  56.027   5.617  1.00  0.00    +0.000 C 
ATOM     75  F11 UNL A   1      12.000  56.023   4.422  1.00  0.00    +0.000 F 
ATOM     76  C55 UNL A   1      12.173  56.913   6.599  1.00  0.00    +0.000 C 
ATOM     77  F12 UNL A   1      11.155  57.746   6.343  1.00  0.00    +0.000 F 
ATOM     78  C56 UNL A   1      12.792  56.936   7.840  1.00  0.00    +0.000 C 
ATOM     79  F13 UNL A   1      12.367  57.784   8.786  1.00  0.00    +0.000 F 
ATOM     80  C57 UNL A   1      13.854  56.082   8.099  1.00  0.00    +0.000 C 
ATOM     81  F14 UNL A   1      14.453  56.101   9.297  1.00  0.00    +0.000 F 
ATOM     82  C58 UNL A   1      14.298  55.203   7.115  1.00  0.00    +0.000 C 
ATOM     83  F15 UNL A   1      15.328  54.387   7.384  1.00  0.00    +0.000 F 
ENDBRANCH   72   73
TORSDOF 18
ENDMDL
MODEL 9
REMARK VINA RESULT:     -10.5     38.884     43.085
ROOT
ATOM    129  H35 UNL A   1      11.904  49.790   6.356  1.00  0.00    +0.000 H 
ATOM    130  H36 UNL A   1      12.146  52.289   6.870  1.00  0.00    +0.000 H 
ATOM     36  C29 UNL A   1      13.855  53.672   5.054  1.00  0.00    +0.000 C 
ATOM     37  C30 UNL A   1      13.454  52.227   5.019  1.00  0.00    +0.000 C 
ATOM     38  N4  UNL A   1      13.792  51.301   4.157  1.00  0.00    +0.000 N 
ATOM     39  C31 UNL A   1      13.173  50.138   4.589  1.00  0.00    +0.000 C 
ATOM     40  C32 UNL A   1      13.200  48.909   4.019  1.00  0.00    +0.000 C 
ATOM     52  C39 UNL A   1      13.885  48.584   2.796  1.00  0.00    +0.000 C 
ATOM     53  C40 UNL A   1      13.847  47.405   2.071  1.00  0.00    +0.000 C 
ATOM     54  C41 UNL A   1      14.712  47.536   0.978  1.00  0.00    +0.000 C 
ATOM     55  C42 UNL A   1      15.276  48.800   1.017  1.00  0.00    +0.000 C 
ATOM     56  N5  UNL A   1      14.745  49.438   2.126  1.00  0.00    +0.000 N 
ATOM     57  C43 UNL A   1      16.241  49.385   0.126  1.00  0.00    +0.000 C 
ATOM     69  C50 UNL A   1      16.632  50.680   0.150  1.00  0.00    +0.000 C 
ATOM     70  N6  UNL A   1      16.238  51.687   1.018  1.00  0.00    +0.000 N 
ATOM     71  C51 UNL A   1      16.895  52.756   0.647  1.00  0.00    +0.000 C 
ATOM     72  C52 UNL A   1      16.866  54.132   1.241  1.00  0.00    +0.000 C 
ATOM     84  C59 UNL A   1      16.107  54.378   2.324  1.00  0.00    +0.000 C 
ATOM     85  C60 UNL A   1      16.007  55.663   3.008  1.00  0.00    +0.000 C 
ATOM     86  C61 UNL A   1      15.194  55.532   4.069  1.00  0.00    +0.000 C 
ATOM     87  C62 UNL A   1      14.698  54.157   4.121  1.00  0.00    +0.000 C 
ATOM     88  N7  UNL A   1      15.289  53.544   3.045  1.00  0.00    +0.000 N 
ATOM     89  C63 UNL A   1      17.783  52.551  -0.506  1.00  0.00    +0.000 C 
ATOM     90  C64 UNL A   1      17.580  51.268  -0.775  1.00  0.00    +0.000 C 
ATOM     91  C65 UNL A   1      12.445  50.468   5.797  1.00  0.00    +0.000 C 
ATOM     92  C66 UNL A   1      12.567  51.757   6.092  1.00  0.00    +0.000 C 
ATOM    121  H27 UNL A   1      13.280  46.573   2.298  1.00  0.00    +0.000 H 
ATOM    122  H28 UNL A   1      14.897  46.813   0.263  1.00  0.00    +0.000 H 
ATOM    123  H29 UNL A   1      14.949  50.363   2.398  1.00  0.00    +0.000 H 
ATOM    124  H30 UNL A   1      16.484  56.533   2.724  1.00  0.00    +0.000 H 
ATOM    125  H31 UNL A   1      14.958  56.280   4.739  1.00  0.00    +0.000 H 
ATOM    126  H32 UNL A   1      15.141  52.600   2.812  1.00  0.00    +0.000 H 
ATOM    127  H33 UNL A   1      18.402  53.227  -0.981  1.00  0.00    +0.000 H 
ATOM    128  H34 UNL A   1      18.038  50.755  -1.544  1.00  0.00    +0.000 H 
ENDROOT
BRANCH   36   35
ATOM     33  C26 UNL A   1      13.663  55.606   8.303  1.00  0.00    +0.000 C 
ATOM     34  C27 UNL A   1      14.164  54.850   7.240  1.00  0.00    +0.000 C 
ATOM     35  C28 UNL A   1      13.366  54.581   6.117  1.00  0.00    +0.000 C 
ATOM    132  H38 UNL A   1      10.632  56.296   7.050  1.00  0.00    +0.000 H 
ATOM    131  H37 UNL A   1      11.468  54.912   5.243  1.00  0.00    +0.000 H 
ATOM    119  H25 UNL A   1      14.240  55.756   9.145  1.00  0.00    +0.000 H 
ATOM    120  H26 UNL A   1      15.129  54.486   7.279  1.00  0.00    +0.000 H 
ATOM     93  C67 UNL A   1      12.068  55.109   6.060  1.00  0.00    +0.000 C 
ATOM     94  C68 UNL A   1      11.584  55.900   7.105  1.00  0.00    +0.000 C 
ATOM     32  C25 UNL A   1      12.382  56.159   8.228  1.00  0.00    +0.000 C 
BRANCH   32    2
ATOM      1  O1  UNL A   1      11.720  58.157   9.256  1.00  0.00    +0.000 O 
ATOM      2  C1  UNL A   1      11.780  56.932   9.343  1.00  0.00    +0.000 C 
BRANCH    2    3
ATOM      3  N1  UNL A   1      11.301  56.319  10.472  1.00  0.00    +0.000 N 
ATOM     95  H1  UNL A   1      11.927  56.300  11.230  1.00  0.00    +0.000 H 
BRANCH    3    4
ATOM     97  H3  UNL A   1       9.823  55.773  11.773  1.00  0.00    +0.000 H 
ATOM      4  C2  UNL A   1      10.017  55.692  10.725  1.00  0.00    +0.000 C 
ATOM     96  H2  UNL A   1       9.273  56.194  10.141  1.00  0.00    +0.000 H 
BRANCH    4    5
ATOM     98  H4  UNL A   1       9.784  54.129   9.324  1.00  0.00    +0.000 H 
ATOM     99  H5  UNL A   1       9.257  53.774  11.007  1.00  0.00    +0.000 H 
ATOM      5  C3  UNL A   1       9.997  54.210  10.368  1.00  0.00    +0.000 C 
BRANCH    5    6
ATOM    100  H6  UNL A   1      11.077  52.716  11.413  1.00  0.00    +0.000 H 
ATOM    101  H7  UNL A   1      12.015  54.163  10.914  1.00  0.00    +0.000 H 
ATOM      6  C4  UNL A   1      11.284  53.430  10.643  1.00  0.00    +0.000 C 
BRANCH    6    7
ATOM    103  H9  UNL A   1      11.121  51.978   9.152  1.00  0.00    +0.000 H 
ATOM    102  H8  UNL A   1      12.132  53.397   8.703  1.00  0.00    +0.000 H 
ATOM      7  C5  UNL A   1      11.875  52.676   9.451  1.00  0.00    +0.000 C 
BRANCH    7    8
ATOM    105  H11 UNL A   1      12.883  51.241  10.593  1.00  0.00    +0.000 H 
ATOM    104  H10 UNL A   1      13.335  51.256   8.853  1.00  0.00    +0.000 H 
ATOM      8  C6  UNL A   1      13.124  51.829   9.732  1.00  0.00    +0.000 C 
BRANCH    8    9
ATOM      9  C7  UNL A   1      14.393  52.598  10.103  1.00  0.00    +0.000 C 
ATOM    106  H12 UNL A   1      14.115  53.585  10.407  1.00  0.00    +0.000 H 
ATOM    107  H13 UNL A   1      15.025  52.608   9.240  1.00  0.00    +0.000 H 
BRANCH    9   10
ATOM     10  N2  UNL A   1      15.140  51.975  11.182  1.00  0.00    +0.000 N 
ATOM    108  H14 UNL A   1      15.718  51.218  10.930  1.00  0.00    +0.000 H 
BRANCH   10   11
ATOM     11  C8  UNL A   1      15.135  52.318  12.510  1.00  0.00    +0.000 C 
ATOM     12  O2  UNL A   1      16.180  52.324  13.156  1.00  0.00    +0.000 O 
BRANCH   11   13
ATOM     13  C9  UNL A   1      13.891  52.730  13.179  1.00  0.00    +0.000 C 
ATOM     14  C10 UNL A   1      13.622  54.103  13.262  1.00  0.00    +0.000 C 
ATOM    109  H15 UNL A   1      14.278  54.782  12.846  1.00  0.00    +0.000 H 
ATOM     15  C11 UNL A   1      12.469  54.555  13.908  1.00  0.00    +0.000 C 
ATOM     17  C13 UNL A   1      11.876  52.275  14.418  1.00  0.00    +0.000 C 
ATOM     18  C14 UNL A   1      13.030  51.805  13.774  1.00  0.00    +0.000 C 
ATOM    110  H16 UNL A   1      12.265  55.564  13.955  1.00  0.00    +0.000 H 
ATOM    112  H18 UNL A   1      11.224  51.601  14.847  1.00  0.00    +0.000 H 
ATOM     16  C12 UNL A   1      11.595  53.639  14.488  1.00  0.00    +0.000 C 
ATOM    111  H17 UNL A   1      10.743  53.969  14.967  1.00  0.00    +0.000 H 
BRANCH   18   19
ATOM     19  N3  UNL A   1      13.141  50.421  13.654  1.00  0.00    +0.000 N 
BRANCH   19   20
ATOM    113  H19 UNL A   1      11.151  49.975  13.563  1.00  0.00    +0.000 H 
ATOM     20  C15 UNL A   1      12.119  49.686  13.352  1.00  0.00    +0.000 C 
BRANCH   20   21
ATOM     26  C20 UNL A   1       9.481  47.686   8.853  1.00  0.00    +0.000 C 
ATOM    117  H23 UNL A   1      10.381  48.984   7.447  1.00  0.00    +0.000 H 
ATOM    114  H20 UNL A   1      11.306  47.322  14.009  1.00  0.00    +0.000 H 
ATOM    115  H21 UNL A   1       8.887  46.399  10.428  1.00  0.00    +0.000 H 
ATOM    116  H22 UNL A   1       8.617  47.555   8.304  1.00  0.00    +0.000 H 
ATOM     21  C16 UNL A   1      12.432  48.404  12.688  1.00  0.00    +0.000 C 
ATOM     22  C17 UNL A   1      11.536  47.458  13.013  1.00  0.00    +0.000 C 
ATOM     23  O3  UNL A   1      10.902  46.654  12.074  1.00  0.00    +0.000 O 
ATOM     24  C18 UNL A   1      10.779  47.237  10.828  1.00  0.00    +0.000 C 
ATOM    118  H24 UNL A   1      12.413  49.323   8.747  1.00  0.00    +0.000 H 
ATOM     25  C19 UNL A   1       9.627  47.030  10.082  1.00  0.00    +0.000 C 
ATOM     27  C21 UNL A   1      10.495  48.519   8.361  1.00  0.00    +0.000 C 
ATOM     28  C22 UNL A   1      11.657  48.720   9.104  1.00  0.00    +0.000 C 
ATOM     29  C23 UNL A   1      11.774  48.088  10.341  1.00  0.00    +0.000 C 
ATOM     30  C24 UNL A   1      12.861  48.413  11.269  1.00  0.00    +0.000 C 
ATOM     31  O4  UNL A   1      13.977  48.747  10.902  1.00  0.00    +0.000 O 
ENDBRANCH   20   21
ENDBRANCH   19   20
ENDBRANCH   18   19
ENDBRANCH   11   13
ENDBRANCH   10   11
ENDBRANCH    9   10
ENDBRANCH    8    9
ENDBRANCH    7    8
ENDBRANCH    6    7
ENDBRANCH    5    6
ENDBRANCH    4    5
ENDBRANCH    3    4
ENDBRANCH    2    3
ENDBRANCH   32    2
ENDBRANCH   36   35
BRANCH   40   41
ATOM     41  C33 UNL A   1      12.455  47.813   4.710  1.00  0.00    +0.000 C 
ATOM     42  C34 UNL A   1      12.995  47.158   5.824  1.00  0.00    +0.000 C 
ATOM     43  F1  UNL A   1      14.227  47.465   6.257  1.00  0.00    +0.000 F 
ATOM     44  C35 UNL A   1      12.270  46.176   6.493  1.00  0.00    +0.000 C 
ATOM     45  F2  UNL A   1      12.806  45.553   7.552  1.00  0.00    +0.000 F 
ATOM     46  C36 UNL A   1      10.993  45.840   6.066  1.00  0.00    +0.000 C 
ATOM     47  F3  UNL A   1      10.295  44.898   6.715  1.00  0.00    +0.000 F 
ATOM     48  C37 UNL A   1      10.442  46.478   4.964  1.00  0.00    +0.000 C 
ATOM     49  F4  UNL A   1       9.209  46.153   4.551  1.00  0.00    +0.000 F 
ATOM     50  C38 UNL A   1      11.167  47.455   4.288  1.00  0.00    +0.000 C 
ATOM     51  F5  UNL A   1      10.613  48.056   3.224  1.00  0.00    +0.000 F 
ENDBRANCH   40   41
BRANCH   57   58
ATOM     65  C48 UNL A   1      16.756  47.412  -3.081  1.00  0.00    +0.000 C 
ATOM     66  F9  UNL A   1      16.103  47.171  -4.226  1.00  0.00    +0.000 F 
ATOM     67  C49 UNL A   1      16.190  48.247  -2.121  1.00  0.00    +0.000 C 
ATOM     68  F10 UNL A   1      14.993  48.800  -2.366  1.00  0.00    +0.000 F 
ATOM     58  C44 UNL A   1      16.857  48.509  -0.918  1.00  0.00    +0.000 C 
ATOM     59  C45 UNL A   1      18.109  47.914  -0.707  1.00  0.00    +0.000 C 
ATOM     60  F6  UNL A   1      18.788  48.154   0.425  1.00  0.00    +0.000 F 
ATOM     61  C46 UNL A   1      18.675  47.088  -1.673  1.00  0.00    +0.000 C 
ATOM     62  F7  UNL A   1      19.882  46.546  -1.464  1.00  0.00    +0.000 F 
ATOM     63  C47 UNL A   1      17.998  46.835  -2.857  1.00  0.00    +0.000 C 
ATOM     64  F8  UNL A   1      18.548  46.043  -3.788  1.00  0.00    +0.000 F 
ENDBRANCH   57   58
BRANCH   72   73
ATOM     73  C53 UNL A   1      17.671  55.228   0.659  1.00  0.00    +0.000 C 
ATOM     74  C54 UNL A   1      18.923  55.558   1.193  1.00  0.00    +0.000 C 
ATOM     75  F11 UNL A   1      19.383  54.910   2.273  1.00  0.00    +0.000 F 
ATOM     76  C55 UNL A   1      19.698  56.565   0.623  1.00  0.00    +0.000 C 
ATOM     77  F12 UNL A   1      20.889  56.873   1.155  1.00  0.00    +0.000 F 
ATOM     78  C56 UNL A   1      19.238  57.250  -0.492  1.00  0.00    +0.000 C 
ATOM     79  F13 UNL A   1      19.988  58.215  -1.043  1.00  0.00    +0.000 F 
ATOM     80  C57 UNL A   1      18.000  56.939  -1.033  1.00  0.00    +0.000 C 
ATOM     81  F14 UNL A   1      17.555  57.598  -2.111  1.00  0.00    +0.000 F 
ATOM     82  C58 UNL A   1      17.219  55.940  -0.459  1.00  0.00    +0.000 C 
ATOM     83  F15 UNL A   1      16.024  55.656  -0.996  1.00  0.00    +0.000 F 
ENDBRANCH   72   73
TORSDOF 18
ENDMDL
MODEL 10
REMARK VINA RESULT:     -10.4     38.828     43.469
ROOT
ATOM    129  H35 UNL A   1      16.542  56.789   2.528  1.00  0.00    +0.000 H 
ATOM    130  H36 UNL A   1      15.044  56.620   4.601  1.00  0.00    +0.000 H 
ATOM     36  C29 UNL A   1      14.026  53.997   5.067  1.00  0.00    +0.000 C 
ATOM     37  C30 UNL A   1      14.965  54.439   3.983  1.00  0.00    +0.000 C 
ATOM     38  N4  UNL A   1      15.517  53.728   3.033  1.00  0.00    +0.000 N 
ATOM     39  C31 UNL A   1      16.277  54.616   2.287  1.00  0.00    +0.000 C 
ATOM     40  C32 UNL A   1      17.055  54.358   1.209  1.00  0.00    +0.000 C 
ATOM     52  C39 UNL A   1      17.261  53.055   0.635  1.00  0.00    +0.000 C 
ATOM     53  C40 UNL A   1      18.142  52.679  -0.364  1.00  0.00    +0.000 C 
ATOM     54  C41 UNL A   1      17.953  51.316  -0.625  1.00  0.00    +0.000 C 
ATOM     55  C42 UNL A   1      16.964  50.844   0.221  1.00  0.00    +0.000 C 
ATOM     56  N5  UNL A   1      16.562  51.916   1.002  1.00  0.00    +0.000 N 
ATOM     57  C43 UNL A   1      16.408  49.521   0.308  1.00  0.00    +0.000 C 
ATOM     69  C50 UNL A   1      15.545  49.104   1.264  1.00  0.00    +0.000 C 
ATOM     70  N6  UNL A   1      14.998  49.829   2.311  1.00  0.00    +0.000 N 
ATOM     71  C51 UNL A   1      14.219  48.997   2.954  1.00  0.00    +0.000 C 
ATOM     72  C52 UNL A   1      13.370  49.247   4.163  1.00  0.00    +0.000 C 
ATOM     84  C59 UNL A   1      13.322  50.477   4.706  1.00  0.00    +0.000 C 
ATOM     85  C60 UNL A   1      12.520  50.855   5.865  1.00  0.00    +0.000 C 
ATOM     86  C61 UNL A   1      12.685  52.166   6.102  1.00  0.00    +0.000 C 
ATOM     87  C62 UNL A   1      13.626  52.712   5.123  1.00  0.00    +0.000 C 
ATOM     88  N7  UNL A   1      13.954  51.637   4.336  1.00  0.00    +0.000 N 
ATOM     89  C63 UNL A   1      14.185  47.641   2.389  1.00  0.00    +0.000 C 
ATOM     90  C64 UNL A   1      15.016  47.758   1.362  1.00  0.00    +0.000 C 
ATOM     91  C65 UNL A   1      16.109  55.924   2.886  1.00  0.00    +0.000 C 
ATOM     92  C66 UNL A   1      15.325  55.864   3.956  1.00  0.00    +0.000 C 
ATOM    121  H27 UNL A   1      18.820  53.297  -0.837  1.00  0.00    +0.000 H 
ATOM    122  H28 UNL A   1      18.464  50.759  -1.328  1.00  0.00    +0.000 H 
ATOM    123  H29 UNL A   1      15.881  51.874   1.712  1.00  0.00    +0.000 H 
ATOM    124  H30 UNL A   1      11.922  50.218   6.415  1.00  0.00    +0.000 H 
ATOM    125  H31 UNL A   1      12.223  52.702   6.853  1.00  0.00    +0.000 H 
ATOM    126  H32 UNL A   1      14.582  51.693   3.581  1.00  0.00    +0.000 H 
ATOM    127  H33 UNL A   1      13.653  46.815   2.706  1.00  0.00    +0.000 H 
ATOM    128  H34 UNL A   1      15.257  46.990   0.716  1.00  0.00    +0.000 H 
ENDROOT
BRANCH   36   35
ATOM     33  C26 UNL A   1      13.719  56.087   8.209  1.00  0.00    +0.000 C 
ATOM     34  C27 UNL A   1      14.258  55.282   7.202  1.00  0.00    +0.000 C 
ATOM     35  C28 UNL A   1      13.499  54.956   6.067  1.00  0.00    +0.000 C 
ATOM    132  H38 UNL A   1      10.732  56.704   6.820  1.00  0.00    +0.000 H 
ATOM    131  H37 UNL A   1      11.632  55.236   5.114  1.00  0.00    +0.000 H 
ATOM    119  H25 UNL A   1      14.266  56.280   9.062  1.00  0.00    +0.000 H 
ATOM    120  H26 UNL A   1      15.222  54.924   7.292  1.00  0.00    +0.000 H 
ATOM     93  C67 UNL A   1      12.202  55.475   5.940  1.00  0.00    +0.000 C 
ATOM     94  C68 UNL A   1      11.681  56.314   6.928  1.00  0.00    +0.000 C 
ATOM     32  C25 UNL A   1      12.440  56.631   8.063  1.00  0.00    +0.000 C 
BRANCH   32    2
ATOM      1  O1  UNL A   1      12.062  58.654   9.181  1.00  0.00    +0.000 O 
ATOM      2  C1  UNL A   1      11.798  57.455   9.118  1.00  0.00    +0.000 C 
BRANCH    2    3
ATOM      3  N1  UNL A   1      10.931  56.913  10.031  1.00  0.00    +0.000 N 
ATOM     95  H1  UNL A   1      10.802  57.448  10.847  1.00  0.00    +0.000 H 
BRANCH    3    4
ATOM     97  H3  UNL A   1       9.136  55.936  10.021  1.00  0.00    +0.000 H 
ATOM      4  C2  UNL A   1      10.173  55.677   9.984  1.00  0.00    +0.000 C 
ATOM     96  H2  UNL A   1      10.423  55.158   9.082  1.00  0.00    +0.000 H 
BRANCH    4    5
ATOM     98  H4  UNL A   1       9.641  54.847  11.852  1.00  0.00    +0.000 H 
ATOM     99  H5  UNL A   1      11.400  55.082  11.558  1.00  0.00    +0.000 H 
ATOM      5  C3  UNL A   1      10.457  54.759  11.167  1.00  0.00    +0.000 C 
BRANCH    5    6
ATOM    100  H6  UNL A   1       9.664  52.843  10.734  1.00  0.00    +0.000 H 
ATOM    101  H7  UNL A   1      11.204  52.868  11.656  1.00  0.00    +0.000 H 
ATOM      6  C4  UNL A   1      10.637  53.274  10.845  1.00  0.00    +0.000 C 
BRANCH    6    7
ATOM    103  H9  UNL A   1      11.306  51.908   9.415  1.00  0.00    +0.000 H 
ATOM    102  H8  UNL A   1      11.061  53.578   8.793  1.00  0.00    +0.000 H 
ATOM      7  C5  UNL A   1      11.436  52.957   9.579  1.00  0.00    +0.000 C 
BRANCH    7    8
ATOM    105  H11 UNL A   1      13.265  53.401   8.664  1.00  0.00    +0.000 H 
ATOM    104  H10 UNL A   1      13.135  53.953  10.370  1.00  0.00    +0.000 H 
ATOM      8  C6  UNL A   1      12.954  53.171   9.661  1.00  0.00    +0.000 C 
BRANCH    8    9
ATOM      9  C7  UNL A   1      13.785  51.958  10.081  1.00  0.00    +0.000 C 
ATOM    106  H12 UNL A   1      14.107  51.445   9.199  1.00  0.00    +0.000 H 
ATOM    107  H13 UNL A   1      13.165  51.343  10.698  1.00  0.00    +0.000 H 
BRANCH    9   10
ATOM     10  N2  UNL A   1      14.957  52.316  10.862  1.00  0.00    +0.000 N 
ATOM    108  H14 UNL A   1      15.777  52.509  10.352  1.00  0.00    +0.000 H 
BRANCH   10   11
ATOM     11  C8  UNL A   1      15.054  52.416  12.227  1.00  0.00    +0.000 C 
ATOM     12  O2  UNL A   1      16.139  52.275  12.786  1.00  0.00    +0.000 O 
BRANCH   11   13
ATOM     13  C9  UNL A   1      13.876  52.739  13.046  1.00  0.00    +0.000 C 
ATOM     14  C10 UNL A   1      13.535  54.091  13.187  1.00  0.00    +0.000 C 
ATOM    109  H15 UNL A   1      14.093  54.816  12.710  1.00  0.00    +0.000 H 
ATOM     15  C11 UNL A   1      12.441  54.461  13.974  1.00  0.00    +0.000 C 
ATOM     17  C13 UNL A   1      12.056  52.142  14.505  1.00  0.00    +0.000 C 
ATOM     18  C14 UNL A   1      13.151  51.754  13.720  1.00  0.00    +0.000 C 
ATOM    110  H16 UNL A   1      12.182  55.455  14.065  1.00  0.00    +0.000 H 
ATOM    112  H18 UNL A   1      11.502  51.423  14.995  1.00  0.00    +0.000 H 
ATOM     16  C12 UNL A   1      11.701  53.485  14.635  1.00  0.00    +0.000 C 
ATOM    111  H17 UNL A   1      10.893  53.753  15.217  1.00  0.00    +0.000 H 
BRANCH   18   19
ATOM     19  N3  UNL A   1      13.332  50.382  13.560  1.00  0.00    +0.000 N 
BRANCH   19   20
ATOM    113  H19 UNL A   1      11.388  49.797  13.770  1.00  0.00    +0.000 H 
ATOM     20  C15 UNL A   1      12.326  49.583  13.399  1.00  0.00    +0.000 C 
BRANCH   20   21
ATOM     26  C20 UNL A   1       9.657  47.955   8.770  1.00  0.00    +0.000 C 
ATOM    117  H23 UNL A   1      10.587  49.328   7.458  1.00  0.00    +0.000 H 
ATOM    114  H20 UNL A   1      11.461  47.198  13.890  1.00  0.00    +0.000 H 
ATOM    115  H21 UNL A   1       9.032  46.575  10.252  1.00  0.00    +0.000 H 
ATOM    116  H22 UNL A   1       8.791  47.880   8.213  1.00  0.00    +0.000 H 
ATOM     21  C16 UNL A   1      12.613  48.343  12.648  1.00  0.00    +0.000 C 
ATOM     22  C17 UNL A   1      11.696  47.397  12.906  1.00  0.00    +0.000 C 
ATOM     23  O3  UNL A   1      11.047  46.673  11.913  1.00  0.00    +0.000 O 
ATOM     24  C18 UNL A   1      10.940  47.344  10.710  1.00  0.00    +0.000 C 
ATOM    118  H24 UNL A   1      12.623  49.533   8.780  1.00  0.00    +0.000 H 
ATOM     25  C19 UNL A   1       9.786  47.213   9.950  1.00  0.00    +0.000 C 
ATOM     27  C21 UNL A   1      10.689  48.798   8.338  1.00  0.00    +0.000 C 
ATOM     28  C22 UNL A   1      11.853  48.922   9.094  1.00  0.00    +0.000 C 
ATOM     29  C23 UNL A   1      11.954  48.204  10.284  1.00  0.00    +0.000 C 
ATOM     30  C24 UNL A   1      13.046  48.442  11.233  1.00  0.00    +0.000 C 
ATOM     31  O4  UNL A   1      14.169  48.776  10.891  1.00  0.00    +0.000 O 
ENDBRANCH   20   21
ENDBRANCH   19   20
ENDBRANCH   18   19
ENDBRANCH   11   13
ENDBRANCH   10   11
ENDBRANCH    9   10
ENDBRANCH    8    9
ENDBRANCH    7    8
ENDBRANCH    6    7
ENDBRANCH    5    6
ENDBRANCH    4    5
ENDBRANCH    3    4
ENDBRANCH    2    3
ENDBRANCH   32    2
ENDBRANCH   36   35
BRANCH   40   41
ATOM     41  C33 UNL A   1      17.758  55.515   0.574  1.00  0.00    +0.000 C 
ATOM     42  C34 UNL A   1      19.023  55.926   1.014  1.00  0.00    +0.000 C 
ATOM     43  F1  UNL A   1      19.603  55.321   2.061  1.00  0.00    +0.000 F 
ATOM     44  C35 UNL A   1      19.692  56.968   0.381  1.00  0.00    +0.000 C 
ATOM     45  F2  UNL A   1      20.898  57.355   0.821  1.00  0.00    +0.000 F 
ATOM     46  C36 UNL A   1      19.113  57.611  -0.705  1.00  0.00    +0.000 C 
ATOM     47  F3  UNL A   1      19.762  58.612  -1.316  1.00  0.00    +0.000 F 
ATOM     48  C37 UNL A   1      17.861  57.218  -1.154  1.00  0.00    +0.000 C 
ATOM     49  F4  UNL A   1      17.302  57.838  -2.202  1.00  0.00    +0.000 F 
ATOM     50  C38 UNL A   1      17.185  56.179  -0.518  1.00  0.00    +0.000 C 
ATOM     51  F5  UNL A   1      15.975  55.819  -0.970  1.00  0.00    +0.000 F 
ENDBRANCH   40   41
BRANCH   57   58
ATOM     65  C48 UNL A   1      16.378  47.322  -2.792  1.00  0.00    +0.000 C 
ATOM     66  F9  UNL A   1      15.596  47.100  -3.857  1.00  0.00    +0.000 F 
ATOM     67  C49 UNL A   1      16.009  48.273  -1.845  1.00  0.00    +0.000 C 
ATOM     68  F10 UNL A   1      14.870  48.959  -2.022  1.00  0.00    +0.000 F 
ATOM     58  C44 UNL A   1      16.813  48.518  -0.724  1.00  0.00    +0.000 C 
ATOM     59  C45 UNL A   1      17.998  47.782  -0.583  1.00  0.00    +0.000 C 
ATOM     60  F6  UNL A   1      18.805  47.998   0.468  1.00  0.00    +0.000 F 
ATOM     61  C46 UNL A   1      18.368  46.839  -1.536  1.00  0.00    +0.000 C 
ATOM     62  F7  UNL A   1      19.516  46.161  -1.396  1.00  0.00    +0.000 F 
ATOM     63  C47 UNL A   1      17.557  46.607  -2.637  1.00  0.00    +0.000 C 
ATOM     64  F8  UNL A   1      17.918  45.701  -3.557  1.00  0.00    +0.000 F 
ENDBRANCH   57   58
BRANCH   72   73
ATOM     73  C53 UNL A   1      12.567  48.160   4.766  1.00  0.00    +0.000 C 
ATOM     74  C54 UNL A   1      11.317  47.815   4.239  1.00  0.00    +0.000 C 
ATOM     75  F11 UNL A   1      10.811  48.506   3.207  1.00  0.00    +0.000 F 
ATOM     76  C55 UNL A   1      10.578  46.768   4.783  1.00  0.00    +0.000 C 
ATOM     77  F12 UNL A   1       9.377  46.461   4.272  1.00  0.00    +0.000 F 
ATOM     78  C56 UNL A   1      11.081  46.044   5.854  1.00  0.00    +0.000 C 
ATOM     79  F13 UNL A   1      10.371  45.032   6.373  1.00  0.00    +0.000 F 
ATOM     80  C57 UNL A   1      12.317  46.371   6.391  1.00  0.00    +0.000 C 
ATOM     81  F14 UNL A   1      12.806  45.672   7.424  1.00  0.00    +0.000 F 
ATOM     82  C58 UNL A   1      13.052  47.425   5.855  1.00  0.00    +0.000 C 
ATOM     83  F15 UNL A   1      14.245  47.727   6.390  1.00  0.00    +0.000 F 
ENDBRANCH   72   73
TORSDOF 18
ENDMDL
