MODEL 1
REMARK VINA RESULT:     -10.2      0.000      0.000
ROOT
ATOM    138  H33 UNL A   1      20.055  31.235  -0.464  1.00  0.00    +0.000 H 
ATOM    139  H34 UNL A   1      17.501  31.714  -0.670  1.00  0.00    +0.000 H 
ATOM    140  H35 UNL A   1      18.153  27.727  -1.573  1.00  0.00    +0.000 H 
ATOM    141  H36 UNL A   1      15.919  22.103  -3.616  1.00  0.00    +0.000 H 
ATOM    142  H37 UNL A   1      18.386  21.609  -3.271  1.00  0.00    +0.000 H 
ATOM    143  H38 UNL A   1      17.745  25.602  -2.314  1.00  0.00    +0.000 H 
ATOM    144  H39 UNL A   1      12.812  26.381  -2.793  1.00  0.00    +0.000 H 
ATOM    145  H40 UNL A   1      13.281  28.833  -2.239  1.00  0.00    +0.000 H 
ATOM    146  H41 UNL A   1      22.998  26.752  -0.783  1.00  0.00    +0.000 H 
ATOM    147  H42 UNL A   1      22.652  24.443  -1.833  1.00  0.00    +0.000 H 
ATOM     39  C28 UNL A   1      19.927  23.856  -2.432  1.00  0.00    +0.000 C 
ATOM     40  C29 UNL A   1      20.501  25.155  -1.939  1.00  0.00    +0.000 C 
ATOM     41  N3  UNL A   1      19.893  26.285  -1.684  1.00  0.00    +0.000 N 
ATOM     42  C30 UNL A   1      20.877  27.146  -1.220  1.00  0.00    +0.000 C 
ATOM     43  C31 UNL A   1      20.767  28.456  -0.894  1.00  0.00    +0.000 C 
ATOM     55  C38 UNL A   1      19.539  29.202  -0.967  1.00  0.00    +0.000 C 
ATOM     56  C39 UNL A   1      19.329  30.545  -0.711  1.00  0.00    +0.000 C 
ATOM     57  C40 UNL A   1      17.962  30.807  -0.845  1.00  0.00    +0.000 C 
ATOM     58  C41 UNL A   1      17.329  29.643  -1.253  1.00  0.00    +0.000 C 
ATOM     59  N4  UNL A   1      18.308  28.665  -1.317  1.00  0.00    +0.000 N 
ATOM     60  C42 UNL A   1      15.935  29.441  -1.563  1.00  0.00    +0.000 C 
ATOM     72  C49 UNL A   1      15.390  28.267  -1.966  1.00  0.00    +0.000 C 
ATOM     73  N5  UNL A   1      16.007  27.041  -2.175  1.00  0.00    +0.000 N 
ATOM     74  C50 UNL A   1      15.059  26.216  -2.544  1.00  0.00    +0.000 C 
ATOM     75  C51 UNL A   1      15.157  24.765  -2.933  1.00  0.00    +0.000 C 
ATOM     87  C58 UNL A   1      16.363  24.169  -2.926  1.00  0.00    +0.000 C 
ATOM     88  C59 UNL A   1      16.626  22.779  -3.286  1.00  0.00    +0.000 C 
ATOM     89  C60 UNL A   1      17.932  22.522  -3.116  1.00  0.00    +0.000 C 
ATOM     90  C61 UNL A   1      18.607  23.744  -2.679  1.00  0.00    +0.000 C 
ATOM     91  N6  UNL A   1      17.598  24.669  -2.591  1.00  0.00    +0.000 N 
ATOM     92  C62 UNL A   1      13.720  26.820  -2.580  1.00  0.00    +0.000 C 
ATOM     93  C63 UNL A   1      13.985  28.080  -2.266  1.00  0.00    +0.000 C 
ATOM     94  C64 UNL A   1      22.110  26.393  -1.164  1.00  0.00    +0.000 C 
ATOM     95  C65 UNL A   1      21.947  25.179  -1.670  1.00  0.00    +0.000 C 
ENDROOT
BRANCH   39   38
ATOM     97  C67 UNL A   1      21.826  21.029  -4.057  1.00  0.00    +0.000 C 
ATOM     35  C24 UNL A   1      22.493  20.482  -2.957  1.00  0.00    +0.000 C 
ATOM     36  C25 UNL A   1      22.271  20.978  -1.672  1.00  0.00    +0.000 C 
ATOM     37  C26 UNL A   1      21.408  22.057  -1.494  1.00  0.00    +0.000 C 
ATOM     38  C27 UNL A   1      20.806  22.675  -2.604  1.00  0.00    +0.000 C 
ATOM    136  H31 UNL A   1      22.741  20.549  -0.861  1.00  0.00    +0.000 H 
ATOM    137  H32 UNL A   1      21.210  22.406  -0.543  1.00  0.00    +0.000 H 
ATOM    148  H43 UNL A   1      20.604  22.614  -4.709  1.00  0.00    +0.000 H 
ATOM    149  H44 UNL A   1      21.922  20.598  -4.989  1.00  0.00    +0.000 H 
ATOM     96  C66 UNL A   1      21.031  22.157  -3.888  1.00  0.00    +0.000 C 
BRANCH   35   33
ATOM     33  C23 UNL A   1      23.477  19.397  -3.134  1.00  0.00    +0.000 C 
ATOM     34  O9  UNL A   1      23.278  18.297  -2.632  1.00  0.00    +0.000 O 
BRANCH   33   32
ATOM    135  H30 UNL A   1      24.668  19.279  -4.743  1.00  0.00    +0.000 H 
ATOM     32  N2  UNL A   1      24.626  19.653  -3.833  1.00  0.00    +0.000 N 
BRANCH   32   31
ATOM    133  H28 UNL A   1      25.519  21.006  -2.564  1.00  0.00    +0.000 H 
ATOM    134  H29 UNL A   1      26.556  19.697  -3.157  1.00  0.00    +0.000 H 
ATOM     31  C22 UNL A   1      25.792  20.403  -3.405  1.00  0.00    +0.000 C 
BRANCH   31   30
ATOM    131  H26 UNL A   1      27.409  21.196  -4.516  1.00  0.00    +0.000 H 
ATOM    132  H27 UNL A   1      25.868  21.011  -5.405  1.00  0.00    +0.000 H 
ATOM     30  C21 UNL A   1      26.344  21.311  -4.495  1.00  0.00    +0.000 C 
BRANCH   30   29
ATOM    129  H24 UNL A   1      26.341  23.083  -3.334  1.00  0.00    +0.000 H 
ATOM    130  H25 UNL A   1      26.556  23.300  -5.104  1.00  0.00    +0.000 H 
ATOM     29  C20 UNL A   1      26.031  22.798  -4.318  1.00  0.00    +0.000 C 
BRANCH   29   28
ATOM     28  C19 UNL A   1      24.559  23.196  -4.482  1.00  0.00    +0.000 C 
ATOM    127  H22 UNL A   1      24.203  22.769  -5.396  1.00  0.00    +0.000 H 
ATOM    128  H23 UNL A   1      24.060  22.832  -3.608  1.00  0.00    +0.000 H 
BRANCH   28   27
ATOM     27  C18 UNL A   1      24.278  24.699  -4.525  1.00  0.00    +0.000 C 
ATOM    125  H20 UNL A   1      24.063  25.032  -3.530  1.00  0.00    +0.000 H 
ATOM    126  H21 UNL A   1      25.149  25.169  -4.932  1.00  0.00    +0.000 H 
BRANCH   27   26
ATOM     26  C17 UNL A   1      23.114  25.076  -5.417  1.00  0.00    +0.000 C 
ATOM    123  H18 UNL A   1      22.363  24.319  -5.342  1.00  0.00    +0.000 H 
ATOM    124  H19 UNL A   1      22.740  26.024  -5.090  1.00  0.00    +0.000 H 
BRANCH   26   25
ATOM     25  N1  UNL A   1      23.514  25.206  -6.799  1.00  0.00    +0.000 N 
ATOM    122  H17 UNL A   1      23.630  24.382  -7.324  1.00  0.00    +0.000 H 
BRANCH   25   23
ATOM     23  C16 UNL A   1      23.738  26.397  -7.425  1.00  0.00    +0.000 C 
ATOM     24  O8  UNL A   1      24.028  27.399  -6.791  1.00  0.00    +0.000 O 
BRANCH   23   22
ATOM      2  C2  UNL A   1      27.502  25.993 -12.251  1.00  0.00    +0.000 C 
ATOM      3  C3  UNL A   1      27.393  26.442 -13.662  1.00  0.00    +0.000 C 
ATOM      4  O1  UNL A   1      28.299  26.599 -14.447  1.00  0.00    +0.000 O 
ATOM      5  O2  UNL A   1      26.071  26.697 -13.875  1.00  0.00    +0.000 O 
ATOM      6  C4  UNL A   1      25.312  26.512 -12.650  1.00  0.00    +0.000 C 
ATOM      7  C5  UNL A   1      26.358  26.646 -11.551  1.00  0.00    +0.000 C 
ATOM      8  C6  UNL A   1      26.008  26.284 -10.100  1.00  0.00    +0.000 C 
ATOM     17  C12 UNL A   1      24.744  27.094  -9.600  1.00  0.00    +0.000 C 
ATOM     22  C15 UNL A   1      23.569  26.402  -8.922  1.00  0.00    +0.000 C 
ATOM    150  H45 UNL A   1      22.047  25.247  -8.419  1.00  0.00    +0.000 H 
ATOM    152  H47 UNL A   1      21.304  24.954 -12.670  1.00  0.00    +0.000 H 
ATOM    151  H46 UNL A   1      20.871  25.180  -9.686  1.00  0.00    +0.000 H 
ATOM    156  H51 UNL A   1      25.467  24.711 -12.508  1.00  0.00    +0.000 H 
ATOM     98  C68 UNL A   1      22.402  25.795  -9.218  1.00  0.00    +0.000 C 
ATOM     99  C69 UNL A   1      21.506  25.705 -10.369  1.00  0.00    +0.000 C 
ATOM    100  O10 UNL A   1      21.535  26.768 -11.311  1.00  0.00    +0.000 O 
ATOM    101  C70 UNL A   1      21.744  25.474 -11.844  1.00  0.00    +0.000 C 
ATOM    102  C71 UNL A   1      23.099  24.888 -12.246  1.00  0.00    +0.000 C 
ATOM    104  O11 UNL A   1      23.434  25.283 -13.594  1.00  0.00    +0.000 O 
ATOM    105  C73 UNL A   1      24.554  25.228 -12.715  1.00  0.00    +0.000 C 
ATOM    108  H3  UNL A   1      24.536  27.225 -12.467  1.00  0.00    +0.000 H 
ATOM    109  H4  UNL A   1      26.554  27.648 -11.228  1.00  0.00    +0.000 H 
ATOM    110  H5  UNL A   1      26.824  26.590  -9.478  1.00  0.00    +0.000 H 
ATOM    118  H13 UNL A   1      24.794  27.137  -8.532  1.00  0.00    +0.000 H 
BRANCH    2    1
ATOM      1  C1  UNL A   1      28.415  25.089 -11.888  1.00  0.00    +0.000 C 
ATOM    106  H1  UNL A   1      28.125  24.123 -11.667  1.00  0.00    +0.000 H 
ATOM    107  H2  UNL A   1      29.409  25.356 -11.827  1.00  0.00    +0.000 H 
ENDBRANCH    2    1
BRANCH    8    9
ATOM      9  O3  UNL A   1      25.910  24.859  -9.893  1.00  0.00    +0.000 O 
BRANCH    9   10
ATOM     10  C7  UNL A   1      26.573  24.147  -8.910  1.00  0.00    +0.000 C 
ATOM     11  O4  UNL A   1      26.562  22.921  -8.994  1.00  0.00    +0.000 O 
BRANCH   10   12
ATOM    114  H9  UNL A   1      29.841  24.628  -7.233  1.00  0.00    +0.000 H 
ATOM     12  C8  UNL A   1      27.626  24.817  -8.036  1.00  0.00    +0.000 C 
ATOM     14  O5  UNL A   1      28.465  25.677  -8.858  1.00  0.00    +0.000 O 
ATOM     15  C10 UNL A   1      29.176  24.745  -8.064  1.00  0.00    +0.000 C 
BRANCH   12   13
ATOM    113  H8  UNL A   1      26.064  25.962  -7.143  1.00  0.00    +0.000 H 
ATOM     13  C9  UNL A   1      27.061  25.660  -6.901  1.00  0.00    +0.000 C 
ATOM    111  H6  UNL A   1      27.673  26.528  -6.764  1.00  0.00    +0.000 H 
ATOM    112  H7  UNL A   1      27.052  25.085  -5.999  1.00  0.00    +0.000 H 
ENDBRANCH   12   13
BRANCH   15   16
ATOM    115  H10 UNL A   1      30.417  23.072  -8.295  1.00  0.00    +0.000 H 
ATOM    116  H11 UNL A   1      30.974  24.509  -9.117  1.00  0.00    +0.000 H 
ATOM    117  H12 UNL A   1      29.627  23.600  -9.760  1.00  0.00    +0.000 H 
ATOM     16  C11 UNL A   1      30.114  23.925  -8.865  1.00  0.00    +0.000 C 
ENDBRANCH   15   16
ENDBRANCH   10   12
ENDBRANCH    9   10
ENDBRANCH    8    9
BRANCH   17   18
ATOM     18  O6  UNL A   1      24.695  28.518 -10.009  1.00  0.00    +0.000 O 
BRANCH   18   19
ATOM     19  C13 UNL A   1      25.280  29.709  -9.865  1.00  0.00    +0.000 C 
ATOM     21  O7  UNL A   1      25.618  30.082  -8.742  1.00  0.00    +0.000 O 
BRANCH   19   20
ATOM    121  H16 UNL A   1      26.381  31.234 -10.783  1.00  0.00    +0.000 H 
ATOM     20  C14 UNL A   1      25.583  30.565 -11.029  1.00  0.00    +0.000 C 
ATOM    119  H14 UNL A   1      24.714  31.129 -11.294  1.00  0.00    +0.000 H 
ATOM    120  H15 UNL A   1      25.876  29.951 -11.856  1.00  0.00    +0.000 H 
ENDBRANCH   19   20
ENDBRANCH   18   19
ENDBRANCH   17   18
BRANCH  102  103
ATOM    153  H48 UNL A   1      22.060  23.060 -12.637  1.00  0.00    +0.000 H 
ATOM    154  H49 UNL A   1      22.890  23.095 -11.100  1.00  0.00    +0.000 H 
ATOM    155  H50 UNL A   1      23.799  22.894 -12.579  1.00  0.00    +0.000 H 
ATOM    103  C72 UNL A   1      22.950  23.370 -12.131  1.00  0.00    +0.000 C 
ENDBRANCH  102  103
ENDBRANCH   23   22
ENDBRANCH   25   23
ENDBRANCH   26   25
ENDBRANCH   27   26
ENDBRANCH   28   27
ENDBRANCH   29   28
ENDBRANCH   30   29
ENDBRANCH   31   30
ENDBRANCH   32   31
ENDBRANCH   33   32
ENDBRANCH   35   33
ENDBRANCH   39   38
BRANCH   43   44
ATOM     44  C32 UNL A   1      22.007  29.164  -0.425  1.00  0.00    +0.000 C 
ATOM     45  C33 UNL A   1      22.303  29.314   0.939  1.00  0.00    +0.000 C 
ATOM     46  F1  UNL A   1      21.450  28.858   1.869  1.00  0.00    +0.000 F 
ATOM     47  C34 UNL A   1      23.456  29.974   1.355  1.00  0.00    +0.000 C 
ATOM     48  F2  UNL A   1      23.688  30.153   2.663  1.00  0.00    +0.000 F 
ATOM     49  C35 UNL A   1      24.357  30.458   0.420  1.00  0.00    +0.000 C 
ATOM     50  F3  UNL A   1      25.472  31.085   0.822  1.00  0.00    +0.000 F 
ATOM     51  C36 UNL A   1      24.099  30.300  -0.933  1.00  0.00    +0.000 C 
ATOM     52  F4  UNL A   1      24.976  30.753  -1.839  1.00  0.00    +0.000 F 
ATOM     53  C37 UNL A   1      22.929  29.672  -1.353  1.00  0.00    +0.000 C 
ATOM     54  F5  UNL A   1      22.699  29.554  -2.670  1.00  0.00    +0.000 F 
ENDBRANCH   43   44
BRANCH   60   61
ATOM     65  F7  UNL A   1      13.009  32.826  -3.572  1.00  0.00    +0.000 F 
ATOM     66  C46 UNL A   1      13.264  32.809  -1.224  1.00  0.00    +0.000 C 
ATOM     67  F8  UNL A   1      12.434  33.856  -1.112  1.00  0.00    +0.000 F 
ATOM     68  C47 UNL A   1      13.847  32.262  -0.092  1.00  0.00    +0.000 C 
ATOM     69  F9  UNL A   1      13.560  32.762   1.118  1.00  0.00    +0.000 F 
ATOM     70  C48 UNL A   1      14.729  31.192  -0.209  1.00  0.00    +0.000 C 
ATOM     71  F10 UNL A   1      15.288  30.694   0.904  1.00  0.00    +0.000 F 
ATOM     61  C43 UNL A   1      15.020  30.628  -1.461  1.00  0.00    +0.000 C 
ATOM     62  C44 UNL A   1      14.401  31.183  -2.591  1.00  0.00    +0.000 C 
ATOM     63  F6  UNL A   1      14.655  30.691  -3.812  1.00  0.00    +0.000 F 
ATOM     64  C45 UNL A   1      13.547  32.277  -2.474  1.00  0.00    +0.000 C 
ENDBRANCH   60   61
BRANCH   75   76
ATOM     76  C52 UNL A   1      13.949  23.999  -3.340  1.00  0.00    +0.000 C 
ATOM     77  C53 UNL A   1      13.347  24.206  -4.589  1.00  0.00    +0.000 C 
ATOM     78  F11 UNL A   1      13.857  25.115  -5.434  1.00  0.00    +0.000 F 
ATOM     79  C54 UNL A   1      12.194  23.517  -4.958  1.00  0.00    +0.000 C 
ATOM     80  F12 UNL A   1      11.610  23.775  -6.136  1.00  0.00    +0.000 F 
ATOM     81  C55 UNL A   1      11.641  22.578  -4.101  1.00  0.00    +0.000 C 
ATOM     82  F13 UNL A   1      10.534  21.913  -4.457  1.00  0.00    +0.000 F 
ATOM     83  C56 UNL A   1      12.231  22.336  -2.870  1.00  0.00    +0.000 C 
ATOM     84  F14 UNL A   1      11.710  21.419  -2.045  1.00  0.00    +0.000 F 
ATOM     85  C57 UNL A   1      13.365  23.050  -2.487  1.00  0.00    +0.000 C 
ATOM     86  F15 UNL A   1      13.904  22.807  -1.283  1.00  0.00    +0.000 F 
ENDBRANCH   75   76
TORSDOF 25
ENDMDL
MODEL 2
REMARK VINA RESULT:      -9.8     22.738     30.164
ROOT
ATOM    138  H33 UNL A   1      19.158  53.092  -1.577  1.00  0.00    +0.000 H 
ATOM    139  H34 UNL A   1      18.558  50.615  -2.127  1.00  0.00    +0.000 H 
ATOM    140  H35 UNL A   1      16.146  51.875   0.992  1.00  0.00    +0.000 H 
ATOM    141  H36 UNL A   1      11.781  50.552   5.464  1.00  0.00    +0.000 H 
ATOM    142  H37 UNL A   1      12.268  53.007   5.896  1.00  0.00    +0.000 H 
ATOM    143  H38 UNL A   1      14.665  51.775   2.731  1.00  0.00    +0.000 H 
ATOM    144  H39 UNL A   1      13.430  46.999   1.818  1.00  0.00    +0.000 H 
ATOM    145  H40 UNL A   1      15.279  47.000   0.050  1.00  0.00    +0.000 H 
ATOM    146  H41 UNL A   1      17.045  56.739   1.753  1.00  0.00    +0.000 H 
ATOM    147  H42 UNL A   1      15.591  56.626   3.858  1.00  0.00    +0.000 H 
ATOM     39  C28 UNL A   1      14.273  54.122   4.203  1.00  0.00    +0.000 C 
ATOM     40  C29 UNL A   1      15.295  54.487   3.164  1.00  0.00    +0.000 C 
ATOM     41  N3  UNL A   1      15.802  53.752   2.206  1.00  0.00    +0.000 N 
ATOM     42  C30 UNL A   1      16.668  54.584   1.512  1.00  0.00    +0.000 C 
ATOM     43  C31 UNL A   1      17.490  54.274   0.481  1.00  0.00    +0.000 C 
ATOM     55  C38 UNL A   1      17.593  52.961  -0.099  1.00  0.00    +0.000 C 
ATOM     56  C39 UNL A   1      18.432  52.528  -1.110  1.00  0.00    +0.000 C 
ATOM     57  C40 UNL A   1      18.126  51.192  -1.388  1.00  0.00    +0.000 C 
ATOM     58  C41 UNL A   1      17.145  50.771  -0.505  1.00  0.00    +0.000 C 
ATOM     59  N4  UNL A   1      16.822  51.869   0.276  1.00  0.00    +0.000 N 
ATOM     60  C42 UNL A   1      16.548  49.465  -0.381  1.00  0.00    +0.000 C 
ATOM     72  C49 UNL A   1      15.593  49.127   0.520  1.00  0.00    +0.000 C 
ATOM     73  N5  UNL A   1      14.994  49.911   1.496  1.00  0.00    +0.000 N 
ATOM     74  C50 UNL A   1      14.126  49.137   2.101  1.00  0.00    +0.000 C 
ATOM     75  C51 UNL A   1      13.218  49.449   3.260  1.00  0.00    +0.000 C 
ATOM     87  C58 UNL A   1      13.255  50.680   3.804  1.00  0.00    +0.000 C 
ATOM     88  C59 UNL A   1      12.450  51.133   4.934  1.00  0.00    +0.000 C 
ATOM     89  C60 UNL A   1      12.717  52.426   5.170  1.00  0.00    +0.000 C 
ATOM     90  C61 UNL A   1      13.748  52.881   4.237  1.00  0.00    +0.000 C 
ATOM     91  N6  UNL A   1      14.006  51.778   3.462  1.00  0.00    +0.000 N 
ATOM     92  C62 UNL A   1      14.054  47.776   1.552  1.00  0.00    +0.000 C 
ATOM     93  C63 UNL A   1      15.000  47.810   0.625  1.00  0.00    +0.000 C 
ATOM     94  C64 UNL A   1      16.571  55.896   2.112  1.00  0.00    +0.000 C 
ATOM     95  C65 UNL A   1      15.793  55.871   3.184  1.00  0.00    +0.000 C 
ENDROOT
BRANCH   39   38
ATOM     97  C67 UNL A   1      12.197  56.851   5.778  1.00  0.00    +0.000 C 
ATOM     35  C24 UNL A   1      12.864  57.033   6.993  1.00  0.00    +0.000 C 
ATOM     36  C25 UNL A   1      14.034  56.326   7.274  1.00  0.00    +0.000 C 
ATOM     37  C26 UNL A   1      14.514  55.401   6.351  1.00  0.00    +0.000 C 
ATOM     38  C27 UNL A   1      13.800  55.142   5.168  1.00  0.00    +0.000 C 
ATOM    136  H31 UNL A   1      14.539  56.489   8.159  1.00  0.00    +0.000 H 
ATOM    137  H32 UNL A   1      15.399  54.901   6.536  1.00  0.00    +0.000 H 
ATOM    148  H43 UNL A   1      12.093  55.675   4.036  1.00  0.00    +0.000 H 
ATOM    149  H44 UNL A   1      11.388  57.445   5.537  1.00  0.00    +0.000 H 
ATOM     96  C66 UNL A   1      12.631  55.869   4.895  1.00  0.00    +0.000 C 
BRANCH   35   33
ATOM     33  C23 UNL A   1      12.326  57.943   8.021  1.00  0.00    +0.000 C 
ATOM     34  O9  UNL A   1      13.020  58.848   8.469  1.00  0.00    +0.000 O 
BRANCH   33   32
ATOM    135  H30 UNL A   1      10.335  57.803   7.822  1.00  0.00    +0.000 H 
ATOM     32  N2  UNL A   1      11.056  57.735   8.490  1.00  0.00    +0.000 N 
BRANCH   32   31
ATOM    133  H28 UNL A   1      11.267  57.958  10.526  1.00  0.00    +0.000 H 
ATOM    134  H29 UNL A   1       9.611  57.725   9.938  1.00  0.00    +0.000 H 
ATOM     31  C22 UNL A   1      10.634  57.428   9.844  1.00  0.00    +0.000 C 
BRANCH   31   30
ATOM    131  H26 UNL A   1      10.294  55.791  11.140  1.00  0.00    +0.000 H 
ATOM    132  H27 UNL A   1      10.170  55.440   9.391  1.00  0.00    +0.000 H 
ATOM     30  C21 UNL A   1      10.711  55.942  10.165  1.00  0.00    +0.000 C 
BRANCH   30   29
ATOM    129  H24 UNL A   1      12.235  54.786   9.255  1.00  0.00    +0.000 H 
ATOM    130  H25 UNL A   1      12.786  56.186  10.235  1.00  0.00    +0.000 H 
ATOM     29  C20 UNL A   1      12.122  55.351  10.156  1.00  0.00    +0.000 C 
BRANCH   29   28
ATOM     28  C19 UNL A   1      12.471  54.432  11.334  1.00  0.00    +0.000 C 
ATOM    127  H22 UNL A   1      12.699  55.051  12.176  1.00  0.00    +0.000 H 
ATOM    128  H23 UNL A   1      11.617  53.803  11.476  1.00  0.00    +0.000 H 
BRANCH   28   27
ATOM     27  C18 UNL A   1      13.652  53.486  11.112  1.00  0.00    +0.000 C 
ATOM    125  H20 UNL A   1      14.396  53.693  11.853  1.00  0.00    +0.000 H 
ATOM    126  H21 UNL A   1      13.272  52.488  11.184  1.00  0.00    +0.000 H 
BRANCH   27   26
ATOM     26  C17 UNL A   1      14.290  53.619   9.745  1.00  0.00    +0.000 C 
ATOM    123  H18 UNL A   1      13.756  54.356   9.184  1.00  0.00    +0.000 H 
ATOM    124  H19 UNL A   1      15.312  53.907   9.884  1.00  0.00    +0.000 H 
BRANCH   26   25
ATOM     25  N1  UNL A   1      14.272  52.372   9.017  1.00  0.00    +0.000 N 
ATOM    122  H17 UNL A   1      15.098  52.092   8.562  1.00  0.00    +0.000 H 
BRANCH   25   23
ATOM     23  C16 UNL A   1      13.183  51.555   8.921  1.00  0.00    +0.000 C 
ATOM     24  O8  UNL A   1      12.116  51.972   8.503  1.00  0.00    +0.000 O 
BRANCH   23   22
ATOM      2  C2  UNL A   1      11.152  48.211  13.645  1.00  0.00    +0.000 C 
ATOM      3  C3  UNL A   1      11.681  47.009  14.338  1.00  0.00    +0.000 C 
ATOM      4  O1  UNL A   1      11.382  46.616  15.441  1.00  0.00    +0.000 O 
ATOM      5  O2  UNL A   1      12.614  46.472  13.501  1.00  0.00    +0.000 O 
ATOM      6  C4  UNL A   1      12.781  47.305  12.323  1.00  0.00    +0.000 C 
ATOM      7  C5  UNL A   1      12.267  48.669  12.765  1.00  0.00    +0.000 C 
ATOM      8  C6  UNL A   1      12.053  49.788  11.735  1.00  0.00    +0.000 C 
ATOM     17  C12 UNL A   1      13.377  50.067  10.916  1.00  0.00    +0.000 C 
ATOM     22  C15 UNL A   1      13.374  50.138   9.394  1.00  0.00    +0.000 C 
ATOM    150  H45 UNL A   1      13.177  49.817   7.455  1.00  0.00    +0.000 H 
ATOM    152  H47 UNL A   1      13.601  45.629   8.448  1.00  0.00    +0.000 H 
ATOM    151  H46 UNL A   1      13.828  48.277   7.008  1.00  0.00    +0.000 H 
ATOM    156  H51 UNL A   1      11.169  47.004  11.549  1.00  0.00    +0.000 H 
ATOM     98  C68 UNL A   1      13.502  49.343   8.312  1.00  0.00    +0.000 C 
ATOM     99  C69 UNL A   1      13.978  47.991   8.028  1.00  0.00    +0.000 C 
ATOM    100  O10 UNL A   1      14.921  47.423   8.926  1.00  0.00    +0.000 O 
ATOM    101  C70 UNL A   1      13.752  46.657   8.703  1.00  0.00    +0.000 C 
ATOM    102  C71 UNL A   1      12.562  46.555   9.661  1.00  0.00    +0.000 C 
ATOM    104  O11 UNL A   1      12.805  45.533  10.652  1.00  0.00    +0.000 O 
ATOM    105  C73 UNL A   1      12.105  46.669  11.154  1.00  0.00    +0.000 C 
ATOM    108  H3  UNL A   1      13.785  47.421  11.969  1.00  0.00    +0.000 H 
ATOM    109  H4  UNL A   1      12.988  49.290  13.255  1.00  0.00    +0.000 H 
ATOM    110  H5  UNL A   1      11.837  50.690  12.270  1.00  0.00    +0.000 H 
ATOM    118  H13 UNL A   1      13.318  51.069  10.543  1.00  0.00    +0.000 H 
BRANCH    2    1
ATOM      1  C1  UNL A   1       9.880  48.586  13.797  1.00  0.00    +0.000 C 
ATOM    106  H1  UNL A   1       9.178  47.906  14.130  1.00  0.00    +0.000 H 
ATOM    107  H2  UNL A   1       9.597  49.553  13.579  1.00  0.00    +0.000 H 
ENDBRANCH    2    1
BRANCH    8    9
ATOM      9  O3  UNL A   1      10.890  49.567  10.912  1.00  0.00    +0.000 O 
BRANCH    9   10
ATOM     10  C7  UNL A   1       9.889  50.494  10.677  1.00  0.00    +0.000 C 
ATOM     11  O4  UNL A   1      10.095  51.652  11.033  1.00  0.00    +0.000 O 
BRANCH   10   12
ATOM    114  H9  UNL A   1       8.350  50.072   7.333  1.00  0.00    +0.000 H 
ATOM     12  C8  UNL A   1       8.797  50.220   9.649  1.00  0.00    +0.000 C 
ATOM     14  O5  UNL A   1       8.810  48.810   9.290  1.00  0.00    +0.000 O 
ATOM     15  C10 UNL A   1       8.873  49.699   8.189  1.00  0.00    +0.000 C 
BRANCH   12   13
ATOM    113  H8  UNL A   1       6.800  49.681  10.168  1.00  0.00    +0.000 H 
ATOM     13  C9  UNL A   1       7.391  50.571  10.114  1.00  0.00    +0.000 C 
ATOM    111  H6  UNL A   1       6.946  51.253   9.418  1.00  0.00    +0.000 H 
ATOM    112  H7  UNL A   1       7.437  51.028  11.081  1.00  0.00    +0.000 H 
ENDBRANCH   12   13
BRANCH   15   16
ATOM    115  H10 UNL A   1      10.874  49.153   7.893  1.00  0.00    +0.000 H 
ATOM    116  H11 UNL A   1      10.246  50.280   6.714  1.00  0.00    +0.000 H 
ATOM    117  H12 UNL A   1       9.777  48.597   6.653  1.00  0.00    +0.000 H 
ATOM     16  C11 UNL A   1      10.022  49.413   7.300  1.00  0.00    +0.000 C 
ENDBRANCH   15   16
ENDBRANCH   10   12
ENDBRANCH    9   10
ENDBRANCH    8    9
BRANCH   17   18
ATOM     18  O6  UNL A   1      14.632  50.057  11.704  1.00  0.00    +0.000 O 
BRANCH   18   19
ATOM     19  C13 UNL A   1      15.438  50.796  12.471  1.00  0.00    +0.000 C 
ATOM     21  O7  UNL A   1      16.500  51.208  12.007  1.00  0.00    +0.000 O 
BRANCH   19   20
ATOM    121  H16 UNL A   1      14.968  50.299  14.449  1.00  0.00    +0.000 H 
ATOM     20  C14 UNL A   1      15.056  51.178  13.846  1.00  0.00    +0.000 C 
ATOM    119  H14 UNL A   1      14.119  51.692  13.826  1.00  0.00    +0.000 H 
ATOM    120  H15 UNL A   1      15.807  51.819  14.258  1.00  0.00    +0.000 H 
ENDBRANCH   19   20
ENDBRANCH   18   19
ENDBRANCH   17   18
BRANCH  102  103
ATOM    153  H48 UNL A   1      10.725  47.071   8.695  1.00  0.00    +0.000 H 
ATOM    154  H49 UNL A   1      10.801  45.415   9.246  1.00  0.00    +0.000 H 
ATOM    155  H50 UNL A   1      11.687  45.904   7.821  1.00  0.00    +0.000 H 
ATOM    103  C72 UNL A   1      11.352  46.210   8.790  1.00  0.00    +0.000 C 
ENDBRANCH  102  103
ENDBRANCH   23   22
ENDBRANCH   25   23
ENDBRANCH   26   25
ENDBRANCH   27   26
ENDBRANCH   28   27
ENDBRANCH   29   28
ENDBRANCH   30   29
ENDBRANCH   31   30
ENDBRANCH   32   31
ENDBRANCH   33   32
ENDBRANCH   35   33
ENDBRANCH   39   38
BRANCH   43   44
ATOM     44  C32 UNL A   1      18.343  55.374  -0.086  1.00  0.00    +0.000 C 
ATOM     45  C33 UNL A   1      19.509  55.814   0.561  1.00  0.00    +0.000 C 
ATOM     46  F1  UNL A   1      19.870  55.282   1.739  1.00  0.00    +0.000 F 
ATOM     47  C34 UNL A   1      20.287  56.835   0.022  1.00  0.00    +0.000 C 
ATOM     48  F2  UNL A   1      21.365  57.276   0.686  1.00  0.00    +0.000 F 
ATOM     49  C35 UNL A   1      19.941  57.407  -1.192  1.00  0.00    +0.000 C 
ATOM     50  F3  UNL A   1      20.696  58.384  -1.715  1.00  0.00    +0.000 F 
ATOM     51  C36 UNL A   1      18.808  56.972  -1.862  1.00  0.00    +0.000 C 
ATOM     52  F4  UNL A   1      18.480  57.512  -3.043  1.00  0.00    +0.000 F 
ATOM     53  C37 UNL A   1      18.008  55.976  -1.308  1.00  0.00    +0.000 C 
ATOM     54  F5  UNL A   1      16.907  55.592  -1.972  1.00  0.00    +0.000 F 
ENDBRANCH   43   44
BRANCH   60   61
ATOM     65  F7  UNL A   1      19.652  45.840  -1.513  1.00  0.00    +0.000 F 
ATOM     66  C46 UNL A   1      17.899  46.331  -3.017  1.00  0.00    +0.000 C 
ATOM     67  F8  UNL A   1      18.314  45.357  -3.840  1.00  0.00    +0.000 F 
ATOM     68  C47 UNL A   1      16.801  47.106  -3.357  1.00  0.00    +0.000 C 
ATOM     69  F9  UNL A   1      16.139  46.866  -4.497  1.00  0.00    +0.000 F 
ATOM     70  C48 UNL A   1      16.386  48.133  -2.516  1.00  0.00    +0.000 C 
ATOM     71  F10 UNL A   1      15.330  48.875  -2.880  1.00  0.00    +0.000 F 
ATOM     61  C43 UNL A   1      17.043  48.384  -1.300  1.00  0.00    +0.000 C 
ATOM     62  C44 UNL A   1      18.137  47.571  -0.966  1.00  0.00    +0.000 C 
ATOM     63  F6  UNL A   1      18.807  47.778   0.177  1.00  0.00    +0.000 F 
ATOM     64  C45 UNL A   1      18.572  46.568  -1.827  1.00  0.00    +0.000 C 
ENDBRANCH   60   61
BRANCH   75   76
ATOM     76  C52 UNL A   1      12.305  48.415   3.816  1.00  0.00    +0.000 C 
ATOM     77  C53 UNL A   1      10.928  48.453   3.559  1.00  0.00    +0.000 C 
ATOM     78  F11 UNL A   1      10.415  49.438   2.807  1.00  0.00    +0.000 F 
ATOM     79  C54 UNL A   1      10.065  47.507   4.108  1.00  0.00    +0.000 C 
ATOM     80  F12 UNL A   1       8.746  47.600   3.889  1.00  0.00    +0.000 F 
ATOM     81  C55 UNL A   1      10.566  46.483   4.896  1.00  0.00    +0.000 C 
ATOM     82  F13 UNL A   1       9.737  45.572   5.423  1.00  0.00    +0.000 F 
ATOM     83  C56 UNL A   1      11.928  46.409   5.146  1.00  0.00    +0.000 C 
ATOM     84  F14 UNL A   1      12.420  45.412   5.893  1.00  0.00    +0.000 F 
ATOM     85  C57 UNL A   1      12.787  47.374   4.624  1.00  0.00    +0.000 C 
ATOM     86  F15 UNL A   1      14.097  47.287   4.897  1.00  0.00    +0.000 F 
ENDBRANCH   75   76
TORSDOF 25
ENDMDL
MODEL 3
REMARK VINA RESULT:      -9.8     22.867     30.622
ROOT
ATOM    138  H33 UNL A   1      19.057  53.178  -1.533  1.00  0.00    +0.000 H 
ATOM    139  H34 UNL A   1      18.485  50.696  -2.089  1.00  0.00    +0.000 H 
ATOM    140  H35 UNL A   1      16.162  51.876   1.127  1.00  0.00    +0.000 H 
ATOM    141  H36 UNL A   1      11.985  50.423   5.736  1.00  0.00    +0.000 H 
ATOM    142  H37 UNL A   1      12.440  52.881   6.178  1.00  0.00    +0.000 H 
ATOM    143  H38 UNL A   1      14.746  51.730   2.917  1.00  0.00    +0.000 H 
ATOM    144  H39 UNL A   1      13.571  46.940   1.995  1.00  0.00    +0.000 H 
ATOM    145  H40 UNL A   1      15.355  46.995   0.163  1.00  0.00    +0.000 H 
ATOM    146  H41 UNL A   1      16.996  56.749   1.911  1.00  0.00    +0.000 H 
ATOM    147  H42 UNL A   1      15.620  56.585   4.064  1.00  0.00    +0.000 H 
ATOM     39  C28 UNL A   1      14.362  54.053   4.427  1.00  0.00    +0.000 C 
ATOM     40  C29 UNL A   1      15.340  54.449   3.357  1.00  0.00    +0.000 C 
ATOM     41  N3  UNL A   1      15.826  53.733   2.374  1.00  0.00    +0.000 N 
ATOM     42  C30 UNL A   1      16.651  54.589   1.658  1.00  0.00    +0.000 C 
ATOM     43  C31 UNL A   1      17.442  54.306   0.596  1.00  0.00    +0.000 C 
ATOM     55  C38 UNL A   1      17.549  53.001  -0.002  1.00  0.00    +0.000 C 
ATOM     56  C39 UNL A   1      18.359  52.595  -1.047  1.00  0.00    +0.000 C 
ATOM     57  C40 UNL A   1      18.069  51.256  -1.328  1.00  0.00    +0.000 C 
ATOM     58  C41 UNL A   1      17.128  50.808  -0.416  1.00  0.00    +0.000 C 
ATOM     59  N4  UNL A   1      16.813  51.891   0.388  1.00  0.00    +0.000 N 
ATOM     60  C42 UNL A   1      16.561  49.489  -0.285  1.00  0.00    +0.000 C 
ATOM     72  C49 UNL A   1      15.645  49.123   0.645  1.00  0.00    +0.000 C 
ATOM     73  N5  UNL A   1      15.067  49.885   1.650  1.00  0.00    +0.000 N 
ATOM     74  C50 UNL A   1      14.236  49.089   2.277  1.00  0.00    +0.000 C 
ATOM     75  C51 UNL A   1      13.364  49.371   3.471  1.00  0.00    +0.000 C 
ATOM     87  C58 UNL A   1      13.396  50.596   4.027  1.00  0.00    +0.000 C 
ATOM     88  C59 UNL A   1      12.623  51.022   5.189  1.00  0.00    +0.000 C 
ATOM     89  C60 UNL A   1      12.874  52.318   5.430  1.00  0.00    +0.000 C 
ATOM     90  C61 UNL A   1      13.863  52.802   4.466  1.00  0.00    +0.000 C 
ATOM     91  N6  UNL A   1      14.114  51.712   3.671  1.00  0.00    +0.000 N 
ATOM     92  C62 UNL A   1      14.169  47.732   1.716  1.00  0.00    +0.000 C 
ATOM     93  C63 UNL A   1      15.081  47.794   0.756  1.00  0.00    +0.000 C 
ATOM     94  C64 UNL A   1      16.551  55.893   2.276  1.00  0.00    +0.000 C 
ATOM     95  C65 UNL A   1      15.812  55.842   3.375  1.00  0.00    +0.000 C 
ENDROOT
BRANCH   39   38
ATOM     97  C67 UNL A   1      12.405  56.855   6.025  1.00  0.00    +0.000 C 
ATOM     35  C24 UNL A   1      12.996  56.911   7.291  1.00  0.00    +0.000 C 
ATOM     36  C25 UNL A   1      14.082  56.094   7.606  1.00  0.00    +0.000 C 
ATOM     37  C26 UNL A   1      14.551  55.184   6.661  1.00  0.00    +0.000 C 
ATOM     38  C27 UNL A   1      13.905  55.053   5.420  1.00  0.00    +0.000 C 
ATOM    136  H31 UNL A   1      14.534  56.164   8.531  1.00  0.00    +0.000 H 
ATOM    137  H32 UNL A   1      15.377  54.603   6.874  1.00  0.00    +0.000 H 
ATOM    148  H43 UNL A   1      12.332  55.791   4.212  1.00  0.00    +0.000 H 
ATOM    149  H44 UNL A   1      11.665  57.527   5.768  1.00  0.00    +0.000 H 
ATOM     96  C66 UNL A   1      12.821  55.891   5.115  1.00  0.00    +0.000 C 
BRANCH   35   33
ATOM     33  C23 UNL A   1      12.459  57.805   8.336  1.00  0.00    +0.000 C 
ATOM     34  O9  UNL A   1      12.880  58.951   8.442  1.00  0.00    +0.000 O 
BRANCH   33   32
ATOM    135  H30 UNL A   1      11.267  56.374   9.080  1.00  0.00    +0.000 H 
ATOM     32  N2  UNL A   1      11.517  57.319   9.203  1.00  0.00    +0.000 N 
BRANCH   32   31
ATOM    133  H28 UNL A   1      11.552  58.622  10.796  1.00  0.00    +0.000 H 
ATOM    134  H29 UNL A   1      10.061  58.607   9.838  1.00  0.00    +0.000 H 
ATOM     31  C22 UNL A   1      10.837  58.017  10.278  1.00  0.00    +0.000 C 
BRANCH   31   30
ATOM    131  H26 UNL A   1      10.113  57.580  12.217  1.00  0.00    +0.000 H 
ATOM    132  H27 UNL A   1       9.232  56.811  10.864  1.00  0.00    +0.000 H 
ATOM     30  C21 UNL A   1      10.184  57.073  11.277  1.00  0.00    +0.000 C 
BRANCH   30   29
ATOM    129  H24 UNL A   1      10.545  55.038  10.809  1.00  0.00    +0.000 H 
ATOM    130  H25 UNL A   1      11.966  55.983  11.369  1.00  0.00    +0.000 H 
ATOM     29  C20 UNL A   1      10.929  55.756  11.504  1.00  0.00    +0.000 C 
BRANCH   29   28
ATOM     28  C19 UNL A   1      10.816  55.156  12.911  1.00  0.00    +0.000 C 
ATOM    127  H22 UNL A   1      10.004  55.642  13.411  1.00  0.00    +0.000 H 
ATOM    128  H23 UNL A   1      10.671  54.105  12.769  1.00  0.00    +0.000 H 
BRANCH   28   27
ATOM     27  C18 UNL A   1      12.058  55.289  13.792  1.00  0.00    +0.000 C 
ATOM    125  H20 UNL A   1      12.690  56.046  13.376  1.00  0.00    +0.000 H 
ATOM    126  H21 UNL A   1      11.719  55.539  14.776  1.00  0.00    +0.000 H 
BRANCH   27   26
ATOM     26  C17 UNL A   1      12.860  54.011  13.911  1.00  0.00    +0.000 C 
ATOM    123  H18 UNL A   1      13.122  53.860  14.938  1.00  0.00    +0.000 H 
ATOM    124  H19 UNL A   1      12.257  53.206  13.545  1.00  0.00    +0.000 H 
BRANCH   26   25
ATOM     25  N1  UNL A   1      14.070  54.057  13.122  1.00  0.00    +0.000 N 
ATOM    122  H17 UNL A   1      14.445  54.941  12.906  1.00  0.00    +0.000 H 
BRANCH   25   23
ATOM     23  C16 UNL A   1      14.727  52.955  12.659  1.00  0.00    +0.000 C 
ATOM     24  O8  UNL A   1      15.807  52.622  13.121  1.00  0.00    +0.000 O 
BRANCH   23   22
ATOM      2  C2  UNL A   1      12.743  47.219  11.776  1.00  0.00    +0.000 C 
ATOM      3  C3  UNL A   1      12.517  46.400  10.558  1.00  0.00    +0.000 C 
ATOM      4  O1  UNL A   1      12.430  45.196  10.498  1.00  0.00    +0.000 O 
ATOM      5  O2  UNL A   1      12.487  47.277   9.515  1.00  0.00    +0.000 O 
ATOM      6  C4  UNL A   1      12.758  48.628   9.977  1.00  0.00    +0.000 C 
ATOM      7  C5  UNL A   1      13.486  48.420  11.298  1.00  0.00    +0.000 C 
ATOM      8  C6  UNL A   1      13.749  49.611  12.234  1.00  0.00    +0.000 C 
ATOM     17  C12 UNL A   1      14.530  50.763  11.481  1.00  0.00    +0.000 C 
ATOM     22  C15 UNL A   1      14.060  52.211  11.532  1.00  0.00    +0.000 C 
ATOM    150  H45 UNL A   1      13.057  53.910  11.447  1.00  0.00    +0.000 H 
ATOM    152  H47 UNL A   1      10.857  52.060   8.217  1.00  0.00    +0.000 H 
ATOM    151  H46 UNL A   1      12.299  54.112   9.905  1.00  0.00    +0.000 H 
ATOM    156  H51 UNL A   1      11.232  48.901  10.919  1.00  0.00    +0.000 H 
ATOM     98  C68 UNL A   1      13.243  53.066  10.884  1.00  0.00    +0.000 C 
ATOM     99  C69 UNL A   1      12.551  53.117   9.599  1.00  0.00    +0.000 C 
ATOM    100  O10 UNL A   1      13.094  52.358   8.527  1.00  0.00    +0.000 O 
ATOM    101  C70 UNL A   1      11.734  52.105   8.828  1.00  0.00    +0.000 C 
ATOM    102  C71 UNL A   1      11.207  50.898   9.608  1.00  0.00    +0.000 C 
ATOM    104  O11 UNL A   1      11.016  49.775   8.720  1.00  0.00    +0.000 O 
ATOM    105  C73 UNL A   1      11.489  49.413  10.015  1.00  0.00    +0.000 C 
ATOM    108  H3  UNL A   1      13.376  49.226   9.341  1.00  0.00    +0.000 H 
ATOM    109  H4  UNL A   1      14.545  48.281  11.218  1.00  0.00    +0.000 H 
ATOM    110  H5  UNL A   1      14.395  49.276  13.019  1.00  0.00    +0.000 H 
ATOM    118  H13 UNL A   1      15.039  51.342  12.224  1.00  0.00    +0.000 H 
BRANCH    2    1
ATOM      1  C1  UNL A   1      12.209  46.866  12.948  1.00  0.00    +0.000 C 
ATOM    106  H1  UNL A   1      12.489  45.979  13.396  1.00  0.00    +0.000 H 
ATOM    107  H2  UNL A   1      11.516  47.478  13.404  1.00  0.00    +0.000 H 
ENDBRANCH    2    1
BRANCH    8    9
ATOM      9  O3  UNL A   1      12.556  50.057  12.910  1.00  0.00    +0.000 O 
BRANCH    9   10
ATOM     10  C7  UNL A   1      12.430  50.229  14.277  1.00  0.00    +0.000 C 
ATOM     11  O4  UNL A   1      13.392  50.701  14.880  1.00  0.00    +0.000 O 
BRANCH   10   12
ATOM    114  H9  UNL A   1       9.345  48.920  15.855  1.00  0.00    +0.000 H 
ATOM     12  C8  UNL A   1      11.056  50.266  14.936  1.00  0.00    +0.000 C 
ATOM     14  O5  UNL A   1      11.211  50.287  16.383  1.00  0.00    +0.000 O 
ATOM     15  C10 UNL A   1      10.355  49.269  15.897  1.00  0.00    +0.000 C 
BRANCH   12   13
ATOM    113  H8  UNL A   1      10.740  52.077  13.856  1.00  0.00    +0.000 H 
ATOM     13  C9  UNL A   1      10.197  51.459  14.540  1.00  0.00    +0.000 C 
ATOM    111  H6  UNL A   1       9.951  52.025  15.415  1.00  0.00    +0.000 H 
ATOM    112  H7  UNL A   1       9.298  51.113  14.074  1.00  0.00    +0.000 H 
ENDBRANCH   12   13
BRANCH   15   16
ATOM    115  H10 UNL A   1       9.870  47.322  16.501  1.00  0.00    +0.000 H 
ATOM    116  H11 UNL A   1      11.242  48.019  17.329  1.00  0.00    +0.000 H 
ATOM    117  H12 UNL A   1      11.404  47.468  15.678  1.00  0.00    +0.000 H 
ATOM     16  C11 UNL A   1      10.745  47.926  16.386  1.00  0.00    +0.000 C 
ENDBRANCH   15   16
ENDBRANCH   10   12
ENDBRANCH    9   10
ENDBRANCH    8    9
BRANCH   17   18
ATOM     18  O6  UNL A   1      15.616  50.315  10.578  1.00  0.00    +0.000 O 
BRANCH   18   19
ATOM     19  C13 UNL A   1      16.941  50.265  10.414  1.00  0.00    +0.000 C 
ATOM     21  O7  UNL A   1      17.635  49.745  11.287  1.00  0.00    +0.000 O 
BRANCH   19   20
ATOM    121  H16 UNL A   1      17.791  51.811   9.290  1.00  0.00    +0.000 H 
ATOM     20  C14 UNL A   1      17.585  50.767   9.185  1.00  0.00    +0.000 C 
ATOM    119  H14 UNL A   1      16.932  50.615   8.351  1.00  0.00    +0.000 H 
ATOM    120  H15 UNL A   1      18.502  50.238   9.021  1.00  0.00    +0.000 H 
ENDBRANCH   19   20
ENDBRANCH   18   19
ENDBRANCH   17   18
BRANCH  102  103
ATOM    153  H48 UNL A   1      10.035  52.260  10.768  1.00  0.00    +0.000 H 
ATOM    154  H49 UNL A   1       9.531  50.592  10.901  1.00  0.00    +0.000 H 
ATOM    155  H50 UNL A   1       9.161  51.505   9.457  1.00  0.00    +0.000 H 
ATOM    103  C72 UNL A   1       9.884  51.347  10.231  1.00  0.00    +0.000 C 
ENDBRANCH  102  103
ENDBRANCH   23   22
ENDBRANCH   25   23
ENDBRANCH   26   25
ENDBRANCH   27   26
ENDBRANCH   28   27
ENDBRANCH   29   28
ENDBRANCH   30   29
ENDBRANCH   31   30
ENDBRANCH   32   31
ENDBRANCH   33   32
ENDBRANCH   35   33
ENDBRANCH   39   38
BRANCH   43   44
ATOM     44  C32 UNL A   1      18.253  55.428   0.012  1.00  0.00    +0.000 C 
ATOM     45  C33 UNL A   1      17.857  56.096  -1.158  1.00  0.00    +0.000 C 
ATOM     46  F1  UNL A   1      16.751  55.712  -1.813  1.00  0.00    +0.000 F 
ATOM     47  C34 UNL A   1      18.621  57.134  -1.686  1.00  0.00    +0.000 C 
ATOM     48  F2  UNL A   1      18.251  57.719  -2.834  1.00  0.00    +0.000 F 
ATOM     49  C35 UNL A   1      19.770  57.553  -1.034  1.00  0.00    +0.000 C 
ATOM     50  F3  UNL A   1      20.499  58.559  -1.538  1.00  0.00    +0.000 F 
ATOM     51  C36 UNL A   1      20.168  56.927   0.136  1.00  0.00    +0.000 C 
ATOM     52  F4  UNL A   1      21.269  57.341   0.777  1.00  0.00    +0.000 F 
ATOM     53  C37 UNL A   1      19.425  55.864   0.648  1.00  0.00    +0.000 C 
ATOM     54  F5  UNL A   1      19.849  55.265   1.771  1.00  0.00    +0.000 F 
ENDBRANCH   43   44
BRANCH   60   61
ATOM     65  F7  UNL A   1      19.636  45.874  -1.524  1.00  0.00    +0.000 F 
ATOM     66  C46 UNL A   1      17.876  46.411  -3.004  1.00  0.00    +0.000 C 
ATOM     67  F8  UNL A   1      18.280  45.455  -3.854  1.00  0.00    +0.000 F 
ATOM     68  C47 UNL A   1      16.781  47.200  -3.319  1.00  0.00    +0.000 C 
ATOM     69  F9  UNL A   1      16.109  46.992  -4.460  1.00  0.00    +0.000 F 
ATOM     70  C48 UNL A   1      16.377  48.210  -2.450  1.00  0.00    +0.000 C 
ATOM     71  F10 UNL A   1      15.323  48.967  -2.789  1.00  0.00    +0.000 F 
ATOM     61  C43 UNL A   1      17.043  48.427  -1.233  1.00  0.00    +0.000 C 
ATOM     62  C44 UNL A   1      18.134  47.601  -0.926  1.00  0.00    +0.000 C 
ATOM     63  F6  UNL A   1      18.813  47.776   0.217  1.00  0.00    +0.000 F 
ATOM     64  C45 UNL A   1      18.558  46.616  -1.814  1.00  0.00    +0.000 C 
ENDBRANCH   60   61
BRANCH   75   76
ATOM     76  C52 UNL A   1      12.491  48.314   4.047  1.00  0.00    +0.000 C 
ATOM     77  C53 UNL A   1      11.195  48.099   3.558  1.00  0.00    +0.000 C 
ATOM     78  F11 UNL A   1      10.723  48.860   2.559  1.00  0.00    +0.000 F 
ATOM     79  C54 UNL A   1      10.361  47.135   4.120  1.00  0.00    +0.000 C 
ATOM     80  F12 UNL A   1       9.109  46.989   3.667  1.00  0.00    +0.000 F 
ATOM     81  C55 UNL A   1      10.820  46.339   5.158  1.00  0.00    +0.000 C 
ATOM     82  F13 UNL A   1      10.019  45.410   5.698  1.00  0.00    +0.000 F 
ATOM     83  C56 UNL A   1      12.107  46.515   5.645  1.00  0.00    +0.000 C 
ATOM     84  F14 UNL A   1      12.560  45.738   6.637  1.00  0.00    +0.000 F 
ATOM     85  C57 UNL A   1      12.929  47.502   5.105  1.00  0.00    +0.000 C 
ATOM     86  F15 UNL A   1      14.162  47.660   5.608  1.00  0.00    +0.000 F 
ENDBRANCH   75   76
TORSDOF 25
ENDMDL
MODEL 4
REMARK VINA RESULT:      -9.7     23.115     30.740
ROOT
ATOM    138  H33 UNL A   1      18.655  53.292  -1.085  1.00  0.00    +0.000 H 
ATOM    139  H34 UNL A   1      18.168  50.787  -1.618  1.00  0.00    +0.000 H 
ATOM    140  H35 UNL A   1      15.855  51.899   1.631  1.00  0.00    +0.000 H 
ATOM    141  H36 UNL A   1      11.814  50.318   6.317  1.00  0.00    +0.000 H 
ATOM    142  H37 UNL A   1      12.183  52.795   6.737  1.00  0.00    +0.000 H 
ATOM    143  H38 UNL A   1      14.476  51.710   3.444  1.00  0.00    +0.000 H 
ATOM    144  H39 UNL A   1      13.467  46.874   2.569  1.00  0.00    +0.000 H 
ATOM    145  H40 UNL A   1      15.218  46.985   0.707  1.00  0.00    +0.000 H 
ATOM    146  H41 UNL A   1      16.518  56.804   2.372  1.00  0.00    +0.000 H 
ATOM    147  H42 UNL A   1      15.185  56.602   4.549  1.00  0.00    +0.000 H 
ATOM     39  C28 UNL A   1      14.030  54.027   4.948  1.00  0.00    +0.000 C 
ATOM     40  C29 UNL A   1      14.974  54.452   3.859  1.00  0.00    +0.000 C 
ATOM     41  N3  UNL A   1      15.471  53.750   2.872  1.00  0.00    +0.000 N 
ATOM     42  C30 UNL A   1      16.251  54.632   2.138  1.00  0.00    +0.000 C 
ATOM     43  C31 UNL A   1      17.034  54.371   1.064  1.00  0.00    +0.000 C 
ATOM     55  C38 UNL A   1      17.180  53.068   0.471  1.00  0.00    +0.000 C 
ATOM     56  C39 UNL A   1      17.987  52.686  -0.584  1.00  0.00    +0.000 C 
ATOM     57  C40 UNL A   1      17.744  51.336  -0.854  1.00  0.00    +0.000 C 
ATOM     58  C41 UNL A   1      16.835  50.858   0.078  1.00  0.00    +0.000 C 
ATOM     59  N4  UNL A   1      16.493  51.934   0.881  1.00  0.00    +0.000 N 
ATOM     60  C42 UNL A   1      16.321  49.519   0.225  1.00  0.00    +0.000 C 
ATOM     72  C49 UNL A   1      15.435  49.125   1.172  1.00  0.00    +0.000 C 
ATOM     73  N5  UNL A   1      14.845  49.871   2.183  1.00  0.00    +0.000 N 
ATOM     74  C50 UNL A   1      14.055  49.048   2.828  1.00  0.00    +0.000 C 
ATOM     75  C51 UNL A   1      13.193  49.304   4.035  1.00  0.00    +0.000 C 
ATOM     87  C58 UNL A   1      13.189  50.533   4.583  1.00  0.00    +0.000 C 
ATOM     88  C59 UNL A   1      12.420  50.937   5.756  1.00  0.00    +0.000 C 
ATOM     89  C60 UNL A   1      12.626  52.243   5.986  1.00  0.00    +0.000 C 
ATOM     90  C61 UNL A   1      13.579  52.758   5.002  1.00  0.00    +0.000 C 
ATOM     91  N6  UNL A   1      13.857  51.674   4.209  1.00  0.00    +0.000 N 
ATOM     92  C62 UNL A   1      14.031  47.686   2.276  1.00  0.00    +0.000 C 
ATOM     93  C63 UNL A   1      14.923  47.776   1.300  1.00  0.00    +0.000 C 
ATOM     94  C64 UNL A   1      16.111  55.934   2.750  1.00  0.00    +0.000 C 
ATOM     95  C65 UNL A   1      15.394  55.862   3.861  1.00  0.00    +0.000 C 
ENDROOT
BRANCH   39   38
ATOM     97  C67 UNL A   1      13.645  55.932   8.182  1.00  0.00    +0.000 C 
ATOM     35  C24 UNL A   1      12.702  56.898   7.818  1.00  0.00    +0.000 C 
ATOM     36  C25 UNL A   1      12.129  56.888   6.545  1.00  0.00    +0.000 C 
ATOM     37  C26 UNL A   1      12.536  55.931   5.618  1.00  0.00    +0.000 C 
ATOM     38  C27 UNL A   1      13.552  55.015   5.943  1.00  0.00    +0.000 C 
ATOM    136  H31 UNL A   1      11.410  57.584   6.294  1.00  0.00    +0.000 H 
ATOM    137  H32 UNL A   1      12.091  55.895   4.688  1.00  0.00    +0.000 H 
ATOM    148  H43 UNL A   1      14.865  54.372   7.472  1.00  0.00    +0.000 H 
ATOM    149  H44 UNL A   1      13.993  55.888   9.152  1.00  0.00    +0.000 H 
ATOM     96  C66 UNL A   1      14.109  55.031   7.231  1.00  0.00    +0.000 C 
BRANCH   35   33
ATOM     33  C23 UNL A   1      12.321  57.973   8.754  1.00  0.00    +0.000 C 
ATOM     34  O9  UNL A   1      12.831  59.083   8.659  1.00  0.00    +0.000 O 
BRANCH   33   32
ATOM    135  H30 UNL A   1      11.097  58.471  10.262  1.00  0.00    +0.000 H 
ATOM     32  N2  UNL A   1      11.421  57.695   9.749  1.00  0.00    +0.000 N 
BRANCH   32   31
ATOM    133  H28 UNL A   1      11.470  55.638   9.684  1.00  0.00    +0.000 H 
ATOM    134  H29 UNL A   1      10.931  56.354  11.212  1.00  0.00    +0.000 H 
ATOM     31  C22 UNL A   1      10.886  56.407  10.145  1.00  0.00    +0.000 C 
BRANCH   31   30
ATOM    131  H26 UNL A   1       8.979  55.535  10.426  1.00  0.00    +0.000 H 
ATOM    132  H27 UNL A   1       8.987  57.194   9.760  1.00  0.00    +0.000 H 
ATOM     30  C21 UNL A   1       9.431  56.221   9.739  1.00  0.00    +0.000 C 
BRANCH   30   29
ATOM    129  H24 UNL A   1       8.176  55.468   8.206  1.00  0.00    +0.000 H 
ATOM    130  H25 UNL A   1       9.585  56.443   7.666  1.00  0.00    +0.000 H 
ATOM     29  C20 UNL A   1       9.219  55.682   8.323  1.00  0.00    +0.000 C 
BRANCH   29   28
ATOM     28  C19 UNL A   1      10.002  54.413   7.965  1.00  0.00    +0.000 C 
ATOM    127  H22 UNL A   1      10.850  54.705   7.382  1.00  0.00    +0.000 H 
ATOM    128  H23 UNL A   1      10.254  53.953   8.897  1.00  0.00    +0.000 H 
BRANCH   28   27
ATOM     27  C18 UNL A   1       9.230  53.356   7.174  1.00  0.00    +0.000 C 
ATOM    125  H20 UNL A   1       8.286  53.772   6.884  1.00  0.00    +0.000 H 
ATOM    126  H21 UNL A   1       9.834  53.092   6.330  1.00  0.00    +0.000 H 
BRANCH   27   26
ATOM     26  C17 UNL A   1       8.972  52.082   7.950  1.00  0.00    +0.000 C 
ATOM    123  H18 UNL A   1       7.918  51.971   8.092  1.00  0.00    +0.000 H 
ATOM    124  H19 UNL A   1       9.374  51.265   7.388  1.00  0.00    +0.000 H 
BRANCH   26   25
ATOM     25  N1  UNL A   1       9.620  52.097   9.242  1.00  0.00    +0.000 N 
ATOM    122  H17 UNL A   1       9.384  52.820   9.867  1.00  0.00    +0.000 H 
BRANCH   25   23
ATOM     23  C16 UNL A   1      10.536  51.173   9.652  1.00  0.00    +0.000 C 
ATOM     24  O8  UNL A   1      11.026  50.378   8.866  1.00  0.00    +0.000 O 
BRANCH   23   22
ATOM      2  C2  UNL A   1      12.005  46.910  13.810  1.00  0.00    +0.000 C 
ATOM      3  C3  UNL A   1      11.884  46.852  15.288  1.00  0.00    +0.000 C 
ATOM      4  O1  UNL A   1      11.906  45.861  15.981  1.00  0.00    +0.000 O 
ATOM      5  O2  UNL A   1      11.686  48.136  15.700  1.00  0.00    +0.000 O 
ATOM      6  C4  UNL A   1      11.594  49.030  14.559  1.00  0.00    +0.000 C 
ATOM      7  C5  UNL A   1      11.214  48.109  13.407  1.00  0.00    +0.000 C 
ATOM      8  C6  UNL A   1      11.242  48.625  11.960  1.00  0.00    +0.000 C 
ATOM     17  C12 UNL A   1      10.343  49.917  11.800  1.00  0.00    +0.000 C 
ATOM     22  C15 UNL A   1      10.868  51.176  11.121  1.00  0.00    +0.000 C 
ATOM    150  H45 UNL A   1      11.884  52.770  10.548  1.00  0.00    +0.000 H 
ATOM    152  H47 UNL A   1      13.125  53.046  14.682  1.00  0.00    +0.000 H 
ATOM    151  H46 UNL A   1      12.237  53.801  11.893  1.00  0.00    +0.000 H 
ATOM    156  H51 UNL A   1      13.317  48.933  14.002  1.00  0.00    +0.000 H 
ATOM     98  C68 UNL A   1      11.529  52.317  11.404  1.00  0.00    +0.000 C 
ATOM     99  C69 UNL A   1      11.877  53.082  12.599  1.00  0.00    +0.000 C 
ATOM    100  O10 UNL A   1      11.052  52.925  13.746  1.00  0.00    +0.000 O 
ATOM    101  C70 UNL A   1      12.433  52.688  13.949  1.00  0.00    +0.000 C 
ATOM    102  C71 UNL A   1      13.091  51.311  14.055  1.00  0.00    +0.000 C 
ATOM    104  O11 UNL A   1      13.008  50.820  15.411  1.00  0.00    +0.000 O 
ATOM    105  C73 UNL A   1      12.862  49.806  14.421  1.00  0.00    +0.000 C 
ATOM    108  H3  UNL A   1      10.859  49.805  14.628  1.00  0.00    +0.000 H 
ATOM    109  H4  UNL A   1      10.165  47.927  13.295  1.00  0.00    +0.000 H 
ATOM    110  H5  UNL A   1      10.803  47.876  11.335  1.00  0.00    +0.000 H 
ATOM    118  H13 UNL A   1      10.062  49.985  10.770  1.00  0.00    +0.000 H 
BRANCH    2    1
ATOM      1  C1  UNL A   1      12.802  46.064  13.153  1.00  0.00    +0.000 C 
ATOM    106  H1  UNL A   1      12.658  45.046  13.241  1.00  0.00    +0.000 H 
ATOM    107  H2  UNL A   1      13.564  46.427  12.560  1.00  0.00    +0.000 H 
ENDBRANCH    2    1
BRANCH    8    9
ATOM      9  O3  UNL A   1      12.584  48.778  11.453  1.00  0.00    +0.000 O 
BRANCH    9   10
ATOM     10  C7  UNL A   1      13.103  48.119  10.354  1.00  0.00    +0.000 C 
ATOM     11  O4  UNL A   1      12.329  47.438   9.684  1.00  0.00    +0.000 O 
BRANCH   10   12
ATOM    114  H9  UNL A   1      15.473  50.227   8.440  1.00  0.00    +0.000 H 
ATOM     12  C8  UNL A   1      14.429  48.551   9.738  1.00  0.00    +0.000 C 
ATOM     14  O5  UNL A   1      15.121  49.446  10.653  1.00  0.00    +0.000 O 
ATOM     15  C10 UNL A   1      14.964  49.952   9.340  1.00  0.00    +0.000 C 
BRANCH   12   13
ATOM    113  H8  UNL A   1      15.857  47.068  10.293  1.00  0.00    +0.000 H 
ATOM     13  C9  UNL A   1      15.372  47.404   9.401  1.00  0.00    +0.000 C 
ATOM    111  H6  UNL A   1      16.108  47.743   8.701  1.00  0.00    +0.000 H 
ATOM    112  H7  UNL A   1      14.815  46.598   8.971  1.00  0.00    +0.000 H 
ENDBRANCH   12   13
BRANCH   15   16
ATOM    115  H10 UNL A   1      13.469  51.279   9.969  1.00  0.00    +0.000 H 
ATOM    116  H11 UNL A   1      14.018  51.527   8.329  1.00  0.00    +0.000 H 
ATOM    117  H12 UNL A   1      15.022  52.021   9.672  1.00  0.00    +0.000 H 
ATOM     16  C11 UNL A   1      14.324  51.288   9.326  1.00  0.00    +0.000 C 
ENDBRANCH   15   16
ENDBRANCH   10   12
ENDBRANCH    9   10
ENDBRANCH    8    9
BRANCH   17   18
ATOM     18  O6  UNL A   1       9.048  49.889  12.519  1.00  0.00    +0.000 O 
BRANCH   18   19
ATOM     19  C13 UNL A   1       7.758  49.556  12.420  1.00  0.00    +0.000 C 
ATOM     21  O7  UNL A   1       7.287  48.735  13.206  1.00  0.00    +0.000 O 
BRANCH   19   20
ATOM    121  H16 UNL A   1       7.386  50.279  10.492  1.00  0.00    +0.000 H 
ATOM     20  C14 UNL A   1       6.872  50.193  11.426  1.00  0.00    +0.000 C 
ATOM    119  H14 UNL A   1       6.593  51.167  11.769  1.00  0.00    +0.000 H 
ATOM    120  H15 UNL A   1       5.994  49.595  11.296  1.00  0.00    +0.000 H 
ENDBRANCH   19   20
ENDBRANCH   18   19
ENDBRANCH   17   18
BRANCH  102  103
ATOM    153  H48 UNL A   1      14.723  52.544  13.433  1.00  0.00    +0.000 H 
ATOM    154  H49 UNL A   1      14.729  50.945  12.730  1.00  0.00    +0.000 H 
ATOM    155  H50 UNL A   1      15.197  51.167  14.400  1.00  0.00    +0.000 H 
ATOM    103  C72 UNL A   1      14.545  51.506  13.621  1.00  0.00    +0.000 C 
ENDBRANCH  102  103
ENDBRANCH   23   22
ENDBRANCH   25   23
ENDBRANCH   26   25
ENDBRANCH   27   26
ENDBRANCH   28   27
ENDBRANCH   29   28
ENDBRANCH   30   29
ENDBRANCH   31   30
ENDBRANCH   32   31
ENDBRANCH   33   32
ENDBRANCH   35   33
ENDBRANCH   39   38
BRANCH   43   44
ATOM     44  C32 UNL A   1      17.792  55.520   0.460  1.00  0.00    +0.000 C 
ATOM     45  C33 UNL A   1      19.048  55.915   0.947  1.00  0.00    +0.000 C 
ATOM     46  F1  UNL A   1      19.588  55.293   2.007  1.00  0.00    +0.000 F 
ATOM     47  C34 UNL A   1      19.736  56.982   0.376  1.00  0.00    +0.000 C 
ATOM     48  F2  UNL A   1      20.908  57.376   0.895  1.00  0.00    +0.000 F 
ATOM     49  C35 UNL A   1      19.205  57.647  -0.718  1.00  0.00    +0.000 C 
ATOM     50  F3  UNL A   1      19.874  58.668  -1.274  1.00  0.00    +0.000 F 
ATOM     51  C36 UNL A   1      17.979  57.259  -1.234  1.00  0.00    +0.000 C 
ATOM     52  F4  UNL A   1      17.471  57.889  -2.301  1.00  0.00    +0.000 F 
ATOM     53  C37 UNL A   1      17.271  56.215  -0.642  1.00  0.00    +0.000 C 
ATOM     54  F5  UNL A   1      16.076  55.878  -1.152  1.00  0.00    +0.000 F 
ENDBRANCH   43   44
BRANCH   60   61
ATOM     65  F7  UNL A   1      19.667  46.225  -1.194  1.00  0.00    +0.000 F 
ATOM     66  C46 UNL A   1      17.709  46.471  -2.491  1.00  0.00    +0.000 C 
ATOM     67  F8  UNL A   1      18.135  45.523  -3.339  1.00  0.00    +0.000 F 
ATOM     68  C47 UNL A   1      16.499  47.108  -2.715  1.00  0.00    +0.000 C 
ATOM     69  F9  UNL A   1      15.742  46.760  -3.765  1.00  0.00    +0.000 F 
ATOM     70  C48 UNL A   1      16.068  48.110  -1.851  1.00  0.00    +0.000 C 
ATOM     71  F10 UNL A   1      14.900  48.719  -2.103  1.00  0.00    +0.000 F 
ATOM     61  C43 UNL A   1      16.827  48.471  -0.726  1.00  0.00    +0.000 C 
ATOM     62  C44 UNL A   1      18.037  47.795  -0.506  1.00  0.00    +0.000 C 
ATOM     63  F6  UNL A   1      18.806  48.111   0.546  1.00  0.00    +0.000 F 
ATOM     64  C45 UNL A   1      18.482  46.820  -1.394  1.00  0.00    +0.000 C 
ENDBRANCH   60   61
BRANCH   75   76
ATOM     76  C52 UNL A   1      12.371  48.219   4.632  1.00  0.00    +0.000 C 
ATOM     77  C53 UNL A   1      12.866  47.428   5.678  1.00  0.00    +0.000 C 
ATOM     78  F11 UNL A   1      14.104  47.641   6.149  1.00  0.00    +0.000 F 
ATOM     79  C54 UNL A   1      12.112  46.386   6.215  1.00  0.00    +0.000 C 
ATOM     80  F12 UNL A   1      12.632  45.613   7.177  1.00  0.00    +0.000 F 
ATOM     81  C55 UNL A   1      10.833  46.138   5.742  1.00  0.00    +0.000 C 
ATOM     82  F13 UNL A   1      10.107  45.138   6.259  1.00  0.00    +0.000 F 
ATOM     83  C56 UNL A   1      10.310  46.922   4.725  1.00  0.00    +0.000 C 
ATOM     84  F14 UNL A   1       9.069  46.697   4.275  1.00  0.00    +0.000 F 
ATOM     85  C57 UNL A   1      11.076  47.942   4.164  1.00  0.00    +0.000 C 
ATOM     86  F15 UNL A   1      10.551  48.672   3.170  1.00  0.00    +0.000 F 
ENDBRANCH   75   76
TORSDOF 25
ENDMDL
MODEL 5
REMARK VINA RESULT:      -9.5     22.808     30.454
ROOT
ATOM    138  H33 UNL A   1      19.141  53.194  -1.471  1.00  0.00    +0.000 H 
ATOM    139  H34 UNL A   1      18.532  50.735  -2.083  1.00  0.00    +0.000 H 
ATOM    140  H35 UNL A   1      16.166  51.905   1.106  1.00  0.00    +0.000 H 
ATOM    141  H36 UNL A   1      11.867  50.456   5.602  1.00  0.00    +0.000 H 
ATOM    142  H37 UNL A   1      12.361  52.897   6.096  1.00  0.00    +0.000 H 
ATOM    143  H38 UNL A   1      14.711  51.756   2.863  1.00  0.00    +0.000 H 
ATOM    144  H39 UNL A   1      13.460  47.008   1.832  1.00  0.00    +0.000 H 
ATOM    145  H40 UNL A   1      15.283  47.059   0.038  1.00  0.00    +0.000 H 
ATOM    146  H41 UNL A   1      17.080  56.746   1.993  1.00  0.00    +0.000 H 
ATOM    147  H42 UNL A   1      15.656  56.572   4.114  1.00  0.00    +0.000 H 
ATOM     39  C28 UNL A   1      14.342  54.060   4.407  1.00  0.00    +0.000 C 
ATOM     40  C29 UNL A   1      15.349  54.455   3.363  1.00  0.00    +0.000 C 
ATOM     41  N3  UNL A   1      15.842  53.747   2.378  1.00  0.00    +0.000 N 
ATOM     42  C30 UNL A   1      16.698  54.598   1.695  1.00  0.00    +0.000 C 
ATOM     43  C31 UNL A   1      17.505  54.317   0.644  1.00  0.00    +0.000 C 
ATOM     55  C38 UNL A   1      17.598  53.022   0.025  1.00  0.00    +0.000 C 
ATOM     56  C39 UNL A   1      18.422  52.617  -1.010  1.00  0.00    +0.000 C 
ATOM     57  C40 UNL A   1      18.111  51.290  -1.321  1.00  0.00    +0.000 C 
ATOM     58  C41 UNL A   1      17.143  50.845  -0.436  1.00  0.00    +0.000 C 
ATOM     59  N4  UNL A   1      16.832  51.920   0.381  1.00  0.00    +0.000 N 
ATOM     60  C42 UNL A   1      16.547  49.535  -0.341  1.00  0.00    +0.000 C 
ATOM     72  C49 UNL A   1      15.605  49.172   0.564  1.00  0.00    +0.000 C 
ATOM     73  N5  UNL A   1      15.021  49.928   1.571  1.00  0.00    +0.000 N 
ATOM     74  C50 UNL A   1      14.162  49.138   2.166  1.00  0.00    +0.000 C 
ATOM     75  C51 UNL A   1      13.271  49.416   3.347  1.00  0.00    +0.000 C 
ATOM     87  C58 UNL A   1      13.316  50.631   3.925  1.00  0.00    +0.000 C 
ATOM     88  C59 UNL A   1      12.528  51.052   5.079  1.00  0.00    +0.000 C 
ATOM     89  C60 UNL A   1      12.799  52.338   5.348  1.00  0.00    +0.000 C 
ATOM     90  C61 UNL A   1      13.817  52.819   4.413  1.00  0.00    +0.000 C 
ATOM     91  N6  UNL A   1      14.062  51.739   3.604  1.00  0.00    +0.000 N 
ATOM     92  C62 UNL A   1      14.080  47.793   1.580  1.00  0.00    +0.000 C 
ATOM     93  C63 UNL A   1      15.013  47.852   0.640  1.00  0.00    +0.000 C 
ATOM     94  C64 UNL A   1      16.611  55.892   2.334  1.00  0.00    +0.000 C 
ATOM     95  C65 UNL A   1      15.849  55.837   3.416  1.00  0.00    +0.000 C 
ENDROOT
BRANCH   39   38
ATOM     97  C67 UNL A   1      12.381  56.846   6.029  1.00  0.00    +0.000 C 
ATOM     35  C24 UNL A   1      12.973  56.894   7.294  1.00  0.00    +0.000 C 
ATOM     36  C25 UNL A   1      14.062  56.077   7.601  1.00  0.00    +0.000 C 
ATOM     37  C26 UNL A   1      14.532  55.176   6.649  1.00  0.00    +0.000 C 
ATOM     38  C27 UNL A   1      13.884  55.052   5.408  1.00  0.00    +0.000 C 
ATOM    136  H31 UNL A   1      14.516  56.141   8.525  1.00  0.00    +0.000 H 
ATOM    137  H32 UNL A   1      15.360  54.594   6.855  1.00  0.00    +0.000 H 
ATOM    148  H43 UNL A   1      12.307  55.795   4.207  1.00  0.00    +0.000 H 
ATOM    149  H44 UNL A   1      11.639  57.518   5.778  1.00  0.00    +0.000 H 
ATOM     96  C66 UNL A   1      12.797  55.889   5.110  1.00  0.00    +0.000 C 
BRANCH   35   33
ATOM     33  C23 UNL A   1      12.437  57.779   8.346  1.00  0.00    +0.000 C 
ATOM     34  O9  UNL A   1      12.843  58.930   8.450  1.00  0.00    +0.000 O 
BRANCH   33   32
ATOM    135  H30 UNL A   1      11.644  56.344   9.501  1.00  0.00    +0.000 H 
ATOM     32  N2  UNL A   1      11.510  57.279   9.222  1.00  0.00    +0.000 N 
BRANCH   32   31
ATOM    133  H28 UNL A   1      10.420  58.993   9.562  1.00  0.00    +0.000 H 
ATOM    134  H29 UNL A   1       9.482  57.502   9.365  1.00  0.00    +0.000 H 
ATOM     31  C22 UNL A   1      10.356  57.949   9.791  1.00  0.00    +0.000 C 
BRANCH   31   30
ATOM    131  H26 UNL A   1      10.802  58.593  11.756  1.00  0.00    +0.000 H 
ATOM    132  H27 UNL A   1       9.219  57.790  11.539  1.00  0.00    +0.000 H 
ATOM     30  C21 UNL A   1      10.262  57.788  11.301  1.00  0.00    +0.000 C 
BRANCH   30   29
ATOM    129  H24 UNL A   1      10.218  55.676  11.466  1.00  0.00    +0.000 H 
ATOM    130  H25 UNL A   1      11.843  56.438  11.526  1.00  0.00    +0.000 H 
ATOM     29  C20 UNL A   1      10.822  56.473  11.846  1.00  0.00    +0.000 C 
BRANCH   29   28
ATOM     28  C19 UNL A   1      10.863  56.344  13.374  1.00  0.00    +0.000 C 
ATOM    127  H22 UNL A   1      10.892  57.331  13.786  1.00  0.00    +0.000 H 
ATOM    128  H23 UNL A   1       9.990  55.786  13.643  1.00  0.00    +0.000 H 
BRANCH   28   27
ATOM     27  C18 UNL A   1      12.048  55.563  13.945  1.00  0.00    +0.000 C 
ATOM    125  H20 UNL A   1      12.792  55.470  13.180  1.00  0.00    +0.000 H 
ATOM    126  H21 UNL A   1      12.403  56.108  14.794  1.00  0.00    +0.000 H 
BRANCH   27   26
ATOM     26  C17 UNL A   1      11.685  54.175  14.429  1.00  0.00    +0.000 C 
ATOM    123  H18 UNL A   1      11.820  54.133  15.489  1.00  0.00    +0.000 H 
ATOM    124  H19 UNL A   1      10.666  53.987  14.163  1.00  0.00    +0.000 H 
BRANCH   26   25
ATOM     25  N1  UNL A   1      12.504  53.157  13.812  1.00  0.00    +0.000 N 
ATOM    122  H17 UNL A   1      13.346  52.910  14.257  1.00  0.00    +0.000 H 
BRANCH   25   23
ATOM     23  C16 UNL A   1      12.184  52.514  12.651  1.00  0.00    +0.000 C 
ATOM     24  O8  UNL A   1      12.314  53.063  11.569  1.00  0.00    +0.000 O 
BRANCH   23   22
ATOM      2  C2  UNL A   1      12.853  47.214   9.638  1.00  0.00    +0.000 C 
ATOM      3  C3  UNL A   1      11.995  46.009   9.503  1.00  0.00    +0.000 C 
ATOM      4  O1  UNL A   1      12.066  45.159   8.646  1.00  0.00    +0.000 O 
ATOM      5  O2  UNL A   1      11.076  46.087  10.506  1.00  0.00    +0.000 O 
ATOM      6  C4  UNL A   1      11.237  47.324  11.251  1.00  0.00    +0.000 C 
ATOM      7  C5  UNL A   1      11.979  48.237  10.282  1.00  0.00    +0.000 C 
ATOM      8  C6  UNL A   1      12.555  49.576  10.767  1.00  0.00    +0.000 C 
ATOM     17  C12 UNL A   1      11.432  50.469  11.434  1.00  0.00    +0.000 C 
ATOM     22  C15 UNL A   1      11.633  51.120  12.796  1.00  0.00    +0.000 C 
ATOM    150  H45 UNL A   1      11.989  51.535  14.694  1.00  0.00    +0.000 H 
ATOM    152  H47 UNL A   1      10.546  47.536  15.490  1.00  0.00    +0.000 H 
ATOM    151  H46 UNL A   1      11.076  50.502  15.741  1.00  0.00    +0.000 H 
ATOM    156  H51 UNL A   1      12.826  46.956  12.042  1.00  0.00    +0.000 H 
ATOM     98  C68 UNL A   1      11.467  50.864  14.110  1.00  0.00    +0.000 C 
ATOM     99  C69 UNL A   1      10.746  49.891  14.927  1.00  0.00    +0.000 C 
ATOM    100  O10 UNL A   1       9.600  49.273  14.357  1.00  0.00    +0.000 O 
ATOM    101  C70 UNL A   1      10.593  48.389  14.844  1.00  0.00    +0.000 C 
ATOM    102  C71 UNL A   1      11.608  47.633  13.983  1.00  0.00    +0.000 C 
ATOM    104  O11 UNL A   1      11.030  46.402  13.495  1.00  0.00    +0.000 O 
ATOM    105  C73 UNL A   1      11.895  47.043  12.561  1.00  0.00    +0.000 C 
ATOM    108  H3  UNL A   1      10.333  47.813  11.550  1.00  0.00    +0.000 H 
ATOM    109  H4  UNL A   1      11.357  48.778   9.600  1.00  0.00    +0.000 H 
ATOM    110  H5  UNL A   1      12.896  50.117   9.908  1.00  0.00    +0.000 H 
ATOM    118  H13 UNL A   1      11.752  51.488  11.368  1.00  0.00    +0.000 H 
BRANCH    2    1
ATOM      1  C1  UNL A   1      14.148  47.172   9.319  1.00  0.00    +0.000 C 
ATOM    106  H1  UNL A   1      14.470  46.572   8.543  1.00  0.00    +0.000 H 
ATOM    107  H2  UNL A   1      14.829  47.739   9.848  1.00  0.00    +0.000 H 
ENDBRANCH    2    1
BRANCH    8    9
ATOM      9  O3  UNL A   1      13.733  49.410  11.582  1.00  0.00    +0.000 O 
BRANCH    9   10
ATOM     10  C7  UNL A   1      14.825  50.259  11.591  1.00  0.00    +0.000 C 
ATOM     11  O4  UNL A   1      15.119  50.792  12.658  1.00  0.00    +0.000 O 
BRANCH   10   12
ATOM    114  H9  UNL A   1      16.164  49.971   8.149  1.00  0.00    +0.000 H 
ATOM     12  C8  UNL A   1      15.869  50.199  10.483  1.00  0.00    +0.000 C 
ATOM     14  O5  UNL A   1      16.074  51.532   9.935  1.00  0.00    +0.000 O 
ATOM     15  C10 UNL A   1      15.778  50.538   8.971  1.00  0.00    +0.000 C 
BRANCH   12   13
ATOM    113  H8  UNL A   1      17.162  48.599  11.045  1.00  0.00    +0.000 H 
ATOM     13  C9  UNL A   1      17.224  49.660  10.921  1.00  0.00    +0.000 C 
ATOM    111  H6  UNL A   1      17.503  50.112  11.850  1.00  0.00    +0.000 H 
ATOM    112  H7  UNL A   1      17.958  49.890  10.177  1.00  0.00    +0.000 H 
ENDBRANCH   12   13
BRANCH   15   16
ATOM    115  H10 UNL A   1      14.997  51.384   7.219  1.00  0.00    +0.000 H 
ATOM    116  H11 UNL A   1      13.997  51.593   8.637  1.00  0.00    +0.000 H 
ATOM    117  H12 UNL A   1      14.082  50.035   7.847  1.00  0.00    +0.000 H 
ATOM     16  C11 UNL A   1      14.634  50.913   8.109  1.00  0.00    +0.000 C 
ENDBRANCH   15   16
ENDBRANCH   10   12
ENDBRANCH    9   10
ENDBRANCH    8    9
BRANCH   17   18
ATOM     18  O6  UNL A   1      10.119  50.467  10.746  1.00  0.00    +0.000 O 
BRANCH   18   19
ATOM     19  C13 UNL A   1       9.476  50.832   9.634  1.00  0.00    +0.000 C 
ATOM     21  O7  UNL A   1       8.265  50.630   9.545  1.00  0.00    +0.000 O 
BRANCH   19   20
ATOM    121  H16 UNL A   1      10.640  52.412   8.908  1.00  0.00    +0.000 H 
ATOM     20  C14 UNL A   1      10.172  51.526   8.533  1.00  0.00    +0.000 C 
ATOM    119  H14 UNL A   1       9.467  51.790   7.774  1.00  0.00    +0.000 H 
ATOM    120  H15 UNL A   1      10.917  50.878   8.118  1.00  0.00    +0.000 H 
ENDBRANCH   19   20
ENDBRANCH   18   19
ENDBRANCH   17   18
BRANCH  102  103
ATOM    153  H48 UNL A   1      12.562  47.629  15.896  1.00  0.00    +0.000 H 
ATOM    154  H49 UNL A   1      13.642  47.946  14.561  1.00  0.00    +0.000 H 
ATOM    155  H50 UNL A   1      13.061  46.323  14.847  1.00  0.00    +0.000 H 
ATOM    103  C72 UNL A   1      12.809  47.363  14.890  1.00  0.00    +0.000 C 
ENDBRANCH  102  103
ENDBRANCH   23   22
ENDBRANCH   25   23
ENDBRANCH   26   25
ENDBRANCH   27   26
ENDBRANCH   28   27
ENDBRANCH   29   28
ENDBRANCH   30   29
ENDBRANCH   31   30
ENDBRANCH   32   31
ENDBRANCH   33   32
ENDBRANCH   35   33
ENDBRANCH   39   38
BRANCH   43   44
ATOM     44  C32 UNL A   1      18.350  55.433   0.097  1.00  0.00    +0.000 C 
ATOM     45  C33 UNL A   1      19.530  55.849   0.734  1.00  0.00    +0.000 C 
ATOM     46  F1  UNL A   1      19.912  55.278   1.887  1.00  0.00    +0.000 F 
ATOM     47  C34 UNL A   1      20.300  56.885   0.214  1.00  0.00    +0.000 C 
ATOM     48  F2  UNL A   1      21.393  57.301   0.870  1.00  0.00    +0.000 F 
ATOM     49  C35 UNL A   1      19.932  57.497  -0.975  1.00  0.00    +0.000 C 
ATOM     50  F3  UNL A   1      20.681  58.488  -1.480  1.00  0.00    +0.000 F 
ATOM     51  C36 UNL A   1      18.785  57.087  -1.636  1.00  0.00    +0.000 C 
ATOM     52  F4  UNL A   1      18.436  57.666  -2.792  1.00  0.00    +0.000 F 
ATOM     53  C37 UNL A   1      17.993  56.075  -1.098  1.00  0.00    +0.000 C 
ATOM     54  F5  UNL A   1      16.877  55.717  -1.752  1.00  0.00    +0.000 F 
ENDBRANCH   43   44
BRANCH   60   61
ATOM     65  F7  UNL A   1      16.216  47.050  -4.556  1.00  0.00    +0.000 F 
ATOM     66  C46 UNL A   1      17.995  46.543  -3.088  1.00  0.00    +0.000 C 
ATOM     67  F8  UNL A   1      18.450  45.611  -3.938  1.00  0.00    +0.000 F 
ATOM     68  C47 UNL A   1      18.647  46.762  -1.885  1.00  0.00    +0.000 C 
ATOM     69  F9  UNL A   1      19.749  46.061  -1.583  1.00  0.00    +0.000 F 
ATOM     70  C48 UNL A   1      18.161  47.710  -0.990  1.00  0.00    +0.000 C 
ATOM     71  F10 UNL A   1      18.805  47.888   0.172  1.00  0.00    +0.000 F 
ATOM     61  C43 UNL A   1      17.028  48.481  -1.297  1.00  0.00    +0.000 C 
ATOM     62  C44 UNL A   1      16.397  48.258  -2.531  1.00  0.00    +0.000 C 
ATOM     63  F6  UNL A   1      15.304  48.957  -2.867  1.00  0.00    +0.000 F 
ATOM     64  C45 UNL A   1      16.866  47.283  -3.407  1.00  0.00    +0.000 C 
ENDBRANCH   60   61
BRANCH   75   76
ATOM     76  C52 UNL A   1      12.365  48.367   3.887  1.00  0.00    +0.000 C 
ATOM     77  C53 UNL A   1      11.002  48.351   3.560  1.00  0.00    +0.000 C 
ATOM     78  F11 UNL A   1      10.496  49.297   2.755  1.00  0.00    +0.000 F 
ATOM     79  C54 UNL A   1      10.144  47.391   4.093  1.00  0.00    +0.000 C 
ATOM     80  F12 UNL A   1       8.836  47.432   3.806  1.00  0.00    +0.000 F 
ATOM     81  C55 UNL A   1      10.638  46.406   4.934  1.00  0.00    +0.000 C 
ATOM     82  F13 UNL A   1       9.814  45.482   5.445  1.00  0.00    +0.000 F 
ATOM     83  C56 UNL A   1      11.988  46.386   5.253  1.00  0.00    +0.000 C 
ATOM     84  F14 UNL A   1      12.474  45.427   6.052  1.00  0.00    +0.000 F 
ATOM     85  C57 UNL A   1      12.840  47.365   4.747  1.00  0.00    +0.000 C 
ATOM     86  F15 UNL A   1      14.137  47.331   5.087  1.00  0.00    +0.000 F 
ENDBRANCH   75   76
TORSDOF 25
ENDMDL
MODEL 6
REMARK VINA RESULT:      -9.5     41.295     47.041
ROOT
ATOM    138  H33 UNL A   1       4.645  -5.351  36.004  1.00  0.00    +0.000 H 
ATOM    139  H34 UNL A   1       3.451  -3.063  35.640  1.00  0.00    +0.000 H 
ATOM    140  H35 UNL A   1       4.516  -4.577  31.938  1.00  0.00    +0.000 H 
ATOM    141  H36 UNL A   1       4.970  -3.846  25.609  1.00  0.00    +0.000 H 
ATOM    142  H37 UNL A   1       6.000  -6.140  25.961  1.00  0.00    +0.000 H 
ATOM    143  H38 UNL A   1       4.895  -4.659  29.684  1.00  0.00    +0.000 H 
ATOM    144  H39 UNL A   1       2.656  -0.252  28.828  1.00  0.00    +0.000 H 
ATOM    145  H40 UNL A   1       2.470  -0.006  31.367  1.00  0.00    +0.000 H 
ATOM    146  H41 UNL A   1       6.443  -9.141  32.648  1.00  0.00    +0.000 H 
ATOM    147  H42 UNL A   1       7.115  -9.185  30.178  1.00  0.00    +0.000 H 
ATOM     39  C28 UNL A   1       6.148  -6.954  28.690  1.00  0.00    +0.000 C 
ATOM     40  C29 UNL A   1       6.057  -7.180  30.173  1.00  0.00    +0.000 C 
ATOM     41  N3  UNL A   1       5.527  -6.416  31.095  1.00  0.00    +0.000 N 
ATOM     42  C30 UNL A   1       5.676  -7.110  32.288  1.00  0.00    +0.000 C 
ATOM     43  C31 UNL A   1       5.357  -6.709  33.542  1.00  0.00    +0.000 C 
ATOM     55  C38 UNL A   1       4.767  -5.433  33.853  1.00  0.00    +0.000 C 
ATOM     56  C39 UNL A   1       4.454  -4.907  35.093  1.00  0.00    +0.000 C 
ATOM     57  C40 UNL A   1       3.836  -3.668  34.898  1.00  0.00    +0.000 C 
ATOM     58  C41 UNL A   1       3.825  -3.390  33.541  1.00  0.00    +0.000 C 
ATOM     59  N4  UNL A   1       4.394  -4.485  32.910  1.00  0.00    +0.000 N 
ATOM     60  C42 UNL A   1       3.335  -2.212  32.869  1.00  0.00    +0.000 C 
ATOM     72  C49 UNL A   1       3.367  -2.009  31.530  1.00  0.00    +0.000 C 
ATOM     73  N5  UNL A   1       3.861  -2.837  30.531  1.00  0.00    +0.000 N 
ATOM     74  C50 UNL A   1       3.653  -2.206  29.401  1.00  0.00    +0.000 C 
ATOM     75  C51 UNL A   1       4.016  -2.617  28.000  1.00  0.00    +0.000 C 
ATOM     87  C58 UNL A   1       4.652  -3.788  27.808  1.00  0.00    +0.000 C 
ATOM     88  C59 UNL A   1       5.080  -4.321  26.519  1.00  0.00    +0.000 C 
ATOM     89  C60 UNL A   1       5.636  -5.527  26.707  1.00  0.00    +0.000 C 
ATOM     90  C61 UNL A   1       5.645  -5.833  28.138  1.00  0.00    +0.000 C 
ATOM     91  N6  UNL A   1       5.039  -4.745  28.714  1.00  0.00    +0.000 N 
ATOM     92  C62 UNL A   1       2.970  -0.914  29.554  1.00  0.00    +0.000 C 
ATOM     93  C63 UNL A   1       2.863  -0.821  30.872  1.00  0.00    +0.000 C 
ATOM     94  C64 UNL A   1       6.283  -8.382  31.968  1.00  0.00    +0.000 C 
ATOM     95  C65 UNL A   1       6.608  -8.444  30.685  1.00  0.00    +0.000 C 
ENDROOT
BRANCH   39   38
ATOM     97  C67 UNL A   1       6.542 -10.078  26.610  1.00  0.00    +0.000 C 
ATOM     35  C24 UNL A   1       7.850  -9.928  26.139  1.00  0.00    +0.000 C 
ATOM     36  C25 UNL A   1       8.636  -8.853  26.556  1.00  0.00    +0.000 C 
ATOM     37  C26 UNL A   1       8.094  -7.900  27.415  1.00  0.00    +0.000 C 
ATOM     38  C27 UNL A   1       6.751  -7.991  27.818  1.00  0.00    +0.000 C 
ATOM    136  H31 UNL A   1       9.611  -8.766  26.231  1.00  0.00    +0.000 H 
ATOM    137  H32 UNL A   1       8.681  -7.123  27.756  1.00  0.00    +0.000 H 
ATOM    148  H43 UNL A   1       4.986  -9.150  27.680  1.00  0.00    +0.000 H 
ATOM    149  H44 UNL A   1       5.999 -10.923  26.373  1.00  0.00    +0.000 H 
ATOM     96  C66 UNL A   1       5.977  -9.084  27.400  1.00  0.00    +0.000 C 
BRANCH   35   33
ATOM     33  C23 UNL A   1       8.414 -10.878  25.161  1.00  0.00    +0.000 C 
ATOM     34  O9  UNL A   1       8.858 -11.957  25.535  1.00  0.00    +0.000 O 
BRANCH   33   32
ATOM    135  H30 UNL A   1       9.369 -10.367  23.473  1.00  0.00    +0.000 H 
ATOM     32  N2  UNL A   1       8.467 -10.516  23.842  1.00  0.00    +0.000 N 
BRANCH   32   31
ATOM    133  H28 UNL A   1       7.557 -10.899  22.035  1.00  0.00    +0.000 H 
ATOM    134  H29 UNL A   1       6.472 -10.634  23.411  1.00  0.00    +0.000 H 
ATOM     31  C22 UNL A   1       7.367 -10.322  22.916  1.00  0.00    +0.000 C 
BRANCH   31   30
ATOM    131  H26 UNL A   1       8.143  -8.393  22.522  1.00  0.00    +0.000 H 
ATOM    132  H27 UNL A   1       6.727  -8.879  21.545  1.00  0.00    +0.000 H 
ATOM     30  C21 UNL A   1       7.182  -8.866  22.512  1.00  0.00    +0.000 C 
BRANCH   30   29
ATOM    129  H24 UNL A   1       5.303  -7.974  22.918  1.00  0.00    +0.000 H 
ATOM    130  H25 UNL A   1       6.208  -8.592  24.342  1.00  0.00    +0.000 H 
ATOM     29  C20 UNL A   1       6.248  -8.059  23.415  1.00  0.00    +0.000 C 
BRANCH   29   28
ATOM     28  C19 UNL A   1       6.719  -6.643  23.773  1.00  0.00    +0.000 C 
ATOM    127  H22 UNL A   1       6.323  -5.971  23.041  1.00  0.00    +0.000 H 
ATOM    128  H23 UNL A   1       6.366  -6.461  24.766  1.00  0.00    +0.000 H 
BRANCH   28   27
ATOM     27  C18 UNL A   1       8.234  -6.441  23.826  1.00  0.00    +0.000 C 
ATOM    125  H20 UNL A   1       8.513  -6.236  24.839  1.00  0.00    +0.000 H 
ATOM    126  H21 UNL A   1       8.684  -7.338  23.453  1.00  0.00    +0.000 H 
BRANCH   27   26
ATOM     26  C17 UNL A   1       8.727  -5.304  22.956  1.00  0.00    +0.000 C 
ATOM    123  H18 UNL A   1       9.478  -5.676  22.292  1.00  0.00    +0.000 H 
ATOM    124  H19 UNL A   1       7.890  -4.916  22.414  1.00  0.00    +0.000 H 
BRANCH   26   25
ATOM     25  N1  UNL A   1       9.288  -4.228  23.741  1.00  0.00    +0.000 N 
ATOM    122  H17 UNL A   1       8.967  -4.115  24.665  1.00  0.00    +0.000 H 
BRANCH   25   23
ATOM     23  C16 UNL A   1      10.236  -3.358  23.286  1.00  0.00    +0.000 C 
ATOM     24  O8  UNL A   1      11.407  -3.690  23.197  1.00  0.00    +0.000 O 
BRANCH   23   22
ATOM      2  C2  UNL A   1       8.912   1.720  26.459  1.00  0.00    +0.000 C 
ATOM      3  C3  UNL A   1       8.035   2.887  26.186  1.00  0.00    +0.000 C 
ATOM      4  O1  UNL A   1       7.598   3.673  26.994  1.00  0.00    +0.000 O 
ATOM      5  O2  UNL A   1       7.776   2.858  24.848  1.00  0.00    +0.000 O 
ATOM      6  C4  UNL A   1       8.377   1.685  24.238  1.00  0.00    +0.000 C 
ATOM      7  C5  UNL A   1       8.565   0.724  25.405  1.00  0.00    +0.000 C 
ATOM      8  C6  UNL A   1       9.390  -0.559  25.227  1.00  0.00    +0.000 C 
ATOM     17  C12 UNL A   1       8.835  -1.432  24.030  1.00  0.00    +0.000 C 
ATOM     22  C15 UNL A   1       9.754  -1.973  22.943  1.00  0.00    +0.000 C 
ATOM    150  H45 UNL A   1      11.068  -2.237  21.491  1.00  0.00    +0.000 H 
ATOM    152  H47 UNL A   1       9.999   1.768  20.256  1.00  0.00    +0.000 H 
ATOM    151  H46 UNL A   1      10.768  -1.155  20.174  1.00  0.00    +0.000 H 
ATOM    156  H51 UNL A   1      10.120   2.155  24.410  1.00  0.00    +0.000 H 
ATOM     98  C68 UNL A   1      10.277  -1.626  21.749  1.00  0.00    +0.000 C 
ATOM     99  C69 UNL A   1      10.025  -0.615  20.725  1.00  0.00    +0.000 C 
ATOM    100  O10 UNL A   1       8.715  -0.073  20.643  1.00  0.00    +0.000 O 
ATOM    101  C70 UNL A   1       9.758   0.872  20.789  1.00  0.00    +0.000 C 
ATOM    102  C71 UNL A   1      10.130   1.590  22.089  1.00  0.00    +0.000 C 
ATOM    104  O11 UNL A   1       9.307   2.764  22.263  1.00  0.00    +0.000 O 
ATOM    105  C73 UNL A   1       9.600   2.080  23.478  1.00  0.00    +0.000 C 
ATOM    108  H3  UNL A   1       7.792   1.194  23.488  1.00  0.00    +0.000 H 
ATOM    109  H4  UNL A   1       7.715   0.116  25.636  1.00  0.00    +0.000 H 
ATOM    110  H5  UNL A   1       9.270  -1.153  26.110  1.00  0.00    +0.000 H 
ATOM    118  H13 UNL A   1       9.138  -2.443  24.204  1.00  0.00    +0.000 H 
BRANCH    2    1
ATOM      1  C1  UNL A   1       9.848   1.774  27.409  1.00  0.00    +0.000 C 
ATOM    106  H1  UNL A   1      10.226   2.687  27.710  1.00  0.00    +0.000 H 
ATOM    107  H2  UNL A   1      10.196   0.905  27.841  1.00  0.00    +0.000 H 
ENDBRANCH    2    1
BRANCH    8    9
ATOM      9  O3  UNL A   1      10.808  -0.300  25.155  1.00  0.00    +0.000 O 
BRANCH    9   10
ATOM     10  C7  UNL A   1      11.783  -0.998  25.844  1.00  0.00    +0.000 C 
ATOM     11  O4  UNL A   1      11.465  -2.076  26.341  1.00  0.00    +0.000 O 
BRANCH   10   12
ATOM    114  H9  UNL A   1      14.846   1.056  25.488  1.00  0.00    +0.000 H 
ATOM     12  C8  UNL A   1      13.261  -0.691  25.630  1.00  0.00    +0.000 C 
ATOM     14  O5  UNL A   1      13.931  -0.602  26.919  1.00  0.00    +0.000 O 
ATOM     15  C10 UNL A   1      14.131   0.516  26.072  1.00  0.00    +0.000 C 
BRANCH   12   13
ATOM    113  H8  UNL A   1      15.058  -1.580  24.902  1.00  0.00    +0.000 H 
ATOM     13  C9  UNL A   1      14.003  -1.719  24.787  1.00  0.00    +0.000 C 
ATOM    111  H6  UNL A   1      13.737  -1.593  23.757  1.00  0.00    +0.000 H 
ATOM    112  H7  UNL A   1      13.736  -2.704  25.107  1.00  0.00    +0.000 H 
ENDBRANCH   12   13
BRANCH   15   16
ATOM    115  H10 UNL A   1      14.371   2.583  26.318  1.00  0.00    +0.000 H 
ATOM    116  H11 UNL A   1      13.986   1.717  27.785  1.00  0.00    +0.000 H 
ATOM    117  H12 UNL A   1      12.746   2.003  26.587  1.00  0.00    +0.000 H 
ATOM     16  C11 UNL A   1      13.784   1.793  26.737  1.00  0.00    +0.000 C 
ENDBRANCH   15   16
ENDBRANCH   10   12
ENDBRANCH    9   10
ENDBRANCH    8    9
BRANCH   17   18
ATOM     18  O6  UNL A   1       7.358  -1.517  23.932  1.00  0.00    +0.000 O 
BRANCH   18   19
ATOM     19  C13 UNL A   1       6.340  -1.801  23.116  1.00  0.00    +0.000 C 
ATOM     21  O7  UNL A   1       5.949  -0.947  22.322  1.00  0.00    +0.000 O 
BRANCH   19   20
ATOM    121  H16 UNL A   1       6.025  -3.673  22.237  1.00  0.00    +0.000 H 
ATOM     20  C14 UNL A   1       5.709  -3.136  23.106  1.00  0.00    +0.000 C 
ATOM    119  H14 UNL A   1       4.645  -3.028  23.092  1.00  0.00    +0.000 H 
ATOM    120  H15 UNL A   1       6.002  -3.674  23.984  1.00  0.00    +0.000 H 
ENDBRANCH   19   20
ENDBRANCH   18   19
ENDBRANCH   17   18
BRANCH  102  103
ATOM    153  H48 UNL A   1      11.831   2.775  22.611  1.00  0.00    +0.000 H 
ATOM    154  H49 UNL A   1      11.814   2.246  20.946  1.00  0.00    +0.000 H 
ATOM    155  H50 UNL A   1      12.211   1.115  22.218  1.00  0.00    +0.000 H 
ATOM    103  C72 UNL A   1      11.608   1.960  21.955  1.00  0.00    +0.000 C 
ENDBRANCH  102  103
ENDBRANCH   23   22
ENDBRANCH   25   23
ENDBRANCH   26   25
ENDBRANCH   27   26
ENDBRANCH   28   27
ENDBRANCH   29   28
ENDBRANCH   30   29
ENDBRANCH   31   30
ENDBRANCH   32   31
ENDBRANCH   33   32
ENDBRANCH   35   33
ENDBRANCH   39   38
BRANCH   43   44
ATOM     44  C32 UNL A   1       5.637  -7.661  34.670  1.00  0.00    +0.000 C 
ATOM     45  C33 UNL A   1       6.813  -7.578  35.433  1.00  0.00    +0.000 C 
ATOM     46  F1  UNL A   1       7.746  -6.659  35.138  1.00  0.00    +0.000 F 
ATOM     47  C34 UNL A   1       7.057  -8.469  36.474  1.00  0.00    +0.000 C 
ATOM     48  F2  UNL A   1       8.213  -8.405  37.152  1.00  0.00    +0.000 F 
ATOM     49  C35 UNL A   1       6.115  -9.431  36.803  1.00  0.00    +0.000 C 
ATOM     50  F3  UNL A   1       6.347 -10.282  37.813  1.00  0.00    +0.000 F 
ATOM     51  C36 UNL A   1       4.934  -9.516  36.081  1.00  0.00    +0.000 C 
ATOM     52  F4  UNL A   1       4.015 -10.434  36.407  1.00  0.00    +0.000 F 
ATOM     53  C37 UNL A   1       4.703  -8.649  35.015  1.00  0.00    +0.000 C 
ATOM     54  F5  UNL A   1       3.560  -8.772  34.323  1.00  0.00    +0.000 F 
ENDBRANCH   43   44
BRANCH   60   61
ATOM     65  F7  UNL A   1       3.854   1.775  35.679  1.00  0.00    +0.000 F 
ATOM     66  C46 UNL A   1       1.674   0.974  35.255  1.00  0.00    +0.000 C 
ATOM     67  F8  UNL A   1       1.151   1.962  35.995  1.00  0.00    +0.000 F 
ATOM     68  C47 UNL A   1       0.842   0.034  34.666  1.00  0.00    +0.000 C 
ATOM     69  F9  UNL A   1      -0.487   0.128  34.815  1.00  0.00    +0.000 F 
ATOM     70  C48 UNL A   1       1.384  -1.007  33.919  1.00  0.00    +0.000 C 
ATOM     71  F10 UNL A   1       0.555  -1.909  33.375  1.00  0.00    +0.000 F 
ATOM     61  C43 UNL A   1       2.771  -1.110  33.721  1.00  0.00    +0.000 C 
ATOM     62  C44 UNL A   1       3.591  -0.134  34.307  1.00  0.00    +0.000 C 
ATOM     63  F6  UNL A   1       4.923  -0.194  34.160  1.00  0.00    +0.000 F 
ATOM     64  C45 UNL A   1       3.048   0.885  35.084  1.00  0.00    +0.000 C 
ENDBRANCH   60   61
BRANCH   75   76
ATOM     76  C52 UNL A   1       3.701  -1.742  26.839  1.00  0.00    +0.000 C 
ATOM     77  C53 UNL A   1       2.495  -1.879  26.137  1.00  0.00    +0.000 C 
ATOM     78  F11 UNL A   1       1.610  -2.817  26.505  1.00  0.00    +0.000 F 
ATOM     79  C54 UNL A   1       2.212  -1.086  25.027  1.00  0.00    +0.000 C 
ATOM     80  F12 UNL A   1       1.076  -1.276  24.343  1.00  0.00    +0.000 F 
ATOM     81  C55 UNL A   1       3.113  -0.114  24.619  1.00  0.00    +0.000 C 
ATOM     82  F13 UNL A   1       2.840   0.651  23.553  1.00  0.00    +0.000 F 
ATOM     83  C56 UNL A   1       4.301   0.058  25.312  1.00  0.00    +0.000 C 
ATOM     84  F14 UNL A   1       5.168   1.007  24.932  1.00  0.00    +0.000 F 
ATOM     85  C57 UNL A   1       4.600  -0.757  26.401  1.00  0.00    +0.000 C 
ATOM     86  F15 UNL A   1       5.765  -0.579  27.041  1.00  0.00    +0.000 F 
ENDBRANCH   75   76
TORSDOF 25
ENDMDL
MODEL 7
REMARK VINA RESULT:      -9.3      8.412     12.933
ROOT
ATOM    138  H33 UNL A   1      12.934  33.799  -1.469  1.00  0.00    +0.000 H 
ATOM    139  H34 UNL A   1      11.244  34.293  -3.392  1.00  0.00    +0.000 H 
ATOM    140  H35 UNL A   1       9.727  31.206  -1.088  1.00  0.00    +0.000 H 
ATOM    141  H36 UNL A   1       5.293  26.710  -0.132  1.00  0.00    +0.000 H 
ATOM    142  H37 UNL A   1       6.871  26.333   1.821  1.00  0.00    +0.000 H 
ATOM    143  H38 UNL A   1       8.387  29.466  -0.451  1.00  0.00    +0.000 H 
ATOM    144  H39 UNL A   1       5.061  30.271  -4.119  1.00  0.00    +0.000 H 
ATOM    145  H40 UNL A   1       6.680  32.037  -5.017  1.00  0.00    +0.000 H 
ATOM    146  H41 UNL A   1      12.797  30.555   2.811  1.00  0.00    +0.000 H 
ATOM    147  H42 UNL A   1      11.478  28.450   3.432  1.00  0.00    +0.000 H 
ATOM     39  C28 UNL A   1       9.148  28.049   1.838  1.00  0.00    +0.000 C 
ATOM     40  C29 UNL A   1      10.213  29.095   1.664  1.00  0.00    +0.000 C 
ATOM     41  N3  UNL A   1      10.309  30.035   0.757  1.00  0.00    +0.000 N 
ATOM     42  C30 UNL A   1      11.457  30.748   1.075  1.00  0.00    +0.000 C 
ATOM     43  C31 UNL A   1      12.030  31.770   0.396  1.00  0.00    +0.000 C 
ATOM     55  C38 UNL A   1      11.503  32.320  -0.825  1.00  0.00    +0.000 C 
ATOM     56  C39 UNL A   1      12.034  33.320  -1.620  1.00  0.00    +0.000 C 
ATOM     57  C40 UNL A   1      11.138  33.567  -2.665  1.00  0.00    +0.000 C 
ATOM     58  C41 UNL A   1      10.082  32.676  -2.561  1.00  0.00    +0.000 C 
ATOM     59  N4  UNL A   1      10.316  31.920  -1.423  1.00  0.00    +0.000 N 
ATOM     60  C42 UNL A   1       8.947  32.523  -3.436  1.00  0.00    +0.000 C 
ATOM     72  C49 UNL A   1       7.953  31.615  -3.272  1.00  0.00    +0.000 C 
ATOM     73  N5  UNL A   1       7.798  30.658  -2.278  1.00  0.00    +0.000 N 
ATOM     74  C50 UNL A   1       6.676  30.037  -2.546  1.00  0.00    +0.000 C 
ATOM     75  C51 UNL A   1       6.029  28.886  -1.823  1.00  0.00    +0.000 C 
ATOM     87  C58 UNL A   1       6.640  28.370  -0.740  1.00  0.00    +0.000 C 
ATOM     88  C59 UNL A   1       6.150  27.252   0.059  1.00  0.00    +0.000 C 
ATOM     89  C60 UNL A   1       6.991  27.045   1.084  1.00  0.00    +0.000 C 
ATOM     90  C61 UNL A   1       8.106  27.987   0.986  1.00  0.00    +0.000 C 
ATOM     91  N6  UNL A   1       7.813  28.736  -0.125  1.00  0.00    +0.000 N 
ATOM     92  C62 UNL A   1       5.972  30.554  -3.727  1.00  0.00    +0.000 C 
ATOM     93  C63 UNL A   1       6.816  31.481  -4.158  1.00  0.00    +0.000 C 
ATOM     94  C64 UNL A   1      11.988  30.178   2.293  1.00  0.00    +0.000 C 
ATOM     95  C65 UNL A   1      11.299  29.106   2.656  1.00  0.00    +0.000 C 
ENDROOT
BRANCH   39   38
ATOM     97  C67 UNL A   1       9.941  24.987   3.895  1.00  0.00    +0.000 C 
ATOM     35  C24 UNL A   1       9.394  25.341   5.132  1.00  0.00    +0.000 C 
ATOM     36  C25 UNL A   1       8.698  26.541   5.284  1.00  0.00    +0.000 C 
ATOM     37  C26 UNL A   1       8.587  27.410   4.202  1.00  0.00    +0.000 C 
ATOM     38  C27 UNL A   1       9.214  27.108   2.981  1.00  0.00    +0.000 C 
ATOM    136  H31 UNL A   1       8.269  26.781   6.191  1.00  0.00    +0.000 H 
ATOM    137  H32 UNL A   1       8.043  28.282   4.297  1.00  0.00    +0.000 H 
ATOM    148  H43 UNL A   1      10.376  25.669   1.952  1.00  0.00    +0.000 H 
ATOM    149  H44 UNL A   1      10.371  24.058   3.765  1.00  0.00    +0.000 H 
ATOM     96  C66 UNL A   1       9.901  25.892   2.840  1.00  0.00    +0.000 C 
BRANCH   35   33
ATOM     33  C23 UNL A   1       9.574  24.475   6.313  1.00  0.00    +0.000 C 
ATOM     34  O9  UNL A   1       8.674  23.725   6.671  1.00  0.00    +0.000 O 
BRANCH   33   32
ATOM    135  H30 UNL A   1      10.884  25.385   7.529  1.00  0.00    +0.000 H 
ATOM     32  N2  UNL A   1      10.746  24.554   7.019  1.00  0.00    +0.000 N 
BRANCH   32   31
ATOM    133  H28 UNL A   1      12.332  23.721   8.032  1.00  0.00    +0.000 H 
ATOM    134  H29 UNL A   1      11.359  22.604   7.062  1.00  0.00    +0.000 H 
ATOM     31  C22 UNL A   1      11.809  23.572   7.110  1.00  0.00    +0.000 C 
BRANCH   31   30
ATOM    131  H26 UNL A   1      12.798  24.678   5.602  1.00  0.00    +0.000 H 
ATOM    132  H27 UNL A   1      13.753  23.373   6.365  1.00  0.00    +0.000 H 
ATOM     30  C21 UNL A   1      12.807  23.671   5.965  1.00  0.00    +0.000 C 
BRANCH   30   29
ATOM    129  H24 UNL A   1      12.043  21.863   5.164  1.00  0.00    +0.000 H 
ATOM    130  H25 UNL A   1      11.931  23.307   4.101  1.00  0.00    +0.000 H 
ATOM     29  C20 UNL A   1      12.528  22.739   4.784  1.00  0.00    +0.000 C 
BRANCH   29   28
ATOM     28  C19 UNL A   1      13.756  22.286   3.984  1.00  0.00    +0.000 C 
ATOM    127  H22 UNL A   1      14.629  22.572   4.532  1.00  0.00    +0.000 H 
ATOM    128  H23 UNL A   1      13.648  21.229   3.858  1.00  0.00    +0.000 H 
BRANCH   28   27
ATOM     27  C18 UNL A   1      13.879  22.863   2.572  1.00  0.00    +0.000 C 
ATOM    125  H20 UNL A   1      14.385  23.804   2.634  1.00  0.00    +0.000 H 
ATOM    126  H21 UNL A   1      14.419  22.148   1.987  1.00  0.00    +0.000 H 
BRANCH   27   26
ATOM     26  C17 UNL A   1      12.547  23.081   1.885  1.00  0.00    +0.000 C 
ATOM    123  H18 UNL A   1      12.236  22.163   1.434  1.00  0.00    +0.000 H 
ATOM    124  H19 UNL A   1      11.844  23.406   2.623  1.00  0.00    +0.000 H 
BRANCH   26   25
ATOM     25  N1  UNL A   1      12.627  24.101   0.865  1.00  0.00    +0.000 N 
ATOM    122  H17 UNL A   1      12.455  25.033   1.130  1.00  0.00    +0.000 H 
BRANCH   25   23
ATOM     23  C16 UNL A   1      12.927  23.857  -0.443  1.00  0.00    +0.000 C 
ATOM     24  O8  UNL A   1      13.093  22.719  -0.851  1.00  0.00    +0.000 O 
BRANCH   23   22
ATOM      2  C2  UNL A   1      11.546  25.220  -6.262  1.00  0.00    +0.000 C 
ATOM      3  C3  UNL A   1      12.086  26.211  -7.227  1.00  0.00    +0.000 C 
ATOM      4  O1  UNL A   1      11.970  26.191  -8.430  1.00  0.00    +0.000 O 
ATOM      5  O2  UNL A   1      12.788  27.114  -6.485  1.00  0.00    +0.000 O 
ATOM      6  C4  UNL A   1      12.801  26.725  -5.086  1.00  0.00    +0.000 C 
ATOM      7  C5  UNL A   1      12.508  25.230  -5.122  1.00  0.00    +0.000 C 
ATOM      8  C6  UNL A   1      12.203  24.469  -3.823  1.00  0.00    +0.000 C 
ATOM     17  C12 UNL A   1      13.365  24.660  -2.766  1.00  0.00    +0.000 C 
ATOM     22  C15 UNL A   1      13.076  25.068  -1.327  1.00  0.00    +0.000 C 
ATOM    150  H45 UNL A   1      12.481  25.944   0.341  1.00  0.00    +0.000 H 
ATOM    152  H47 UNL A   1      12.705  29.628  -1.915  1.00  0.00    +0.000 H 
ATOM    151  H46 UNL A   1      12.892  27.625   0.343  1.00  0.00    +0.000 H 
ATOM    156  H51 UNL A   1      11.050  27.009  -4.711  1.00  0.00    +0.000 H 
ATOM     98  C68 UNL A   1      12.921  26.170  -0.565  1.00  0.00    +0.000 C 
ATOM     99  C69 UNL A   1      13.208  27.597  -0.680  1.00  0.00    +0.000 C 
ATOM    100  O10 UNL A   1      14.250  27.991  -1.561  1.00  0.00    +0.000 O 
ATOM    101  C70 UNL A   1      12.995  28.606  -1.786  1.00  0.00    +0.000 C 
ATOM    102  C71 UNL A   1      12.007  28.226  -2.892  1.00  0.00    +0.000 C 
ATOM    104  O11 UNL A   1      12.342  28.912  -4.118  1.00  0.00    +0.000 O 
ATOM    105  C73 UNL A   1      11.858  27.586  -4.313  1.00  0.00    +0.000 C 
ATOM    108  H3  UNL A   1      13.724  26.875  -4.566  1.00  0.00    +0.000 H 
ATOM    109  H4  UNL A   1      13.363  24.601  -5.261  1.00  0.00    +0.000 H 
ATOM    110  H5  UNL A   1      12.176  23.424  -4.052  1.00  0.00    +0.000 H 
ATOM    118  H13 UNL A   1      13.326  23.827  -2.094  1.00  0.00    +0.000 H 
BRANCH    2    1
ATOM      1  C1  UNL A   1      10.366  24.632  -6.472  1.00  0.00    +0.000 C 
ATOM    106  H1  UNL A   1       9.631  24.676  -5.748  1.00  0.00    +0.000 H 
ATOM    107  H2  UNL A   1      10.188  24.132  -7.356  1.00  0.00    +0.000 H 
ENDBRANCH    2    1
BRANCH    8    9
ATOM      9  O3  UNL A   1      10.888  24.760  -3.306  1.00  0.00    +0.000 O 
BRANCH    9   10
ATOM     10  C7  UNL A   1       9.979  23.818  -2.858  1.00  0.00    +0.000 C 
ATOM     11  O4  UNL A   1      10.286  22.634  -2.976  1.00  0.00    +0.000 O 
BRANCH   10   12
ATOM    114  H9  UNL A   1       6.601  24.815  -1.710  1.00  0.00    +0.000 H 
ATOM     12  C8  UNL A   1       8.877  24.201  -1.877  1.00  0.00    +0.000 C 
ATOM     14  O5  UNL A   1       8.129  23.012  -1.497  1.00  0.00    +0.000 O 
ATOM     15  C10 UNL A   1       7.332  24.081  -1.975  1.00  0.00    +0.000 C 
BRANCH   12   13
ATOM    113  H8  UNL A   1       8.918  25.836  -0.508  1.00  0.00    +0.000 H 
ATOM     13  C9  UNL A   1       9.371  24.871  -0.602  1.00  0.00    +0.000 C 
ATOM    111  H6  UNL A   1      10.435  24.979  -0.647  1.00  0.00    +0.000 H 
ATOM    112  H7  UNL A   1       9.109  24.268   0.242  1.00  0.00    +0.000 H 
ENDBRANCH   12   13
BRANCH   15   16
ATOM    115  H10 UNL A   1       5.428  23.656  -2.739  1.00  0.00    +0.000 H 
ATOM    116  H11 UNL A   1       6.715  22.687  -3.414  1.00  0.00    +0.000 H 
ATOM    117  H12 UNL A   1       6.535  24.358  -3.893  1.00  0.00    +0.000 H 
ATOM     16  C11 UNL A   1       6.441  23.666  -3.083  1.00  0.00    +0.000 C 
ENDBRANCH   15   16
ENDBRANCH   10   12
ENDBRANCH    9   10
ENDBRANCH    8    9
BRANCH   17   18
ATOM     18  O6  UNL A   1      14.741  24.610  -3.312  1.00  0.00    +0.000 O 
BRANCH   18   19
ATOM     19  C13 UNL A   1      16.037  24.602  -2.990  1.00  0.00    +0.000 C 
ATOM     21  O7  UNL A   1      16.547  25.620  -2.523  1.00  0.00    +0.000 O 
BRANCH   19   20
ATOM    121  H16 UNL A   1      16.381  22.572  -2.620  1.00  0.00    +0.000 H 
ATOM     20  C14 UNL A   1      16.858  23.383  -3.128  1.00  0.00    +0.000 C 
ATOM    119  H14 UNL A   1      17.824  23.553  -2.701  1.00  0.00    +0.000 H 
ATOM    120  H15 UNL A   1      16.964  23.141  -4.166  1.00  0.00    +0.000 H 
ENDBRANCH   19   20
ENDBRANCH   18   19
ENDBRANCH   17   18
BRANCH  102  103
ATOM    153  H48 UNL A   1      10.661  29.657  -2.048  1.00  0.00    +0.000 H 
ATOM    154  H49 UNL A   1      10.343  28.008  -1.567  1.00  0.00    +0.000 H 
ATOM    155  H50 UNL A   1       9.912  28.549  -3.172  1.00  0.00    +0.000 H 
ATOM    103  C72 UNL A   1      10.626  28.641  -2.381  1.00  0.00    +0.000 C 
ENDBRANCH  102  103
ENDBRANCH   23   22
ENDBRANCH   25   23
ENDBRANCH   26   25
ENDBRANCH   27   26
ENDBRANCH   28   27
ENDBRANCH   29   28
ENDBRANCH   30   29
ENDBRANCH   31   30
ENDBRANCH   32   31
ENDBRANCH   33   32
ENDBRANCH   35   33
ENDBRANCH   39   38
BRANCH   43   44
ATOM     44  C32 UNL A   1      13.291  32.361   0.960  1.00  0.00    +0.000 C 
ATOM     45  C33 UNL A   1      14.552  31.804   0.694  1.00  0.00    +0.000 C 
ATOM     46  F1  UNL A   1      14.656  30.689  -0.046  1.00  0.00    +0.000 F 
ATOM     47  C34 UNL A   1      15.711  32.363   1.226  1.00  0.00    +0.000 C 
ATOM     48  F2  UNL A   1      16.898  31.781   1.003  1.00  0.00    +0.000 F 
ATOM     49  C35 UNL A   1      15.638  33.514   1.997  1.00  0.00    +0.000 C 
ATOM     50  F3  UNL A   1      16.755  34.057   2.500  1.00  0.00    +0.000 F 
ATOM     51  C36 UNL A   1      14.407  34.097   2.252  1.00  0.00    +0.000 C 
ATOM     52  F4  UNL A   1      14.335  35.217   2.983  1.00  0.00    +0.000 F 
ATOM     53  C37 UNL A   1      13.242  33.518   1.752  1.00  0.00    +0.000 C 
ATOM     54  F5  UNL A   1      12.065  34.096   2.035  1.00  0.00    +0.000 F 
ENDBRANCH   43   44
BRANCH   60   61
ATOM     65  F7  UNL A   1       9.960  33.550  -8.124  1.00  0.00    +0.000 F 
ATOM     66  C46 UNL A   1       8.657  35.086  -6.892  1.00  0.00    +0.000 C 
ATOM     67  F8  UNL A   1       8.562  35.887  -7.964  1.00  0.00    +0.000 F 
ATOM     68  C47 UNL A   1       8.060  35.454  -5.696  1.00  0.00    +0.000 C 
ATOM     69  F9  UNL A   1       7.367  36.598  -5.617  1.00  0.00    +0.000 F 
ATOM     70  C48 UNL A   1       8.179  34.636  -4.577  1.00  0.00    +0.000 C 
ATOM     71  F10 UNL A   1       7.605  35.027  -3.430  1.00  0.00    +0.000 F 
ATOM     61  C43 UNL A   1       8.872  33.416  -4.642  1.00  0.00    +0.000 C 
ATOM     62  C44 UNL A   1       9.447  33.053  -5.869  1.00  0.00    +0.000 C 
ATOM     63  F6  UNL A   1      10.131  31.905  -5.981  1.00  0.00    +0.000 F 
ATOM     64  C45 UNL A   1       9.357  33.892  -6.977  1.00  0.00    +0.000 C 
ENDBRANCH   60   61
BRANCH   75   76
ATOM     76  C52 UNL A   1       4.745  28.307  -2.300  1.00  0.00    +0.000 C 
ATOM     77  C53 UNL A   1       4.724  27.298  -3.273  1.00  0.00    +0.000 C 
ATOM     78  F11 UNL A   1       5.875  26.847  -3.794  1.00  0.00    +0.000 F 
ATOM     79  C54 UNL A   1       3.521  26.780  -3.750  1.00  0.00    +0.000 C 
ATOM     80  F12 UNL A   1       3.530  25.855  -4.719  1.00  0.00    +0.000 F 
ATOM     81  C55 UNL A   1       2.316  27.233  -3.235  1.00  0.00    +0.000 C 
ATOM     82  F13 UNL A   1       1.160  26.733  -3.692  1.00  0.00    +0.000 F 
ATOM     83  C56 UNL A   1       2.311  28.213  -2.255  1.00  0.00    +0.000 C 
ATOM     84  F14 UNL A   1       1.150  28.643  -1.743  1.00  0.00    +0.000 F 
ATOM     85  C57 UNL A   1       3.512  28.756  -1.802  1.00  0.00    +0.000 C 
ATOM     86  F15 UNL A   1       3.475  29.714  -0.865  1.00  0.00    +0.000 F 
ENDBRANCH   75   76
TORSDOF 25
ENDMDL
MODEL 8
REMARK VINA RESULT:      -9.3     22.853     30.783
ROOT
ATOM    138  H33 UNL A   1      19.045  53.038  -1.559  1.00  0.00    +0.000 H 
ATOM    139  H34 UNL A   1      18.447  50.538  -1.992  1.00  0.00    +0.000 H 
ATOM    140  H35 UNL A   1      16.206  51.872   1.223  1.00  0.00    +0.000 H 
ATOM    141  H36 UNL A   1      12.133  50.646   5.987  1.00  0.00    +0.000 H 
ATOM    142  H37 UNL A   1      12.611  53.119   6.310  1.00  0.00    +0.000 H 
ATOM    143  H38 UNL A   1      14.832  51.812   3.050  1.00  0.00    +0.000 H 
ATOM    144  H39 UNL A   1      13.611  46.995   2.365  1.00  0.00    +0.000 H 
ATOM    145  H40 UNL A   1      15.352  46.958   0.492  1.00  0.00    +0.000 H 
ATOM    146  H41 UNL A   1      17.084  56.768   1.773  1.00  0.00    +0.000 H 
ATOM    147  H42 UNL A   1      15.758  56.707   3.962  1.00  0.00    +0.000 H 
ATOM     39  C28 UNL A   1      14.497  54.201   4.466  1.00  0.00    +0.000 C 
ATOM     40  C29 UNL A   1      15.451  54.544   3.356  1.00  0.00    +0.000 C 
ATOM     41  N3  UNL A   1      15.910  53.783   2.395  1.00  0.00    +0.000 N 
ATOM     42  C30 UNL A   1      16.722  54.602   1.623  1.00  0.00    +0.000 C 
ATOM     43  C31 UNL A   1      17.486  54.268   0.556  1.00  0.00    +0.000 C 
ATOM     55  C38 UNL A   1      17.572  52.938   0.013  1.00  0.00    +0.000 C 
ATOM     56  C39 UNL A   1      18.355  52.482  -1.032  1.00  0.00    +0.000 C 
ATOM     57  C40 UNL A   1      18.052  51.134  -1.248  1.00  0.00    +0.000 C 
ATOM     58  C41 UNL A   1      17.130  50.731  -0.294  1.00  0.00    +0.000 C 
ATOM     59  N4  UNL A   1      16.839  51.851   0.469  1.00  0.00    +0.000 N 
ATOM     60  C42 UNL A   1      16.559  49.423  -0.093  1.00  0.00    +0.000 C 
ATOM     72  C49 UNL A   1      15.664  49.103   0.873  1.00  0.00    +0.000 C 
ATOM     73  N5  UNL A   1      15.113  49.913   1.858  1.00  0.00    +0.000 N 
ATOM     74  C50 UNL A   1      14.293  49.149   2.537  1.00  0.00    +0.000 C 
ATOM     75  C51 UNL A   1      13.452  49.488   3.738  1.00  0.00    +0.000 C 
ATOM     87  C58 UNL A   1      13.504  50.736   4.239  1.00  0.00    +0.000 C 
ATOM     88  C59 UNL A   1      12.761  51.217   5.399  1.00  0.00    +0.000 C 
ATOM     89  C60 UNL A   1      13.024  52.521   5.578  1.00  0.00    +0.000 C 
ATOM     90  C61 UNL A   1      13.992  52.956   4.571  1.00  0.00    +0.000 C 
ATOM     91  N6  UNL A   1      14.218  51.832   3.818  1.00  0.00    +0.000 N 
ATOM     92  C62 UNL A   1      14.207  47.770   2.038  1.00  0.00    +0.000 C 
ATOM     93  C63 UNL A   1      15.096  47.784   1.055  1.00  0.00    +0.000 C 
ATOM     94  C64 UNL A   1      16.643  55.932   2.185  1.00  0.00    +0.000 C 
ATOM     95  C65 UNL A   1      15.931  55.933   3.302  1.00  0.00    +0.000 C 
ENDROOT
BRANCH   39   38
ATOM     97  C67 UNL A   1      12.648  57.135   5.953  1.00  0.00    +0.000 C 
ATOM     35  C24 UNL A   1      13.212  57.192   7.231  1.00  0.00    +0.000 C 
ATOM     36  C25 UNL A   1      14.248  56.330   7.590  1.00  0.00    +0.000 C 
ATOM     37  C26 UNL A   1      14.692  55.375   6.677  1.00  0.00    +0.000 C 
ATOM     38  C27 UNL A   1      14.068  55.247   5.424  1.00  0.00    +0.000 C 
ATOM    136  H31 UNL A   1      14.682  56.399   8.523  1.00  0.00    +0.000 H 
ATOM    137  H32 UNL A   1      15.483  54.758   6.922  1.00  0.00    +0.000 H 
ATOM    148  H43 UNL A   1      12.562  56.033   4.162  1.00  0.00    +0.000 H 
ATOM    149  H44 UNL A   1      11.949  57.837   5.663  1.00  0.00    +0.000 H 
ATOM     96  C66 UNL A   1      13.035  56.130   5.074  1.00  0.00    +0.000 C 
BRANCH   35   33
ATOM     33  C23 UNL A   1      12.698  58.137   8.241  1.00  0.00    +0.000 C 
ATOM     34  O9  UNL A   1      13.343  59.136   8.536  1.00  0.00    +0.000 O 
BRANCH   33   32
ATOM    135  H30 UNL A   1      10.707  58.243   8.455  1.00  0.00    +0.000 H 
ATOM     32  N2  UNL A   1      11.513  57.855   8.868  1.00  0.00    +0.000 N 
BRANCH   32   31
ATOM    133  H28 UNL A   1      10.796  56.155   9.780  1.00  0.00    +0.000 H 
ATOM    134  H29 UNL A   1      12.247  56.870  10.503  1.00  0.00    +0.000 H 
ATOM     31  C22 UNL A   1      11.291  57.061  10.061  1.00  0.00    +0.000 C 
BRANCH   31   30
ATOM    131  H26 UNL A   1      11.083  58.413  11.675  1.00  0.00    +0.000 H 
ATOM    132  H27 UNL A   1       9.692  58.313  10.556  1.00  0.00    +0.000 H 
ATOM     30  C21 UNL A   1      10.441  57.777  11.100  1.00  0.00    +0.000 C 
BRANCH   30   29
ATOM    129  H24 UNL A   1       8.655  57.117  12.031  1.00  0.00    +0.000 H 
ATOM    130  H25 UNL A   1       9.906  55.861  11.744  1.00  0.00    +0.000 H 
ATOM     29  C20 UNL A   1       9.693  56.858  12.068  1.00  0.00    +0.000 C 
BRANCH   29   28
ATOM     28  C19 UNL A   1      10.141  56.922  13.533  1.00  0.00    +0.000 C 
ATOM    127  H22 UNL A   1      11.087  57.420  13.566  1.00  0.00    +0.000 H 
ATOM    128  H23 UNL A   1       9.361  57.437  14.054  1.00  0.00    +0.000 H 
BRANCH   28   27
ATOM     27  C18 UNL A   1      10.295  55.574  14.241  1.00  0.00    +0.000 C 
ATOM    125  H20 UNL A   1       9.946  55.679  15.248  1.00  0.00    +0.000 H 
ATOM    126  H21 UNL A   1       9.723  54.861  13.684  1.00  0.00    +0.000 H 
BRANCH   27   26
ATOM     26  C17 UNL A   1      11.720  55.066  14.280  1.00  0.00    +0.000 C 
ATOM    123  H18 UNL A   1      12.370  55.831  13.910  1.00  0.00    +0.000 H 
ATOM    124  H19 UNL A   1      11.955  54.818  15.294  1.00  0.00    +0.000 H 
BRANCH   26   25
ATOM     25  N1  UNL A   1      11.891  53.877  13.477  1.00  0.00    +0.000 N 
ATOM    122  H17 UNL A   1      11.408  53.064  13.748  1.00  0.00    +0.000 H 
BRANCH   25   23
ATOM     23  C16 UNL A   1      12.679  53.809  12.365  1.00  0.00    +0.000 C 
ATOM     24  O8  UNL A   1      12.768  54.751  11.595  1.00  0.00    +0.000 O 
BRANCH   23   22
ATOM      2  C2  UNL A   1      11.316  48.536   9.543  1.00  0.00    +0.000 C 
ATOM      3  C3  UNL A   1      11.806  47.144   9.704  1.00  0.00    +0.000 C 
ATOM      4  O1  UNL A   1      11.259  46.133   9.329  1.00  0.00    +0.000 O 
ATOM      5  O2  UNL A   1      12.967  47.233  10.413  1.00  0.00    +0.000 O 
ATOM      6  C4  UNL A   1      13.228  48.610  10.793  1.00  0.00    +0.000 C 
ATOM      7  C5  UNL A   1      11.858  49.273  10.721  1.00  0.00    +0.000 C 
ATOM      8  C6  UNL A   1      11.729  50.800  10.827  1.00  0.00    +0.000 C 
ATOM     17  C12 UNL A   1      12.404  51.337  12.153  1.00  0.00    +0.000 C 
ATOM     22  C15 UNL A   1      13.388  52.500  12.134  1.00  0.00    +0.000 C 
ATOM    150  H45 UNL A   1      14.881  53.749  11.802  1.00  0.00    +0.000 H 
ATOM    152  H47 UNL A   1      17.218  50.204  10.977  1.00  0.00    +0.000 H 
ATOM    151  H46 UNL A   1      16.409  52.950  11.951  1.00  0.00    +0.000 H 
ATOM    156  H51 UNL A   1      13.582  49.281   9.146  1.00  0.00    +0.000 H 
ATOM     98  C68 UNL A   1      14.705  52.750  11.992  1.00  0.00    +0.000 C 
ATOM     99  C69 UNL A   1      15.950  51.986  12.034  1.00  0.00    +0.000 C 
ATOM    100  O10 UNL A   1      15.957  50.780  12.785  1.00  0.00    +0.000 O 
ATOM    101  C70 UNL A   1      16.365  50.661  11.435  1.00  0.00    +0.000 C 
ATOM    102  C71 UNL A   1      15.506  50.114  10.293  1.00  0.00    +0.000 C 
ATOM    104  O11 UNL A   1      15.600  48.674  10.244  1.00  0.00    +0.000 O 
ATOM    105  C73 UNL A   1      14.305  49.178   9.929  1.00  0.00    +0.000 C 
ATOM    108  H3  UNL A   1      13.624  48.759  11.776  1.00  0.00    +0.000 H 
ATOM    109  H4  UNL A   1      11.263  49.186  11.607  1.00  0.00    +0.000 H 
ATOM    110  H5  UNL A   1      10.688  51.038  10.904  1.00  0.00    +0.000 H 
ATOM    118  H13 UNL A   1      11.947  52.276  12.387  1.00  0.00    +0.000 H 
BRANCH    2    1
ATOM      1  C1  UNL A   1      10.653  48.906   8.445  1.00  0.00    +0.000 C 
ATOM    106  H1  UNL A   1       9.638  49.088   8.492  1.00  0.00    +0.000 H 
ATOM    107  H2  UNL A   1      11.154  49.010   7.549  1.00  0.00    +0.000 H 
ENDBRANCH    2    1
BRANCH    8    9
ATOM      9  O3  UNL A   1      12.168  51.477   9.631  1.00  0.00    +0.000 O 
BRANCH    9   10
ATOM     10  C7  UNL A   1      11.730  52.719   9.209  1.00  0.00    +0.000 C 
ATOM     11  O4  UNL A   1      12.524  53.418   8.585  1.00  0.00    +0.000 O 
BRANCH   10   12
ATOM    114  H9  UNL A   1       8.524  53.724   7.648  1.00  0.00    +0.000 H 
ATOM     12  C8  UNL A   1      10.241  53.032   9.117  1.00  0.00    +0.000 C 
ATOM     14  O5  UNL A   1       9.519  51.841   8.695  1.00  0.00    +0.000 O 
ATOM     15  C10 UNL A   1       9.259  52.994   7.916  1.00  0.00    +0.000 C 
BRANCH   12   13
ATOM    113  H8  UNL A   1       8.631  53.116  10.514  1.00  0.00    +0.000 H 
ATOM     13  C9  UNL A   1       9.617  53.521  10.417  1.00  0.00    +0.000 C 
ATOM    111  H6  UNL A   1       9.563  54.590  10.405  1.00  0.00    +0.000 H 
ATOM    112  H7  UNL A   1      10.217  53.203  11.244  1.00  0.00    +0.000 H 
ENDBRANCH   12   13
BRANCH   15   16
ATOM    115  H10 UNL A   1       9.209  51.747   6.232  1.00  0.00    +0.000 H 
ATOM    116  H11 UNL A   1      10.505  52.919   6.231  1.00  0.00    +0.000 H 
ATOM    117  H12 UNL A   1       8.865  53.427   5.903  1.00  0.00    +0.000 H 
ATOM     16  C11 UNL A   1       9.475  52.756   6.470  1.00  0.00    +0.000 C 
ENDBRANCH   15   16
ENDBRANCH   10   12
ENDBRANCH    9   10
ENDBRANCH    8    9
BRANCH   17   18
ATOM     18  O6  UNL A   1      12.171  50.518  13.367  1.00  0.00    +0.000 O 
BRANCH   18   19
ATOM     19  C13 UNL A   1      12.768  49.814  14.331  1.00  0.00    +0.000 C 
ATOM     21  O7  UNL A   1      13.616  50.358  15.037  1.00  0.00    +0.000 O 
BRANCH   19   20
ATOM    121  H16 UNL A   1      12.621  47.807  13.757  1.00  0.00    +0.000 H 
ATOM     20  C14 UNL A   1      12.391  48.413  14.608  1.00  0.00    +0.000 C 
ATOM    119  H14 UNL A   1      11.343  48.359  14.812  1.00  0.00    +0.000 H 
ATOM    120  H15 UNL A   1      12.939  48.058  15.456  1.00  0.00    +0.000 H 
ENDBRANCH   19   20
ENDBRANCH   18   19
ENDBRANCH   17   18
BRANCH  102  103
ATOM    153  H48 UNL A   1      15.809  51.794   9.006  1.00  0.00    +0.000 H 
ATOM    154  H49 UNL A   1      15.613  50.276   8.164  1.00  0.00    +0.000 H 
ATOM    155  H50 UNL A   1      17.115  50.632   8.984  1.00  0.00    +0.000 H 
ATOM    103  C72 UNL A   1      16.051  50.752   9.015  1.00  0.00    +0.000 C 
ENDBRANCH  102  103
ENDBRANCH   23   22
ENDBRANCH   25   23
ENDBRANCH   26   25
ENDBRANCH   27   26
ENDBRANCH   28   27
ENDBRANCH   29   28
ENDBRANCH   30   29
ENDBRANCH   31   30
ENDBRANCH   32   31
ENDBRANCH   33   32
ENDBRANCH   35   33
ENDBRANCH   39   38
BRANCH   43   44
ATOM     44  C32 UNL A   1      18.289  55.359  -0.096  1.00  0.00    +0.000 C 
ATOM     45  C33 UNL A   1      19.493  55.823   0.458  1.00  0.00    +0.000 C 
ATOM     46  F1  UNL A   1      19.938  55.324   1.622  1.00  0.00    +0.000 F 
ATOM     47  C34 UNL A   1      20.223  56.835  -0.158  1.00  0.00    +0.000 C 
ATOM     48  F2  UNL A   1      21.341  57.300   0.419  1.00  0.00    +0.000 F 
ATOM     49  C35 UNL A   1      19.790  57.373  -1.360  1.00  0.00    +0.000 C 
ATOM     50  F3  UNL A   1      20.500  58.340  -1.958  1.00  0.00    +0.000 F 
ATOM     51  C36 UNL A   1      18.619  56.913  -1.940  1.00  0.00    +0.000 C 
ATOM     52  F4  UNL A   1      18.206  57.420  -3.109  1.00  0.00    +0.000 F 
ATOM     53  C37 UNL A   1      17.866  55.926  -1.307  1.00  0.00    +0.000 C 
ATOM     54  F5  UNL A   1      16.725  55.518  -1.884  1.00  0.00    +0.000 F 
ENDBRANCH   43   44
BRANCH   60   61
ATOM     65  F7  UNL A   1      16.057  46.652  -4.110  1.00  0.00    +0.000 F 
ATOM     66  C46 UNL A   1      17.929  46.287  -2.718  1.00  0.00    +0.000 C 
ATOM     67  F8  UNL A   1      18.361  45.311  -3.530  1.00  0.00    +0.000 F 
ATOM     68  C47 UNL A   1      18.643  46.602  -1.572  1.00  0.00    +0.000 C 
ATOM     69  F9  UNL A   1      19.779  45.949  -1.289  1.00  0.00    +0.000 F 
ATOM     70  C48 UNL A   1      18.183  47.596  -0.715  1.00  0.00    +0.000 C 
ATOM     71  F10 UNL A   1      18.887  47.867   0.394  1.00  0.00    +0.000 F 
ATOM     61  C43 UNL A   1      17.013  48.318  -1.005  1.00  0.00    +0.000 C 
ATOM     62  C44 UNL A   1      16.320  47.998  -2.182  1.00  0.00    +0.000 C 
ATOM     63  F6  UNL A   1      15.191  48.647  -2.499  1.00  0.00    +0.000 F 
ATOM     64  C45 UNL A   1      16.764  46.977  -3.019  1.00  0.00    +0.000 C 
ENDBRANCH   60   61
BRANCH   75   76
ATOM     76  C52 UNL A   1      12.587  48.463   4.381  1.00  0.00    +0.000 C 
ATOM     77  C53 UNL A   1      13.102  47.582   5.342  1.00  0.00    +0.000 C 
ATOM     78  F11 UNL A   1      14.397  47.651   5.687  1.00  0.00    +0.000 F 
ATOM     79  C54 UNL A   1      12.304  46.596   5.919  1.00  0.00    +0.000 C 
ATOM     80  F12 UNL A   1      12.837  45.733   6.794  1.00  0.00    +0.000 F 
ATOM     81  C55 UNL A   1      10.965  46.495   5.574  1.00  0.00    +0.000 C 
ATOM     82  F13 UNL A   1      10.197  45.549   6.130  1.00  0.00    +0.000 F 
ATOM     83  C56 UNL A   1      10.425  47.371   4.644  1.00  0.00    +0.000 C 
ATOM     84  F14 UNL A   1       9.128  47.288   4.319  1.00  0.00    +0.000 F 
ATOM     85  C57 UNL A   1      11.231  48.335   4.042  1.00  0.00    +0.000 C 
ATOM     86  F15 UNL A   1      10.685  49.156   3.133  1.00  0.00    +0.000 F 
ENDBRANCH   75   76
TORSDOF 25
ENDMDL
MODEL 9
REMARK VINA RESULT:      -9.2     33.660     40.085
ROOT
ATOM    138  H33 UNL A   1      60.273  17.738  13.271  1.00  0.00    +0.000 H 
ATOM    139  H34 UNL A   1      60.397  18.742  15.674  1.00  0.00    +0.000 H 
ATOM    140  H35 UNL A   1      56.638  19.528  14.129  1.00  0.00    +0.000 H 
ATOM    141  H36 UNL A   1      50.950  22.385  14.657  1.00  0.00    +0.000 H 
ATOM    142  H37 UNL A   1      50.787  21.279  12.378  1.00  0.00    +0.000 H 
ATOM    143  H38 UNL A   1      54.549  20.437  13.931  1.00  0.00    +0.000 H 
ATOM    144  H39 UNL A   1      54.652  22.458  18.522  1.00  0.00    +0.000 H 
ATOM    145  H40 UNL A   1      57.089  21.694  18.658  1.00  0.00    +0.000 H 
ATOM    146  H41 UNL A   1      56.303  17.249   9.686  1.00  0.00    +0.000 H 
ATOM    147  H42 UNL A   1      54.068  18.437   9.303  1.00  0.00    +0.000 H 
ATOM     39  C28 UNL A   1      53.151  19.906  11.567  1.00  0.00    +0.000 C 
ATOM     40  C29 UNL A   1      54.471  19.207  11.397  1.00  0.00    +0.000 C 
ATOM     41  N3  UNL A   1      55.476  19.122  12.231  1.00  0.00    +0.000 N 
ATOM     42  C30 UNL A   1      56.425  18.334  11.597  1.00  0.00    +0.000 C 
ATOM     43  C31 UNL A   1      57.673  18.014  12.017  1.00  0.00    +0.000 C 
ATOM     55  C38 UNL A   1      58.239  18.454  13.264  1.00  0.00    +0.000 C 
ATOM     56  C39 UNL A   1      59.511  18.231  13.760  1.00  0.00    +0.000 C 
ATOM     57  C40 UNL A   1      59.584  18.791  15.039  1.00  0.00    +0.000 C 
ATOM     58  C41 UNL A   1      58.382  19.423  15.314  1.00  0.00    +0.000 C 
ATOM     59  N4  UNL A   1      57.563  19.203  14.218  1.00  0.00    +0.000 N 
ATOM     60  C42 UNL A   1      58.009  20.174  16.486  1.00  0.00    +0.000 C 
ATOM     72  C49 UNL A   1      56.809  20.774  16.678  1.00  0.00    +0.000 C 
ATOM     73  N5  UNL A   1      55.707  20.816  15.835  1.00  0.00    +0.000 N 
ATOM     74  C50 UNL A   1      54.790  21.502  16.471  1.00  0.00    +0.000 C 
ATOM     75  C51 UNL A   1      53.407  21.891  16.020  1.00  0.00    +0.000 C 
ATOM     87  C58 UNL A   1      52.991  21.515  14.797  1.00  0.00    +0.000 C 
ATOM     88  C59 UNL A   1      51.690  21.820  14.211  1.00  0.00    +0.000 C 
ATOM     89  C60 UNL A   1      51.609  21.247  13.001  1.00  0.00    +0.000 C 
ATOM     90  C61 UNL A   1      52.873  20.570  12.706  1.00  0.00    +0.000 C 
ATOM     91  N6  UNL A   1      53.633  20.781  13.829  1.00  0.00    +0.000 N 
ATOM     92  C62 UNL A   1      55.197  21.947  17.811  1.00  0.00    +0.000 C 
ATOM     93  C63 UNL A   1      56.450  21.519  17.867  1.00  0.00    +0.000 C 
ATOM     94  C64 UNL A   1      55.854  17.910  10.338  1.00  0.00    +0.000 C 
ATOM     95  C65 UNL A   1      54.678  18.484  10.133  1.00  0.00    +0.000 C 
ENDROOT
BRANCH   39   38
ATOM     97  C67 UNL A   1      50.318  18.624   9.430  1.00  0.00    +0.000 C 
ATOM     35  C24 UNL A   1      50.161  19.678   8.526  1.00  0.00    +0.000 C 
ATOM     36  C25 UNL A   1      51.023  20.775   8.556  1.00  0.00    +0.000 C 
ATOM     37  C26 UNL A   1      52.021  20.835   9.526  1.00  0.00    +0.000 C 
ATOM     38  C27 UNL A   1      52.127  19.826  10.499  1.00  0.00    +0.000 C 
ATOM    136  H31 UNL A   1      50.922  21.534   7.865  1.00  0.00    +0.000 H 
ATOM    137  H32 UNL A   1      52.685  21.625   9.531  1.00  0.00    +0.000 H 
ATOM    148  H43 UNL A   1      51.321  17.987  11.167  1.00  0.00    +0.000 H 
ATOM    149  H44 UNL A   1      49.738  17.774   9.342  1.00  0.00    +0.000 H 
ATOM     96  C66 UNL A   1      51.260  18.725  10.448  1.00  0.00    +0.000 C 
BRANCH   35   33
ATOM     33  C23 UNL A   1      49.057  19.676   7.547  1.00  0.00    +0.000 C 
ATOM     34  O9  UNL A   1      47.933  20.031   7.883  1.00  0.00    +0.000 O 
BRANCH   33   32
ATOM    135  H30 UNL A   1      49.768  19.871   5.681  1.00  0.00    +0.000 H 
ATOM     32  N2  UNL A   1      49.303  19.235   6.273  1.00  0.00    +0.000 N 
BRANCH   32   31
ATOM    133  H28 UNL A   1      47.968  17.697   5.971  1.00  0.00    +0.000 H 
ATOM    134  H29 UNL A   1      49.062  18.052   4.622  1.00  0.00    +0.000 H 
ATOM     31  C22 UNL A   1      48.967  17.953   5.683  1.00  0.00    +0.000 C 
BRANCH   31   30
ATOM    131  H26 UNL A   1      49.913  16.813   7.194  1.00  0.00    +0.000 H 
ATOM    132  H27 UNL A   1      49.521  15.937   5.686  1.00  0.00    +0.000 H 
ATOM     30  C21 UNL A   1      49.901  16.835   6.124  1.00  0.00    +0.000 C 
BRANCH   30   29
ATOM    129  H24 UNL A   1      51.691  15.997   5.358  1.00  0.00    +0.000 H 
ATOM    130  H25 UNL A   1      51.314  17.671   4.828  1.00  0.00    +0.000 H 
ATOM     29  C20 UNL A   1      51.345  16.971   5.637  1.00  0.00    +0.000 C 
BRANCH   29   28
ATOM     28  C19 UNL A   1      52.342  17.551   6.648  1.00  0.00    +0.000 C 
ATOM    127  H22 UNL A   1      53.179  17.932   6.102  1.00  0.00    +0.000 H 
ATOM    128  H23 UNL A   1      51.802  18.297   7.194  1.00  0.00    +0.000 H 
BRANCH   28   27
ATOM     27  C18 UNL A   1      52.872  16.571   7.697  1.00  0.00    +0.000 C 
ATOM    125  H20 UNL A   1      53.347  17.132   8.475  1.00  0.00    +0.000 H 
ATOM    126  H21 UNL A   1      52.033  16.010   8.054  1.00  0.00    +0.000 H 
BRANCH   27   26
ATOM     26  C17 UNL A   1      53.870  15.574   7.148  1.00  0.00    +0.000 C 
ATOM    123  H18 UNL A   1      53.625  14.600   7.517  1.00  0.00    +0.000 H 
ATOM    124  H19 UNL A   1      53.817  15.606   6.080  1.00  0.00    +0.000 H 
BRANCH   26   25
ATOM     25  N1  UNL A   1      55.224  15.895   7.538  1.00  0.00    +0.000 N 
ATOM    122  H17 UNL A   1      55.355  16.399   8.373  1.00  0.00    +0.000 H 
BRANCH   25   23
ATOM     23  C16 UNL A   1      56.332  15.544   6.824  1.00  0.00    +0.000 C 
ATOM     24  O8  UNL A   1      56.651  14.375   6.686  1.00  0.00    +0.000 O 
BRANCH   23   22
ATOM      2  C2  UNL A   1      58.643  16.953   1.320  1.00  0.00    +0.000 C 
ATOM      3  C3  UNL A   1      59.782  17.800   0.885  1.00  0.00    +0.000 C 
ATOM      4  O1  UNL A   1      60.348  17.765  -0.183  1.00  0.00    +0.000 O 
ATOM      5  O2  UNL A   1      60.097  18.585   1.954  1.00  0.00    +0.000 O 
ATOM      6  C4  UNL A   1      59.270  18.243   3.098  1.00  0.00    +0.000 C 
ATOM      7  C5  UNL A   1      58.801  16.826   2.797  1.00  0.00    +0.000 C 
ATOM      8  C6  UNL A   1      57.708  16.172   3.656  1.00  0.00    +0.000 C 
ATOM     17  C12 UNL A   1      58.105  16.184   5.188  1.00  0.00    +0.000 C 
ATOM     22  C15 UNL A   1      57.143  16.681   6.258  1.00  0.00    +0.000 C 
ATOM    150  H45 UNL A   1      55.883  17.701   7.387  1.00  0.00    +0.000 H 
ATOM    152  H47 UNL A   1      57.925  21.213   5.903  1.00  0.00    +0.000 H 
ATOM    151  H46 UNL A   1      56.497  19.280   7.738  1.00  0.00    +0.000 H 
ATOM    156  H51 UNL A   1      57.680  18.849   2.472  1.00  0.00    +0.000 H 
ATOM     98  C68 UNL A   1      56.780  17.816   6.890  1.00  0.00    +0.000 C 
ATOM     99  C69 UNL A   1      57.315  19.165   7.057  1.00  0.00    +0.000 C 
ATOM    100  O10 UNL A   1      58.719  19.337   6.923  1.00  0.00    +0.000 O 
ATOM    101  C70 UNL A   1      57.921  20.160   6.093  1.00  0.00    +0.000 C 
ATOM    102  C71 UNL A   1      57.660  19.930   4.602  1.00  0.00    +0.000 C 
ATOM    104  O11 UNL A   1      58.725  20.506   3.815  1.00  0.00    +0.000 O 
ATOM    105  C73 UNL A   1      58.216  19.283   3.289  1.00  0.00    +0.000 C 
ATOM    108  H3  UNL A   1      59.762  18.241   4.049  1.00  0.00    +0.000 H 
ATOM    109  H4  UNL A   1      59.471  16.049   3.103  1.00  0.00    +0.000 H 
ATOM    110  H5  UNL A   1      57.639  15.142   3.373  1.00  0.00    +0.000 H 
ATOM    118  H13 UNL A   1      57.564  15.393   5.664  1.00  0.00    +0.000 H 
BRANCH    2    1
ATOM      1  C1  UNL A   1      57.696  16.581   0.454  1.00  0.00    +0.000 C 
ATOM    106  H1  UNL A   1      57.853  15.769  -0.164  1.00  0.00    +0.000 H 
ATOM    107  H2  UNL A   1      56.809  17.104   0.403  1.00  0.00    +0.000 H 
ENDBRANCH    2    1
BRANCH    8    9
ATOM      9  O3  UNL A   1      56.397  16.711   3.387  1.00  0.00    +0.000 O 
BRANCH    9   10
ATOM     10  C7  UNL A   1      55.210  16.006   3.477  1.00  0.00    +0.000 C 
ATOM     11  O4  UNL A   1      54.249  16.578   3.988  1.00  0.00    +0.000 O 
BRANCH   10   12
ATOM    114  H9  UNL A   1      53.302  13.266   1.872  1.00  0.00    +0.000 H 
ATOM     12  C8  UNL A   1      54.962  14.779   2.608  1.00  0.00    +0.000 C 
ATOM     14  O5  UNL A   1      54.542  15.201   1.280  1.00  0.00    +0.000 O 
ATOM     15  C10 UNL A   1      53.678  14.268   1.901  1.00  0.00    +0.000 C 
BRANCH   12   13
ATOM    113  H8  UNL A   1      56.775  13.917   3.328  1.00  0.00    +0.000 H 
ATOM     13  C9  UNL A   1      56.168  13.864   2.449  1.00  0.00    +0.000 C 
ATOM    111  H6  UNL A   1      56.741  14.176   1.600  1.00  0.00    +0.000 H 
ATOM    112  H7  UNL A   1      55.836  12.857   2.304  1.00  0.00    +0.000 H 
ENDBRANCH   12   13
BRANCH   15   16
ATOM    115  H10 UNL A   1      52.260  15.807   2.016  1.00  0.00    +0.000 H 
ATOM    116  H11 UNL A   1      51.777  14.314   2.785  1.00  0.00    +0.000 H 
ATOM    117  H12 UNL A   1      51.774  14.441   1.041  1.00  0.00    +0.000 H 
ATOM     16  C11 UNL A   1      52.275  14.740   1.938  1.00  0.00    +0.000 C 
ENDBRANCH   15   16
ENDBRANCH   10   12
ENDBRANCH    9   10
ENDBRANCH    8    9
BRANCH   17   18
ATOM     18  O6  UNL A   1      59.524  15.870   5.483  1.00  0.00    +0.000 O 
BRANCH   18   19
ATOM     19  C13 UNL A   1      60.518  15.013   5.242  1.00  0.00    +0.000 C 
ATOM     21  O7  UNL A   1      61.592  15.441   4.821  1.00  0.00    +0.000 O 
BRANCH   19   20
ATOM    121  H16 UNL A   1      61.347  13.118   5.561  1.00  0.00    +0.000 H 
ATOM     20  C14 UNL A   1      60.378  13.571   5.524  1.00  0.00    +0.000 C 
ATOM    119  H14 UNL A   1      59.800  13.110   4.751  1.00  0.00    +0.000 H 
ATOM    120  H15 UNL A   1      59.887  13.438   6.466  1.00  0.00    +0.000 H 
ENDBRANCH   19   20
ENDBRANCH   18   19
ENDBRANCH   17   18
BRANCH  102  103
ATOM    153  H48 UNL A   1      56.256  21.525   4.840  1.00  0.00    +0.000 H 
ATOM    154  H49 UNL A   1      55.522  19.957   4.604  1.00  0.00    +0.000 H 
ATOM    155  H50 UNL A   1      56.245  20.795   3.252  1.00  0.00    +0.000 H 
ATOM    103  C72 UNL A   1      56.320  20.602   4.302  1.00  0.00    +0.000 C 
ENDBRANCH  102  103
ENDBRANCH   23   22
ENDBRANCH   25   23
ENDBRANCH   26   25
ENDBRANCH   27   26
ENDBRANCH   28   27
ENDBRANCH   29   28
ENDBRANCH   30   29
ENDBRANCH   31   30
ENDBRANCH   32   31
ENDBRANCH   33   32
ENDBRANCH   35   33
ENDBRANCH   39   38
BRANCH   43   44
ATOM     44  C32 UNL A   1      58.508  17.145  11.119  1.00  0.00    +0.000 C 
ATOM     45  C33 UNL A   1      58.531  15.747  11.256  1.00  0.00    +0.000 C 
ATOM     46  F1  UNL A   1      57.830  15.152  12.233  1.00  0.00    +0.000 F 
ATOM     47  C34 UNL A   1      59.312  14.957  10.416  1.00  0.00    +0.000 C 
ATOM     48  F2  UNL A   1      59.360  13.630  10.602  1.00  0.00    +0.000 F 
ATOM     49  C35 UNL A   1      60.049  15.541   9.398  1.00  0.00    +0.000 C 
ATOM     50  F3  UNL A   1      60.793  14.778   8.584  1.00  0.00    +0.000 F 
ATOM     51  C36 UNL A   1      60.023  16.916   9.227  1.00  0.00    +0.000 C 
ATOM     52  F4  UNL A   1      60.722  17.481   8.235  1.00  0.00    +0.000 F 
ATOM     53  C37 UNL A   1      59.272  17.713  10.089  1.00  0.00    +0.000 C 
ATOM     54  F5  UNL A   1      59.284  19.043   9.909  1.00  0.00    +0.000 F 
ENDBRANCH   43   44
BRANCH   60   61
ATOM     65  F7  UNL A   1      61.473  22.752  18.814  1.00  0.00    +0.000 F 
ATOM     66  C46 UNL A   1      60.914  20.613  19.644  1.00  0.00    +0.000 C 
ATOM     67  F8  UNL A   1      61.815  20.744  20.628  1.00  0.00    +0.000 F 
ATOM     68  C47 UNL A   1      60.168  19.450  19.536  1.00  0.00    +0.000 C 
ATOM     69  F9  UNL A   1      60.330  18.465  20.430  1.00  0.00    +0.000 F 
ATOM     70  C48 UNL A   1      59.252  19.302  18.499  1.00  0.00    +0.000 C 
ATOM     71  F10 UNL A   1      58.557  18.158  18.412  1.00  0.00    +0.000 F 
ATOM     61  C43 UNL A   1      59.040  20.332  17.568  1.00  0.00    +0.000 C 
ATOM     62  C44 UNL A   1      59.788  21.510  17.712  1.00  0.00    +0.000 C 
ATOM     63  F6  UNL A   1      59.634  22.518  16.841  1.00  0.00    +0.000 F 
ATOM     64  C45 UNL A   1      60.731  21.639  18.728  1.00  0.00    +0.000 C 
ENDBRANCH   60   61
BRANCH   75   76
ATOM     76  C52 UNL A   1      52.514  22.694  16.897  1.00  0.00    +0.000 C 
ATOM     77  C53 UNL A   1      52.459  24.090  16.790  1.00  0.00    +0.000 C 
ATOM     78  F11 UNL A   1      53.228  24.722  15.890  1.00  0.00    +0.000 F 
ATOM     79  C54 UNL A   1      51.651  24.848  17.634  1.00  0.00    +0.000 C 
ATOM     80  F12 UNL A   1      51.660  26.185  17.544  1.00  0.00    +0.000 F 
ATOM     81  C55 UNL A   1      50.852  24.222  18.578  1.00  0.00    +0.000 C 
ATOM     82  F13 UNL A   1      50.073  24.951  19.389  1.00  0.00    +0.000 F 
ATOM     83  C56 UNL A   1      50.869  22.840  18.688  1.00  0.00    +0.000 C 
ATOM     84  F14 UNL A   1      50.087  22.229  19.588  1.00  0.00    +0.000 F 
ATOM     85  C57 UNL A   1      51.702  22.084  17.867  1.00  0.00    +0.000 C 
ATOM     86  F15 UNL A   1      51.711  20.751  18.008  1.00  0.00    +0.000 F 
ENDBRANCH   75   76
TORSDOF 25
ENDMDL
MODEL 10
REMARK VINA RESULT:      -9.1     55.359     60.979
ROOT
ATOM    138  H33 UNL A   1      45.717  14.338  42.682  1.00  0.00    +0.000 H 
ATOM    139  H34 UNL A   1      47.489  16.215  42.321  1.00  0.00    +0.000 H 
ATOM    140  H35 UNL A   1      45.457  17.004  45.840  1.00  0.00    +0.000 H 
ATOM    141  H36 UNL A   1      44.290  20.882  50.779  1.00  0.00    +0.000 H 
ATOM    142  H37 UNL A   1      42.669  18.973  51.199  1.00  0.00    +0.000 H 
ATOM    143  H38 UNL A   1      44.731  18.138  47.688  1.00  0.00    +0.000 H 
ATOM    144  H39 UNL A   1      48.064  21.844  47.109  1.00  0.00    +0.000 H 
ATOM    145  H40 UNL A   1      48.702  20.742  44.890  1.00  0.00    +0.000 H 
ATOM    146  H41 UNL A   1      42.347  13.178  46.701  1.00  0.00    +0.000 H 
ATOM    147  H42 UNL A   1      41.325  14.511  48.634  1.00  0.00    +0.000 H 
ATOM     39  C28 UNL A   1      42.695  16.948  49.192  1.00  0.00    +0.000 C 
ATOM     40  C29 UNL A   1      42.937  15.997  48.054  1.00  0.00    +0.000 C 
ATOM     41  N3  UNL A   1      43.811  16.074  47.082  1.00  0.00    +0.000 N 
ATOM     42  C30 UNL A   1      43.639  14.921  46.330  1.00  0.00    +0.000 C 
ATOM     43  C31 UNL A   1      44.254  14.568  45.176  1.00  0.00    +0.000 C 
ATOM     55  C38 UNL A   1      45.248  15.371  44.515  1.00  0.00    +0.000 C 
ATOM     56  C39 UNL A   1      45.894  15.131  43.316  1.00  0.00    +0.000 C 
ATOM     57  C40 UNL A   1      46.827  16.152  43.111  1.00  0.00    +0.000 C 
ATOM     58  C41 UNL A   1      46.716  17.065  44.148  1.00  0.00    +0.000 C 
ATOM     59  N4  UNL A   1      45.748  16.570  45.006  1.00  0.00    +0.000 N 
ATOM     60  C42 UNL A   1      47.438  18.299  44.339  1.00  0.00    +0.000 C 
ATOM     72  C49 UNL A   1      47.266  19.148  45.381  1.00  0.00    +0.000 C 
ATOM     73  N5  UNL A   1      46.394  19.048  46.457  1.00  0.00    +0.000 N 
ATOM     74  C50 UNL A   1      46.612  20.105  47.200  1.00  0.00    +0.000 C 
ATOM     75  C51 UNL A   1      45.930  20.532  48.472  1.00  0.00    +0.000 C 
ATOM     87  C58 UNL A   1      44.943  19.766  48.971  1.00  0.00    +0.000 C 
ATOM     88  C59 UNL A   1      44.180  20.047  50.183  1.00  0.00    +0.000 C 
ATOM     89  C60 UNL A   1      43.314  19.045  50.397  1.00  0.00    +0.000 C 
ATOM     90  C61 UNL A   1      43.430  18.071  49.310  1.00  0.00    +0.000 C 
ATOM     91  N6  UNL A   1      44.422  18.581  48.511  1.00  0.00    +0.000 N 
ATOM     92  C62 UNL A   1      47.675  20.984  46.693  1.00  0.00    +0.000 C 
ATOM     93  C63 UNL A   1      48.006  20.380  45.560  1.00  0.00    +0.000 C 
ATOM     94  C64 UNL A   1      42.628  14.128  46.991  1.00  0.00    +0.000 C 
ATOM     95  C65 UNL A   1      42.108  14.782  48.019  1.00  0.00    +0.000 C 
ENDROOT
BRANCH   39   38
ATOM     97  C67 UNL A   1      39.418  16.869  51.062  1.00  0.00    +0.000 C 
ATOM     35  C24 UNL A   1      39.728  16.005  52.117  1.00  0.00    +0.000 C 
ATOM     36  C25 UNL A   1      41.022  15.506  52.270  1.00  0.00    +0.000 C 
ATOM     37  C26 UNL A   1      42.000  15.840  51.336  1.00  0.00    +0.000 C 
ATOM     38  C27 UNL A   1      41.676  16.630  50.220  1.00  0.00    +0.000 C 
ATOM    136  H31 UNL A   1      41.252  14.895  53.069  1.00  0.00    +0.000 H 
ATOM    137  H32 UNL A   1      42.968  15.504  51.463  1.00  0.00    +0.000 H 
ATOM    148  H43 UNL A   1      40.123  17.702  49.263  1.00  0.00    +0.000 H 
ATOM    149  H44 UNL A   1      38.486  17.308  51.008  1.00  0.00    +0.000 H 
ATOM     96  C66 UNL A   1      40.373  17.133  50.086  1.00  0.00    +0.000 C 
BRANCH   35   33
ATOM     33  C23 UNL A   1      38.687  15.570  53.067  1.00  0.00    +0.000 C 
ATOM     34  O9  UNL A   1      37.755  16.315  53.345  1.00  0.00    +0.000 O 
BRANCH   33   32
ATOM    135  H30 UNL A   1      39.486  13.742  53.275  1.00  0.00    +0.000 H 
ATOM     32  N2  UNL A   1      38.803  14.339  53.658  1.00  0.00    +0.000 N 
BRANCH   32   31
ATOM    133  H28 UNL A   1      37.090  14.278  54.798  1.00  0.00    +0.000 H 
ATOM    134  H29 UNL A   1      37.963  12.745  54.626  1.00  0.00    +0.000 H 
ATOM     31  C22 UNL A   1      38.049  13.801  54.774  1.00  0.00    +0.000 C 
BRANCH   31   30
ATOM    131  H26 UNL A   1      38.326  14.907  56.556  1.00  0.00    +0.000 H 
ATOM    132  H27 UNL A   1      38.557  13.139  56.691  1.00  0.00    +0.000 H 
ATOM     30  C21 UNL A   1      38.735  14.022  56.114  1.00  0.00    +0.000 C 
BRANCH   30   29
ATOM    129  H24 UNL A   1      40.488  14.681  55.122  1.00  0.00    +0.000 H 
ATOM    130  H25 UNL A   1      40.528  14.740  56.916  1.00  0.00    +0.000 H 
ATOM     29  C20 UNL A   1      40.255  14.186  56.042  1.00  0.00    +0.000 C 
BRANCH   29   28
ATOM     28  C19 UNL A   1      41.072  12.890  56.100  1.00  0.00    +0.000 C 
ATOM    127  H22 UNL A   1      41.928  13.069  56.716  1.00  0.00    +0.000 H 
ATOM    128  H23 UNL A   1      40.409  12.144  56.483  1.00  0.00    +0.000 H 
BRANCH   28   27
ATOM     27  C18 UNL A   1      41.567  12.355  54.754  1.00  0.00    +0.000 C 
ATOM    125  H20 UNL A   1      41.164  11.374  54.612  1.00  0.00    +0.000 H 
ATOM    126  H21 UNL A   1      41.237  13.043  54.004  1.00  0.00    +0.000 H 
BRANCH   27   26
ATOM     26  C17 UNL A   1      43.075  12.273  54.649  1.00  0.00    +0.000 C 
ATOM    123  H18 UNL A   1      43.408  12.973  53.912  1.00  0.00    +0.000 H 
ATOM    124  H19 UNL A   1      43.486  12.499  55.610  1.00  0.00    +0.000 H 
BRANCH   26   25
ATOM     25  N1  UNL A   1      43.518  10.950  54.272  1.00  0.00    +0.000 N 
ATOM    122  H17 UNL A   1      43.920  10.384  54.969  1.00  0.00    +0.000 H 
BRANCH   25   23
ATOM     23  C16 UNL A   1      43.415  10.435  53.013  1.00  0.00    +0.000 C 
ATOM     24  O8  UNL A   1      42.560   9.609  52.737  1.00  0.00    +0.000 O 
BRANCH   23   22
ATOM      2  C2  UNL A   1      49.027   8.664  51.286  1.00  0.00    +0.000 C 
ATOM      3  C3  UNL A   1      50.168   9.378  50.661  1.00  0.00    +0.000 C 
ATOM      4  O1  UNL A   1      51.326   9.029  50.649  1.00  0.00    +0.000 O 
ATOM      5  O2  UNL A   1      49.656  10.535  50.154  1.00  0.00    +0.000 O 
ATOM      6  C4  UNL A   1      48.245  10.654  50.481  1.00  0.00    +0.000 C 
ATOM      7  C5  UNL A   1      48.073   9.738  51.686  1.00  0.00    +0.000 C 
ATOM      8  C6  UNL A   1      46.668   9.396  52.205  1.00  0.00    +0.000 C 
ATOM     17  C12 UNL A   1      45.849  10.709  52.535  1.00  0.00    +0.000 C 
ATOM     22  C15 UNL A   1      44.433  10.918  52.014  1.00  0.00    +0.000 C 
ATOM    150  H45 UNL A   1      42.791  11.109  50.932  1.00  0.00    +0.000 H 
ATOM    152  H47 UNL A   1      45.428  12.464  47.783  1.00  0.00    +0.000 H 
ATOM    151  H46 UNL A   1      43.036  12.202  49.614  1.00  0.00    +0.000 H 
ATOM    156  H51 UNL A   1      47.613   9.315  49.436  1.00  0.00    +0.000 H 
ATOM     98  C68 UNL A   1      43.777  11.414  50.945  1.00  0.00    +0.000 C 
ATOM     99  C69 UNL A   1      44.088  12.265  49.799  1.00  0.00    +0.000 C 
ATOM    100  O10 UNL A   1      45.170  13.177  49.931  1.00  0.00    +0.000 O 
ATOM    101  C70 UNL A   1      45.243  12.298  48.824  1.00  0.00    +0.000 C 
ATOM    102  C71 UNL A   1      46.120  11.046  48.742  1.00  0.00    +0.000 C 
ATOM    104  O11 UNL A   1      47.450  11.396  48.302  1.00  0.00    +0.000 O 
ATOM    105  C73 UNL A   1      47.419  10.354  49.274  1.00  0.00    +0.000 C 
ATOM    108  H3  UNL A   1      47.908  11.633  50.751  1.00  0.00    +0.000 H 
ATOM    109  H4  UNL A   1      48.288  10.187  52.634  1.00  0.00    +0.000 H 
ATOM    110  H5  UNL A   1      46.779   8.872  53.132  1.00  0.00    +0.000 H 
ATOM    118  H13 UNL A   1      45.097  10.446  53.249  1.00  0.00    +0.000 H 
BRANCH    2    1
ATOM      1  C1  UNL A   1      48.971   7.329  51.287  1.00  0.00    +0.000 C 
ATOM    106  H1  UNL A   1      49.449   6.794  52.029  1.00  0.00    +0.000 H 
ATOM    107  H2  UNL A   1      48.452   6.834  50.546  1.00  0.00    +0.000 H 
ENDBRANCH    2    1
BRANCH    8    9
ATOM      9  O3  UNL A   1      45.971   8.471  51.346  1.00  0.00    +0.000 O 
BRANCH    9   10
ATOM     10  C7  UNL A   1      45.279   7.352  51.772  1.00  0.00    +0.000 C 
ATOM     11  O4  UNL A   1      44.976   7.291  52.962  1.00  0.00    +0.000 O 
BRANCH   10   12
ATOM    114  H9  UNL A   1      42.569   5.205  50.442  1.00  0.00    +0.000 H 
ATOM     12  C8  UNL A   1      44.540   6.464  50.777  1.00  0.00    +0.000 C 
ATOM     14  O5  UNL A   1      43.630   7.277  49.983  1.00  0.00    +0.000 O 
ATOM     15  C10 UNL A   1      43.028   6.157  50.606  1.00  0.00    +0.000 C 
BRANCH   12   13
ATOM    113  H8  UNL A   1      46.050   5.014  50.370  1.00  0.00    +0.000 H 
ATOM     13  C9  UNL A   1      45.444   5.702  49.818  1.00  0.00    +0.000 C 
ATOM    111  H6  UNL A   1      46.073   6.394  49.298  1.00  0.00    +0.000 H 
ATOM    112  H7  UNL A   1      44.845   5.165  49.113  1.00  0.00    +0.000 H 
ENDBRANCH   12   13
BRANCH   15   16
ATOM    115  H10 UNL A   1      41.286   5.652  51.656  1.00  0.00    +0.000 H 
ATOM    116  H11 UNL A   1      41.229   7.204  50.855  1.00  0.00    +0.000 H 
ATOM    117  H12 UNL A   1      42.167   7.008  52.317  1.00  0.00    +0.000 H 
ATOM     16  C11 UNL A   1      41.845   6.531  51.415  1.00  0.00    +0.000 C 
ENDBRANCH   15   16
ENDBRANCH   10   12
ENDBRANCH    9   10
ENDBRANCH    8    9
BRANCH   17   18
ATOM     18  O6  UNL A   1      46.612  11.788  53.207  1.00  0.00    +0.000 O 
BRANCH   18   19
ATOM     19  C13 UNL A   1      47.101  12.204  54.377  1.00  0.00    +0.000 C 
ATOM     21  O7  UNL A   1      46.623  13.206  54.907  1.00  0.00    +0.000 O 
BRANCH   19   20
ATOM    121  H16 UNL A   1      49.089  11.986  54.993  1.00  0.00    +0.000 H 
ATOM     20  C14 UNL A   1      48.164  11.456  55.079  1.00  0.00    +0.000 C 
ATOM    119  H14 UNL A   1      48.267  10.486  54.640  1.00  0.00    +0.000 H 
ATOM    120  H15 UNL A   1      47.905  11.355  56.112  1.00  0.00    +0.000 H 
ENDBRANCH   19   20
ENDBRANCH   18   19
ENDBRANCH   17   18
BRANCH  102  103
ATOM    153  H48 UNL A   1      45.239  10.648  46.834  1.00  0.00    +0.000 H 
ATOM    154  H49 UNL A   1      44.505   9.773  48.156  1.00  0.00    +0.000 H 
ATOM    155  H50 UNL A   1      46.064   9.278  47.540  1.00  0.00    +0.000 H 
ATOM    103  C72 UNL A   1      45.429  10.116  47.743  1.00  0.00    +0.000 C 
ENDBRANCH  102  103
ENDBRANCH   23   22
ENDBRANCH   25   23
ENDBRANCH   26   25
ENDBRANCH   27   26
ENDBRANCH   28   27
ENDBRANCH   29   28
ENDBRANCH   30   29
ENDBRANCH   31   30
ENDBRANCH   32   31
ENDBRANCH   33   32
ENDBRANCH   35   33
ENDBRANCH   39   38
BRANCH   43   44
ATOM     44  C32 UNL A   1      43.869  13.254  44.555  1.00  0.00    +0.000 C 
ATOM     45  C33 UNL A   1      44.686  12.117  44.662  1.00  0.00    +0.000 C 
ATOM     46  F1  UNL A   1      45.867  12.192  45.294  1.00  0.00    +0.000 F 
ATOM     47  C34 UNL A   1      44.314  10.909  44.080  1.00  0.00    +0.000 C 
ATOM     48  F2  UNL A   1      45.137   9.852  44.148  1.00  0.00    +0.000 F 
ATOM     49  C35 UNL A   1      43.101  10.799  43.418  1.00  0.00    +0.000 C 
ATOM     50  F3  UNL A   1      42.739   9.632  42.866  1.00  0.00    +0.000 F 
ATOM     51  C36 UNL A   1      42.265  11.900  43.321  1.00  0.00    +0.000 C 
ATOM     52  F4  UNL A   1      41.086  11.793  42.696  1.00  0.00    +0.000 F 
ATOM     53  C37 UNL A   1      42.651  13.121  43.871  1.00  0.00    +0.000 C 
ATOM     54  F5  UNL A   1      41.828  14.173  43.741  1.00  0.00    +0.000 F 
ENDBRANCH   43   44
BRANCH   60   61
ATOM     65  F7  UNL A   1      52.044  18.861  42.750  1.00  0.00    +0.000 F 
ATOM     66  C46 UNL A   1      50.274  19.373  41.273  1.00  0.00    +0.000 C 
ATOM     67  F8  UNL A   1      51.151  19.709  40.316  1.00  0.00    +0.000 F 
ATOM     68  C47 UNL A   1      48.913  19.476  41.034  1.00  0.00    +0.000 C 
ATOM     69  F9  UNL A   1      48.472  19.886  39.836  1.00  0.00    +0.000 F 
ATOM     70  C48 UNL A   1      48.002  19.153  42.035  1.00  0.00    +0.000 C 
ATOM     71  F10 UNL A   1      46.692  19.278  41.778  1.00  0.00    +0.000 F 
ATOM     61  C43 UNL A   1      48.437  18.690  43.287  1.00  0.00    +0.000 C 
ATOM     62  C44 UNL A   1      49.819  18.572  43.499  1.00  0.00    +0.000 C 
ATOM     63  F6  UNL A   1      50.288  18.148  44.682  1.00  0.00    +0.000 F 
ATOM     64  C45 UNL A   1      50.728  18.931  42.507  1.00  0.00    +0.000 C 
ENDBRANCH   60   61
BRANCH   75   76
ATOM     76  C52 UNL A   1      46.320  21.790  49.164  1.00  0.00    +0.000 C 
ATOM     77  C53 UNL A   1      45.665  22.999  48.890  1.00  0.00    +0.000 C 
ATOM     78  F11 UNL A   1      44.676  23.033  47.984  1.00  0.00    +0.000 F 
ATOM     79  C54 UNL A   1      46.052  24.186  49.509  1.00  0.00    +0.000 C 
ATOM     80  F12 UNL A   1      45.444  25.335  49.187  1.00  0.00    +0.000 F 
ATOM     81  C55 UNL A   1      47.076  24.181  50.443  1.00  0.00    +0.000 C 
ATOM     82  F13 UNL A   1      47.447  25.321  51.040  1.00  0.00    +0.000 F 
ATOM     83  C56 UNL A   1      47.723  22.994  50.750  1.00  0.00    +0.000 C 
ATOM     84  F14 UNL A   1      48.703  22.980  51.663  1.00  0.00    +0.000 F 
ATOM     85  C57 UNL A   1      47.360  21.813  50.106  1.00  0.00    +0.000 C 
ATOM     86  F15 UNL A   1      48.015  20.683  50.410  1.00  0.00    +0.000 F 
ENDBRANCH   75   76
TORSDOF 25
ENDMDL
