MODEL 1
REMARK VINA RESULT:      -8.6      0.000      0.000
ROOT
ATOM    135  H36 UNL A   1      21.272  17.671   8.383  1.00  0.00    +0.000 H 
ATOM    136  H37 UNL A   1      19.987  18.600   6.244  1.00  0.00    +0.000 H 
ATOM    137  H38 UNL A   1      23.718  20.150   6.357  1.00  0.00    +0.000 H 
ATOM    138  H39 UNL A   1      23.891  15.912  -0.661  1.00  0.00    +0.000 H 
ATOM    139  H40 UNL A   1      23.002  14.176   0.980  1.00  0.00    +0.000 H 
ATOM    140  H41 UNL A   1      23.882  17.582   3.181  1.00  0.00    +0.000 H 
ATOM    141  H42 UNL A   1      26.253  19.675   2.593  1.00  0.00    +0.000 H 
ATOM    142  H43 UNL A   1      24.844  19.970   4.736  1.00  0.00    +0.000 H 
ATOM    143  H44 UNL A   1      25.921  15.257   7.579  1.00  0.00    +0.000 H 
ATOM    144  H45 UNL A   1      25.827  14.129   5.264  1.00  0.00    +0.000 H 
ATOM     39  C34 UNL A   1      23.501  14.891   3.759  1.00  0.00    +0.000 C 
ATOM     40  C35 UNL A   1      23.983  15.440   5.055  1.00  0.00    +0.000 C 
ATOM     41  N3  UNL A   1      23.407  16.313   5.813  1.00  0.00    +0.000 N 
ATOM     42  C36 UNL A   1      24.278  16.535   6.877  1.00  0.00    +0.000 C 
ATOM     43  C37 UNL A   1      24.251  17.705   7.575  1.00  0.00    +0.000 C 
ATOM     55  C44 UNL A   1      23.020  18.417   7.336  1.00  0.00    +0.000 C 
ATOM     56  C45 UNL A   1      21.684  18.147   7.566  1.00  0.00    +0.000 C 
ATOM     57  C46 UNL A   1      21.001  18.670   6.429  1.00  0.00    +0.000 C 
ATOM     58  C47 UNL A   1      21.942  19.293   5.612  1.00  0.00    +0.000 C 
ATOM     59  N4  UNL A   1      23.040  19.440   6.421  1.00  0.00    +0.000 N 
ATOM     60  C48 UNL A   1      21.930  19.659   4.218  1.00  0.00    +0.000 C 
ATOM     72  C55 UNL A   1      23.043  19.884   3.462  1.00  0.00    +0.000 C 
ATOM     73  N5  UNL A   1      22.978  19.814   2.080  1.00  0.00    +0.000 N 
ATOM     74  C56 UNL A   1      24.177  19.457   1.717  1.00  0.00    +0.000 C 
ATOM     75  C57 UNL A   1      24.432  18.477   0.638  1.00  0.00    +0.000 C 
ATOM     87  C64 UNL A   1      24.028  17.264   1.087  1.00  0.00    +0.000 C 
ATOM     88  C65 UNL A   1      23.776  16.044   0.357  1.00  0.00    +0.000 C 
ATOM     89  C66 UNL A   1      23.368  15.106   1.235  1.00  0.00    +0.000 C 
ATOM     90  C67 UNL A   1      23.523  15.604   2.609  1.00  0.00    +0.000 C 
ATOM     91  N6  UNL A   1      23.820  16.935   2.443  1.00  0.00    +0.000 N 
ATOM     92  C68 UNL A   1      25.227  19.670   2.700  1.00  0.00    +0.000 C 
ATOM     93  C69 UNL A   1      24.468  19.857   3.783  1.00  0.00    +0.000 C 
ATOM     94  C70 UNL A   1      25.260  15.485   6.821  1.00  0.00    +0.000 C 
ATOM     95  C71 UNL A   1      25.194  14.848   5.651  1.00  0.00    +0.000 C 
ENDROOT
BRANCH   39   38
ATOM     97  C73 UNL A   1      23.953  11.313   2.996  1.00  0.00    +0.000 C 
ATOM     35  C30 UNL A   1      22.975  10.720   3.785  1.00  0.00    +0.000 C 
ATOM     36  C31 UNL A   1      22.051  11.499   4.490  1.00  0.00    +0.000 C 
ATOM    133  H34 UNL A   1      21.295  11.054   5.033  1.00  0.00    +0.000 H 
ATOM     37  C32 UNL A   1      22.172  12.886   4.444  1.00  0.00    +0.000 C 
ATOM     38  C33 UNL A   1      23.255  13.454   3.757  1.00  0.00    +0.000 C 
ATOM    134  H35 UNL A   1      21.474  13.487   4.909  1.00  0.00    +0.000 H 
ATOM    145  H46 UNL A   1      25.045  13.071   2.710  1.00  0.00    +0.000 H 
ATOM    146  H47 UNL A   1      24.500  10.743   2.332  1.00  0.00    +0.000 H 
ATOM     96  C72 UNL A   1      24.187  12.655   3.105  1.00  0.00    +0.000 C 
BRANCH   35   33
ATOM     33  C29 UNL A   1      22.976   9.246   3.883  1.00  0.00    +0.000 C 
ATOM     34  O2  UNL A   1      22.549   8.565   2.980  1.00  0.00    +0.000 O 
BRANCH   33   32
ATOM    132  H33 UNL A   1      24.360   8.234   4.969  1.00  0.00    +0.000 H 
ATOM     32  N2  UNL A   1      23.484   8.675   5.043  1.00  0.00    +0.000 N 
BRANCH   32   31
ATOM    130  H31 UNL A   1      21.843   8.990   6.268  1.00  0.00    +0.000 H 
ATOM    131  H32 UNL A   1      22.908   7.661   6.741  1.00  0.00    +0.000 H 
ATOM     31  C28 UNL A   1      22.856   8.661   6.364  1.00  0.00    +0.000 C 
BRANCH   31   30
ATOM    129  H30 UNL A   1      24.398  10.003   6.830  1.00  0.00    +0.000 H 
ATOM     30  C27 UNL A   1      23.572   9.567   7.351  1.00  0.00    +0.000 C 
ATOM    128  H29 UNL A   1      23.880   8.975   8.188  1.00  0.00    +0.000 H 
BRANCH   30   29
ATOM     29  C26 UNL A   1      22.711  10.729   7.872  1.00  0.00    +0.000 C 
ATOM    126  H27 UNL A   1      21.835  10.783   7.258  1.00  0.00    +0.000 H 
ATOM    127  H28 UNL A   1      22.523  10.501   8.900  1.00  0.00    +0.000 H 
BRANCH   29   28
ATOM    124  H25 UNL A   1      24.182  12.099   8.563  1.00  0.00    +0.000 H 
ATOM     28  C25 UNL A   1      23.359  12.121   7.879  1.00  0.00    +0.000 C 
ATOM    125  H26 UNL A   1      23.645  12.317   6.866  1.00  0.00    +0.000 H 
BRANCH   28   27
ATOM    122  H23 UNL A   1      22.508  13.397   9.347  1.00  0.00    +0.000 H 
ATOM     27  C24 UNL A   1      22.441  13.275   8.286  1.00  0.00    +0.000 C 
ATOM    123  H24 UNL A   1      22.775  14.134   7.744  1.00  0.00    +0.000 H 
BRANCH   27   26
ATOM    121  H22 UNL A   1      20.425  12.961   8.835  1.00  0.00    +0.000 H 
ATOM     26  C23 UNL A   1      20.972  13.075   7.922  1.00  0.00    +0.000 C 
ATOM    120  H21 UNL A   1      20.887  12.209   7.300  1.00  0.00    +0.000 H 
BRANCH   26   25
ATOM     25  N1  UNL A   1      20.415  14.206   7.219  1.00  0.00    +0.000 N 
ATOM    119  H20 UNL A   1      20.797  15.083   7.452  1.00  0.00    +0.000 H 
BRANCH   25   23
ATOM     23  C22 UNL A   1      19.428  14.224   6.274  1.00  0.00    +0.000 C 
ATOM     24  O1  UNL A   1      18.447  13.500   6.461  1.00  0.00    +0.000 O 
BRANCH   23   22
ATOM    118  H19 UNL A   1      20.419  14.668   4.474  1.00  0.00    +0.000 H 
ATOM    117  H18 UNL A   1      19.692  16.079   5.280  1.00  0.00    +0.000 H 
ATOM     22  C21 UNL A   1      19.572  15.052   5.003  1.00  0.00    +0.000 C 
BRANCH   22   21
ATOM      2  C2  UNL A   1      15.320  16.850   4.850  1.00  0.00    +0.000 C 
ATOM     99  C74 UNL A   1      16.857  16.799   5.097  1.00  0.00    +0.000 C 
ATOM      4  C4  UNL A   1      15.157  16.324   3.384  1.00  0.00    +0.000 C 
ATOM      5  C5  UNL A   1      16.363  15.477   3.223  1.00  0.00    +0.000 C 
ATOM     98  N7  UNL A   1      17.295  15.750   4.185  1.00  0.00    +0.000 N 
ATOM      6  C6  UNL A   1      16.866  14.487   2.426  1.00  0.00    +0.000 C 
ATOM    106  H7  UNL A   1      15.151  17.130   2.681  1.00  0.00    +0.000 H 
ATOM    107  H8  UNL A   1      14.238  15.803   3.213  1.00  0.00    +0.000 H 
ATOM     13  C13 UNL A   1      18.166  14.156   2.952  1.00  0.00    +0.000 C 
ATOM    147  H48 UNL A   1      17.076  16.545   6.113  1.00  0.00    +0.000 H 
ATOM    148  H49 UNL A   1      17.344  17.737   4.930  1.00  0.00    +0.000 H 
ATOM     21  C20 UNL A   1      18.396  14.949   4.077  1.00  0.00    +0.000 C 
BRANCH    2    1
ATOM      1  C1  UNL A   1      14.777  18.268   5.019  1.00  0.00    +0.000 C 
ATOM    100  H1  UNL A   1      15.070  18.651   5.974  1.00  0.00    +0.000 H 
ATOM    101  H2  UNL A   1      13.711  18.252   4.953  1.00  0.00    +0.000 H 
ATOM    102  H3  UNL A   1      15.173  18.896   4.248  1.00  0.00    +0.000 H 
ENDBRANCH    2    1
BRANCH    2    3
ATOM    105  H6  UNL A   1      15.115  15.000   5.926  1.00  0.00    +0.000 H 
ATOM      3  C3  UNL A   1      14.573  15.917   5.824  1.00  0.00    +0.000 C 
ATOM    103  H4  UNL A   1      13.595  15.713   5.441  1.00  0.00    +0.000 H 
ATOM    104  H5  UNL A   1      14.490  16.392   6.779  1.00  0.00    +0.000 H 
ENDBRANCH    2    3
BRANCH    6    7
ATOM      7  C7  UNL A   1      16.234  13.919   1.255  1.00  0.00    +0.000 C 
ATOM      8  C8  UNL A   1      15.133  13.071   1.395  1.00  0.00    +0.000 C 
ATOM      9  C9  UNL A   1      14.352  12.766   0.281  1.00  0.00    +0.000 C 
ATOM     10  C10 UNL A   1      14.679  13.293  -0.971  1.00  0.00    +0.000 C 
ATOM     11  C11 UNL A   1      15.813  14.087  -1.125  1.00  0.00    +0.000 C 
ATOM     12  C12 UNL A   1      16.589  14.401  -0.013  1.00  0.00    +0.000 C 
ATOM    108  H9  UNL A   1      14.899  12.672   2.318  1.00  0.00    +0.000 H 
ATOM    109  H10 UNL A   1      13.531  12.149   0.381  1.00  0.00    +0.000 H 
ATOM    111  H12 UNL A   1      16.076  14.440  -2.059  1.00  0.00    +0.000 H 
ATOM    112  H13 UNL A   1      17.429  14.989  -0.122  1.00  0.00    +0.000 H 
ATOM    110  H11 UNL A   1      14.077  13.095  -1.786  1.00  0.00    +0.000 H 
ENDBRANCH    6    7
BRANCH   13   14
ATOM     14  C14 UNL A   1      19.092  13.184   2.380  1.00  0.00    +0.000 C 
ATOM     15  C15 UNL A   1      20.070  13.616   1.471  1.00  0.00    +0.000 C 
ATOM     16  C16 UNL A   1      20.858  12.691   0.783  1.00  0.00    +0.000 C 
ATOM    113  H14 UNL A   1      20.209  14.627   1.311  1.00  0.00    +0.000 H 
ATOM     17  C17 UNL A   1      20.680  11.328   1.011  1.00  0.00    +0.000 C 
ATOM     19  C18 UNL A   1      19.715  10.886   1.915  1.00  0.00    +0.000 C 
ATOM     20  C19 UNL A   1      18.912  11.813   2.584  1.00  0.00    +0.000 C 
ATOM    116  H17 UNL A   1      18.182  11.483   3.234  1.00  0.00    +0.000 H 
ATOM    114  H15 UNL A   1      21.569  13.014   0.109  1.00  0.00    +0.000 H 
ATOM    115  H16 UNL A   1      19.595   9.875   2.089  1.00  0.00    +0.000 H 
ATOM     18 Cl1  UNL A   1      21.632  10.183   0.149  1.00  0.00    +0.000 Cl
ENDBRANCH   13   14
ENDBRANCH   22   21
ENDBRANCH   23   22
ENDBRANCH   25   23
ENDBRANCH   26   25
ENDBRANCH   27   26
ENDBRANCH   28   27
ENDBRANCH   29   28
ENDBRANCH   30   29
ENDBRANCH   31   30
ENDBRANCH   32   31
ENDBRANCH   33   32
ENDBRANCH   35   33
ENDBRANCH   39   38
BRANCH   43   44
ATOM     44  C38 UNL A   1      25.463  18.382   8.176  1.00  0.00    +0.000 C 
ATOM     45  C39 UNL A   1      25.477  18.658   9.560  1.00  0.00    +0.000 C 
ATOM     46  F1  UNL A   1      24.565  18.110  10.376  1.00  0.00    +0.000 F 
ATOM     47  C40 UNL A   1      26.371  19.572  10.126  1.00  0.00    +0.000 C 
ATOM     48  F2  UNL A   1      26.260  19.897  11.421  1.00  0.00    +0.000 F 
ATOM     49  C41 UNL A   1      27.323  20.198   9.344  1.00  0.00    +0.000 C 
ATOM     50  F3  UNL A   1      28.140  21.120   9.870  1.00  0.00    +0.000 F 
ATOM     51  C42 UNL A   1      27.392  19.899   8.001  1.00  0.00    +0.000 C 
ATOM     52  F4  UNL A   1      28.300  20.506   7.222  1.00  0.00    +0.000 F 
ATOM     53  C43 UNL A   1      26.468  19.029   7.424  1.00  0.00    +0.000 C 
ATOM     54  F5  UNL A   1      26.538  18.936   6.092  1.00  0.00    +0.000 F 
ENDBRANCH   43   44
BRANCH   60   61
ATOM     65  F7  UNL A   1      18.464  17.211   1.687  1.00  0.00    +0.000 F 
ATOM     66  C52 UNL A   1      18.043  19.437   2.347  1.00  0.00    +0.000 C 
ATOM     67  F8  UNL A   1      16.813  19.377   1.819  1.00  0.00    +0.000 F 
ATOM     68  C53 UNL A   1      18.473  20.593   2.980  1.00  0.00    +0.000 C 
ATOM     69  F9  UNL A   1      17.649  21.644   3.084  1.00  0.00    +0.000 F 
ATOM     70  C54 UNL A   1      19.748  20.660   3.535  1.00  0.00    +0.000 C 
ATOM     71  F10 UNL A   1      20.125  21.787   4.157  1.00  0.00    +0.000 F 
ATOM     61  C49 UNL A   1      20.616  19.563   3.492  1.00  0.00    +0.000 C 
ATOM     62  C50 UNL A   1      20.144  18.391   2.874  1.00  0.00    +0.000 C 
ATOM     63  F6  UNL A   1      20.877  17.271   2.875  1.00  0.00    +0.000 F 
ATOM     64  C51 UNL A   1      18.881  18.337   2.285  1.00  0.00    +0.000 C 
ENDBRANCH   60   61
BRANCH   75   76
ATOM     76  C58 UNL A   1      25.417  18.754  -0.423  1.00  0.00    +0.000 C 
ATOM     77  C59 UNL A   1      25.023  19.180  -1.701  1.00  0.00    +0.000 C 
ATOM     78  F11 UNL A   1      23.737  19.091  -2.070  1.00  0.00    +0.000 F 
ATOM     79  C60 UNL A   1      25.927  19.789  -2.577  1.00  0.00    +0.000 C 
ATOM     80  F12 UNL A   1      25.512  20.232  -3.772  1.00  0.00    +0.000 F 
ATOM     81  C61 UNL A   1      27.231  20.024  -2.179  1.00  0.00    +0.000 C 
ATOM     82  F13 UNL A   1      28.081  20.685  -2.976  1.00  0.00    +0.000 F 
ATOM     83  C62 UNL A   1      27.633  19.631  -0.916  1.00  0.00    +0.000 C 
ATOM     84  F14 UNL A   1      28.827  20.009  -0.456  1.00  0.00    +0.000 F 
ATOM     85  C63 UNL A   1      26.758  18.967  -0.065  1.00  0.00    +0.000 C 
ATOM     86  F15 UNL A   1      27.196  18.657   1.165  1.00  0.00    +0.000 F 
ENDBRANCH   75   76
TORSDOF 20
ENDMDL
MODEL 2
REMARK VINA RESULT:      -8.1     25.360     30.475
ROOT
ATOM    135  H36 UNL A   1      12.119  -3.012  25.943  1.00  0.00    +0.000 H 
ATOM    136  H37 UNL A   1       9.482  -3.043  26.310  1.00  0.00    +0.000 H 
ATOM    137  H38 UNL A   1      11.034   0.309  27.951  1.00  0.00    +0.000 H 
ATOM    138  H39 UNL A   1       6.083   3.412  22.198  1.00  0.00    +0.000 H 
ATOM    139  H40 UNL A   1       7.428   1.704  20.868  1.00  0.00    +0.000 H 
ATOM    140  H41 UNL A   1       8.977   1.732  24.718  1.00  0.00    +0.000 H 
ATOM    141  H42 UNL A   1       9.160   4.271  26.683  1.00  0.00    +0.000 H 
ATOM    142  H43 UNL A   1      10.239   2.047  27.430  1.00  0.00    +0.000 H 
ATOM    143  H44 UNL A   1      14.200   1.231  23.544  1.00  0.00    +0.000 H 
ATOM    144  H45 UNL A   1      12.434   2.146  21.904  1.00  0.00    +0.000 H 
ATOM     39  C34 UNL A   1       9.872   0.888  22.226  1.00  0.00    +0.000 C 
ATOM     40  C35 UNL A   1      11.085   0.745  23.076  1.00  0.00    +0.000 C 
ATOM     41  N3  UNL A   1      11.260  -0.043  24.085  1.00  0.00    +0.000 N 
ATOM     42  C36 UNL A   1      12.534   0.236  24.575  1.00  0.00    +0.000 C 
ATOM     43  C37 UNL A   1      12.858  -0.015  25.875  1.00  0.00    +0.000 C 
ATOM     55  C44 UNL A   1      11.909  -0.919  26.475  1.00  0.00    +0.000 C 
ATOM     56  C45 UNL A   1      11.520  -2.222  26.228  1.00  0.00    +0.000 C 
ATOM     57  C46 UNL A   1      10.112  -2.237  26.451  1.00  0.00    +0.000 C 
ATOM     58  C47 UNL A   1       9.734  -0.969  26.893  1.00  0.00    +0.000 C 
ATOM     59  N4  UNL A   1      10.917  -0.378  27.256  1.00  0.00    +0.000 N 
ATOM     60  C48 UNL A   1       8.465  -0.288  26.923  1.00  0.00    +0.000 C 
ATOM     72  C55 UNL A   1       8.309   1.065  26.997  1.00  0.00    +0.000 C 
ATOM     73  N5  UNL A   1       7.119   1.657  26.604  1.00  0.00    +0.000 N 
ATOM     74  C56 UNL A   1       7.466   2.848  26.207  1.00  0.00    +0.000 C 
ATOM     75  C57 UNL A   1       6.886   3.497  25.010  1.00  0.00    +0.000 C 
ATOM     87  C64 UNL A   1       7.338   2.823  23.924  1.00  0.00    +0.000 C 
ATOM     88  C65 UNL A   1       6.864   2.842  22.560  1.00  0.00    +0.000 C 
ATOM     89  C66 UNL A   1       7.618   1.986  21.842  1.00  0.00    +0.000 C 
ATOM     90  C67 UNL A   1       8.751   1.514  22.651  1.00  0.00    +0.000 C 
ATOM     91  N6  UNL A   1       8.461   1.970  23.915  1.00  0.00    +0.000 N 
ATOM     92  C68 UNL A   1       8.759   3.321  26.673  1.00  0.00    +0.000 C 
ATOM     93  C69 UNL A   1       9.273   2.159  27.087  1.00  0.00    +0.000 C 
ATOM     94  C70 UNL A   1      13.188   1.031  23.570  1.00  0.00    +0.000 C 
ATOM     95  C71 UNL A   1      12.302   1.472  22.675  1.00  0.00    +0.000 C 
ENDROOT
BRANCH   39   38
ATOM     97  C73 UNL A   1       9.896   1.251  18.558  1.00  0.00    +0.000 C 
ATOM     35  C30 UNL A   1      10.512   0.073  18.152  1.00  0.00    +0.000 C 
ATOM     36  C31 UNL A   1      10.815  -0.934  19.074  1.00  0.00    +0.000 C 
ATOM    133  H34 UNL A   1      11.224  -1.828  18.761  1.00  0.00    +0.000 H 
ATOM     37  C32 UNL A   1      10.553  -0.706  20.423  1.00  0.00    +0.000 C 
ATOM     38  C33 UNL A   1      10.066   0.547  20.822  1.00  0.00    +0.000 C 
ATOM    134  H35 UNL A   1      10.716  -1.450  21.120  1.00  0.00    +0.000 H 
ATOM    145  H46 UNL A   1       9.580   2.502  20.201  1.00  0.00    +0.000 H 
ATOM    146  H47 UNL A   1       9.500   1.898  17.859  1.00  0.00    +0.000 H 
ATOM     96  C72 UNL A   1       9.818   1.548  19.891  1.00  0.00    +0.000 C 
BRANCH   35   33
ATOM     33  C29 UNL A   1      10.868  -0.055  16.724  1.00  0.00    +0.000 C 
ATOM     34  O2  UNL A   1      12.011  -0.258  16.386  1.00  0.00    +0.000 O 
BRANCH   33   32
ATOM    132  H33 UNL A   1       9.289   0.873  15.849  1.00  0.00    +0.000 H 
ATOM     32  N2  UNL A   1       9.847   0.065  15.790  1.00  0.00    +0.000 N 
BRANCH   32   31
ATOM    130  H31 UNL A   1       8.695  -0.491  14.160  1.00  0.00    +0.000 H 
ATOM    131  H32 UNL A   1      10.385  -1.008  14.116  1.00  0.00    +0.000 H 
ATOM     31  C28 UNL A   1       9.515  -0.882  14.725  1.00  0.00    +0.000 C 
BRANCH   31   30
ATOM    129  H30 UNL A   1       9.899  -2.540  15.949  1.00  0.00    +0.000 H 
ATOM     30  C27 UNL A   1       9.127  -2.247  15.269  1.00  0.00    +0.000 C 
ATOM    128  H29 UNL A   1       9.027  -2.921  14.445  1.00  0.00    +0.000 H 
BRANCH   30   29
ATOM     29  C26 UNL A   1       7.810  -2.252  16.061  1.00  0.00    +0.000 C 
ATOM    126  H27 UNL A   1       7.347  -1.296  15.927  1.00  0.00    +0.000 H 
ATOM    127  H28 UNL A   1       7.252  -3.078  15.673  1.00  0.00    +0.000 H 
BRANCH   29   28
ATOM    124  H25 UNL A   1       8.359  -1.648  18.024  1.00  0.00    +0.000 H 
ATOM     28  C25 UNL A   1       7.913  -2.510  17.572  1.00  0.00    +0.000 C 
ATOM    125  H26 UNL A   1       6.914  -2.704  17.905  1.00  0.00    +0.000 H 
BRANCH   28   27
ATOM    122  H23 UNL A   1       9.542  -3.840  17.284  1.00  0.00    +0.000 H 
ATOM     27  C24 UNL A   1       8.736  -3.733  17.979  1.00  0.00    +0.000 C 
ATOM    123  H24 UNL A   1       9.067  -3.557  18.981  1.00  0.00    +0.000 H 
BRANCH   27   26
ATOM    121  H22 UNL A   1       8.630  -5.829  17.741  1.00  0.00    +0.000 H 
ATOM     26  C23 UNL A   1       7.954  -5.044  18.005  1.00  0.00    +0.000 C 
ATOM    120  H21 UNL A   1       7.142  -4.973  17.313  1.00  0.00    +0.000 H 
BRANCH   26   25
ATOM     25  N1  UNL A   1       7.421  -5.348  19.312  1.00  0.00    +0.000 N 
ATOM    119  H20 UNL A   1       7.901  -6.047  19.814  1.00  0.00    +0.000 H 
BRANCH   25   23
ATOM     23  C22 UNL A   1       6.343  -4.799  19.946  1.00  0.00    +0.000 C 
ATOM     24  O1  UNL A   1       5.262  -4.821  19.352  1.00  0.00    +0.000 O 
BRANCH   23   22
ATOM    118  H19 UNL A   1       5.512  -4.075  21.735  1.00  0.00    +0.000 H 
ATOM    117  H18 UNL A   1       6.917  -3.153  21.152  1.00  0.00    +0.000 H 
ATOM     22  C21 UNL A   1       6.489  -4.122  21.303  1.00  0.00    +0.000 C 
BRANCH   22   21
ATOM      2  C2  UNL A   1      10.959  -4.066  22.463  1.00  0.00    +0.000 C 
ATOM     99  C74 UNL A   1       9.568  -3.498  22.053  1.00  0.00    +0.000 C 
ATOM      4  C4  UNL A   1      10.645  -4.980  23.695  1.00  0.00    +0.000 C 
ATOM      5  C5  UNL A   1       9.231  -5.351  23.452  1.00  0.00    +0.000 C 
ATOM     98  N7  UNL A   1       8.649  -4.522  22.533  1.00  0.00    +0.000 N 
ATOM      6  C6  UNL A   1       8.293  -6.269  23.836  1.00  0.00    +0.000 C 
ATOM    106  H7  UNL A   1      10.754  -4.443  24.614  1.00  0.00    +0.000 H 
ATOM    107  H8  UNL A   1      11.302  -5.819  23.787  1.00  0.00    +0.000 H 
ATOM     13  C13 UNL A   1       7.093  -5.964  23.099  1.00  0.00    +0.000 C 
ATOM    147  H48 UNL A   1       9.497  -3.382  20.991  1.00  0.00    +0.000 H 
ATOM    148  H49 UNL A   1       9.371  -2.528  22.456  1.00  0.00    +0.000 H 
ATOM     21  C20 UNL A   1       7.357  -4.876  22.266  1.00  0.00    +0.000 C 
BRANCH    2    1
ATOM      1  C1  UNL A   1      11.936  -2.943  22.810  1.00  0.00    +0.000 C 
ATOM    100  H1  UNL A   1      12.113  -2.343  21.942  1.00  0.00    +0.000 H 
ATOM    101  H2  UNL A   1      12.859  -3.365  23.147  1.00  0.00    +0.000 H 
ATOM    102  H3  UNL A   1      11.519  -2.334  23.585  1.00  0.00    +0.000 H 
ENDBRANCH    2    1
BRANCH    2    3
ATOM    105  H6  UNL A   1      12.293  -5.586  21.734  1.00  0.00    +0.000 H 
ATOM      3  C3  UNL A   1      11.567  -4.913  21.328  1.00  0.00    +0.000 C 
ATOM    103  H4  UNL A   1      12.037  -4.269  20.614  1.00  0.00    +0.000 H 
ATOM    104  H5  UNL A   1      10.792  -5.473  20.847  1.00  0.00    +0.000 H 
ENDBRANCH    2    3
BRANCH    6    7
ATOM      7  C7  UNL A   1       8.462  -7.310  24.826  1.00  0.00    +0.000 C 
ATOM      8  C8  UNL A   1       8.186  -7.051  26.170  1.00  0.00    +0.000 C 
ATOM      9  C9  UNL A   1       8.064  -8.112  27.066  1.00  0.00    +0.000 C 
ATOM     10  C10 UNL A   1       8.231  -9.427  26.624  1.00  0.00    +0.000 C 
ATOM     11  C11 UNL A   1       8.569  -9.685  25.297  1.00  0.00    +0.000 C 
ATOM     12  C12 UNL A   1       8.683  -8.627  24.399  1.00  0.00    +0.000 C 
ATOM    108  H9  UNL A   1       8.076  -6.078  26.499  1.00  0.00    +0.000 H 
ATOM    109  H10 UNL A   1       7.848  -7.926  28.058  1.00  0.00    +0.000 H 
ATOM    111  H12 UNL A   1       8.734 -10.654  24.983  1.00  0.00    +0.000 H 
ATOM    112  H13 UNL A   1       8.932  -8.813  23.415  1.00  0.00    +0.000 H 
ATOM    110  H11 UNL A   1       8.102 -10.212  27.283  1.00  0.00    +0.000 H 
ENDBRANCH    6    7
BRANCH   13   14
ATOM     14  C14 UNL A   1       5.815  -6.655  23.233  1.00  0.00    +0.000 C 
ATOM     15  C15 UNL A   1       5.444  -7.611  22.275  1.00  0.00    +0.000 C 
ATOM     16  C16 UNL A   1       4.162  -8.164  22.284  1.00  0.00    +0.000 C 
ATOM    113  H14 UNL A   1       6.126  -7.908  21.559  1.00  0.00    +0.000 H 
ATOM     17  C17 UNL A   1       3.248  -7.773  23.260  1.00  0.00    +0.000 C 
ATOM     19  C18 UNL A   1       3.605  -6.828  24.221  1.00  0.00    +0.000 C 
ATOM     20  C19 UNL A   1       4.881  -6.259  24.195  1.00  0.00    +0.000 C 
ATOM    116  H17 UNL A   1       5.135  -5.542  24.892  1.00  0.00    +0.000 H 
ATOM    114  H15 UNL A   1       3.892  -8.860  21.571  1.00  0.00    +0.000 H 
ATOM    115  H16 UNL A   1       2.928  -6.551  24.949  1.00  0.00    +0.000 H 
ATOM     18 Cl1  UNL A   1       1.660  -8.435  23.261  1.00  0.00    +0.000 Cl
ENDBRANCH   13   14
ENDBRANCH   22   21
ENDBRANCH   23   22
ENDBRANCH   25   23
ENDBRANCH   26   25
ENDBRANCH   27   26
ENDBRANCH   28   27
ENDBRANCH   29   28
ENDBRANCH   30   29
ENDBRANCH   31   30
ENDBRANCH   32   31
ENDBRANCH   33   32
ENDBRANCH   35   33
ENDBRANCH   39   38
BRANCH   43   44
ATOM     44  C38 UNL A   1      13.804   0.821  26.708  1.00  0.00    +0.000 C 
ATOM     45  C39 UNL A   1      13.411   2.121  27.093  1.00  0.00    +0.000 C 
ATOM     46  F1  UNL A   1      12.138   2.520  26.954  1.00  0.00    +0.000 F 
ATOM     47  C40 UNL A   1      14.331   3.072  27.544  1.00  0.00    +0.000 C 
ATOM     48  F2  UNL A   1      13.930   4.329  27.774  1.00  0.00    +0.000 F 
ATOM     49  C41 UNL A   1      15.665   2.743  27.688  1.00  0.00    +0.000 C 
ATOM     50  F3  UNL A   1      16.559   3.669  28.061  1.00  0.00    +0.000 F 
ATOM     51  C42 UNL A   1      16.078   1.462  27.396  1.00  0.00    +0.000 C 
ATOM     52  F4  UNL A   1      17.371   1.127  27.514  1.00  0.00    +0.000 F 
ATOM     53  C43 UNL A   1      15.173   0.528  26.893  1.00  0.00    +0.000 C 
ATOM     54  F5  UNL A   1      15.717  -0.629  26.502  1.00  0.00    +0.000 F 
ENDBRANCH   43   44
BRANCH   60   61
ATOM     65  F7  UNL A   1       5.313  -2.536  23.853  1.00  0.00    +0.000 F 
ATOM     66  C52 UNL A   1       5.045  -2.820  26.180  1.00  0.00    +0.000 C 
ATOM     67  F8  UNL A   1       4.013  -3.650  25.976  1.00  0.00    +0.000 F 
ATOM     68  C53 UNL A   1       5.469  -2.541  27.470  1.00  0.00    +0.000 C 
ATOM     69  F9  UNL A   1       4.860  -3.121  28.514  1.00  0.00    +0.000 F 
ATOM     70  C54 UNL A   1       6.544  -1.684  27.689  1.00  0.00    +0.000 C 
ATOM     71  F10 UNL A   1       6.940  -1.452  28.950  1.00  0.00    +0.000 F 
ATOM     61  C49 UNL A   1       7.238  -1.105  26.622  1.00  0.00    +0.000 C 
ATOM     62  C50 UNL A   1       6.809  -1.428  25.322  1.00  0.00    +0.000 C 
ATOM     63  F6  UNL A   1       7.478  -0.989  24.248  1.00  0.00    +0.000 F 
ATOM     64  C51 UNL A   1       5.709  -2.257  25.104  1.00  0.00    +0.000 C 
ENDBRANCH   60   61
BRANCH   75   76
ATOM     76  C58 UNL A   1       6.399   4.887  25.060  1.00  0.00    +0.000 C 
ATOM     77  C59 UNL A   1       5.245   5.237  25.778  1.00  0.00    +0.000 C 
ATOM     78  F11 UNL A   1       4.412   4.281  26.215  1.00  0.00    +0.000 F 
ATOM     79  C60 UNL A   1       4.984   6.563  26.137  1.00  0.00    +0.000 C 
ATOM     80  F12 UNL A   1       3.900   6.863  26.866  1.00  0.00    +0.000 F 
ATOM     81  C61 UNL A   1       5.891   7.560  25.824  1.00  0.00    +0.000 C 
ATOM     82  F13 UNL A   1       5.694   8.819  26.239  1.00  0.00    +0.000 F 
ATOM     83  C62 UNL A   1       7.044   7.232  25.135  1.00  0.00    +0.000 C 
ATOM     84  F14 UNL A   1       8.005   8.145  24.985  1.00  0.00    +0.000 F 
ATOM     85  C63 UNL A   1       7.277   5.927  24.719  1.00  0.00    +0.000 C 
ATOM     86  F15 UNL A   1       8.438   5.667  24.099  1.00  0.00    +0.000 F 
ENDBRANCH   75   76
TORSDOF 20
ENDMDL
MODEL 3
REMARK VINA RESULT:      -7.9      9.000     16.371
ROOT
ATOM    135  H36 UNL A   1      23.530  27.875   1.215  1.00  0.00    +0.000 H 
ATOM    136  H37 UNL A   1      23.277  25.384   2.122  1.00  0.00    +0.000 H 
ATOM    137  H38 UNL A   1      19.616  26.936   1.401  1.00  0.00    +0.000 H 
ATOM    138  H39 UNL A   1      19.819  20.646  -3.856  1.00  0.00    +0.000 H 
ATOM    139  H40 UNL A   1      22.014  21.834  -4.373  1.00  0.00    +0.000 H 
ATOM    140  H41 UNL A   1      20.027  24.137  -1.548  1.00  0.00    +0.000 H 
ATOM    141  H42 UNL A   1      16.843  24.495  -1.276  1.00  0.00    +0.000 H 
ATOM    142  H43 UNL A   1      18.382  25.898   0.250  1.00  0.00    +0.000 H 
ATOM    143  H44 UNL A   1      21.240  29.028  -3.423  1.00  0.00    +0.000 H 
ATOM    144  H45 UNL A   1      21.261  26.887  -4.859  1.00  0.00    +0.000 H 
ATOM     39  C34 UNL A   1      22.079  24.569  -3.372  1.00  0.00    +0.000 C 
ATOM     40  C35 UNL A   1      21.796  25.939  -2.865  1.00  0.00    +0.000 C 
ATOM     41  N3  UNL A   1      21.945  26.389  -1.663  1.00  0.00    +0.000 N 
ATOM     42  C36 UNL A   1      21.493  27.707  -1.686  1.00  0.00    +0.000 C 
ATOM     43  C37 UNL A   1      21.038  28.313  -0.554  1.00  0.00    +0.000 C 
ATOM     55  C44 UNL A   1      21.462  27.593   0.621  1.00  0.00    +0.000 C 
ATOM     56  C45 UNL A   1      22.688  27.279   1.176  1.00  0.00    +0.000 C 
ATOM     57  C46 UNL A   1      22.538  25.954   1.682  1.00  0.00    +0.000 C 
ATOM     58  C47 UNL A   1      21.215  25.565   1.476  1.00  0.00    +0.000 C 
ATOM     59  N4  UNL A   1      20.561  26.740   1.208  1.00  0.00    +0.000 N 
ATOM     60  C48 UNL A   1      20.577  24.274   1.432  1.00  0.00    +0.000 C 
ATOM     72  C55 UNL A   1      19.381  24.016   0.829  1.00  0.00    +0.000 C 
ATOM     73  N5  UNL A   1      19.043  22.723   0.463  1.00  0.00    +0.000 N 
ATOM     74  C56 UNL A   1      18.248  22.872  -0.558  1.00  0.00    +0.000 C 
ATOM     75  C57 UNL A   1      18.303  22.002  -1.753  1.00  0.00    +0.000 C 
ATOM     87  C64 UNL A   1      19.459  22.278  -2.404  1.00  0.00    +0.000 C 
ATOM     88  C65 UNL A   1      20.141  21.533  -3.435  1.00  0.00    +0.000 C 
ATOM     89  C66 UNL A   1      21.271  22.196  -3.755  1.00  0.00    +0.000 C 
ATOM     90  C67 UNL A   1      21.286  23.508  -3.094  1.00  0.00    +0.000 C 
ATOM     91  N6  UNL A   1      20.227  23.447  -2.221  1.00  0.00    +0.000 N 
ATOM     92  C68 UNL A   1      17.644  24.186  -0.704  1.00  0.00    +0.000 C 
ATOM     93  C69 UNL A   1      18.434  24.876   0.123  1.00  0.00    +0.000 C 
ATOM     94  C70 UNL A   1      21.364  28.065  -3.074  1.00  0.00    +0.000 C 
ATOM     95  C71 UNL A   1      21.427  26.977  -3.844  1.00  0.00    +0.000 C 
ENDROOT
BRANCH   39   38
ATOM     97  C73 UNL A   1      23.674  24.835  -6.684  1.00  0.00    +0.000 C 
ATOM     35  C30 UNL A   1      25.000  24.536  -6.396  1.00  0.00    +0.000 C 
ATOM     36  C31 UNL A   1      25.377  24.106  -5.119  1.00  0.00    +0.000 C 
ATOM    133  H34 UNL A   1      26.353  23.835  -4.922  1.00  0.00    +0.000 H 
ATOM     37  C32 UNL A   1      24.410  24.052  -4.118  1.00  0.00    +0.000 C 
ATOM     38  C33 UNL A   1      23.110  24.498  -4.400  1.00  0.00    +0.000 C 
ATOM    134  H35 UNL A   1      24.646  23.689  -3.181  1.00  0.00    +0.000 H 
ATOM    145  H46 UNL A   1      21.855  25.406  -5.831  1.00  0.00    +0.000 H 
ATOM    146  H47 UNL A   1      23.372  24.959  -7.663  1.00  0.00    +0.000 H 
ATOM     96  C72 UNL A   1      22.773  24.966  -5.665  1.00  0.00    +0.000 C 
BRANCH   35   33
ATOM     33  C29 UNL A   1      25.994  24.727  -7.471  1.00  0.00    +0.000 C 
ATOM     34  O2  UNL A   1      25.672  25.201  -8.536  1.00  0.00    +0.000 O 
BRANCH   33   32
ATOM    132  H33 UNL A   1      27.500  23.382  -7.263  1.00  0.00    +0.000 H 
ATOM     32  N2  UNL A   1      27.305  24.345  -7.215  1.00  0.00    +0.000 N 
BRANCH   32   31
ATOM    130  H31 UNL A   1      28.138  26.236  -7.064  1.00  0.00    +0.000 H 
ATOM    131  H32 UNL A   1      28.673  25.065  -5.853  1.00  0.00    +0.000 H 
ATOM     31  C28 UNL A   1      28.428  25.223  -6.882  1.00  0.00    +0.000 C 
BRANCH   31   30
ATOM    129  H30 UNL A   1      30.110  25.851  -7.963  1.00  0.00    +0.000 H 
ATOM     30  C27 UNL A   1      29.664  24.913  -7.708  1.00  0.00    +0.000 C 
ATOM    128  H29 UNL A   1      29.363  24.352  -8.567  1.00  0.00    +0.000 H 
BRANCH   30   29
ATOM     29  C26 UNL A   1      30.732  24.104  -6.953  1.00  0.00    +0.000 C 
ATOM    126  H27 UNL A   1      31.203  24.763  -6.252  1.00  0.00    +0.000 H 
ATOM    127  H28 UNL A   1      30.204  23.285  -6.512  1.00  0.00    +0.000 H 
BRANCH   29   28
ATOM    124  H25 UNL A   1      31.755  23.840  -8.798  1.00  0.00    +0.000 H 
ATOM     28  C25 UNL A   1      31.840  23.460  -7.801  1.00  0.00    +0.000 C 
ATOM    125  H26 UNL A   1      32.762  23.712  -7.319  1.00  0.00    +0.000 H 
BRANCH   28   27
ATOM    122  H23 UNL A   1      32.443  21.625  -8.682  1.00  0.00    +0.000 H 
ATOM     27  C24 UNL A   1      31.810  21.933  -7.876  1.00  0.00    +0.000 C 
ATOM    123  H24 UNL A   1      32.142  21.576  -6.923  1.00  0.00    +0.000 H 
BRANCH   27   26
ATOM    121  H22 UNL A   1      29.808  22.099  -8.530  1.00  0.00    +0.000 H 
ATOM     26  C23 UNL A   1      30.424  21.335  -8.105  1.00  0.00    +0.000 C 
ATOM    120  H21 UNL A   1      30.039  20.994  -7.167  1.00  0.00    +0.000 H 
BRANCH   26   25
ATOM     25  N1  UNL A   1      30.442  20.226  -9.028  1.00  0.00    +0.000 N 
ATOM    119  H20 UNL A   1      31.068  19.498  -8.806  1.00  0.00    +0.000 H 
BRANCH   25   23
ATOM     23  C22 UNL A   1      29.710  20.048 -10.167  1.00  0.00    +0.000 C 
ATOM     24  O1  UNL A   1      28.621  19.477 -10.060  1.00  0.00    +0.000 O 
BRANCH   23   22
ATOM    118  H19 UNL A   1      29.409  20.619 -12.167  1.00  0.00    +0.000 H 
ATOM    117  H18 UNL A   1      30.910  19.708 -11.881  1.00  0.00    +0.000 H 
ATOM     22  C21 UNL A   1      30.252  20.474 -11.526  1.00  0.00    +0.000 C 
BRANCH   22   21
ATOM      2  C2  UNL A   1      29.133  24.953 -11.637  1.00  0.00    +0.000 C 
ATOM     99  C74 UNL A   1      29.016  23.446 -11.263  1.00  0.00    +0.000 C 
ATOM      4  C4  UNL A   1      30.604  25.324 -11.250  1.00  0.00    +0.000 C 
ATOM      5  C5  UNL A   1      31.291  24.014 -11.351  1.00  0.00    +0.000 C 
ATOM     98  N7  UNL A   1      30.394  22.982 -11.363  1.00  0.00    +0.000 N 
ATOM      6  C6  UNL A   1      32.544  23.477 -11.449  1.00  0.00    +0.000 C 
ATOM    106  H7  UNL A   1      30.657  25.715 -10.255  1.00  0.00    +0.000 H 
ATOM    107  H8  UNL A   1      31.033  26.085 -11.867  1.00  0.00    +0.000 H 
ATOM     13  C13 UNL A   1      32.375  22.049 -11.526  1.00  0.00    +0.000 C 
ATOM    147  H48 UNL A   1      28.383  22.926 -11.951  1.00  0.00    +0.000 H 
ATOM    148  H49 UNL A   1      28.581  23.281 -10.300  1.00  0.00    +0.000 H 
ATOM     21  C20 UNL A   1      31.007  21.769 -11.497  1.00  0.00    +0.000 C 
BRANCH    2    1
ATOM      1  C1  UNL A   1      28.106  25.794 -10.879  1.00  0.00    +0.000 C 
ATOM    100  H1  UNL A   1      28.329  26.832 -11.010  1.00  0.00    +0.000 H 
ATOM    101  H2  UNL A   1      28.142  25.550  -9.839  1.00  0.00    +0.000 H 
ATOM    102  H3  UNL A   1      27.127  25.589 -11.260  1.00  0.00    +0.000 H 
ENDBRANCH    2    1
BRANCH    2    3
ATOM    105  H6  UNL A   1      28.418  24.317 -13.562  1.00  0.00    +0.000 H 
ATOM      3  C3  UNL A   1      28.924  25.165 -13.149  1.00  0.00    +0.000 C 
ATOM    103  H4  UNL A   1      29.874  25.281 -13.628  1.00  0.00    +0.000 H 
ATOM    104  H5  UNL A   1      28.335  26.044 -13.307  1.00  0.00    +0.000 H 
ENDBRANCH    2    3
BRANCH    6    7
ATOM      7  C7  UNL A   1      33.796  24.202 -11.429  1.00  0.00    +0.000 C 
ATOM      8  C8  UNL A   1      34.646  24.103 -10.325  1.00  0.00    +0.000 C 
ATOM      9  C9  UNL A   1      35.961  24.553 -10.427  1.00  0.00    +0.000 C 
ATOM     10  C10 UNL A   1      36.423  25.114 -11.620  1.00  0.00    +0.000 C 
ATOM     11  C11 UNL A   1      35.558  25.273 -12.701  1.00  0.00    +0.000 C 
ATOM     12  C12 UNL A   1      34.247  24.816 -12.606  1.00  0.00    +0.000 C 
ATOM    108  H9  UNL A   1      34.301  23.700  -9.440  1.00  0.00    +0.000 H 
ATOM    109  H10 UNL A   1      36.597  24.471  -9.617  1.00  0.00    +0.000 H 
ATOM    111  H12 UNL A   1      35.889  25.726 -13.568  1.00  0.00    +0.000 H 
ATOM    112  H13 UNL A   1      33.604  24.930 -13.405  1.00  0.00    +0.000 H 
ATOM    110  H11 UNL A   1      37.407  25.412 -11.703  1.00  0.00    +0.000 H 
ENDBRANCH    6    7
BRANCH   13   14
ATOM     14  C14 UNL A   1      33.452  21.067 -11.586  1.00  0.00    +0.000 C 
ATOM     15  C15 UNL A   1      34.094  20.821 -12.810  1.00  0.00    +0.000 C 
ATOM     16  C16 UNL A   1      35.010  19.774 -12.933  1.00  0.00    +0.000 C 
ATOM    113  H14 UNL A   1      33.888  21.421 -13.624  1.00  0.00    +0.000 H 
ATOM     17  C17 UNL A   1      35.298  18.975 -11.829  1.00  0.00    +0.000 C 
ATOM     19  C18 UNL A   1      34.672  19.212 -10.606  1.00  0.00    +0.000 C 
ATOM     20  C19 UNL A   1      33.738  20.245 -10.492  1.00  0.00    +0.000 C 
ATOM    116  H17 UNL A   1      33.257  20.403  -9.593  1.00  0.00    +0.000 H 
ATOM    114  H15 UNL A   1      35.471  19.592 -13.839  1.00  0.00    +0.000 H 
ATOM    115  H16 UNL A   1      34.898  18.625  -9.788  1.00  0.00    +0.000 H 
ATOM     18 Cl1  UNL A   1      36.408  17.669 -11.982  1.00  0.00    +0.000 Cl
ENDBRANCH   13   14
ENDBRANCH   22   21
ENDBRANCH   23   22
ENDBRANCH   25   23
ENDBRANCH   26   25
ENDBRANCH   27   26
ENDBRANCH   28   27
ENDBRANCH   29   28
ENDBRANCH   30   29
ENDBRANCH   31   30
ENDBRANCH   32   31
ENDBRANCH   33   32
ENDBRANCH   35   33
ENDBRANCH   39   38
BRANCH   43   44
ATOM     44  C38 UNL A   1      19.921  29.332  -0.508  1.00  0.00    +0.000 C 
ATOM     45  C39 UNL A   1      20.023  30.420   0.385  1.00  0.00    +0.000 C 
ATOM     46  F1  UNL A   1      21.185  30.699   0.994  1.00  0.00    +0.000 F 
ATOM     47  C40 UNL A   1      18.914  31.192   0.745  1.00  0.00    +0.000 C 
ATOM     48  F2  UNL A   1      19.036  32.131   1.693  1.00  0.00    +0.000 F 
ATOM     49  C41 UNL A   1      17.677  30.947   0.180  1.00  0.00    +0.000 C 
ATOM     50  F3  UNL A   1      16.600  31.644   0.568  1.00  0.00    +0.000 F 
ATOM     51  C42 UNL A   1      17.550  29.943  -0.753  1.00  0.00    +0.000 C 
ATOM     52  F4  UNL A   1      16.355  29.680  -1.302  1.00  0.00    +0.000 F 
ATOM     53  C43 UNL A   1      18.641  29.137  -1.073  1.00  0.00    +0.000 C 
ATOM     54  F5  UNL A   1      18.362  28.101  -1.872  1.00  0.00    +0.000 F 
ENDBRANCH   43   44
BRANCH   60   61
ATOM     65  F7  UNL A   1      22.029  20.931   4.768  1.00  0.00    +0.000 F 
ATOM     66  C52 UNL A   1      22.792  20.736   2.544  1.00  0.00    +0.000 C 
ATOM     67  F8  UNL A   1      23.446  19.607   2.851  1.00  0.00    +0.000 F 
ATOM     68  C53 UNL A   1      22.816  21.223   1.246  1.00  0.00    +0.000 C 
ATOM     69  F9  UNL A   1      23.476  20.551   0.292  1.00  0.00    +0.000 F 
ATOM     70  C54 UNL A   1      22.134  22.392   0.919  1.00  0.00    +0.000 C 
ATOM     71  F10 UNL A   1      22.162  22.824  -0.350  1.00  0.00    +0.000 F 
ATOM     61  C49 UNL A   1      21.390  23.088   1.878  1.00  0.00    +0.000 C 
ATOM     62  C50 UNL A   1      21.354  22.556   3.179  1.00  0.00    +0.000 C 
ATOM     63  F6  UNL A   1      20.590  23.112   4.128  1.00  0.00    +0.000 F 
ATOM     64  C51 UNL A   1      22.068  21.406   3.515  1.00  0.00    +0.000 C 
ENDBRANCH   60   61
BRANCH   75   76
ATOM     76  C58 UNL A   1      17.076  21.414  -2.321  1.00  0.00    +0.000 C 
ATOM     77  C59 UNL A   1      16.336  20.443  -1.628  1.00  0.00    +0.000 C 
ATOM     78  F11 UNL A   1      16.866  19.836  -0.557  1.00  0.00    +0.000 F 
ATOM     79  C60 UNL A   1      15.012  20.155  -1.971  1.00  0.00    +0.000 C 
ATOM     80  F12 UNL A   1      14.312  19.260  -1.260  1.00  0.00    +0.000 F 
ATOM     81  C61 UNL A   1      14.386  20.860  -2.984  1.00  0.00    +0.000 C 
ATOM     82  F13 UNL A   1      13.091  20.653  -3.262  1.00  0.00    +0.000 F 
ATOM     83  C62 UNL A   1      15.091  21.835  -3.664  1.00  0.00    +0.000 C 
ATOM     84  F14 UNL A   1      14.451  22.639  -4.514  1.00  0.00    +0.000 F 
ATOM     85  C63 UNL A   1      16.427  22.080  -3.372  1.00  0.00    +0.000 C 
ATOM     86  F15 UNL A   1      17.040  23.073  -4.035  1.00  0.00    +0.000 F 
ENDBRANCH   75   76
TORSDOF 20
ENDMDL
MODEL 4
REMARK VINA RESULT:      -7.9     11.525     18.727
ROOT
ATOM    135  H36 UNL A   1      13.774  32.532  -5.035  1.00  0.00    +0.000 H 
ATOM    136  H37 UNL A   1      14.508  32.896  -2.502  1.00  0.00    +0.000 H 
ATOM    137  H38 UNL A   1      10.474  32.857  -2.746  1.00  0.00    +0.000 H 
ATOM    138  H39 UNL A   1      11.911  26.366   2.054  1.00  0.00    +0.000 H 
ATOM    139  H40 UNL A   1      13.477  25.925   0.091  1.00  0.00    +0.000 H 
ATOM    140  H41 UNL A   1      11.315  29.347  -0.829  1.00  0.00    +0.000 H 
ATOM    141  H42 UNL A   1       8.278  29.972   0.024  1.00  0.00    +0.000 H 
ATOM    142  H43 UNL A   1       9.487  31.622  -1.551  1.00  0.00    +0.000 H 
ATOM    143  H44 UNL A   1      10.525  28.476  -6.075  1.00  0.00    +0.000 H 
ATOM    144  H45 UNL A   1      11.026  26.614  -4.364  1.00  0.00    +0.000 H 
ATOM     39  C34 UNL A   1      12.791  27.485  -2.271  1.00  0.00    +0.000 C 
ATOM     40  C35 UNL A   1      12.154  28.299  -3.341  1.00  0.00    +0.000 C 
ATOM     41  N3  UNL A   1      12.335  29.552  -3.601  1.00  0.00    +0.000 N 
ATOM     42  C36 UNL A   1      11.474  29.856  -4.654  1.00  0.00    +0.000 C 
ATOM     43  C37 UNL A   1      11.030  31.128  -4.854  1.00  0.00    +0.000 C 
ATOM     55  C44 UNL A   1      11.850  32.076  -4.141  1.00  0.00    +0.000 C 
ATOM     56  C45 UNL A   1      13.182  32.439  -4.195  1.00  0.00    +0.000 C 
ATOM     57  C46 UNL A   1      13.561  32.657  -2.838  1.00  0.00    +0.000 C 
ATOM     58  C47 UNL A   1      12.428  32.491  -2.044  1.00  0.00    +0.000 C 
ATOM     59  N4  UNL A   1      11.387  32.543  -2.936  1.00  0.00    +0.000 N 
ATOM     60  C48 UNL A   1      12.254  32.224  -0.638  1.00  0.00    +0.000 C 
ATOM     72  C55 UNL A   1      11.132  31.689  -0.079  1.00  0.00    +0.000 C 
ATOM     73  N5  UNL A   1      11.188  31.083   1.166  1.00  0.00    +0.000 N 
ATOM     74  C56 UNL A   1      10.237  30.194   1.137  1.00  0.00    +0.000 C 
ATOM     75  C57 UNL A   1      10.386  28.838   1.710  1.00  0.00    +0.000 C 
ATOM     87  C64 UNL A   1      11.267  28.163   0.933  1.00  0.00    +0.000 C 
ATOM     88  C65 UNL A   1      11.984  26.938   1.197  1.00  0.00    +0.000 C 
ATOM     89  C66 UNL A   1      12.764  26.671   0.131  1.00  0.00    +0.000 C 
ATOM     90  C67 UNL A   1      12.449  27.596  -0.967  1.00  0.00    +0.000 C 
ATOM     91  N6  UNL A   1      11.623  28.525  -0.383  1.00  0.00    +0.000 N 
ATOM     92  C68 UNL A   1       9.216  30.390   0.120  1.00  0.00    +0.000 C 
ATOM     93  C69 UNL A   1       9.854  31.274  -0.653  1.00  0.00    +0.000 C 
ATOM     94  C70 UNL A   1      11.015  28.596  -5.175  1.00  0.00    +0.000 C 
ATOM     95  C71 UNL A   1      11.312  27.606  -4.332  1.00  0.00    +0.000 C 
ENDROOT
BRANCH   39   38
ATOM     97  C73 UNL A   1      15.801  25.537  -3.128  1.00  0.00    +0.000 C 
ATOM     35  C30 UNL A   1      15.261  24.312  -3.499  1.00  0.00    +0.000 C 
ATOM     36  C31 UNL A   1      13.876  24.140  -3.604  1.00  0.00    +0.000 C 
ATOM    133  H34 UNL A   1      13.481  23.244  -3.930  1.00  0.00    +0.000 H 
ATOM     37  C32 UNL A   1      13.042  25.201  -3.260  1.00  0.00    +0.000 C 
ATOM     38  C33 UNL A   1      13.610  26.378  -2.750  1.00  0.00    +0.000 C 
ATOM    134  H35 UNL A   1      12.020  25.122  -3.378  1.00  0.00    +0.000 H 
ATOM    145  H46 UNL A   1      15.388  27.321  -2.122  1.00  0.00    +0.000 H 
ATOM    146  H47 UNL A   1      16.811  25.715  -3.242  1.00  0.00    +0.000 H 
ATOM     96  C72 UNL A   1      14.987  26.506  -2.611  1.00  0.00    +0.000 C 
BRANCH   35   33
ATOM     33  C29 UNL A   1      16.198  23.196  -3.737  1.00  0.00    +0.000 C 
ATOM     34  O2  UNL A   1      15.855  22.223  -4.370  1.00  0.00    +0.000 O 
BRANCH   33   32
ATOM    132  H33 UNL A   1      17.884  24.200  -3.222  1.00  0.00    +0.000 H 
ATOM     32  N2  UNL A   1      17.479  23.304  -3.213  1.00  0.00    +0.000 N 
BRANCH   32   31
ATOM    130  H31 UNL A   1      17.715  21.326  -2.642  1.00  0.00    +0.000 H 
ATOM    131  H32 UNL A   1      19.169  22.126  -3.249  1.00  0.00    +0.000 H 
ATOM     31  C28 UNL A   1      18.291  22.226  -2.646  1.00  0.00    +0.000 C 
BRANCH   31   30
ATOM    129  H30 UNL A   1      18.409  21.711  -0.617  1.00  0.00    +0.000 H 
ATOM     30  C27 UNL A   1      18.737  22.528  -1.225  1.00  0.00    +0.000 C 
ATOM    128  H29 UNL A   1      18.305  23.462  -0.929  1.00  0.00    +0.000 H 
BRANCH   30   29
ATOM     29  C26 UNL A   1      20.261  22.625  -1.056  1.00  0.00    +0.000 C 
ATOM    126  H27 UNL A   1      20.498  22.299  -0.063  1.00  0.00    +0.000 H 
ATOM    127  H28 UNL A   1      20.670  22.017  -1.835  1.00  0.00    +0.000 H 
BRANCH   29   28
ATOM    124  H25 UNL A   1      20.101  24.717  -1.396  1.00  0.00    +0.000 H 
ATOM     28  C25 UNL A   1      20.893  24.011  -1.252  1.00  0.00    +0.000 C 
ATOM    125  H26 UNL A   1      21.480  24.193  -0.376  1.00  0.00    +0.000 H 
BRANCH   28   27
ATOM    122  H23 UNL A   1      21.450  24.851  -3.121  1.00  0.00    +0.000 H 
ATOM     27  C24 UNL A   1      21.855  24.136  -2.435  1.00  0.00    +0.000 C 
ATOM    123  H24 UNL A   1      22.798  24.434  -2.029  1.00  0.00    +0.000 H 
BRANCH   27   26
ATOM    121  H22 UNL A   1      21.255  22.665  -3.827  1.00  0.00    +0.000 H 
ATOM     26  C23 UNL A   1      22.100  22.835  -3.194  1.00  0.00    +0.000 C 
ATOM    120  H21 UNL A   1      22.228  22.044  -2.485  1.00  0.00    +0.000 H 
BRANCH   26   25
ATOM     25  N1  UNL A   1      23.271  22.894  -4.036  1.00  0.00    +0.000 N 
ATOM    119  H20 UNL A   1      23.843  22.093  -4.026  1.00  0.00    +0.000 H 
BRANCH   25   23
ATOM     23  C22 UNL A   1      23.693  23.911  -4.845  1.00  0.00    +0.000 C 
ATOM     24  O1  UNL A   1      22.871  24.394  -5.628  1.00  0.00    +0.000 O 
BRANCH   23   22
ATOM    118  H19 UNL A   1      25.561  24.069  -3.895  1.00  0.00    +0.000 H 
ATOM    117  H18 UNL A   1      25.156  25.442  -4.953  1.00  0.00    +0.000 H 
ATOM     22  C21 UNL A   1      25.143  24.379  -4.830  1.00  0.00    +0.000 C 
BRANCH   22   21
ATOM      2  C2  UNL A   1      25.482  24.834  -9.413  1.00  0.00    +0.000 C 
ATOM     99  C74 UNL A   1      25.287  25.269  -7.931  1.00  0.00    +0.000 C 
ATOM      4  C4  UNL A   1      26.811  24.007  -9.392  1.00  0.00    +0.000 C 
ATOM      5  C5  UNL A   1      26.851  23.522  -7.991  1.00  0.00    +0.000 C 
ATOM     98  N7  UNL A   1      25.994  24.229  -7.195  1.00  0.00    +0.000 N 
ATOM      6  C6  UNL A   1      27.460  22.579  -7.211  1.00  0.00    +0.000 C 
ATOM    106  H7  UNL A   1      27.656  24.625  -9.613  1.00  0.00    +0.000 H 
ATOM    107  H8  UNL A   1      26.845  23.225 -10.120  1.00  0.00    +0.000 H 
ATOM     13  C13 UNL A   1      26.929  22.739  -5.882  1.00  0.00    +0.000 C 
ATOM    147  H48 UNL A   1      24.249  25.291  -7.669  1.00  0.00    +0.000 H 
ATOM    148  H49 UNL A   1      25.649  26.255  -7.728  1.00  0.00    +0.000 H 
ATOM     21  C20 UNL A   1      25.987  23.768  -5.909  1.00  0.00    +0.000 C 
BRANCH    2    1
ATOM      1  C1  UNL A   1      25.569  26.045 -10.341  1.00  0.00    +0.000 C 
ATOM    100  H1  UNL A   1      26.488  26.564 -10.164  1.00  0.00    +0.000 H 
ATOM    101  H2  UNL A   1      24.746  26.700 -10.151  1.00  0.00    +0.000 H 
ATOM    102  H3  UNL A   1      25.536  25.717 -11.359  1.00  0.00    +0.000 H 
ENDBRANCH    2    1
BRANCH    2    3
ATOM    105  H6  UNL A   1      24.268  23.066  -9.264  1.00  0.00    +0.000 H 
ATOM      3  C3  UNL A   1      24.320  23.937  -9.883  1.00  0.00    +0.000 C 
ATOM    103  H4  UNL A   1      24.485  23.643 -10.899  1.00  0.00    +0.000 H 
ATOM    104  H5  UNL A   1      23.400  24.479  -9.814  1.00  0.00    +0.000 H 
ENDBRANCH    2    3
BRANCH    6    7
ATOM      7  C7  UNL A   1      28.476  21.638  -7.632  1.00  0.00    +0.000 C 
ATOM      8  C8  UNL A   1      28.106  20.417  -8.200  1.00  0.00    +0.000 C 
ATOM      9  C9  UNL A   1      29.061  19.651  -8.867  1.00  0.00    +0.000 C 
ATOM     10  C10 UNL A   1      30.383  20.094  -8.953  1.00  0.00    +0.000 C 
ATOM     11  C11 UNL A   1      30.768  21.281  -8.331  1.00  0.00    +0.000 C 
ATOM     12  C12 UNL A   1      29.814  22.052  -7.673  1.00  0.00    +0.000 C 
ATOM    108  H9  UNL A   1      27.132  20.083  -8.126  1.00  0.00    +0.000 H 
ATOM    109  H10 UNL A   1      28.791  18.752  -9.299  1.00  0.00    +0.000 H 
ATOM    111  H12 UNL A   1      31.754  21.585  -8.359  1.00  0.00    +0.000 H 
ATOM    112  H13 UNL A   1      30.094  22.932  -7.213  1.00  0.00    +0.000 H 
ATOM    110  H11 UNL A   1      31.079  19.542  -9.479  1.00  0.00    +0.000 H 
ENDBRANCH    6    7
BRANCH   13   14
ATOM     14  C14 UNL A   1      27.337  21.977  -4.706  1.00  0.00    +0.000 C 
ATOM     15  C15 UNL A   1      26.524  20.929  -4.248  1.00  0.00    +0.000 C 
ATOM     16  C16 UNL A   1      26.801  20.294  -3.035  1.00  0.00    +0.000 C 
ATOM    113  H14 UNL A   1      25.715  20.624  -4.812  1.00  0.00    +0.000 H 
ATOM     17  C17 UNL A   1      27.902  20.696  -2.281  1.00  0.00    +0.000 C 
ATOM     19  C18 UNL A   1      28.720  21.732  -2.727  1.00  0.00    +0.000 C 
ATOM     20  C19 UNL A   1      28.426  22.381  -3.929  1.00  0.00    +0.000 C 
ATOM    116  H17 UNL A   1      29.019  23.165  -4.246  1.00  0.00    +0.000 H 
ATOM    114  H15 UNL A   1      26.194  19.530  -2.698  1.00  0.00    +0.000 H 
ATOM    115  H16 UNL A   1      29.541  22.019  -2.171  1.00  0.00    +0.000 H 
ATOM     18 Cl1  UNL A   1      28.234  19.933  -0.775  1.00  0.00    +0.000 Cl
ENDBRANCH   13   14
ENDBRANCH   22   21
ENDBRANCH   23   22
ENDBRANCH   25   23
ENDBRANCH   26   25
ENDBRANCH   27   26
ENDBRANCH   28   27
ENDBRANCH   29   28
ENDBRANCH   30   29
ENDBRANCH   31   30
ENDBRANCH   32   31
ENDBRANCH   33   32
ENDBRANCH   35   33
ENDBRANCH   39   38
BRANCH   43   44
ATOM     44  C38 UNL A   1       9.661  31.493  -5.384  1.00  0.00    +0.000 C 
ATOM     45  C39 UNL A   1       9.566  32.269  -6.558  1.00  0.00    +0.000 C 
ATOM     46  F1  UNL A   1      10.640  32.466  -7.338  1.00  0.00    +0.000 F 
ATOM     47  C40 UNL A   1       8.390  32.937  -6.914  1.00  0.00    +0.000 C 
ATOM     48  F2  UNL A   1       8.387  33.764  -7.967  1.00  0.00    +0.000 F 
ATOM     49  C41 UNL A   1       7.249  32.805  -6.145  1.00  0.00    +0.000 C 
ATOM     50  F3  UNL A   1       6.139  33.492  -6.448  1.00  0.00    +0.000 F 
ATOM     51  C42 UNL A   1       7.278  31.995  -5.032  1.00  0.00    +0.000 C 
ATOM     52  F4  UNL A   1       6.186  31.866  -4.265  1.00  0.00    +0.000 F 
ATOM     53  C43 UNL A   1       8.463  31.372  -4.645  1.00  0.00    +0.000 C 
ATOM     54  F5  UNL A   1       8.409  30.740  -3.468  1.00  0.00    +0.000 F 
ENDBRANCH   43   44
BRANCH   60   61
ATOM     65  F7  UNL A   1      16.782  30.856   0.793  1.00  0.00    +0.000 F 
ATOM     66  C52 UNL A   1      15.790  32.752   1.787  1.00  0.00    +0.000 C 
ATOM     67  F8  UNL A   1      16.895  32.969   2.514  1.00  0.00    +0.000 F 
ATOM     68  C53 UNL A   1      14.709  33.614   1.892  1.00  0.00    +0.000 C 
ATOM     69  F9  UNL A   1      14.778  34.677   2.705  1.00  0.00    +0.000 F 
ATOM     70  C54 UNL A   1      13.560  33.398   1.136  1.00  0.00    +0.000 C 
ATOM     71  F10 UNL A   1      12.540  34.262   1.248  1.00  0.00    +0.000 F 
ATOM     61  C49 UNL A   1      13.474  32.329   0.237  1.00  0.00    +0.000 C 
ATOM     62  C50 UNL A   1      14.596  31.489   0.125  1.00  0.00    +0.000 C 
ATOM     63  F6  UNL A   1      14.627  30.502  -0.779  1.00  0.00    +0.000 F 
ATOM     64  C51 UNL A   1      15.732  31.683   0.910  1.00  0.00    +0.000 C 
ENDBRANCH   60   61
BRANCH   75   76
ATOM     76  C58 UNL A   1       9.350  28.268   2.590  1.00  0.00    +0.000 C 
ATOM     77  C59 UNL A   1       8.235  27.591   2.072  1.00  0.00    +0.000 C 
ATOM     78  F11 UNL A   1       7.947  27.676   0.765  1.00  0.00    +0.000 F 
ATOM     79  C60 UNL A   1       7.460  26.745   2.871  1.00  0.00    +0.000 C 
ATOM     80  F12 UNL A   1       6.431  26.072   2.338  1.00  0.00    +0.000 F 
ATOM     81  C61 UNL A   1       7.808  26.524   4.192  1.00  0.00    +0.000 C 
ATOM     82  F13 UNL A   1       7.125  25.648   4.942  1.00  0.00    +0.000 F 
ATOM     83  C62 UNL A   1       8.915  27.165   4.715  1.00  0.00    +0.000 C 
ATOM     84  F14 UNL A   1       9.363  26.825   5.925  1.00  0.00    +0.000 F 
ATOM     85  C63 UNL A   1       9.650  28.057   3.945  1.00  0.00    +0.000 C 
ATOM     86  F15 UNL A   1      10.742  28.608   4.497  1.00  0.00    +0.000 F 
ENDBRANCH   75   76
TORSDOF 20
ENDMDL
MODEL 5
REMARK VINA RESULT:      -7.8     28.375     34.626
ROOT
ATOM    135  H36 UNL A   1      51.129  14.586   7.728  1.00  0.00    +0.000 H 
ATOM    136  H37 UNL A   1      53.427  14.156   6.455  1.00  0.00    +0.000 H 
ATOM    137  H38 UNL A   1      51.744  17.566   5.087  1.00  0.00    +0.000 H 
ATOM    138  H39 UNL A   1      58.760  20.347   8.295  1.00  0.00    +0.000 H 
ATOM    139  H40 UNL A   1      57.825  18.946  10.209  1.00  0.00    +0.000 H 
ATOM    140  H41 UNL A   1      54.983  18.914   7.185  1.00  0.00    +0.000 H 
ATOM    141  H42 UNL A   1      54.359  21.305   5.127  1.00  0.00    +0.000 H 
ATOM    142  H43 UNL A   1      52.854  19.208   5.082  1.00  0.00    +0.000 H 
ATOM    143  H44 UNL A   1      50.534  19.243  10.187  1.00  0.00    +0.000 H 
ATOM    144  H45 UNL A   1      52.865  20.015  10.973  1.00  0.00    +0.000 H 
ATOM     39  C34 UNL A   1      54.982  18.387   9.914  1.00  0.00    +0.000 C 
ATOM     40  C35 UNL A   1      53.534  18.356   9.573  1.00  0.00    +0.000 C 
ATOM     41  N3  UNL A   1      52.918  17.530   8.794  1.00  0.00    +0.000 N 
ATOM     42  C36 UNL A   1      51.590  17.950   8.758  1.00  0.00    +0.000 C 
ATOM     43  C37 UNL A   1      50.787  17.654   7.698  1.00  0.00    +0.000 C 
ATOM     55  C44 UNL A   1      51.349  16.584   6.912  1.00  0.00    +0.000 C 
ATOM     56  C45 UNL A   1      51.661  15.261   7.158  1.00  0.00    +0.000 C 
ATOM     57  C46 UNL A   1      52.879  15.031   6.452  1.00  0.00    +0.000 C 
ATOM     58  C47 UNL A   1      53.199  16.197   5.758  1.00  0.00    +0.000 C 
ATOM     59  N4  UNL A   1      52.035  16.922   5.771  1.00  0.00    +0.000 N 
ATOM     60  C48 UNL A   1      54.433  16.689   5.199  1.00  0.00    +0.000 C 
ATOM     72  C55 UNL A   1      54.693  17.997   4.914  1.00  0.00    +0.000 C 
ATOM     73  N5  UNL A   1      55.999  18.442   4.786  1.00  0.00    +0.000 N 
ATOM     74  C56 UNL A   1      55.950  19.695   5.136  1.00  0.00    +0.000 C 
ATOM     75  C57 UNL A   1      56.993  20.340   5.963  1.00  0.00    +0.000 C 
ATOM     87  C64 UNL A   1      56.904  19.818   7.211  1.00  0.00    +0.000 C 
ATOM     88  C65 UNL A   1      57.845  19.867   8.304  1.00  0.00    +0.000 C 
ATOM     89  C66 UNL A   1      57.321  19.180   9.339  1.00  0.00    +0.000 C 
ATOM     90  C67 UNL A   1      55.928  18.816   9.047  1.00  0.00    +0.000 C 
ATOM     91  N6  UNL A   1      55.779  19.135   7.719  1.00  0.00    +0.000 N 
ATOM     92  C68 UNL A   1      54.634  20.311   5.106  1.00  0.00    +0.000 C 
ATOM     93  C69 UNL A   1      53.884  19.207   5.043  1.00  0.00    +0.000 C 
ATOM     94  C70 UNL A   1      51.439  18.900   9.829  1.00  0.00    +0.000 C 
ATOM     95  C71 UNL A   1      52.633  19.275  10.291  1.00  0.00    +0.000 C 
ENDROOT
BRANCH   39   38
ATOM     97  C73 UNL A   1      56.212  16.743  12.975  1.00  0.00    +0.000 C 
ATOM     35  C30 UNL A   1      56.021  17.730  13.934  1.00  0.00    +0.000 C 
ATOM     36  C31 UNL A   1      55.356  18.920  13.618  1.00  0.00    +0.000 C 
ATOM    133  H34 UNL A   1      55.171  19.628  14.345  1.00  0.00    +0.000 H 
ATOM     37  C32 UNL A   1      54.949  19.129  12.302  1.00  0.00    +0.000 C 
ATOM     38  C33 UNL A   1      55.282  18.180  11.325  1.00  0.00    +0.000 C 
ATOM    134  H35 UNL A   1      54.409  19.972  12.050  1.00  0.00    +0.000 H 
ATOM    145  H46 UNL A   1      56.336  16.399  10.919  1.00  0.00    +0.000 H 
ATOM    146  H47 UNL A   1      56.522  15.800  13.256  1.00  0.00    +0.000 H 
ATOM     96  C72 UNL A   1      55.987  17.029  11.657  1.00  0.00    +0.000 C 
BRANCH   35   33
ATOM     33  C29 UNL A   1      56.581  17.493  15.280  1.00  0.00    +0.000 C 
ATOM     34  O2  UNL A   1      57.491  16.714  15.445  1.00  0.00    +0.000 O 
BRANCH   33   32
ATOM    132  H33 UNL A   1      55.064  18.077  16.496  1.00  0.00    +0.000 H 
ATOM     32  N2  UNL A   1      56.029  18.196  16.343  1.00  0.00    +0.000 N 
BRANCH   32   31
ATOM    130  H31 UNL A   1      56.954  18.562  18.160  1.00  0.00    +0.000 H 
ATOM    131  H32 UNL A   1      57.619  19.433  16.774  1.00  0.00    +0.000 H 
ATOM     31  C28 UNL A   1      56.729  19.095  17.262  1.00  0.00    +0.000 C 
BRANCH   31   30
ATOM    129  H30 UNL A   1      56.522  21.172  17.451  1.00  0.00    +0.000 H 
ATOM     30  C27 UNL A   1      55.900  20.318  17.613  1.00  0.00    +0.000 C 
ATOM    128  H29 UNL A   1      55.581  20.228  18.630  1.00  0.00    +0.000 H 
BRANCH   30   29
ATOM     29  C26 UNL A   1      54.654  20.503  16.732  1.00  0.00    +0.000 C 
ATOM    126  H27 UNL A   1      54.988  20.754  15.746  1.00  0.00    +0.000 H 
ATOM    127  H28 UNL A   1      54.121  19.577  16.800  1.00  0.00    +0.000 H 
BRANCH   29   28
ATOM    124  H25 UNL A   1      53.463  21.451  18.216  1.00  0.00    +0.000 H 
ATOM     28  C25 UNL A   1      53.649  21.579  17.170  1.00  0.00    +0.000 C 
ATOM    125  H26 UNL A   1      54.100  22.518  16.923  1.00  0.00    +0.000 H 
BRANCH   28   27
ATOM    122  H23 UNL A   1      52.481  21.711  15.402  1.00  0.00    +0.000 H 
ATOM     27  C24 UNL A   1      52.302  21.558  16.446  1.00  0.00    +0.000 C 
ATOM    123  H24 UNL A   1      51.858  20.609  16.659  1.00  0.00    +0.000 H 
BRANCH   27   26
ATOM    121  H22 UNL A   1      51.580  22.891  17.917  1.00  0.00    +0.000 H 
ATOM     26  C23 UNL A   1      51.311  22.619  16.918  1.00  0.00    +0.000 C 
ATOM    120  H21 UNL A   1      50.323  22.209  16.873  1.00  0.00    +0.000 H 
BRANCH   26   25
ATOM     25  N1  UNL A   1      51.351  23.816  16.114  1.00  0.00    +0.000 N 
ATOM    119  H20 UNL A   1      50.848  23.778  15.268  1.00  0.00    +0.000 H 
BRANCH   25   23
ATOM     23  C22 UNL A   1      51.993  24.995  16.365  1.00  0.00    +0.000 C 
ATOM     24  O1  UNL A   1      51.684  25.603  17.394  1.00  0.00    +0.000 O 
BRANCH   23   22
ATOM    118  H19 UNL A   1      53.312  26.517  15.764  1.00  0.00    +0.000 H 
ATOM    117  H18 UNL A   1      52.521  25.656  14.422  1.00  0.00    +0.000 H 
ATOM     22  C21 UNL A   1      52.998  25.571  15.376  1.00  0.00    +0.000 C 
BRANCH   22   21
ATOM      2  C2  UNL A   1      56.996  25.104  17.641  1.00  0.00    +0.000 C 
ATOM     99  C74 UNL A   1      55.465  25.310  17.444  1.00  0.00    +0.000 C 
ATOM      4  C4  UNL A   1      57.315  23.821  16.803  1.00  0.00    +0.000 C 
ATOM      5  C5  UNL A   1      56.235  23.839  15.787  1.00  0.00    +0.000 C 
ATOM     98  N7  UNL A   1      55.218  24.675  16.156  1.00  0.00    +0.000 N 
ATOM      6  C6  UNL A   1      55.909  23.297  14.575  1.00  0.00    +0.000 C 
ATOM    106  H7  UNL A   1      57.264  22.940  17.408  1.00  0.00    +0.000 H 
ATOM    107  H8  UNL A   1      58.299  23.811  16.385  1.00  0.00    +0.000 H 
ATOM     13  C13 UNL A   1      54.630  23.850  14.208  1.00  0.00    +0.000 C 
ATOM    147  H48 UNL A   1      55.216  26.351  17.416  1.00  0.00    +0.000 H 
ATOM    148  H49 UNL A   1      54.878  24.902  18.239  1.00  0.00    +0.000 H 
ATOM     21  C20 UNL A   1      54.233  24.735  15.212  1.00  0.00    +0.000 C 
BRANCH    2    1
ATOM      1  C1  UNL A   1      57.348  24.933  19.118  1.00  0.00    +0.000 C 
ATOM    100  H1  UNL A   1      58.074  24.154  19.224  1.00  0.00    +0.000 H 
ATOM    101  H2  UNL A   1      56.467  24.677  19.667  1.00  0.00    +0.000 H 
ATOM    102  H3  UNL A   1      57.750  25.849  19.497  1.00  0.00    +0.000 H 
ENDBRANCH    2    1
BRANCH    2    3
ATOM    105  H6  UNL A   1      57.476  26.501  16.078  1.00  0.00    +0.000 H 
ATOM      3  C3  UNL A   1      57.791  26.301  17.081  1.00  0.00    +0.000 C 
ATOM    103  H4  UNL A   1      58.836  26.069  17.088  1.00  0.00    +0.000 H 
ATOM    104  H5  UNL A   1      57.613  27.162  17.690  1.00  0.00    +0.000 H 
ENDBRANCH    2    3
BRANCH    6    7
ATOM      7  C7  UNL A   1      56.678  22.323  13.831  1.00  0.00    +0.000 C 
ATOM      8  C8  UNL A   1      56.784  22.427  12.443  1.00  0.00    +0.000 C 
ATOM      9  C9  UNL A   1      57.749  21.680  11.768  1.00  0.00    +0.000 C 
ATOM     10  C10 UNL A   1      58.594  20.821  12.475  1.00  0.00    +0.000 C 
ATOM     11  C11 UNL A   1      58.447  20.668  13.853  1.00  0.00    +0.000 C 
ATOM     12  C12 UNL A   1      57.491  21.419  14.530  1.00  0.00    +0.000 C 
ATOM    108  H9  UNL A   1      56.151  23.052  11.919  1.00  0.00    +0.000 H 
ATOM    109  H10 UNL A   1      57.840  21.761  10.743  1.00  0.00    +0.000 H 
ATOM    111  H12 UNL A   1      59.044  20.001  14.367  1.00  0.00    +0.000 H 
ATOM    112  H13 UNL A   1      57.380  21.311  15.550  1.00  0.00    +0.000 H 
ATOM    110  H11 UNL A   1      59.331  20.298  11.977  1.00  0.00    +0.000 H 
ENDBRANCH    6    7
BRANCH   13   14
ATOM     14  C14 UNL A   1      53.868  23.509  13.011  1.00  0.00    +0.000 C 
ATOM     15  C15 UNL A   1      53.872  24.389  11.918  1.00  0.00    +0.000 C 
ATOM     16  C16 UNL A   1      53.024  24.173  10.830  1.00  0.00    +0.000 C 
ATOM    113  H14 UNL A   1      54.507  25.203  11.919  1.00  0.00    +0.000 H 
ATOM     17  C17 UNL A   1      52.177  23.066  10.824  1.00  0.00    +0.000 C 
ATOM     19  C18 UNL A   1      52.168  22.181  11.901  1.00  0.00    +0.000 C 
ATOM     20  C19 UNL A   1      53.000  22.414  12.999  1.00  0.00    +0.000 C 
ATOM    116  H17 UNL A   1      52.974  21.771  13.806  1.00  0.00    +0.000 H 
ATOM    114  H15 UNL A   1      53.024  24.829  10.033  1.00  0.00    +0.000 H 
ATOM    115  H16 UNL A   1      51.547  21.356  11.886  1.00  0.00    +0.000 H 
ATOM     18 Cl1  UNL A   1      51.114  22.807   9.496  1.00  0.00    +0.000 Cl
ENDBRANCH   13   14
ENDBRANCH   22   21
ENDBRANCH   23   22
ENDBRANCH   25   23
ENDBRANCH   26   25
ENDBRANCH   27   26
ENDBRANCH   28   27
ENDBRANCH   29   28
ENDBRANCH   30   29
ENDBRANCH   31   30
ENDBRANCH   32   31
ENDBRANCH   33   32
ENDBRANCH   35   33
ENDBRANCH   39   38
BRANCH   43   44
ATOM     44  C38 UNL A   1      49.695  18.554   7.162  1.00  0.00    +0.000 C 
ATOM     45  C39 UNL A   1      48.511  17.970   6.662  1.00  0.00    +0.000 C 
ATOM     46  F1  UNL A   1      48.239  16.676   6.886  1.00  0.00    +0.000 F 
ATOM     47  C40 UNL A   1      47.625  18.676   5.843  1.00  0.00    +0.000 C 
ATOM     48  F2  UNL A   1      46.583  18.042   5.288  1.00  0.00    +0.000 F 
ATOM     49  C41 UNL A   1      47.853  20.006   5.545  1.00  0.00    +0.000 C 
ATOM     50  F3  UNL A   1      47.039  20.668   4.712  1.00  0.00    +0.000 F 
ATOM     51  C42 UNL A   1      48.957  20.634   6.076  1.00  0.00    +0.000 C 
ATOM     52  F4  UNL A   1      49.204  21.920   5.787  1.00  0.00    +0.000 F 
ATOM     53  C43 UNL A   1      49.872  19.919   6.848  1.00  0.00    +0.000 C 
ATOM     54  F5  UNL A   1      50.979  20.592   7.178  1.00  0.00    +0.000 F 
ENDBRANCH   43   44
BRANCH   60   61
ATOM     65  F7  UNL A   1      58.046  14.012   7.247  1.00  0.00    +0.000 F 
ATOM     66  C52 UNL A   1      57.605  13.767   4.942  1.00  0.00    +0.000 C 
ATOM     67  F8  UNL A   1      58.548  12.820   4.846  1.00  0.00    +0.000 F 
ATOM     68  C53 UNL A   1      56.866  14.129   3.826  1.00  0.00    +0.000 C 
ATOM     69  F9  UNL A   1      57.081  13.515   2.654  1.00  0.00    +0.000 F 
ATOM     70  C54 UNL A   1      55.880  15.108   3.920  1.00  0.00    +0.000 C 
ATOM     71  F10 UNL A   1      55.171  15.420   2.825  1.00  0.00    +0.000 F 
ATOM     61  C49 UNL A   1      55.592  15.730   5.139  1.00  0.00    +0.000 C 
ATOM     62  C50 UNL A   1      56.332  15.323   6.264  1.00  0.00    +0.000 C 
ATOM     63  F6  UNL A   1      56.052  15.803   7.482  1.00  0.00    +0.000 F 
ATOM     64  C51 UNL A   1      57.345  14.369   6.161  1.00  0.00    +0.000 C 
ENDBRANCH   60   61
BRANCH   75   76
ATOM     76  C58 UNL A   1      57.572  21.640   5.578  1.00  0.00    +0.000 C 
ATOM     77  C59 UNL A   1      58.153  21.843   4.317  1.00  0.00    +0.000 C 
ATOM     78  F11 UNL A   1      58.435  20.793   3.532  1.00  0.00    +0.000 F 
ATOM     79  C60 UNL A   1      58.364  23.129   3.810  1.00  0.00    +0.000 C 
ATOM     80  F12 UNL A   1      58.874  23.293   2.582  1.00  0.00    +0.000 F 
ATOM     81  C61 UNL A   1      57.959  24.237   4.533  1.00  0.00    +0.000 C 
ATOM     82  F13 UNL A   1      58.075  25.469   4.019  1.00  0.00    +0.000 F 
ATOM     83  C62 UNL A   1      57.365  24.057   5.768  1.00  0.00    +0.000 C 
ATOM     84  F14 UNL A   1      56.811  25.099   6.391  1.00  0.00    +0.000 F 
ATOM     85  C63 UNL A   1      57.213  22.785   6.306  1.00  0.00    +0.000 C 
ATOM     86  F15 UNL A   1      56.583  22.676   7.487  1.00  0.00    +0.000 F 
ENDBRANCH   75   76
TORSDOF 20
ENDMDL
MODEL 6
REMARK VINA RESULT:      -7.8     15.790     20.956
ROOT
ATOM    135  H36 UNL A   1      10.697  34.339   0.051  1.00  0.00    +0.000 H 
ATOM    136  H37 UNL A   1       9.689  33.430  -2.239  1.00  0.00    +0.000 H 
ATOM    137  H38 UNL A   1      13.415  31.952  -1.723  1.00  0.00    +0.000 H 
ATOM    138  H39 UNL A   1       8.902  25.106  -1.754  1.00  0.00    +0.000 H 
ATOM    139  H40 UNL A   1       7.671  26.539  -0.043  1.00  0.00    +0.000 H 
ATOM    140  H41 UNL A   1      11.041  28.666  -1.204  1.00  0.00    +0.000 H 
ATOM    141  H42 UNL A   1      13.889  27.425  -2.034  1.00  0.00    +0.000 H 
ATOM    142  H43 UNL A   1      13.659  29.991  -1.860  1.00  0.00    +0.000 H 
ATOM    143  H44 UNL A   1      12.417  30.755   3.555  1.00  0.00    +0.000 H 
ATOM    144  H45 UNL A   1      10.981  28.633   3.272  1.00  0.00    +0.000 H 
ATOM     39  C34 UNL A   1       9.290  28.746   0.953  1.00  0.00    +0.000 C 
ATOM     40  C35 UNL A   1      10.360  29.695   1.363  1.00  0.00    +0.000 C 
ATOM     41  N3  UNL A   1      10.689  30.813   0.804  1.00  0.00    +0.000 N 
ATOM     42  C36 UNL A   1      11.779  31.298   1.524  1.00  0.00    +0.000 C 
ATOM     43  C37 UNL A   1      12.676  32.149   0.952  1.00  0.00    +0.000 C 
ATOM     55  C44 UNL A   1      12.133  32.740  -0.245  1.00  0.00    +0.000 C 
ATOM     56  C45 UNL A   1      11.051  33.556  -0.518  1.00  0.00    +0.000 C 
ATOM     57  C46 UNL A   1      10.533  33.079  -1.758  1.00  0.00    +0.000 C 
ATOM     58  C47 UNL A   1      11.366  32.056  -2.207  1.00  0.00    +0.000 C 
ATOM     59  N4  UNL A   1      12.501  32.197  -1.451  1.00  0.00    +0.000 N 
ATOM     60  C48 UNL A   1      11.171  30.987  -3.153  1.00  0.00    +0.000 C 
ATOM     72  C55 UNL A   1      11.906  29.838  -3.194  1.00  0.00    +0.000 C 
ATOM     73  N5  UNL A   1      11.410  28.709  -3.826  1.00  0.00    +0.000 N 
ATOM     74  C56 UNL A   1      11.970  27.715  -3.199  1.00  0.00    +0.000 C 
ATOM     75  C57 UNL A   1      11.245  26.472  -2.852  1.00  0.00    +0.000 C 
ATOM     87  C64 UNL A   1      10.339  26.784  -1.893  1.00  0.00    +0.000 C 
ATOM     88  C65 UNL A   1       9.197  26.038  -1.421  1.00  0.00    +0.000 C 
ATOM     89  C66 UNL A   1       8.583  26.769  -0.469  1.00  0.00    +0.000 C 
ATOM     90  C67 UNL A   1       9.403  27.939  -0.127  1.00  0.00    +0.000 C 
ATOM     91  N6  UNL A   1      10.384  27.942  -1.090  1.00  0.00    +0.000 N 
ATOM     92  C68 UNL A   1      13.161  28.039  -2.431  1.00  0.00    +0.000 C 
ATOM     93  C69 UNL A   1      13.034  29.368  -2.393  1.00  0.00    +0.000 C 
ATOM     94  C70 UNL A   1      11.846  30.515   2.730  1.00  0.00    +0.000 C 
ATOM     95  C71 UNL A   1      11.067  29.437   2.630  1.00  0.00    +0.000 C 
ENDROOT
BRANCH   39   38
ATOM     97  C73 UNL A   1       6.308  29.457   2.999  1.00  0.00    +0.000 C 
ATOM     35  C30 UNL A   1       6.118  28.253   3.667  1.00  0.00    +0.000 C 
ATOM     36  C31 UNL A   1       7.051  27.217   3.559  1.00  0.00    +0.000 C 
ATOM    133  H34 UNL A   1       6.933  26.344   4.097  1.00  0.00    +0.000 H 
ATOM     37  C32 UNL A   1       8.143  27.386   2.710  1.00  0.00    +0.000 C 
ATOM     38  C33 UNL A   1       8.233  28.553   1.938  1.00  0.00    +0.000 C 
ATOM    134  H35 UNL A   1       8.876  26.661   2.650  1.00  0.00    +0.000 H 
ATOM    145  H46 UNL A   1       7.271  30.342   1.371  1.00  0.00    +0.000 H 
ATOM    146  H47 UNL A   1       5.729  30.278   3.235  1.00  0.00    +0.000 H 
ATOM     96  C72 UNL A   1       7.266  29.547   2.029  1.00  0.00    +0.000 C 
BRANCH   35   33
ATOM     33  C29 UNL A   1       4.880  28.098   4.458  1.00  0.00    +0.000 C 
ATOM     34  O2  UNL A   1       4.775  28.603   5.552  1.00  0.00    +0.000 O 
BRANCH   33   32
ATOM    132  H33 UNL A   1       3.801  26.406   4.151  1.00  0.00    +0.000 H 
ATOM     32  N2  UNL A   1       3.846  27.356   3.900  1.00  0.00    +0.000 N 
BRANCH   32   31
ATOM    130  H31 UNL A   1       1.899  27.329   3.193  1.00  0.00    +0.000 H 
ATOM    131  H32 UNL A   1       2.718  28.894   3.122  1.00  0.00    +0.000 H 
ATOM     31  C28 UNL A   1       2.815  27.838   2.981  1.00  0.00    +0.000 C 
BRANCH   31   30
ATOM    129  H30 UNL A   1       2.287  27.298   1.025  1.00  0.00    +0.000 H 
ATOM     30  C27 UNL A   1       3.183  27.596   1.527  1.00  0.00    +0.000 C 
ATOM    128  H29 UNL A   1       3.944  26.845   1.493  1.00  0.00    +0.000 H 
BRANCH   30   29
ATOM     29  C26 UNL A   1       3.705  28.846   0.799  1.00  0.00    +0.000 C 
ATOM    126  H27 UNL A   1       3.338  29.704   1.324  1.00  0.00    +0.000 H 
ATOM    127  H28 UNL A   1       4.770  28.745   0.797  1.00  0.00    +0.000 H 
BRANCH   29   28
ATOM    124  H25 UNL A   1       2.494  28.339  -0.873  1.00  0.00    +0.000 H 
ATOM     28  C25 UNL A   1       3.312  29.001  -0.678  1.00  0.00    +0.000 C 
ATOM    125  H26 UNL A   1       3.071  30.036  -0.810  1.00  0.00    +0.000 H 
BRANCH   28   27
ATOM    122  H23 UNL A   1       4.652  29.600  -2.212  1.00  0.00    +0.000 H 
ATOM     27  C24 UNL A   1       4.417  28.696  -1.691  1.00  0.00    +0.000 C 
ATOM    123  H24 UNL A   1       5.242  28.308  -1.131  1.00  0.00    +0.000 H 
BRANCH   27   26
ATOM    121  H22 UNL A   1       3.590  26.821  -2.204  1.00  0.00    +0.000 H 
ATOM     26  C23 UNL A   1       4.055  27.632  -2.724  1.00  0.00    +0.000 C 
ATOM    120  H21 UNL A   1       4.949  27.320  -3.222  1.00  0.00    +0.000 H 
BRANCH   26   25
ATOM     25  N1  UNL A   1       3.118  28.111  -3.712  1.00  0.00    +0.000 N 
ATOM    119  H20 UNL A   1       2.233  27.681  -3.701  1.00  0.00    +0.000 H 
BRANCH   25   23
ATOM     23  C22 UNL A   1       3.294  29.079  -4.659  1.00  0.00    +0.000 C 
ATOM     24  O1  UNL A   1       4.081  28.840  -5.578  1.00  0.00    +0.000 O 
BRANCH   23   22
ATOM    118  H19 UNL A   1       2.331  30.555  -3.514  1.00  0.00    +0.000 H 
ATOM    117  H18 UNL A   1       1.748  30.429  -5.190  1.00  0.00    +0.000 H 
ATOM     22  C21 UNL A   1       2.599  30.430  -4.541  1.00  0.00    +0.000 C 
BRANCH   22   21
ATOM      2  C2  UNL A   1       3.905  32.464  -8.477  1.00  0.00    +0.000 C 
ATOM     99  C74 UNL A   1       2.960  31.747  -7.468  1.00  0.00    +0.000 C 
ATOM      4  C4  UNL A   1       4.492  33.661  -7.657  1.00  0.00    +0.000 C 
ATOM      5  C5  UNL A   1       4.393  33.161  -6.264  1.00  0.00    +0.000 C 
ATOM     98  N7  UNL A   1       3.542  32.094  -6.178  1.00  0.00    +0.000 N 
ATOM      6  C6  UNL A   1       4.882  33.404  -5.011  1.00  0.00    +0.000 C 
ATOM    106  H7  UNL A   1       3.910  34.548  -7.793  1.00  0.00    +0.000 H 
ATOM    107  H8  UNL A   1       5.485  33.937  -7.946  1.00  0.00    +0.000 H 
ATOM     13  C13 UNL A   1       4.289  32.422  -4.140  1.00  0.00    +0.000 C 
ATOM    147  H48 UNL A   1       2.964  30.687  -7.622  1.00  0.00    +0.000 H 
ATOM    148  H49 UNL A   1       1.936  32.041  -7.565  1.00  0.00    +0.000 H 
ATOM     21  C20 UNL A   1       3.471  31.594  -4.910  1.00  0.00    +0.000 C 
BRANCH    2    1
ATOM      1  C1  UNL A   1       3.143  32.931  -9.716  1.00  0.00    +0.000 C 
ATOM    100  H1  UNL A   1       3.798  33.495 -10.346  1.00  0.00    +0.000 H 
ATOM    101  H2  UNL A   1       2.319  33.543  -9.419  1.00  0.00    +0.000 H 
ATOM    102  H3  UNL A   1       2.779  32.079 -10.253  1.00  0.00    +0.000 H 
ENDBRANCH    2    1
BRANCH    2    3
ATOM    105  H6  UNL A   1       5.172  31.601  -9.984  1.00  0.00    +0.000 H 
ATOM      3  C3  UNL A   1       5.047  31.530  -8.924  1.00  0.00    +0.000 C 
ATOM    103  H4  UNL A   1       4.806  30.521  -8.660  1.00  0.00    +0.000 H 
ATOM    104  H5  UNL A   1       5.955  31.819  -8.437  1.00  0.00    +0.000 H 
ENDBRANCH    2    3
BRANCH    6    7
ATOM      7  C7  UNL A   1       5.783  34.470  -4.630  1.00  0.00    +0.000 C 
ATOM      8  C8  UNL A   1       7.060  34.171  -4.151  1.00  0.00    +0.000 C 
ATOM      9  C9  UNL A   1       8.018  35.181  -4.067  1.00  0.00    +0.000 C 
ATOM     10  C10 UNL A   1       7.698  36.487  -4.444  1.00  0.00    +0.000 C 
ATOM     11  C11 UNL A   1       6.405  36.801  -4.861  1.00  0.00    +0.000 C 
ATOM     12  C12 UNL A   1       5.450  35.793  -4.955  1.00  0.00    +0.000 C 
ATOM    108  H9  UNL A   1       7.293  33.208  -3.861  1.00  0.00    +0.000 H 
ATOM    109  H10 UNL A   1       8.967  34.962  -3.725  1.00  0.00    +0.000 H 
ATOM    111  H12 UNL A   1       6.159  37.774  -5.099  1.00  0.00    +0.000 H 
ATOM    112  H13 UNL A   1       4.492  36.020  -5.265  1.00  0.00    +0.000 H 
ATOM    110  H11 UNL A   1       8.420  37.223  -4.415  1.00  0.00    +0.000 H 
ENDBRANCH    6    7
BRANCH   13   14
ATOM     14  C14 UNL A   1       4.484  32.338  -2.697  1.00  0.00    +0.000 C 
ATOM     15  C15 UNL A   1       3.409  32.610  -1.838  1.00  0.00    +0.000 C 
ATOM     16  C16 UNL A   1       3.607  32.701  -0.458  1.00  0.00    +0.000 C 
ATOM    113  H14 UNL A   1       2.463  32.744  -2.229  1.00  0.00    +0.000 H 
ATOM     17  C17 UNL A   1       4.881  32.506   0.070  1.00  0.00    +0.000 C 
ATOM     19  C18 UNL A   1       5.958  32.229  -0.771  1.00  0.00    +0.000 C 
ATOM     20  C19 UNL A   1       5.760  32.163  -2.153  1.00  0.00    +0.000 C 
ATOM    116  H17 UNL A   1       6.563  31.983  -2.777  1.00  0.00    +0.000 H 
ATOM    114  H15 UNL A   1       2.814  32.911   0.168  1.00  0.00    +0.000 H 
ATOM    115  H16 UNL A   1       6.897  32.074  -0.374  1.00  0.00    +0.000 H 
ATOM     18 Cl1  UNL A   1       5.135  32.639   1.767  1.00  0.00    +0.000 Cl
ENDBRANCH   13   14
ENDBRANCH   22   21
ENDBRANCH   23   22
ENDBRANCH   25   23
ENDBRANCH   26   25
ENDBRANCH   27   26
ENDBRANCH   28   27
ENDBRANCH   29   28
ENDBRANCH   30   29
ENDBRANCH   31   30
ENDBRANCH   32   31
ENDBRANCH   33   32
ENDBRANCH   35   33
ENDBRANCH   39   38
BRANCH   43   44
ATOM     44  C38 UNL A   1      14.158  32.176   1.256  1.00  0.00    +0.000 C 
ATOM     45  C39 UNL A   1      14.683  33.246   2.012  1.00  0.00    +0.000 C 
ATOM     46  F1  UNL A   1      13.867  34.084   2.669  1.00  0.00    +0.000 F 
ATOM     47  C40 UNL A   1      16.050  33.535   2.039  1.00  0.00    +0.000 C 
ATOM     48  F2  UNL A   1      16.485  34.637   2.665  1.00  0.00    +0.000 F 
ATOM     49  C41 UNL A   1      16.950  32.733   1.364  1.00  0.00    +0.000 C 
ATOM     50  F3  UNL A   1      18.253  33.043   1.336  1.00  0.00    +0.000 F 
ATOM     51  C42 UNL A   1      16.487  31.634   0.676  1.00  0.00    +0.000 C 
ATOM     52  F4  UNL A   1      17.342  30.850   0.003  1.00  0.00    +0.000 F 
ATOM     53  C43 UNL A   1      15.119  31.373   0.603  1.00  0.00    +0.000 C 
ATOM     54  F5  UNL A   1      14.779  30.373  -0.217  1.00  0.00    +0.000 F 
ENDBRANCH   43   44
BRANCH   60   61
ATOM     65  F7  UNL A   1       8.729  32.000  -7.327  1.00  0.00    +0.000 F 
ATOM     66  C52 UNL A   1       7.599  30.888  -5.580  1.00  0.00    +0.000 C 
ATOM     67  F8  UNL A   1       6.493  30.798  -6.332  1.00  0.00    +0.000 F 
ATOM     68  C53 UNL A   1       7.617  30.351  -4.302  1.00  0.00    +0.000 C 
ATOM     69  F9  UNL A   1       6.534  29.722  -3.826  1.00  0.00    +0.000 F 
ATOM     70  C54 UNL A   1       8.765  30.436  -3.518  1.00  0.00    +0.000 C 
ATOM     71  F10 UNL A   1       8.754  29.889  -2.293  1.00  0.00    +0.000 F 
ATOM     61  C49 UNL A   1       9.931  31.038  -4.004  1.00  0.00    +0.000 C 
ATOM     62  C50 UNL A   1       9.898  31.545  -5.315  1.00  0.00    +0.000 C 
ATOM     63  F6  UNL A   1      10.999  32.051  -5.884  1.00  0.00    +0.000 F 
ATOM     64  C51 UNL A   1       8.736  31.493  -6.086  1.00  0.00    +0.000 C 
ENDBRANCH   60   61
BRANCH   75   76
ATOM     76  C58 UNL A   1      11.828  25.148  -3.134  1.00  0.00    +0.000 C 
ATOM     77  C59 UNL A   1      11.779  24.580  -4.416  1.00  0.00    +0.000 C 
ATOM     78  F11 UNL A   1      10.971  25.102  -5.350  1.00  0.00    +0.000 F 
ATOM     79  C60 UNL A   1      12.625  23.528  -4.780  1.00  0.00    +0.000 C 
ATOM     80  F12 UNL A   1      12.592  23.037  -6.026  1.00  0.00    +0.000 F 
ATOM     81  C61 UNL A   1      13.569  23.053  -3.885  1.00  0.00    +0.000 C 
ATOM     82  F13 UNL A   1      14.444  22.107  -4.253  1.00  0.00    +0.000 F 
ATOM     83  C62 UNL A   1      13.648  23.615  -2.625  1.00  0.00    +0.000 C 
ATOM     84  F14 UNL A   1      14.663  23.292  -1.822  1.00  0.00    +0.000 F 
ATOM     85  C63 UNL A   1      12.765  24.615  -2.235  1.00  0.00    +0.000 C 
ATOM     86  F15 UNL A   1      12.928  25.152  -1.016  1.00  0.00    +0.000 F 
ENDBRANCH   75   76
TORSDOF 20
ENDMDL
MODEL 7
REMARK VINA RESULT:      -7.7     37.689     42.587
ROOT
ATOM    135  H36 UNL A   1       1.713  14.806  37.509  1.00  0.00    +0.000 H 
ATOM    136  H37 UNL A   1       4.298  14.657  38.128  1.00  0.00    +0.000 H 
ATOM    137  H38 UNL A   1       2.423  17.104  40.741  1.00  0.00    +0.000 H 
ATOM    138  H39 UNL A   1       5.089  11.128  45.682  1.00  0.00    +0.000 H 
ATOM    139  H40 UNL A   1       3.913   9.807  43.848  1.00  0.00    +0.000 H 
ATOM    140  H41 UNL A   1       3.310  13.829  43.020  1.00  0.00    +0.000 H 
ATOM    141  H42 UNL A   1       2.991  16.194  45.176  1.00  0.00    +0.000 H 
ATOM    142  H43 UNL A   1       2.655  16.744  42.676  1.00  0.00    +0.000 H 
ATOM    143  H44 UNL A   1      -1.781  13.598  41.306  1.00  0.00    +0.000 H 
ATOM    144  H45 UNL A   1      -0.693  11.832  42.837  1.00  0.00    +0.000 H 
ATOM     39  C34 UNL A   1       2.096  11.446  42.266  1.00  0.00    +0.000 C 
ATOM     40  C35 UNL A   1       1.173  12.473  41.712  1.00  0.00    +0.000 C 
ATOM     41  N3  UNL A   1       1.418  13.349  40.794  1.00  0.00    +0.000 N 
ATOM     42  C36 UNL A   1       0.258  14.111  40.670  1.00  0.00    +0.000 C 
ATOM     43  C37 UNL A   1       0.303  15.387  40.193  1.00  0.00    +0.000 C 
ATOM     55  C44 UNL A   1       1.547  15.635  39.507  1.00  0.00    +0.000 C 
ATOM     56  C45 UNL A   1       2.160  15.101  38.390  1.00  0.00    +0.000 C 
ATOM     57  C46 UNL A   1       3.547  15.048  38.719  1.00  0.00    +0.000 C 
ATOM     58  C47 UNL A   1       3.710  15.619  39.981  1.00  0.00    +0.000 C 
ATOM     59  N4  UNL A   1       2.536  16.294  40.194  1.00  0.00    +0.000 N 
ATOM     60  C48 UNL A   1       4.760  15.523  40.964  1.00  0.00    +0.000 C 
ATOM     72  C55 UNL A   1       4.611  15.794  42.292  1.00  0.00    +0.000 C 
ATOM     73  N5  UNL A   1       5.510  15.289  43.217  1.00  0.00    +0.000 N 
ATOM     74  C56 UNL A   1       4.817  15.172  44.313  1.00  0.00    +0.000 C 
ATOM     75  C57 UNL A   1       4.945  14.014  45.226  1.00  0.00    +0.000 C 
ATOM     87  C64 UNL A   1       4.428  12.935  44.588  1.00  0.00    +0.000 C 
ATOM     88  C65 UNL A   1       4.565  11.530  44.889  1.00  0.00    +0.000 C 
ATOM     89  C66 UNL A   1       3.887  10.833  43.954  1.00  0.00    +0.000 C 
ATOM     90  C67 UNL A   1       3.108  11.750  43.111  1.00  0.00    +0.000 C 
ATOM     91  N6  UNL A   1       3.561  12.995  43.477  1.00  0.00    +0.000 N 
ATOM     92  C68 UNL A   1       3.589  15.948  44.372  1.00  0.00    +0.000 C 
ATOM     93  C69 UNL A   1       3.465  16.248  43.076  1.00  0.00    +0.000 C 
ATOM     94  C70 UNL A   1      -0.771  13.397  41.377  1.00  0.00    +0.000 C 
ATOM     95  C71 UNL A   1      -0.237  12.439  42.136  1.00  0.00    +0.000 C 
ENDROOT
BRANCH   39   38
ATOM     97  C73 UNL A   1       0.950   8.028  43.037  1.00  0.00    +0.000 C 
ATOM     35  C30 UNL A   1       0.739   7.498  41.770  1.00  0.00    +0.000 C 
ATOM     36  C31 UNL A   1       1.098   8.214  40.622  1.00  0.00    +0.000 C 
ATOM    133  H34 UNL A   1       0.987   7.795  39.686  1.00  0.00    +0.000 H 
ATOM     37  C32 UNL A   1       1.607   9.502  40.770  1.00  0.00    +0.000 C 
ATOM     38  C33 UNL A   1       1.675  10.066  42.052  1.00  0.00    +0.000 C 
ATOM    134  H35 UNL A   1       1.931  10.034  39.947  1.00  0.00    +0.000 H 
ATOM    145  H46 UNL A   1       1.201   9.813  44.091  1.00  0.00    +0.000 H 
ATOM    146  H47 UNL A   1       0.869   7.426  43.871  1.00  0.00    +0.000 H 
ATOM     96  C72 UNL A   1       1.266   9.351  43.172  1.00  0.00    +0.000 C 
BRANCH   35   33
ATOM     33  C29 UNL A   1       0.087   6.175  41.682  1.00  0.00    +0.000 C 
ATOM     34  O2  UNL A   1      -1.065   6.074  41.328  1.00  0.00    +0.000 O 
BRANCH   33   32
ATOM    132  H33 UNL A   1       1.032   4.926  42.973  1.00  0.00    +0.000 H 
ATOM     32  N2  UNL A   1       0.842   5.058  42.017  1.00  0.00    +0.000 N 
BRANCH   32   31
ATOM    130  H31 UNL A   1       1.259   3.088  41.533  1.00  0.00    +0.000 H 
ATOM    131  H32 UNL A   1       0.856   4.141  40.172  1.00  0.00    +0.000 H 
ATOM     31  C28 UNL A   1       1.385   4.056  41.099  1.00  0.00    +0.000 C 
BRANCH   31   30
ATOM    129  H30 UNL A   1       3.238   3.362  40.408  1.00  0.00    +0.000 H 
ATOM     30  C27 UNL A   1       2.860   4.277  40.813  1.00  0.00    +0.000 C 
ATOM    128  H29 UNL A   1       3.342   4.554  41.727  1.00  0.00    +0.000 H 
BRANCH   30   29
ATOM     29  C26 UNL A   1       3.137   5.372  39.770  1.00  0.00    +0.000 C 
ATOM    126  H27 UNL A   1       3.000   4.938  38.800  1.00  0.00    +0.000 H 
ATOM    127  H28 UNL A   1       2.457   6.164  40.006  1.00  0.00    +0.000 H 
BRANCH   29   28
ATOM    124  H25 UNL A   1       4.689   6.502  38.857  1.00  0.00    +0.000 H 
ATOM     28  C25 UNL A   1       4.532   6.016  39.797  1.00  0.00    +0.000 C 
ATOM    125  H26 UNL A   1       4.530   6.684  40.634  1.00  0.00    +0.000 H 
BRANCH   28   27
ATOM    122  H23 UNL A   1       6.086   5.232  41.012  1.00  0.00    +0.000 H 
ATOM     27  C24 UNL A   1       5.698   5.054  40.031  1.00  0.00    +0.000 C 
ATOM    123  H24 UNL A   1       5.306   4.067  39.908  1.00  0.00    +0.000 H 
BRANCH   27   26
ATOM    121  H22 UNL A   1       6.923   4.270  38.499  1.00  0.00    +0.000 H 
ATOM     26  C23 UNL A   1       6.845   5.194  39.034  1.00  0.00    +0.000 C 
ATOM    120  H21 UNL A   1       7.743   5.415  39.573  1.00  0.00    +0.000 H 
BRANCH   26   25
ATOM     25  N1  UNL A   1       6.617   6.240  38.065  1.00  0.00    +0.000 N 
ATOM    119  H20 UNL A   1       6.204   7.062  38.417  1.00  0.00    +0.000 H 
BRANCH   25   23
ATOM     23  C22 UNL A   1       6.897   6.244  36.728  1.00  0.00    +0.000 C 
ATOM     24  O1  UNL A   1       8.064   6.459  36.392  1.00  0.00    +0.000 O 
BRANCH   23   22
ATOM    118  H19 UNL A   1       5.617   5.013  35.606  1.00  0.00    +0.000 H 
ATOM    117  H18 UNL A   1       6.118   6.504  34.774  1.00  0.00    +0.000 H 
ATOM     22  C21 UNL A   1       5.793   6.064  35.693  1.00  0.00    +0.000 C 
BRANCH   22   21
ATOM      2  C2  UNL A   1       4.488  10.112  37.493  1.00  0.00    +0.000 C 
ATOM     99  C74 UNL A   1       5.302   9.122  36.609  1.00  0.00    +0.000 C 
ATOM      4  C4  UNL A   1       2.996   9.770  37.165  1.00  0.00    +0.000 C 
ATOM      5  C5  UNL A   1       3.090   8.353  36.738  1.00  0.00    +0.000 C 
ATOM     98  N7  UNL A   1       4.378   8.008  36.438  1.00  0.00    +0.000 N 
ATOM      6  C6  UNL A   1       2.307   7.248  36.548  1.00  0.00    +0.000 C 
ATOM    106  H7  UNL A   1       2.620  10.390  36.378  1.00  0.00    +0.000 H 
ATOM    107  H8  UNL A   1       2.327   9.930  37.984  1.00  0.00    +0.000 H 
ATOM     13  C13 UNL A   1       3.187   6.192  36.115  1.00  0.00    +0.000 C 
ATOM    147  H48 UNL A   1       6.197   8.809  37.105  1.00  0.00    +0.000 H 
ATOM    148  H49 UNL A   1       5.628   9.550  35.684  1.00  0.00    +0.000 H 
ATOM     21  C20 UNL A   1       4.489   6.695  36.083  1.00  0.00    +0.000 C 
BRANCH    2    1
ATOM      1  C1  UNL A   1       4.834  11.563  37.164  1.00  0.00    +0.000 C 
ATOM    100  H1  UNL A   1       4.112  11.956  36.480  1.00  0.00    +0.000 H 
ATOM    101  H2  UNL A   1       5.806  11.607  36.722  1.00  0.00    +0.000 H 
ATOM    102  H3  UNL A   1       4.825  12.145  38.063  1.00  0.00    +0.000 H 
ENDBRANCH    2    1
BRANCH    2    3
ATOM    105  H6  UNL A   1       4.946  10.803  39.476  1.00  0.00    +0.000 H 
ATOM      3  C3  UNL A   1       4.760   9.868  38.990  1.00  0.00    +0.000 C 
ATOM    103  H4  UNL A   1       5.616   9.234  39.098  1.00  0.00    +0.000 H 
ATOM    104  H5  UNL A   1       3.909   9.397  39.435  1.00  0.00    +0.000 H 
ENDBRANCH    2    3
BRANCH    6    7
ATOM      7  C7  UNL A   1       0.871   7.171  36.704  1.00  0.00    +0.000 C 
ATOM      8  C8  UNL A   1       0.030   7.684  35.714  1.00  0.00    +0.000 C 
ATOM      9  C9  UNL A   1      -1.323   7.352  35.721  1.00  0.00    +0.000 C 
ATOM     10  C10 UNL A   1      -1.839   6.524  36.721  1.00  0.00    +0.000 C 
ATOM     11  C11 UNL A   1      -1.015   6.063  37.746  1.00  0.00    +0.000 C 
ATOM     12  C12 UNL A   1       0.339   6.385  37.736  1.00  0.00    +0.000 C 
ATOM    108  H9  UNL A   1       0.409   8.307  34.983  1.00  0.00    +0.000 H 
ATOM    109  H10 UNL A   1      -1.947   7.719  34.985  1.00  0.00    +0.000 H 
ATOM    111  H12 UNL A   1      -1.406   5.486  38.507  1.00  0.00    +0.000 H 
ATOM    112  H13 UNL A   1       0.954   6.045  38.492  1.00  0.00    +0.000 H 
ATOM    110  H11 UNL A   1      -2.834   6.250  36.701  1.00  0.00    +0.000 H 
ENDBRANCH    6    7
BRANCH   13   14
ATOM     14  C14 UNL A   1       2.776   4.843  35.741  1.00  0.00    +0.000 C 
ATOM     15  C15 UNL A   1       1.926   4.662  34.639  1.00  0.00    +0.000 C 
ATOM     16  C16 UNL A   1       1.383   3.406  34.360  1.00  0.00    +0.000 C 
ATOM    113  H14 UNL A   1       1.702   5.464  34.029  1.00  0.00    +0.000 H 
ATOM     17  C17 UNL A   1       1.699   2.321  35.175  1.00  0.00    +0.000 C 
ATOM     19  C18 UNL A   1       2.546   2.486  36.270  1.00  0.00    +0.000 C 
ATOM     20  C19 UNL A   1       3.068   3.749  36.561  1.00  0.00    +0.000 C 
ATOM    116  H17 UNL A   1       3.675   3.875  37.386  1.00  0.00    +0.000 H 
ATOM    114  H15 UNL A   1       0.751   3.281  33.554  1.00  0.00    +0.000 H 
ATOM    115  H16 UNL A   1       2.786   1.677  36.864  1.00  0.00    +0.000 H 
ATOM     18 Cl1  UNL A   1       1.015   0.776  34.849  1.00  0.00    +0.000 Cl
ENDBRANCH   13   14
ENDBRANCH   22   21
ENDBRANCH   23   22
ENDBRANCH   25   23
ENDBRANCH   26   25
ENDBRANCH   27   26
ENDBRANCH   28   27
ENDBRANCH   29   28
ENDBRANCH   30   29
ENDBRANCH   31   30
ENDBRANCH   32   31
ENDBRANCH   33   32
ENDBRANCH   35   33
ENDBRANCH   39   38
BRANCH   43   44
ATOM     44  C38 UNL A   1      -0.598  16.513  40.650  1.00  0.00    +0.000 C 
ATOM     45  C39 UNL A   1      -1.593  16.992  39.772  1.00  0.00    +0.000 C 
ATOM     46  F1  UNL A   1      -1.915  16.309  38.664  1.00  0.00    +0.000 F 
ATOM     47  C40 UNL A   1      -2.218  18.229  39.962  1.00  0.00    +0.000 C 
ATOM     48  F2  UNL A   1      -3.061  18.698  39.033  1.00  0.00    +0.000 F 
ATOM     49  C41 UNL A   1      -1.918  19.004  41.066  1.00  0.00    +0.000 C 
ATOM     50  F3  UNL A   1      -2.469  20.215  41.219  1.00  0.00    +0.000 F 
ATOM     51  C42 UNL A   1      -1.008  18.537  41.988  1.00  0.00    +0.000 C 
ATOM     52  F4  UNL A   1      -0.692  19.280  43.059  1.00  0.00    +0.000 F 
ATOM     53  C43 UNL A   1      -0.343  17.330  41.773  1.00  0.00    +0.000 C 
ATOM     54  F5  UNL A   1       0.626  17.057  42.653  1.00  0.00    +0.000 F 
ENDBRANCH   43   44
BRANCH   60   61
ATOM     65  F7  UNL A   1       7.526  11.583  39.848  1.00  0.00    +0.000 F 
ATOM     66  C52 UNL A   1       8.424  13.741  39.528  1.00  0.00    +0.000 C 
ATOM     67  F8  UNL A   1       9.551  13.215  39.030  1.00  0.00    +0.000 F 
ATOM     68  C53 UNL A   1       8.275  15.118  39.609  1.00  0.00    +0.000 C 
ATOM     69  F9  UNL A   1       9.251  15.923  39.168  1.00  0.00    +0.000 F 
ATOM     70  C54 UNL A   1       7.104  15.670  40.120  1.00  0.00    +0.000 C 
ATOM     71  F10 UNL A   1       6.986  17.006  40.166  1.00  0.00    +0.000 F 
ATOM     61  C49 UNL A   1       6.042  14.861  40.538  1.00  0.00    +0.000 C 
ATOM     62  C50 UNL A   1       6.205  13.469  40.415  1.00  0.00    +0.000 C 
ATOM     63  F6  UNL A   1       5.202  12.632  40.706  1.00  0.00    +0.000 F 
ATOM     64  C51 UNL A   1       7.393  12.915  39.938  1.00  0.00    +0.000 C 
ENDBRANCH   60   61
BRANCH   75   76
ATOM     76  C58 UNL A   1       5.095  14.206  46.679  1.00  0.00    +0.000 C 
ATOM     77  C59 UNL A   1       4.106  13.788  47.583  1.00  0.00    +0.000 C 
ATOM     78  F11 UNL A   1       2.889  13.447  47.134  1.00  0.00    +0.000 F 
ATOM     79  C60 UNL A   1       4.384  13.626  48.944  1.00  0.00    +0.000 C 
ATOM     80  F12 UNL A   1       3.435  13.177  49.776  1.00  0.00    +0.000 F 
ATOM     81  C61 UNL A   1       5.666  13.836  49.422  1.00  0.00    +0.000 C 
ATOM     82  F13 UNL A   1       5.963  13.598  50.707  1.00  0.00    +0.000 F 
ATOM     83  C62 UNL A   1       6.658  14.227  48.544  1.00  0.00    +0.000 C 
ATOM     84  F14 UNL A   1       7.927  14.259  48.954  1.00  0.00    +0.000 F 
ATOM     85  C63 UNL A   1       6.373  14.454  47.203  1.00  0.00    +0.000 C 
ATOM     86  F15 UNL A   1       7.392  14.784  46.394  1.00  0.00    +0.000 F 
ENDBRANCH   75   76
TORSDOF 20
ENDMDL
MODEL 8
REMARK VINA RESULT:      -7.7     37.001     41.810
ROOT
ATOM    135  H36 UNL A   1       7.430  13.908  42.325  1.00  0.00    +0.000 H 
ATOM    136  H37 UNL A   1       5.587  15.508  43.389  1.00  0.00    +0.000 H 
ATOM    137  H38 UNL A   1       5.364  15.687  39.358  1.00  0.00    +0.000 H 
ATOM    138  H39 UNL A   1      -2.014  12.681  41.299  1.00  0.00    +0.000 H 
ATOM    139  H40 UNL A   1      -0.458  11.127  42.588  1.00  0.00    +0.000 H 
ATOM    140  H41 UNL A   1       1.947  13.692  40.382  1.00  0.00    +0.000 H 
ATOM    141  H42 UNL A   1       1.269  14.932  37.493  1.00  0.00    +0.000 H 
ATOM    142  H43 UNL A   1       3.599  15.373  38.514  1.00  0.00    +0.000 H 
ATOM    143  H44 UNL A   1       5.773  10.218  38.901  1.00  0.00    +0.000 H 
ATOM    144  H45 UNL A   1       3.387   9.528  39.588  1.00  0.00    +0.000 H 
ATOM     39  C34 UNL A   1       2.290  11.230  41.626  1.00  0.00    +0.000 C 
ATOM     40  C35 UNL A   1       3.560  11.396  40.869  1.00  0.00    +0.000 C 
ATOM     41  N3  UNL A   1       4.474  12.294  41.035  1.00  0.00    +0.000 N 
ATOM     42  C36 UNL A   1       5.430  12.058  40.050  1.00  0.00    +0.000 C 
ATOM     43  C37 UNL A   1       6.242  13.058  39.605  1.00  0.00    +0.000 C 
ATOM     55  C44 UNL A   1       6.244  14.167  40.526  1.00  0.00    +0.000 C 
ATOM     56  C45 UNL A   1       6.619  14.330  41.846  1.00  0.00    +0.000 C 
ATOM     57  C46 UNL A   1       5.643  15.208  42.403  1.00  0.00    +0.000 C 
ATOM     58  C47 UNL A   1       4.776  15.589  41.380  1.00  0.00    +0.000 C 
ATOM     59  N4  UNL A   1       5.444  15.243  40.233  1.00  0.00    +0.000 N 
ATOM     60  C48 UNL A   1       3.442  16.133  41.387  1.00  0.00    +0.000 C 
ATOM     72  C55 UNL A   1       2.572  16.077  40.338  1.00  0.00    +0.000 C 
ATOM     73  N5  UNL A   1       1.211  16.230  40.545  1.00  0.00    +0.000 N 
ATOM     74  C56 UNL A   1       0.658  15.548  39.584  1.00  0.00    +0.000 C 
ATOM     75  C57 UNL A   1      -0.541  14.704  39.783  1.00  0.00    +0.000 C 
ATOM     87  C64 UNL A   1      -0.170  13.645  40.544  1.00  0.00    +0.000 C 
ATOM     88  C65 UNL A   1      -0.982  12.697  41.269  1.00  0.00    +0.000 C 
ATOM     89  C66 UNL A   1      -0.158  11.835  41.899  1.00  0.00    +0.000 C 
ATOM     90  C67 UNL A   1       1.227  12.051  41.459  1.00  0.00    +0.000 C 
ATOM     91  N6  UNL A   1       1.160  13.215  40.732  1.00  0.00    +0.000 N 
ATOM     92  C68 UNL A   1       1.509  15.255  38.443  1.00  0.00    +0.000 C 
ATOM     93  C69 UNL A   1       2.697  15.530  38.989  1.00  0.00    +0.000 C 
ATOM     94  C70 UNL A   1       5.136  10.759  39.506  1.00  0.00    +0.000 C 
ATOM     95  C71 UNL A   1       3.926  10.354  39.893  1.00  0.00    +0.000 C 
ENDROOT
BRANCH   39   38
ATOM     97  C73 UNL A   1       2.583   8.801  44.382  1.00  0.00    +0.000 C 
ATOM     35  C30 UNL A   1       1.889   7.706  43.882  1.00  0.00    +0.000 C 
ATOM     36  C31 UNL A   1       1.419   7.694  42.565  1.00  0.00    +0.000 C 
ATOM    133  H34 UNL A   1       0.949   6.859  42.181  1.00  0.00    +0.000 H 
ATOM     37  C32 UNL A   1       1.597   8.832  41.781  1.00  0.00    +0.000 C 
ATOM     38  C33 UNL A   1       2.172   9.975  42.357  1.00  0.00    +0.000 C 
ATOM    134  H35 UNL A   1       1.309   8.835  40.790  1.00  0.00    +0.000 H 
ATOM    145  H46 UNL A   1       2.893  10.852  44.133  1.00  0.00    +0.000 H 
ATOM    146  H47 UNL A   1       3.093   8.728  45.276  1.00  0.00    +0.000 H 
ATOM     96  C72 UNL A   1       2.587   9.976  43.683  1.00  0.00    +0.000 C 
BRANCH   35   33
ATOM     33  C29 UNL A   1       1.633   6.580  44.803  1.00  0.00    +0.000 C 
ATOM     34  O2  UNL A   1       0.869   6.702  45.734  1.00  0.00    +0.000 O 
BRANCH   33   32
ATOM    132  H33 UNL A   1       3.259   5.367  44.757  1.00  0.00    +0.000 H 
ATOM     32  N2  UNL A   1       2.295   5.384  44.562  1.00  0.00    +0.000 N 
BRANCH   32   31
ATOM    130  H31 UNL A   1       2.295   3.319  44.398  1.00  0.00    +0.000 H 
ATOM    131  H32 UNL A   1       0.703   4.086  44.402  1.00  0.00    +0.000 H 
ATOM     31  C28 UNL A   1       1.712   4.143  44.049  1.00  0.00    +0.000 C 
BRANCH   31   30
ATOM    129  H30 UNL A   1       0.997   4.877  42.220  1.00  0.00    +0.000 H 
ATOM     30  C27 UNL A   1       1.675   4.110  42.531  1.00  0.00    +0.000 C 
ATOM    128  H29 UNL A   1       1.362   3.134  42.224  1.00  0.00    +0.000 H 
BRANCH   30   29
ATOM     29  C26 UNL A   1       3.027   4.415  41.866  1.00  0.00    +0.000 C 
ATOM    126  H27 UNL A   1       3.574   5.058  42.525  1.00  0.00    +0.000 H 
ATOM    127  H28 UNL A   1       3.479   3.460  41.696  1.00  0.00    +0.000 H 
BRANCH   29   28
ATOM    124  H25 UNL A   1       2.696   6.113  40.630  1.00  0.00    +0.000 H 
ATOM     28  C25 UNL A   1       2.983   5.092  40.488  1.00  0.00    +0.000 C 
ATOM    125  H26 UNL A   1       3.962   4.973  40.072  1.00  0.00    +0.000 H 
BRANCH   28   27
ATOM    122  H23 UNL A   1       1.130   4.179  39.998  1.00  0.00    +0.000 H 
ATOM     27  C24 UNL A   1       2.019   4.469  39.477  1.00  0.00    +0.000 C 
ATOM    123  H24 UNL A   1       1.842   5.212  38.729  1.00  0.00    +0.000 H 
BRANCH   27   26
ATOM    121  H22 UNL A   1       2.443   2.401  39.399  1.00  0.00    +0.000 H 
ATOM     26  C23 UNL A   1       2.566   3.243  38.751  1.00  0.00    +0.000 C 
ATOM    120  H21 UNL A   1       3.596   3.414  38.518  1.00  0.00    +0.000 H 
BRANCH   26   25
ATOM     25  N1  UNL A   1       1.856   2.959  37.526  1.00  0.00    +0.000 N 
ATOM    119  H20 UNL A   1       0.886   2.819  37.620  1.00  0.00    +0.000 H 
BRANCH   25   23
ATOM     23  C22 UNL A   1       2.348   2.858  36.256  1.00  0.00    +0.000 C 
ATOM     24  O1  UNL A   1       2.904   1.802  35.943  1.00  0.00    +0.000 O 
BRANCH   23   22
ATOM    118  H19 UNL A   1       1.282   4.051  34.893  1.00  0.00    +0.000 H 
ATOM    117  H18 UNL A   1       3.016   3.890  34.529  1.00  0.00    +0.000 H 
ATOM     22  C21 UNL A   1       2.275   4.032  35.288  1.00  0.00    +0.000 C 
BRANCH   22   21
ATOM      2  C2  UNL A   1       5.918   6.227  37.090  1.00  0.00    +0.000 C 
ATOM     99  C74 UNL A   1       5.121   5.325  36.101  1.00  0.00    +0.000 C 
ATOM      4  C4  UNL A   1       5.085   7.552  37.146  1.00  0.00    +0.000 C 
ATOM      5  C5  UNL A   1       3.724   7.076  36.798  1.00  0.00    +0.000 C 
ATOM     98  N7  UNL A   1       3.762   5.836  36.224  1.00  0.00    +0.000 N 
ATOM      6  C6  UNL A   1       2.415   7.463  36.867  1.00  0.00    +0.000 C 
ATOM    106  H7  UNL A   1       5.441   8.265  36.433  1.00  0.00    +0.000 H 
ATOM    107  H8  UNL A   1       5.138   8.055  38.088  1.00  0.00    +0.000 H 
ATOM     13  C13 UNL A   1       1.638   6.387  36.306  1.00  0.00    +0.000 C 
ATOM    147  H48 UNL A   1       5.175   4.296  36.390  1.00  0.00    +0.000 H 
ATOM    148  H49 UNL A   1       5.498   5.357  35.101  1.00  0.00    +0.000 H 
ATOM     21  C20 UNL A   1       2.513   5.365  35.935  1.00  0.00    +0.000 C 
BRANCH    2    1
ATOM      1  C1  UNL A   1       7.345   6.463  36.598  1.00  0.00    +0.000 C 
ATOM    100  H1  UNL A   1       7.333   6.657  35.546  1.00  0.00    +0.000 H 
ATOM    101  H2  UNL A   1       7.938   5.595  36.795  1.00  0.00    +0.000 H 
ATOM    102  H3  UNL A   1       7.765   7.304  37.110  1.00  0.00    +0.000 H 
ENDBRANCH    2    1
BRANCH    2    3
ATOM    105  H6  UNL A   1       6.805   4.912  38.541  1.00  0.00    +0.000 H 
ATOM      3  C3  UNL A   1       5.979   5.591  38.492  1.00  0.00    +0.000 C 
ATOM    103  H4  UNL A   1       5.069   5.059  38.682  1.00  0.00    +0.000 H 
ATOM    104  H5  UNL A   1       6.103   6.359  39.226  1.00  0.00    +0.000 H 
ENDBRANCH    2    3
BRANCH    6    7
ATOM      7  C7  UNL A   1       1.914   8.726  37.364  1.00  0.00    +0.000 C 
ATOM      8  C8  UNL A   1       2.232   9.914  36.702  1.00  0.00    +0.000 C 
ATOM      9  C9  UNL A   1       1.523  11.078  36.997  1.00  0.00    +0.000 C 
ATOM     10  C10 UNL A   1       0.511  11.059  37.959  1.00  0.00    +0.000 C 
ATOM     11  C11 UNL A   1       0.235   9.890  38.666  1.00  0.00    +0.000 C 
ATOM     12  C12 UNL A   1       0.936   8.725  38.368  1.00  0.00    +0.000 C 
ATOM    108  H9  UNL A   1       2.989   9.931  36.000  1.00  0.00    +0.000 H 
ATOM    109  H10 UNL A   1       1.746  11.956  36.502  1.00  0.00    +0.000 H 
ATOM    111  H12 UNL A   1      -0.484   9.889  39.407  1.00  0.00    +0.000 H 
ATOM    112  H13 UNL A   1       0.734   7.857  38.887  1.00  0.00    +0.000 H 
ATOM    110  H11 UNL A   1      -0.037  11.914  38.148  1.00  0.00    +0.000 H 
ENDBRANCH    6    7
BRANCH   13   14
ATOM     14  C14 UNL A   1       0.191   6.388  36.125  1.00  0.00    +0.000 C 
ATOM     15  C15 UNL A   1      -0.390   7.288  35.217  1.00  0.00    +0.000 C 
ATOM     16  C16 UNL A   1      -1.778   7.428  35.146  1.00  0.00    +0.000 C 
ATOM    113  H14 UNL A   1       0.214   7.850  34.597  1.00  0.00    +0.000 H 
ATOM     17  C17 UNL A   1      -2.592   6.658  35.974  1.00  0.00    +0.000 C 
ATOM     19  C18 UNL A   1      -2.029   5.757  36.876  1.00  0.00    +0.000 C 
ATOM     20  C19 UNL A   1      -0.640   5.637  36.961  1.00  0.00    +0.000 C 
ATOM    116  H17 UNL A   1      -0.223   4.987  37.647  1.00  0.00    +0.000 H 
ATOM    114  H15 UNL A   1      -2.199   8.098  34.484  1.00  0.00    +0.000 H 
ATOM    115  H16 UNL A   1      -2.637   5.180  37.478  1.00  0.00    +0.000 H 
ATOM     18 Cl1  UNL A   1      -4.302   6.843  35.906  1.00  0.00    +0.000 Cl
ENDBRANCH   13   14
ENDBRANCH   22   21
ENDBRANCH   23   22
ENDBRANCH   25   23
ENDBRANCH   26   25
ENDBRANCH   27   26
ENDBRANCH   28   27
ENDBRANCH   29   28
ENDBRANCH   30   29
ENDBRANCH   31   30
ENDBRANCH   32   31
ENDBRANCH   33   32
ENDBRANCH   35   33
ENDBRANCH   39   38
BRANCH   43   44
ATOM     44  C38 UNL A   1       6.744  13.197  38.185  1.00  0.00    +0.000 C 
ATOM     45  C39 UNL A   1       8.096  13.537  37.967  1.00  0.00    +0.000 C 
ATOM     46  F1  UNL A   1       8.985  13.487  38.970  1.00  0.00    +0.000 F 
ATOM     47  C40 UNL A   1       8.550  14.023  36.737  1.00  0.00    +0.000 C 
ATOM     48  F2  UNL A   1       9.813  14.454  36.617  1.00  0.00    +0.000 F 
ATOM     49  C41 UNL A   1       7.688  14.130  35.663  1.00  0.00    +0.000 C 
ATOM     50  F3  UNL A   1       8.104  14.653  34.502  1.00  0.00    +0.000 F 
ATOM     51  C42 UNL A   1       6.377  13.736  35.812  1.00  0.00    +0.000 C 
ATOM     52  F4  UNL A   1       5.520  13.844  34.786  1.00  0.00    +0.000 F 
ATOM     53  C43 UNL A   1       5.908  13.302  37.051  1.00  0.00    +0.000 C 
ATOM     54  F5  UNL A   1       4.588  13.094  37.114  1.00  0.00    +0.000 F 
ENDBRANCH   43   44
BRANCH   60   61
ATOM     65  F7  UNL A   1       1.507  15.329  45.862  1.00  0.00    +0.000 F 
ATOM     66  C52 UNL A   1       2.080  17.532  45.240  1.00  0.00    +0.000 C 
ATOM     67  F8  UNL A   1       1.713  17.985  46.447  1.00  0.00    +0.000 F 
ATOM     68  C53 UNL A   1       2.586  18.409  44.292  1.00  0.00    +0.000 C 
ATOM     69  F9  UNL A   1       2.728  19.707  44.592  1.00  0.00    +0.000 F 
ATOM     70  C54 UNL A   1       2.974  17.944  43.039  1.00  0.00    +0.000 C 
ATOM     71  F10 UNL A   1       3.477  18.817  42.153  1.00  0.00    +0.000 F 
ATOM     61  C49 UNL A   1       2.891  16.586  42.712  1.00  0.00    +0.000 C 
ATOM     62  C50 UNL A   1       2.406  15.712  43.701  1.00  0.00    +0.000 C 
ATOM     63  F6  UNL A   1       2.383  14.389  43.498  1.00  0.00    +0.000 F 
ATOM     64  C51 UNL A   1       1.981  16.184  44.943  1.00  0.00    +0.000 C 
ENDBRANCH   60   61
BRANCH   75   76
ATOM     76  C58 UNL A   1      -1.688  14.783  38.861  1.00  0.00    +0.000 C 
ATOM     77  C59 UNL A   1      -1.672  14.150  37.609  1.00  0.00    +0.000 C 
ATOM     78  F11 UNL A   1      -0.518  13.682  37.110  1.00  0.00    +0.000 F 
ATOM     79  C60 UNL A   1      -2.852  13.907  36.900  1.00  0.00    +0.000 C 
ATOM     80  F12 UNL A   1      -2.812  13.255  35.730  1.00  0.00    +0.000 F 
ATOM     81  C61 UNL A   1      -4.076  14.252  37.446  1.00  0.00    +0.000 C 
ATOM     82  F13 UNL A   1      -5.217  13.944  36.816  1.00  0.00    +0.000 F 
ATOM     83  C62 UNL A   1      -4.114  14.858  38.688  1.00  0.00    +0.000 C 
ATOM     84  F14 UNL A   1      -5.286  15.031  39.301  1.00  0.00    +0.000 F 
ATOM     85  C63 UNL A   1      -2.941  15.161  39.368  1.00  0.00    +0.000 C 
ATOM     86  F15 UNL A   1      -3.050  15.704  40.591  1.00  0.00    +0.000 F 
ENDBRANCH   75   76
TORSDOF 20
ENDMDL
MODEL 9
REMARK VINA RESULT:      -7.7     16.699     21.523
ROOT
ATOM    135  H36 UNL A   1       6.404  29.581  -5.244  1.00  0.00    +0.000 H 
ATOM    136  H37 UNL A   1       8.681  28.213  -5.067  1.00  0.00    +0.000 H 
ATOM    137  H38 UNL A   1       9.494  32.167  -5.257  1.00  0.00    +0.000 H 
ATOM    138  H39 UNL A   1      12.504  30.205   2.113  1.00  0.00    +0.000 H 
ATOM    139  H40 UNL A   1      10.155  29.221   2.226  1.00  0.00    +0.000 H 
ATOM    140  H41 UNL A   1      10.461  31.212  -1.403  1.00  0.00    +0.000 H 
ATOM    141  H42 UNL A   1      12.174  33.871  -1.982  1.00  0.00    +0.000 H 
ATOM    142  H43 UNL A   1      10.662  32.940  -3.856  1.00  0.00    +0.000 H 
ATOM    143  H44 UNL A   1       5.534  33.352  -1.624  1.00  0.00    +0.000 H 
ATOM    144  H45 UNL A   1       6.692  32.622   0.560  1.00  0.00    +0.000 H 
ATOM     39  C34 UNL A   1       8.374  30.320   0.201  1.00  0.00    +0.000 C 
ATOM     40  C35 UNL A   1       7.671  31.122  -0.837  1.00  0.00    +0.000 C 
ATOM     41  N3  UNL A   1       7.603  30.894  -2.107  1.00  0.00    +0.000 N 
ATOM     42  C36 UNL A   1       6.883  31.956  -2.651  1.00  0.00    +0.000 C 
ATOM     43  C37 UNL A   1       7.038  32.314  -3.957  1.00  0.00    +0.000 C 
ATOM     55  C44 UNL A   1       7.671  31.258  -4.707  1.00  0.00    +0.000 C 
ATOM     56  C45 UNL A   1       7.338  29.953  -5.014  1.00  0.00    +0.000 C 
ATOM     57  C46 UNL A   1       8.566  29.231  -4.942  1.00  0.00    +0.000 C 
ATOM     58  C47 UNL A   1       9.585  30.144  -4.672  1.00  0.00    +0.000 C 
ATOM     59  N4  UNL A   1       9.019  31.363  -4.946  1.00  0.00    +0.000 N 
ATOM     60  C48 UNL A   1      10.915  29.989  -4.141  1.00  0.00    +0.000 C 
ATOM     72  C55 UNL A   1      11.642  30.983  -3.556  1.00  0.00    +0.000 C 
ATOM     73  N5  UNL A   1      12.699  30.678  -2.714  1.00  0.00    +0.000 N 
ATOM     74  C56 UNL A   1      12.759  31.687  -1.892  1.00  0.00    +0.000 C 
ATOM     75  C57 UNL A   1      13.021  31.528  -0.444  1.00  0.00    +0.000 C 
ATOM     87  C64 UNL A   1      11.932  30.934   0.103  1.00  0.00    +0.000 C 
ATOM     88  C65 UNL A   1      11.776  30.292   1.387  1.00  0.00    +0.000 C 
ATOM     89  C66 UNL A   1      10.512  29.829   1.472  1.00  0.00    +0.000 C 
ATOM     90  C67 UNL A   1       9.720  30.317   0.335  1.00  0.00    +0.000 C 
ATOM     91  N6  UNL A   1      10.657  30.882  -0.497  1.00  0.00    +0.000 N 
ATOM     92  C68 UNL A   1      12.096  32.903  -2.330  1.00  0.00    +0.000 C 
ATOM     93  C69 UNL A   1      11.356  32.396  -3.320  1.00  0.00    +0.000 C 
ATOM     94  C70 UNL A   1       6.282  32.646  -1.541  1.00  0.00    +0.000 C 
ATOM     95  C71 UNL A   1       6.827  32.245  -0.392  1.00  0.00    +0.000 C 
ENDROOT
BRANCH   39   38
ATOM     97  C73 UNL A   1       6.188  27.901   1.920  1.00  0.00    +0.000 C 
ATOM     35  C30 UNL A   1       5.970  28.522   3.144  1.00  0.00    +0.000 C 
ATOM     36  C31 UNL A   1       6.431  29.821   3.382  1.00  0.00    +0.000 C 
ATOM    133  H34 UNL A   1       6.223  30.298   4.273  1.00  0.00    +0.000 H 
ATOM     37  C32 UNL A   1       7.179  30.458   2.394  1.00  0.00    +0.000 C 
ATOM     38  C33 UNL A   1       7.507  29.753   1.226  1.00  0.00    +0.000 C 
ATOM    134  H35 UNL A   1       7.487  31.434   2.518  1.00  0.00    +0.000 H 
ATOM    145  H46 UNL A   1       7.423  27.893   0.236  1.00  0.00    +0.000 H 
ATOM    146  H47 UNL A   1       5.683  27.033   1.682  1.00  0.00    +0.000 H 
ATOM     96  C72 UNL A   1       7.076  28.445   1.035  1.00  0.00    +0.000 C 
BRANCH   35   33
ATOM     33  C29 UNL A   1       5.272  27.747   4.190  1.00  0.00    +0.000 C 
ATOM     34  O2  UNL A   1       4.564  28.298   5.001  1.00  0.00    +0.000 O 
BRANCH   33   32
ATOM    132  H33 UNL A   1       6.047  25.998   3.512  1.00  0.00    +0.000 H 
ATOM     32  N2  UNL A   1       5.457  26.370   4.206  1.00  0.00    +0.000 N 
BRANCH   32   31
ATOM    130  H31 UNL A   1       4.985  25.792   6.138  1.00  0.00    +0.000 H 
ATOM    131  H32 UNL A   1       3.835  25.300   4.890  1.00  0.00    +0.000 H 
ATOM     31  C28 UNL A   1       4.868  25.415   5.145  1.00  0.00    +0.000 C 
BRANCH   31   30
ATOM    129  H30 UNL A   1       6.167  23.958   5.909  1.00  0.00    +0.000 H 
ATOM     30  C27 UNL A   1       5.523  24.047   5.060  1.00  0.00    +0.000 C 
ATOM    128  H29 UNL A   1       6.051  23.984   4.132  1.00  0.00    +0.000 H 
BRANCH   30   29
ATOM     29  C26 UNL A   1       4.531  22.875   5.131  1.00  0.00    +0.000 C 
ATOM    126  H27 UNL A   1       4.778  22.193   4.343  1.00  0.00    +0.000 H 
ATOM    127  H28 UNL A   1       4.638  22.475   6.118  1.00  0.00    +0.000 H 
BRANCH   29   28
ATOM    124  H25 UNL A   1       2.580  23.078   5.952  1.00  0.00    +0.000 H 
ATOM     28  C25 UNL A   1       3.040  23.220   4.996  1.00  0.00    +0.000 C 
ATOM    125  H26 UNL A   1       3.004  24.231   4.645  1.00  0.00    +0.000 H 
BRANCH   28   27
ATOM    122  H23 UNL A   1       2.914  21.637   3.587  1.00  0.00    +0.000 H 
ATOM     27  C24 UNL A   1       2.261  22.393   3.972  1.00  0.00    +0.000 C 
ATOM    123  H24 UNL A   1       1.414  21.991   4.487  1.00  0.00    +0.000 H 
BRANCH   27   26
ATOM    121  H22 UNL A   1       0.742  23.549   3.068  1.00  0.00    +0.000 H 
ATOM     26  C23 UNL A   1       1.713  23.193   2.794  1.00  0.00    +0.000 C 
ATOM    120  H21 UNL A   1       1.672  22.555   1.936  1.00  0.00    +0.000 H 
BRANCH   26   25
ATOM     25  N1  UNL A   1       2.526  24.343   2.476  1.00  0.00    +0.000 N 
ATOM    119  H20 UNL A   1       2.488  25.083   3.125  1.00  0.00    +0.000 H 
BRANCH   25   23
ATOM     23  C22 UNL A   1       3.338  24.545   1.397  1.00  0.00    +0.000 C 
ATOM     24  O1  UNL A   1       4.550  24.378   1.559  1.00  0.00    +0.000 O 
BRANCH   23   22
ATOM    118  H19 UNL A   1       1.714  25.095   0.183  1.00  0.00    +0.000 H 
ATOM    117  H18 UNL A   1       3.062  24.335  -0.694  1.00  0.00    +0.000 H 
ATOM     22  C21 UNL A   1       2.775  25.030   0.067  1.00  0.00    +0.000 C 
BRANCH   22   21
ATOM      2  C2  UNL A   1       6.102  26.688  -2.674  1.00  0.00    +0.000 C 
ATOM     99  C74 UNL A   1       4.960  25.739  -2.203  1.00  0.00    +0.000 C 
ATOM      4  C4  UNL A   1       5.474  28.118  -2.562  1.00  0.00    +0.000 C 
ATOM      5  C5  UNL A   1       4.443  27.921  -1.515  1.00  0.00    +0.000 C 
ATOM     98  N7  UNL A   1       4.173  26.595  -1.324  1.00  0.00    +0.000 N 
ATOM      6  C6  UNL A   1       3.659  28.634  -0.650  1.00  0.00    +0.000 C 
ATOM    106  H7  UNL A   1       5.034  28.422  -3.489  1.00  0.00    +0.000 H 
ATOM    107  H8  UNL A   1       6.183  28.884  -2.330  1.00  0.00    +0.000 H 
ATOM     13  C13 UNL A   1       2.889  27.671   0.095  1.00  0.00    +0.000 C 
ATOM    147  H48 UNL A   1       5.353  24.897  -1.672  1.00  0.00    +0.000 H 
ATOM    148  H49 UNL A   1       4.394  25.324  -3.010  1.00  0.00    +0.000 H 
ATOM     21  C20 UNL A   1       3.255  26.394  -0.333  1.00  0.00    +0.000 C 
BRANCH    2    1
ATOM      1  C1  UNL A   1       6.543  26.360  -4.100  1.00  0.00    +0.000 C 
ATOM    100  H1  UNL A   1       5.842  25.685  -4.544  1.00  0.00    +0.000 H 
ATOM    101  H2  UNL A   1       7.511  25.908  -4.079  1.00  0.00    +0.000 H 
ATOM    102  H3  UNL A   1       6.583  27.261  -4.677  1.00  0.00    +0.000 H 
ENDBRANCH    2    1
BRANCH    2    3
ATOM    105  H6  UNL A   1       8.189  26.971  -2.245  1.00  0.00    +0.000 H 
ATOM      3  C3  UNL A   1       7.326  26.583  -1.744  1.00  0.00    +0.000 C 
ATOM    103  H4  UNL A   1       7.493  25.557  -1.488  1.00  0.00    +0.000 H 
ATOM    104  H5  UNL A   1       7.147  27.148  -0.853  1.00  0.00    +0.000 H 
ENDBRANCH    2    3
BRANCH    6    7
ATOM      7  C7  UNL A   1       3.587  30.074  -0.540  1.00  0.00    +0.000 C 
ATOM      8  C8  UNL A   1       3.021  30.828  -1.571  1.00  0.00    +0.000 C 
ATOM      9  C9  UNL A   1       2.684  32.161  -1.344  1.00  0.00    +0.000 C 
ATOM     10  C10 UNL A   1       2.926  32.746  -0.099  1.00  0.00    +0.000 C 
ATOM     11  C11 UNL A   1       3.549  32.015   0.911  1.00  0.00    +0.000 C 
ATOM     12  C12 UNL A   1       3.877  30.680   0.691  1.00  0.00    +0.000 C 
ATOM    108  H9  UNL A   1       2.854  30.400  -2.495  1.00  0.00    +0.000 H 
ATOM    109  H10 UNL A   1       2.255  32.719  -2.100  1.00  0.00    +0.000 H 
ATOM    111  H12 UNL A   1       3.765  32.461   1.816  1.00  0.00    +0.000 H 
ATOM    112  H13 UNL A   1       4.337  30.134   1.436  1.00  0.00    +0.000 H 
ATOM    110  H11 UNL A   1       2.641  33.722   0.076  1.00  0.00    +0.000 H 
ENDBRANCH    6    7
BRANCH   13   14
ATOM     14  C14 UNL A   1       1.875  27.985   1.096  1.00  0.00    +0.000 C 
ATOM     15  C15 UNL A   1       0.657  28.550   0.690  1.00  0.00    +0.000 C 
ATOM     16  C16 UNL A   1      -0.261  29.013   1.636  1.00  0.00    +0.000 C 
ATOM    113  H14 UNL A   1       0.437  28.622  -0.316  1.00  0.00    +0.000 H 
ATOM     17  C17 UNL A   1       0.031  28.901   2.993  1.00  0.00    +0.000 C 
ATOM     19  C18 UNL A   1       1.235  28.337   3.411  1.00  0.00    +0.000 C 
ATOM     20  C19 UNL A   1       2.162  27.897   2.462  1.00  0.00    +0.000 C 
ATOM    116  H17 UNL A   1       3.064  27.502   2.772  1.00  0.00    +0.000 H 
ATOM    114  H15 UNL A   1      -1.151  29.437   1.331  1.00  0.00    +0.000 H 
ATOM    115  H16 UNL A   1       1.442  28.246   4.418  1.00  0.00    +0.000 H 
ATOM     18 Cl1  UNL A   1      -1.086  29.492   4.162  1.00  0.00    +0.000 Cl
ENDBRANCH   13   14
ENDBRANCH   22   21
ENDBRANCH   23   22
ENDBRANCH   25   23
ENDBRANCH   26   25
ENDBRANCH   27   26
ENDBRANCH   28   27
ENDBRANCH   29   28
ENDBRANCH   30   29
ENDBRANCH   31   30
ENDBRANCH   32   31
ENDBRANCH   33   32
ENDBRANCH   35   33
ENDBRANCH   39   38
BRANCH   43   44
ATOM     44  C38 UNL A   1       6.958  33.731  -4.480  1.00  0.00    +0.000 C 
ATOM     45  C39 UNL A   1       7.876  34.691  -4.002  1.00  0.00    +0.000 C 
ATOM     46  F1  UNL A   1       8.956  34.314  -3.302  1.00  0.00    +0.000 F 
ATOM     47  C40 UNL A   1       7.661  36.064  -4.153  1.00  0.00    +0.000 C 
ATOM     48  F2  UNL A   1       8.494  36.936  -3.570  1.00  0.00    +0.000 F 
ATOM     49  C41 UNL A   1       6.555  36.529  -4.839  1.00  0.00    +0.000 C 
ATOM     50  F3  UNL A   1       6.314  37.843  -4.932  1.00  0.00    +0.000 F 
ATOM     51  C42 UNL A   1       5.674  35.624  -5.387  1.00  0.00    +0.000 C 
ATOM     52  F4  UNL A   1       4.588  36.055  -6.045  1.00  0.00    +0.000 F 
ATOM     53  C43 UNL A   1       5.857  34.256  -5.192  1.00  0.00    +0.000 C 
ATOM     54  F5  UNL A   1       4.859  33.485  -5.637  1.00  0.00    +0.000 F 
ENDBRANCH   43   44
BRANCH   60   61
ATOM     65  F7  UNL A   1      11.247  25.583  -1.927  1.00  0.00    +0.000 F 
ATOM     66  C52 UNL A   1      12.332  25.910  -3.996  1.00  0.00    +0.000 C 
ATOM     67  F8  UNL A   1      12.741  24.634  -4.000  1.00  0.00    +0.000 F 
ATOM     68  C53 UNL A   1      12.650  26.747  -5.055  1.00  0.00    +0.000 C 
ATOM     69  F9  UNL A   1      13.347  26.271  -6.096  1.00  0.00    +0.000 F 
ATOM     70  C54 UNL A   1      12.223  28.072  -5.059  1.00  0.00    +0.000 C 
ATOM     71  F10 UNL A   1      12.531  28.847  -6.110  1.00  0.00    +0.000 F 
ATOM     61  C49 UNL A   1      11.446  28.586  -4.016  1.00  0.00    +0.000 C 
ATOM     62  C50 UNL A   1      11.110  27.709  -2.969  1.00  0.00    +0.000 C 
ATOM     63  F6  UNL A   1      10.294  28.099  -1.982  1.00  0.00    +0.000 F 
ATOM     64  C51 UNL A   1      11.569  26.392  -2.947  1.00  0.00    +0.000 C 
ENDBRANCH   60   61
BRANCH   75   76
ATOM     76  C58 UNL A   1      14.023  32.364   0.243  1.00  0.00    +0.000 C 
ATOM     77  C59 UNL A   1      13.648  33.371   1.145  1.00  0.00    +0.000 C 
ATOM     78  F11 UNL A   1      12.371  33.776   1.204  1.00  0.00    +0.000 F 
ATOM     79  C60 UNL A   1      14.559  33.906   2.060  1.00  0.00    +0.000 C 
ATOM     80  F12 UNL A   1      14.162  34.831   2.944  1.00  0.00    +0.000 F 
ATOM     81  C61 UNL A   1      15.852  33.416   2.122  1.00  0.00    +0.000 C 
ATOM     82  F13 UNL A   1      16.708  33.859   3.053  1.00  0.00    +0.000 F 
ATOM     83  C62 UNL A   1      16.235  32.409   1.256  1.00  0.00    +0.000 C 
ATOM     84  F14 UNL A   1      17.413  31.807   1.424  1.00  0.00    +0.000 F 
ATOM     85  C63 UNL A   1      15.352  31.919   0.301  1.00  0.00    +0.000 C 
ATOM     86  F15 UNL A   1      15.770  30.907  -0.476  1.00  0.00    +0.000 F 
ENDBRANCH   75   76
TORSDOF 20
ENDMDL
MODEL 10
REMARK VINA RESULT:      -7.6     43.604     49.573
ROOT
ATOM    135  H36 UNL A   1      19.185  37.420  44.145  1.00  0.00    +0.000 H 
ATOM    136  H37 UNL A   1      18.613  38.654  46.434  1.00  0.00    +0.000 H 
ATOM    137  H38 UNL A   1      19.028  34.690  47.105  1.00  0.00    +0.000 H 
ATOM    138  H39 UNL A   1      25.081  37.795  51.684  1.00  0.00    +0.000 H 
ATOM    139  H40 UNL A   1      25.489  38.926  49.437  1.00  0.00    +0.000 H 
ATOM    140  H41 UNL A   1      22.334  36.281  48.906  1.00  0.00    +0.000 H 
ATOM    141  H42 UNL A   1      21.937  33.460  50.397  1.00  0.00    +0.000 H 
ATOM    142  H43 UNL A   1      20.277  34.120  48.534  1.00  0.00    +0.000 H 
ATOM    143  H44 UNL A   1      23.570  34.446  44.006  1.00  0.00    +0.000 H 
ATOM    144  H45 UNL A   1      25.278  35.496  45.626  1.00  0.00    +0.000 H 
ATOM     39  C34 UNL A   1      24.134  37.582  47.236  1.00  0.00    +0.000 C 
ATOM     40  C35 UNL A   1      23.443  36.647  46.308  1.00  0.00    +0.000 C 
ATOM     41  N3  UNL A   1      22.196  36.639  45.970  1.00  0.00    +0.000 N 
ATOM     42  C36 UNL A   1      22.031  35.542  45.128  1.00  0.00    +0.000 C 
ATOM     43  C37 UNL A   1      20.817  34.939  44.988  1.00  0.00    +0.000 C 
ATOM     55  C44 UNL A   1      19.760  35.796  45.464  1.00  0.00    +0.000 C 
ATOM     56  C45 UNL A   1      19.283  37.040  45.099  1.00  0.00    +0.000 C 
ATOM     57  C46 UNL A   1      18.954  37.685  46.328  1.00  0.00    +0.000 C 
ATOM     58  C47 UNL A   1      19.177  36.777  47.362  1.00  0.00    +0.000 C 
ATOM     59  N4  UNL A   1      19.270  35.566  46.726  1.00  0.00    +0.000 N 
ATOM     60  C48 UNL A   1      19.377  36.946  48.779  1.00  0.00    +0.000 C 
ATOM     72  C55 UNL A   1      19.979  36.034  49.595  1.00  0.00    +0.000 C 
ATOM     73  N5  UNL A   1      20.505  36.423  50.816  1.00  0.00    +0.000 N 
ATOM     74  C56 UNL A   1      21.477  35.583  51.033  1.00  0.00    +0.000 C 
ATOM     75  C57 UNL A   1      22.779  35.990  51.606  1.00  0.00    +0.000 C 
ATOM     87  C64 UNL A   1      23.416  36.742  50.675  1.00  0.00    +0.000 C 
ATOM     88  C65 UNL A   1      24.554  37.619  50.814  1.00  0.00    +0.000 C 
ATOM     89  C66 UNL A   1      24.810  38.168  49.609  1.00  0.00    +0.000 C 
ATOM     90  C67 UNL A   1      23.981  37.527  48.579  1.00  0.00    +0.000 C 
ATOM     91  N6  UNL A   1      23.098  36.761  49.301  1.00  0.00    +0.000 N 
ATOM     92  C68 UNL A   1      21.432  34.349  50.266  1.00  0.00    +0.000 C 
ATOM     93  C69 UNL A   1      20.540  34.709  49.338  1.00  0.00    +0.000 C 
ATOM     94  C70 UNL A   1      23.355  35.108  44.768  1.00  0.00    +0.000 C 
ATOM     95  C71 UNL A   1      24.264  35.681  45.558  1.00  0.00    +0.000 C 
ENDROOT
BRANCH   39   38
ATOM     97  C73 UNL A   1      25.849  40.510  45.794  1.00  0.00    +0.000 C 
ATOM     35  C30 UNL A   1      27.136  40.026  45.596  1.00  0.00    +0.000 C 
ATOM     36  C31 UNL A   1      27.438  38.677  45.810  1.00  0.00    +0.000 C 
ATOM    133  H34 UNL A   1      28.383  38.312  45.613  1.00  0.00    +0.000 H 
ATOM     37  C32 UNL A   1      26.438  37.837  46.296  1.00  0.00    +0.000 C 
ATOM     38  C33 UNL A   1      25.188  38.383  46.624  1.00  0.00    +0.000 C 
ATOM    134  H35 UNL A   1      26.615  36.827  46.413  1.00  0.00    +0.000 H 
ATOM    145  H46 UNL A   1      24.056  40.152  46.805  1.00  0.00    +0.000 H 
ATOM    146  H47 UNL A   1      25.588  41.447  45.451  1.00  0.00    +0.000 H 
ATOM     96  C72 UNL A   1      24.930  39.736  46.447  1.00  0.00    +0.000 C 
BRANCH   35   33
ATOM     33  C29 UNL A   1      28.176  40.995  45.194  1.00  0.00    +0.000 C 
ATOM     34  O2  UNL A   1      28.366  41.252  44.027  1.00  0.00    +0.000 O 
BRANCH   33   32
ATOM    132  H33 UNL A   1      28.425  42.146  46.847  1.00  0.00    +0.000 H 
ATOM     32  N2  UNL A   1      28.922  41.598  46.198  1.00  0.00    +0.000 N 
BRANCH   32   31
ATOM    130  H31 UNL A   1      30.859  42.032  45.605  1.00  0.00    +0.000 H 
ATOM    131  H32 UNL A   1      30.597  41.931  47.350  1.00  0.00    +0.000 H 
ATOM     31  C28 UNL A   1      30.369  41.505  46.396  1.00  0.00    +0.000 C 
BRANCH   31   30
ATOM    129  H30 UNL A   1      30.006  39.450  46.599  1.00  0.00    +0.000 H 
ATOM     30  C27 UNL A   1      30.857  40.066  46.401  1.00  0.00    +0.000 C 
ATOM    128  H29 UNL A   1      31.617  39.972  47.149  1.00  0.00    +0.000 H 
BRANCH   30   29
ATOM     29  C26 UNL A   1      31.441  39.600  45.058  1.00  0.00    +0.000 C 
ATOM    126  H27 UNL A   1      31.308  40.395  44.353  1.00  0.00    +0.000 H 
ATOM    127  H28 UNL A   1      32.461  39.352  45.265  1.00  0.00    +0.000 H 
BRANCH   29   28
ATOM    124  H25 UNL A   1      31.264  37.484  44.939  1.00  0.00    +0.000 H 
ATOM     28  C25 UNL A   1      30.833  38.329  44.443  1.00  0.00    +0.000 C 
ATOM    125  H26 UNL A   1      29.775  38.416  44.578  1.00  0.00    +0.000 H 
BRANCH   28   27
ATOM    122  H23 UNL A   1      30.244  38.634  42.427  1.00  0.00    +0.000 H 
ATOM     27  C24 UNL A   1      31.052  38.154  42.940  1.00  0.00    +0.000 C 
ATOM    123  H24 UNL A   1      32.004  38.588  42.719  1.00  0.00    +0.000 H 
BRANCH   27   26
ATOM    121  H22 UNL A   1      32.103  36.341  42.677  1.00  0.00    +0.000 H 
ATOM     26  C23 UNL A   1      31.117  36.703  42.472  1.00  0.00    +0.000 C 
ATOM    120  H21 UNL A   1      30.894  36.669  41.426  1.00  0.00    +0.000 H 
BRANCH   26   25
ATOM     25  N1  UNL A   1      30.185  35.850  43.171  1.00  0.00    +0.000 N 
ATOM    119  H20 UNL A   1      29.423  36.310  43.593  1.00  0.00    +0.000 H 
BRANCH   25   23
ATOM     23  C22 UNL A   1      30.218  34.494  43.328  1.00  0.00    +0.000 C 
ATOM     24  O1  UNL A   1      29.522  33.817  42.567  1.00  0.00    +0.000 O 
BRANCH   23   22
ATOM    118  H19 UNL A   1      32.059  33.972  44.197  1.00  0.00    +0.000 H 
ATOM    117  H18 UNL A   1      30.740  32.822  44.523  1.00  0.00    +0.000 H 
ATOM     22  C21 UNL A   1      31.026  33.851  44.448  1.00  0.00    +0.000 C 
BRANCH   22   21
ATOM      2  C2  UNL A   1      33.516  36.597  47.203  1.00  0.00    +0.000 C 
ATOM     99  C74 UNL A   1      32.938  36.029  45.873  1.00  0.00    +0.000 C 
ATOM      4  C4  UNL A   1      32.249  36.849  48.087  1.00  0.00    +0.000 C 
ATOM      5  C5  UNL A   1      31.282  35.874  47.527  1.00  0.00    +0.000 C 
ATOM     98  N7  UNL A   1      31.682  35.425  46.300  1.00  0.00    +0.000 N 
ATOM      6  C6  UNL A   1      30.103  35.252  47.834  1.00  0.00    +0.000 C 
ATOM    106  H7  UNL A   1      31.894  37.853  47.980  1.00  0.00    +0.000 H 
ATOM    107  H8  UNL A   1      32.423  36.729  49.136  1.00  0.00    +0.000 H 
ATOM     13  C13 UNL A   1      29.796  34.384  46.726  1.00  0.00    +0.000 C 
ATOM    147  H48 UNL A   1      33.594  35.297  45.449  1.00  0.00    +0.000 H 
ATOM    148  H49 UNL A   1      32.815  36.772  45.114  1.00  0.00    +0.000 H 
ATOM     21  C20 UNL A   1      30.824  34.494  45.788  1.00  0.00    +0.000 C 
BRANCH    2    1
ATOM      1  C1  UNL A   1      34.315  37.876  46.960  1.00  0.00    +0.000 C 
ATOM    100  H1  UNL A   1      35.359  37.643  46.923  1.00  0.00    +0.000 H 
ATOM    101  H2  UNL A   1      34.131  38.568  47.753  1.00  0.00    +0.000 H 
ATOM    102  H3  UNL A   1      34.015  38.312  46.030  1.00  0.00    +0.000 H 
ENDBRANCH    2    1
BRANCH    2    3
ATOM    105  H6  UNL A   1      35.257  35.338  47.249  1.00  0.00    +0.000 H 
ATOM      3  C3  UNL A   1      34.433  35.567  47.892  1.00  0.00    +0.000 C 
ATOM    103  H4  UNL A   1      33.878  34.673  48.092  1.00  0.00    +0.000 H 
ATOM    104  H5  UNL A   1      34.798  35.973  48.811  1.00  0.00    +0.000 H 
ENDBRANCH    2    3
BRANCH    6    7
ATOM      7  C7  UNL A   1      29.301  35.463  49.019  1.00  0.00    +0.000 C 
ATOM      8  C8  UNL A   1      29.381  34.568  50.088  1.00  0.00    +0.000 C 
ATOM      9  C9  UNL A   1      28.845  34.923  51.325  1.00  0.00    +0.000 C 
ATOM     10  C10 UNL A   1      28.217  36.160  51.490  1.00  0.00    +0.000 C 
ATOM     11  C11 UNL A   1      28.079  37.027  50.409  1.00  0.00    +0.000 C 
ATOM     12  C12 UNL A   1      28.622  36.680  49.175  1.00  0.00    +0.000 C 
ATOM    108  H9  UNL A   1      29.834  33.649  49.963  1.00  0.00    +0.000 H 
ATOM    109  H10 UNL A   1      28.912  34.269  52.122  1.00  0.00    +0.000 H 
ATOM    111  H12 UNL A   1      27.577  37.922  50.523  1.00  0.00    +0.000 H 
ATOM    112  H13 UNL A   1      28.523  37.320  48.372  1.00  0.00    +0.000 H 
ATOM    110  H11 UNL A   1      27.854  36.433  52.417  1.00  0.00    +0.000 H 
ENDBRANCH    6    7
BRANCH   13   14
ATOM     14  C14 UNL A   1      28.597  33.563  46.597  1.00  0.00    +0.000 C 
ATOM     15  C15 UNL A   1      28.559  32.299  47.204  1.00  0.00    +0.000 C 
ATOM     16  C16 UNL A   1      27.497  31.425  46.959  1.00  0.00    +0.000 C 
ATOM    113  H14 UNL A   1      29.322  32.012  47.838  1.00  0.00    +0.000 H 
ATOM     17  C17 UNL A   1      26.460  31.819  46.115  1.00  0.00    +0.000 C 
ATOM     19  C18 UNL A   1      26.483  33.074  45.510  1.00  0.00    +0.000 C 
ATOM     20  C19 UNL A   1      27.559  33.936  45.738  1.00  0.00    +0.000 C 
ATOM    116  H17 UNL A   1      27.587  34.855  45.269  1.00  0.00    +0.000 H 
ATOM    114  H15 UNL A   1      27.479  30.493  47.401  1.00  0.00    +0.000 H 
ATOM    115  H16 UNL A   1      25.707  33.365  44.895  1.00  0.00    +0.000 H 
ATOM     18 Cl1  UNL A   1      25.161  30.738  45.793  1.00  0.00    +0.000 Cl
ENDBRANCH   13   14
ENDBRANCH   22   21
ENDBRANCH   23   22
ENDBRANCH   25   23
ENDBRANCH   26   25
ENDBRANCH   27   26
ENDBRANCH   28   27
ENDBRANCH   29   28
ENDBRANCH   30   29
ENDBRANCH   31   30
ENDBRANCH   32   31
ENDBRANCH   33   32
ENDBRANCH   35   33
ENDBRANCH   39   38
BRANCH   43   44
ATOM     44  C38 UNL A   1      20.608  33.457  44.767  1.00  0.00    +0.000 C 
ATOM     45  C39 UNL A   1      19.551  33.031  43.935  1.00  0.00    +0.000 C 
ATOM     46  F1  UNL A   1      18.905  33.905  43.149  1.00  0.00    +0.000 F 
ATOM     47  C40 UNL A   1      19.072  31.718  43.956  1.00  0.00    +0.000 C 
ATOM     48  F2  UNL A   1      17.985  31.394  43.243  1.00  0.00    +0.000 F 
ATOM     49  C41 UNL A   1      19.669  30.766  44.761  1.00  0.00    +0.000 C 
ATOM     50  F3  UNL A   1      19.175  29.523  44.830  1.00  0.00    +0.000 F 
ATOM     51  C42 UNL A   1      20.753  31.123  45.532  1.00  0.00    +0.000 C 
ATOM     52  F4  UNL A   1      21.338  30.218  46.331  1.00  0.00    +0.000 F 
ATOM     53  C43 UNL A   1      21.198  32.444  45.555  1.00  0.00    +0.000 C 
ATOM     54  F5  UNL A   1      22.154  32.701  46.454  1.00  0.00    +0.000 F 
ENDBRANCH   43   44
BRANCH   60   61
ATOM     65  F7  UNL A   1      20.538  41.677  49.607  1.00  0.00    +0.000 F 
ATOM     66  C52 UNL A   1      18.422  40.881  50.283  1.00  0.00    +0.000 C 
ATOM     67  F8  UNL A   1      18.081  42.104  50.711  1.00  0.00    +0.000 F 
ATOM     68  C53 UNL A   1      17.519  39.833  50.381  1.00  0.00    +0.000 C 
ATOM     69  F9  UNL A   1      16.296  40.050  50.883  1.00  0.00    +0.000 F 
ATOM     70  C54 UNL A   1      17.865  38.561  49.933  1.00  0.00    +0.000 C 
ATOM     71  F10 UNL A   1      16.960  37.575  50.025  1.00  0.00    +0.000 F 
ATOM     61  C49 UNL A   1      19.114  38.311  49.353  1.00  0.00    +0.000 C 
ATOM     62  C50 UNL A   1      19.999  39.397  49.236  1.00  0.00    +0.000 C 
ATOM     63  F6  UNL A   1      21.174  39.261  48.609  1.00  0.00    +0.000 F 
ATOM     64  C51 UNL A   1      19.667  40.663  49.718  1.00  0.00    +0.000 C 
ENDBRANCH   60   61
BRANCH   75   76
ATOM     76  C58 UNL A   1      23.390  35.237  52.716  1.00  0.00    +0.000 C 
ATOM     77  C59 UNL A   1      24.666  34.665  52.603  1.00  0.00    +0.000 C 
ATOM     78  F11 UNL A   1      25.251  34.562  51.400  1.00  0.00    +0.000 F 
ATOM     79  C60 UNL A   1      25.395  34.280  53.732  1.00  0.00    +0.000 C 
ATOM     80  F12 UNL A   1      26.632  33.784  53.599  1.00  0.00    +0.000 F 
ATOM     81  C61 UNL A   1      24.881  34.498  54.999  1.00  0.00    +0.000 C 
ATOM     82  F13 UNL A   1      25.607  34.214  56.089  1.00  0.00    +0.000 F 
ATOM     83  C62 UNL A   1      23.634  35.079  55.132  1.00  0.00    +0.000 C 
ATOM     84  F14 UNL A   1      23.208  35.456  56.338  1.00  0.00    +0.000 F 
ATOM     85  C63 UNL A   1      22.878  35.403  54.012  1.00  0.00    +0.000 C 
ATOM     86  F15 UNL A   1      21.697  36.010  54.209  1.00  0.00    +0.000 F 
ENDBRANCH   75   76
TORSDOF 20
ENDMDL
