MODEL 1
REMARK VINA RESULT:      -9.3      0.000      0.000
ROOT
ATOM    130  H32 UNL A   1      52.696  14.407   6.476  1.00  0.00    +0.000 H 
ATOM    131  H33 UNL A   1      50.746  15.398   7.953  1.00  0.00    +0.000 H 
ATOM    132  H34 UNL A   1      51.849  18.230   5.167  1.00  0.00    +0.000 H 
ATOM    133  H35 UNL A   1      52.946  16.568  10.324  1.00  0.00    +0.000 H 
ATOM    134  H36 UNL A   1      54.522  16.412   8.320  1.00  0.00    +0.000 H 
ATOM    135  H37 UNL A   1      55.853  19.439  10.828  1.00  0.00    +0.000 H 
ATOM    136  H38 UNL A   1      50.415  21.152  10.750  1.00  0.00    +0.000 H 
ATOM    137  H39 UNL A   1      48.968  20.492   8.724  1.00  0.00    +0.000 H 
ATOM    138  H40 UNL A   1      56.044  18.188   3.458  1.00  0.00    +0.000 H 
ATOM    139  H41 UNL A   1      57.388  19.260   5.372  1.00  0.00    +0.000 H 
ATOM     36  C29 UNL A   1      56.009  18.896   7.949  1.00  0.00    +0.000 C 
ATOM     37  C30 UNL A   1      55.660  18.455   6.586  1.00  0.00    +0.000 C 
ATOM     38  N6  UNL A   1      54.553  17.865   6.281  1.00  0.00    +0.000 N 
ATOM     39  C31 UNL A   1      54.638  17.459   4.973  1.00  0.00    +0.000 C 
ATOM     40  C32 UNL A   1      53.782  16.494   4.532  1.00  0.00    +0.000 C 
ATOM     52  C39 UNL A   1      52.665  16.316   5.468  1.00  0.00    +0.000 C 
ATOM     53  C40 UNL A   1      52.286  15.350   6.385  1.00  0.00    +0.000 C 
ATOM     54  C41 UNL A   1      51.228  15.885   7.182  1.00  0.00    +0.000 C 
ATOM     55  C42 UNL A   1      50.962  17.169   6.741  1.00  0.00    +0.000 C 
ATOM     56  N7  UNL A   1      51.828  17.398   5.692  1.00  0.00    +0.000 N 
ATOM     57  C43 UNL A   1      50.085  18.241   7.176  1.00  0.00    +0.000 C 
ATOM     69  C50 UNL A   1      50.420  18.886   8.327  1.00  0.00    +0.000 C 
ATOM     70  N8  UNL A   1      51.533  18.561   9.053  1.00  0.00    +0.000 N 
ATOM     71  C51 UNL A   1      51.683  19.428  10.015  1.00  0.00    +0.000 C 
ATOM     72  C52 UNL A   1      52.906  19.512  10.898  1.00  0.00    +0.000 C 
ATOM     84  C59 UNL A   1      53.858  18.567  10.657  1.00  0.00    +0.000 C 
ATOM     85  C60 UNL A   1      53.634  17.280  10.031  1.00  0.00    +0.000 C 
ATOM     86  C61 UNL A   1      54.488  17.185   9.004  1.00  0.00    +0.000 C 
ATOM     87  C62 UNL A   1      55.360  18.356   9.010  1.00  0.00    +0.000 C 
ATOM     88  N9  UNL A   1      55.199  18.923  10.302  1.00  0.00    +0.000 N 
ATOM     89  C63 UNL A   1      50.580  20.391  10.073  1.00  0.00    +0.000 C 
ATOM     90  C64 UNL A   1      49.841  20.024   9.013  1.00  0.00    +0.000 C 
ATOM     91  C65 UNL A   1      55.792  18.152   4.458  1.00  0.00    +0.000 C 
ATOM     92  C66 UNL A   1      56.496  18.743   5.428  1.00  0.00    +0.000 C 
ENDROOT
BRANCH   36   35
ATOM     33  C26 UNL A   1      59.415  20.400   8.043  1.00  0.00    +0.000 C 
ATOM     34  C27 UNL A   1      58.416  19.473   8.318  1.00  0.00    +0.000 C 
ATOM    129  H31 UNL A   1      58.655  18.520   8.632  1.00  0.00    +0.000 H 
ATOM     35  C28 UNL A   1      57.084  19.859   8.163  1.00  0.00    +0.000 C 
ATOM    140  H42 UNL A   1      55.754  21.506   8.072  1.00  0.00    +0.000 H 
ATOM    141  H43 UNL A   1      57.524  23.164   7.822  1.00  0.00    +0.000 H 
ATOM    128  H30 UNL A   1      60.410  20.142   8.120  1.00  0.00    +0.000 H 
ATOM     93  C67 UNL A   1      56.743  21.214   8.027  1.00  0.00    +0.000 C 
ATOM     94  C68 UNL A   1      57.737  22.155   7.835  1.00  0.00    +0.000 C 
ATOM     32  C25 UNL A   1      59.037  21.689   7.658  1.00  0.00    +0.000 C 
BRANCH   32   30
ATOM     30  C24 UNL A   1      59.886  22.361   6.646  1.00  0.00    +0.000 C 
ATOM     31  O2  UNL A   1      59.646  22.246   5.467  1.00  0.00    +0.000 O 
BRANCH   30   29
ATOM     29  N5  UNL A   1      60.902  23.185   7.135  1.00  0.00    +0.000 N 
ATOM    127  H29 UNL A   1      61.701  23.271   6.567  1.00  0.00    +0.000 H 
BRANCH   29   28
ATOM     28  C23 UNL A   1      60.922  23.941   8.398  1.00  0.00    +0.000 C 
ATOM    125  H27 UNL A   1      61.066  24.974   8.161  1.00  0.00    +0.000 H 
ATOM    126  H28 UNL A   1      59.988  23.736   8.878  1.00  0.00    +0.000 H 
BRANCH   28   27
ATOM     27  C22 UNL A   1      62.007  23.527   9.390  1.00  0.00    +0.000 C 
ATOM    124  H26 UNL A   1      61.989  24.294  10.136  1.00  0.00    +0.000 H 
ATOM    123  H25 UNL A   1      62.920  23.432   8.840  1.00  0.00    +0.000 H 
BRANCH   27   26
ATOM    121  H23 UNL A   1      61.801  21.430   9.464  1.00  0.00    +0.000 H 
ATOM     26  C21 UNL A   1      61.813  22.230  10.175  1.00  0.00    +0.000 C 
ATOM    122  H24 UNL A   1      62.620  22.225  10.877  1.00  0.00    +0.000 H 
BRANCH   26   25
ATOM     25  C20 UNL A   1      60.555  22.081  11.046  1.00  0.00    +0.000 C 
ATOM    119  H21 UNL A   1      60.671  22.782  11.847  1.00  0.00    +0.000 H 
ATOM    120  H22 UNL A   1      59.783  22.210  10.316  1.00  0.00    +0.000 H 
BRANCH   25   24
ATOM    117  H19 UNL A   1      59.080  20.867  11.948  1.00  0.00    +0.000 H 
ATOM    118  H20 UNL A   1      60.411  20.032  10.976  1.00  0.00    +0.000 H 
ATOM     24  C19 UNL A   1      60.118  20.752  11.709  1.00  0.00    +0.000 C 
BRANCH   24   23
ATOM    115  H17 UNL A   1      61.259  21.030  13.467  1.00  0.00    +0.000 H 
ATOM    116  H18 UNL A   1      59.999  19.739  13.523  1.00  0.00    +0.000 H 
ATOM     23  C18 UNL A   1      60.787  20.207  12.971  1.00  0.00    +0.000 C 
BRANCH   23   22
ATOM    114  H16 UNL A   1      62.733  19.428  12.914  1.00  0.00    +0.000 H 
ATOM     22  N4  UNL A   1      61.791  19.168  12.795  1.00  0.00    +0.000 N 
BRANCH   22   20
ATOM     20  C17 UNL A   1      61.536  17.854  12.474  1.00  0.00    +0.000 C 
ATOM     21  O1  UNL A   1      61.550  17.592  11.261  1.00  0.00    +0.000 O 
BRANCH   20   19
ATOM    110  H12 UNL A   1      58.848  14.733  14.369  1.00  0.00    +0.000 H 
ATOM    111  H13 UNL A   1      60.250  16.401  15.146  1.00  0.00    +0.000 H 
ATOM    112  H14 UNL A   1      59.493  17.206  13.890  1.00  0.00    +0.000 H 
ATOM     17  C15 UNL A   1      59.531  15.178  13.675  1.00  0.00    +0.000 C 
ATOM     18  N3  UNL A   1      60.121  16.440  14.135  1.00  0.00    +0.000 N 
ATOM     19  C16 UNL A   1      61.434  16.669  13.482  1.00  0.00    +0.000 C 
ATOM    142  H44 UNL A   1      63.005  15.207  13.247  1.00  0.00    +0.000 H 
ATOM    143  H45 UNL A   1      62.066  15.419  11.820  1.00  0.00    +0.000 H 
ATOM    113  H15 UNL A   1      62.043  16.996  14.299  1.00  0.00    +0.000 H 
ATOM     95  C69 UNL A   1      62.010  15.372  12.888  1.00  0.00    +0.000 C 
ATOM     96  S1  UNL A   1      60.911  14.046  13.442  1.00  0.00    +0.000 S 
BRANCH   17   16
ATOM      6  C6  UNL A   1      57.629  16.367  12.272  1.00  0.00    +0.000 C 
ATOM      7  N1  UNL A   1      57.151  16.299  11.006  1.00  0.00    +0.000 N 
ATOM      8  N2  UNL A   1      58.051  15.530  10.340  1.00  0.00    +0.000 N 
ATOM    109  H11 UNL A   1      59.598  14.178  10.934  1.00  0.00    +0.000 H 
ATOM     15  C13 UNL A   1      58.919  14.913  11.187  1.00  0.00    +0.000 C 
ATOM     16  C14 UNL A   1      58.727  15.444  12.445  1.00  0.00    +0.000 C 
BRANCH    6    5
ATOM     97  C70 UNL A   1      57.236  18.706  13.104  1.00  0.00    +0.000 C 
ATOM      2  C2  UNL A   1      55.951  19.151  15.137  1.00  0.00    +0.000 C 
ATOM      3  C3  UNL A   1      55.838  17.778  15.334  1.00  0.00    +0.000 C 
ATOM      4  C4  UNL A   1      56.397  16.888  14.411  1.00  0.00    +0.000 C 
ATOM     98  C71 UNL A   1      56.671  19.609  14.026  1.00  0.00    +0.000 C 
ATOM    102  H4  UNL A   1      55.342  17.416  16.163  1.00  0.00    +0.000 H 
ATOM      5  C5  UNL A   1      57.081  17.326  13.264  1.00  0.00    +0.000 C 
ATOM    103  H5  UNL A   1      56.303  15.874  14.578  1.00  0.00    +0.000 H 
ATOM    144  H46 UNL A   1      57.770  19.069  12.299  1.00  0.00    +0.000 H 
ATOM    145  H47 UNL A   1      56.791  20.623  13.883  1.00  0.00    +0.000 H 
BRANCH    2    1
ATOM      1  C1  UNL A   1      55.305  20.087  16.115  1.00  0.00    +0.000 C 
ATOM     99  H1  UNL A   1      54.869  19.524  16.915  1.00  0.00    +0.000 H 
ATOM    100  H2  UNL A   1      54.544  20.652  15.620  1.00  0.00    +0.000 H 
ATOM    101  H3  UNL A   1      56.043  20.754  16.511  1.00  0.00    +0.000 H 
ENDBRANCH    2    1
ENDBRANCH    6    5
BRANCH    8    9
ATOM    104  H6  UNL A   1      60.222  16.242   9.033  1.00  0.00    +0.000 H 
ATOM      9  C7  UNL A   1      58.213  15.566   8.934  1.00  0.00    +0.000 C 
ATOM     10  C8  UNL A   1      59.439  16.011   8.401  1.00  0.00    +0.000 C 
ATOM     11  C9  UNL A   1      59.596  16.139   7.022  1.00  0.00    +0.000 C 
ATOM    108  H10 UNL A   1      56.276  14.859   8.475  1.00  0.00    +0.000 H 
ATOM     13  C11 UNL A   1      57.379  15.226   6.704  1.00  0.00    +0.000 C 
ATOM     14  C12 UNL A   1      57.178  15.178   8.088  1.00  0.00    +0.000 C 
ATOM    105  H7  UNL A   1      60.467  16.533   6.632  1.00  0.00    +0.000 H 
ATOM    107  H9  UNL A   1      56.642  14.885   6.069  1.00  0.00    +0.000 H 
ATOM     12  C10 UNL A   1      58.571  15.731   6.174  1.00  0.00    +0.000 C 
ATOM    106  H8  UNL A   1      58.690  15.801   5.151  1.00  0.00    +0.000 H 
ENDBRANCH    8    9
ENDBRANCH   17   16
ENDBRANCH   20   19
ENDBRANCH   22   20
ENDBRANCH   23   22
ENDBRANCH   24   23
ENDBRANCH   25   24
ENDBRANCH   26   25
ENDBRANCH   27   26
ENDBRANCH   28   27
ENDBRANCH   29   28
ENDBRANCH   30   29
ENDBRANCH   32   30
ENDBRANCH   36   35
BRANCH   40   41
ATOM     41  C33 UNL A   1      54.006  15.584   3.334  1.00  0.00    +0.000 C 
ATOM     42  C34 UNL A   1      52.904  15.158   2.556  1.00  0.00    +0.000 C 
ATOM     43  F1  UNL A   1      51.670  15.636   2.769  1.00  0.00    +0.000 F 
ATOM     44  C35 UNL A   1      53.018  14.201   1.540  1.00  0.00    +0.000 C 
ATOM     45  F2  UNL A   1      51.921  13.797   0.883  1.00  0.00    +0.000 F 
ATOM     46  C36 UNL A   1      54.241  13.653   1.223  1.00  0.00    +0.000 C 
ATOM     47  F3  UNL A   1      54.352  12.728   0.262  1.00  0.00    +0.000 F 
ATOM     48  C37 UNL A   1      55.352  14.067   1.920  1.00  0.00    +0.000 C 
ATOM     49  F4  UNL A   1      56.557  13.556   1.629  1.00  0.00    +0.000 F 
ATOM     50  C38 UNL A   1      55.233  14.997   2.957  1.00  0.00    +0.000 C 
ATOM     51  F5  UNL A   1      56.381  15.251   3.585  1.00  0.00    +0.000 F 
ENDBRANCH   40   41
BRANCH   57   58
ATOM     65  C48 UNL A   1      46.608  18.106   5.617  1.00  0.00    +0.000 C 
ATOM     66  F9  UNL A   1      45.580  17.246   5.560  1.00  0.00    +0.000 F 
ATOM     67  C49 UNL A   1      47.796  17.722   6.234  1.00  0.00    +0.000 C 
ATOM     68  F10 UNL A   1      47.870  16.463   6.690  1.00  0.00    +0.000 F 
ATOM     58  C44 UNL A   1      48.885  18.606   6.361  1.00  0.00    +0.000 C 
ATOM     59  C45 UNL A   1      48.732  19.880   5.794  1.00  0.00    +0.000 C 
ATOM     60  F6  UNL A   1      49.716  20.788   5.882  1.00  0.00    +0.000 F 
ATOM     61  C46 UNL A   1      47.557  20.247   5.137  1.00  0.00    +0.000 C 
ATOM     62  F7  UNL A   1      47.456  21.462   4.580  1.00  0.00    +0.000 F 
ATOM     63  C47 UNL A   1      46.490  19.367   5.064  1.00  0.00    +0.000 C 
ATOM     64  F8  UNL A   1      45.351  19.733   4.460  1.00  0.00    +0.000 F 
ENDBRANCH   57   58
BRANCH   72   73
ATOM     73  C53 UNL A   1      53.468  20.760  11.466  1.00  0.00    +0.000 C 
ATOM     74  C54 UNL A   1      53.709  21.840  10.595  1.00  0.00    +0.000 C 
ATOM     75  F11 UNL A   1      53.779  21.630   9.270  1.00  0.00    +0.000 F 
ATOM     76  C55 UNL A   1      53.764  23.148  11.066  1.00  0.00    +0.000 C 
ATOM     77  F12 UNL A   1      53.887  24.165  10.201  1.00  0.00    +0.000 F 
ATOM     78  C56 UNL A   1      53.616  23.400  12.419  1.00  0.00    +0.000 C 
ATOM     79  F13 UNL A   1      53.577  24.662  12.867  1.00  0.00    +0.000 F 
ATOM     80  C57 UNL A   1      53.470  22.342  13.305  1.00  0.00    +0.000 C 
ATOM     81  F14 UNL A   1      53.303  22.587  14.613  1.00  0.00    +0.000 F 
ATOM     82  C58 UNL A   1      53.402  21.030  12.835  1.00  0.00    +0.000 C 
ATOM     83  F15 UNL A   1      53.156  20.043  13.710  1.00  0.00    +0.000 F 
ENDBRANCH   72   73
TORSDOF 19
ENDMDL
MODEL 2
REMARK VINA RESULT:      -9.1     47.773     52.733
ROOT
ATOM    130  H32 UNL A   1      11.707  50.181  -1.452  1.00  0.00    +0.000 H 
ATOM    131  H33 UNL A   1      13.583  50.159  -3.308  1.00  0.00    +0.000 H 
ATOM    132  H34 UNL A   1      15.323  49.281   0.325  1.00  0.00    +0.000 H 
ATOM    133  H35 UNL A   1      14.133  53.539  -2.992  1.00  0.00    +0.000 H 
ATOM    134  H36 UNL A   1      13.086  53.063  -0.712  1.00  0.00    +0.000 H 
ATOM    135  H37 UNL A   1      15.683  56.278  -0.339  1.00  0.00    +0.000 H 
ATOM    136  H38 UNL A   1      19.351  52.944  -3.156  1.00  0.00    +0.000 H 
ATOM    137  H39 UNL A   1      19.021  50.394  -3.015  1.00  0.00    +0.000 H 
ATOM    138  H40 UNL A   1      13.401  50.753   4.154  1.00  0.00    +0.000 H 
ATOM    139  H41 UNL A   1      14.129  53.221   4.177  1.00  0.00    +0.000 H 
ATOM     36  C29 UNL A   1      14.710  54.165   1.448  1.00  0.00    +0.000 C 
ATOM     37  C30 UNL A   1      14.247  52.858   1.950  1.00  0.00    +0.000 C 
ATOM     38  N6  UNL A   1      14.098  51.813   1.206  1.00  0.00    +0.000 N 
ATOM     39  C31 UNL A   1      13.506  50.835   1.966  1.00  0.00    +0.000 C 
ATOM     40  C32 UNL A   1      12.899  49.794   1.331  1.00  0.00    +0.000 C 
ATOM     52  C39 UNL A   1      13.308  49.726  -0.077  1.00  0.00    +0.000 C 
ATOM     53  C40 UNL A   1      12.711  49.999  -1.297  1.00  0.00    +0.000 C 
ATOM     54  C41 UNL A   1      13.726  49.983  -2.301  1.00  0.00    +0.000 C 
ATOM     55  C42 UNL A   1      14.933  49.692  -1.691  1.00  0.00    +0.000 C 
ATOM     56  N7  UNL A   1      14.651  49.520  -0.352  1.00  0.00    +0.000 N 
ATOM     57  C43 UNL A   1      16.313  49.614  -2.136  1.00  0.00    +0.000 C 
ATOM     69  C50 UNL A   1      16.936  50.789  -2.428  1.00  0.00    +0.000 C 
ATOM     70  N8  UNL A   1      16.312  52.000  -2.309  1.00  0.00    +0.000 N 
ATOM     71  C51 UNL A   1      17.182  52.950  -2.512  1.00  0.00    +0.000 C 
ATOM     72  C52 UNL A   1      16.909  54.415  -2.268  1.00  0.00    +0.000 C 
ATOM     84  C59 UNL A   1      15.643  54.707  -1.854  1.00  0.00    +0.000 C 
ATOM     85  C60 UNL A   1      14.469  53.889  -2.081  1.00  0.00    +0.000 C 
ATOM     86  C61 UNL A   1      13.901  53.672  -0.888  1.00  0.00    +0.000 C 
ATOM     87  C62 UNL A   1      14.627  54.437   0.123  1.00  0.00    +0.000 C 
ATOM     88  N9  UNL A   1      15.392  55.379  -0.614  1.00  0.00    +0.000 N 
ATOM     89  C63 UNL A   1      18.496  52.428  -2.896  1.00  0.00    +0.000 C 
ATOM     90  C64 UNL A   1      18.296  51.102  -2.819  1.00  0.00    +0.000 C 
ATOM     91  C65 UNL A   1      13.611  51.322   3.319  1.00  0.00    +0.000 C 
ATOM     92  C66 UNL A   1      14.014  52.595   3.364  1.00  0.00    +0.000 C 
ENDROOT
BRANCH   36   35
ATOM     33  C26 UNL A   1      14.727  56.932   3.940  1.00  0.00    +0.000 C 
ATOM     34  C27 UNL A   1      14.430  56.286   2.746  1.00  0.00    +0.000 C 
ATOM    129  H31 UNL A   1      13.658  56.618   2.147  1.00  0.00    +0.000 H 
ATOM     35  C28 UNL A   1      15.198  55.183   2.374  1.00  0.00    +0.000 C 
ATOM    140  H42 UNL A   1      17.051  54.190   2.637  1.00  0.00    +0.000 H 
ATOM    141  H43 UNL A   1      17.682  55.486   4.602  1.00  0.00    +0.000 H 
ATOM    128  H30 UNL A   1      14.164  57.735   4.261  1.00  0.00    +0.000 H 
ATOM     93  C67 UNL A   1      16.415  54.907   3.017  1.00  0.00    +0.000 C 
ATOM     94  C68 UNL A   1      16.757  55.603   4.161  1.00  0.00    +0.000 C 
ATOM     32  C25 UNL A   1      15.806  56.468   4.697  1.00  0.00    +0.000 C 
BRANCH   32   30
ATOM     30  C24 UNL A   1      15.660  56.517   6.171  1.00  0.00    +0.000 C 
ATOM     31  O2  UNL A   1      15.854  57.545   6.775  1.00  0.00    +0.000 O 
BRANCH   30   29
ATOM     29  N5  UNL A   1      15.208  55.349   6.789  1.00  0.00    +0.000 N 
ATOM    127  H29 UNL A   1      15.835  54.919   7.414  1.00  0.00    +0.000 H 
BRANCH   29   28
ATOM     28  C23 UNL A   1      13.906  54.683   6.619  1.00  0.00    +0.000 C 
ATOM    125  H27 UNL A   1      13.607  54.798   5.599  1.00  0.00    +0.000 H 
ATOM    126  H28 UNL A   1      14.056  53.664   6.911  1.00  0.00    +0.000 H 
BRANCH   28   27
ATOM     27  C22 UNL A   1      12.780  55.213   7.504  1.00  0.00    +0.000 C 
ATOM    124  H26 UNL A   1      12.039  54.442   7.481  1.00  0.00    +0.000 H 
ATOM    123  H25 UNL A   1      12.481  56.160   7.104  1.00  0.00    +0.000 H 
BRANCH   27   26
ATOM    121  H23 UNL A   1      13.703  56.274   9.075  1.00  0.00    +0.000 H 
ATOM     26  C21 UNL A   1      13.064  55.420   8.992  1.00  0.00    +0.000 C 
ATOM    122  H24 UNL A   1      12.095  55.512   9.434  1.00  0.00    +0.000 H 
BRANCH   26   25
ATOM     25  C20 UNL A   1      13.730  54.278   9.777  1.00  0.00    +0.000 C 
ATOM    119  H21 UNL A   1      14.747  54.578   9.921  1.00  0.00    +0.000 H 
ATOM    120  H22 UNL A   1      13.065  54.186  10.610  1.00  0.00    +0.000 H 
BRANCH   25   24
ATOM    117  H19 UNL A   1      14.291  52.837   8.337  1.00  0.00    +0.000 H 
ATOM    118  H20 UNL A   1      14.250  52.318  10.110  1.00  0.00    +0.000 H 
ATOM     24  C19 UNL A   1      13.788  52.812   9.282  1.00  0.00    +0.000 C 
BRANCH   24   23
ATOM    115  H17 UNL A   1      12.355  51.422   9.976  1.00  0.00    +0.000 H 
ATOM    116  H18 UNL A   1      11.766  52.669   8.811  1.00  0.00    +0.000 H 
ATOM     23  C18 UNL A   1      12.531  51.968   9.072  1.00  0.00    +0.000 C 
BRANCH   23   22
ATOM    114  H16 UNL A   1      13.246  51.123   7.291  1.00  0.00    +0.000 H 
ATOM     22  N4  UNL A   1      12.550  51.008   7.978  1.00  0.00    +0.000 N 
BRANCH   22   20
ATOM     20  C17 UNL A   1      11.678  49.954   7.821  1.00  0.00    +0.000 C 
ATOM     21  O1  UNL A   1      10.604  50.060   8.433  1.00  0.00    +0.000 O 
BRANCH   20   19
ATOM    110  H12 UNL A   1      14.494  47.682   5.089  1.00  0.00    +0.000 H 
ATOM    111  H13 UNL A   1      12.451  48.741   4.849  1.00  0.00    +0.000 H 
ATOM    112  H14 UNL A   1      13.258  49.857   5.798  1.00  0.00    +0.000 H 
ATOM     17  C15 UNL A   1      13.961  47.950   5.977  1.00  0.00    +0.000 C 
ATOM     18  N3  UNL A   1      12.874  48.913   5.761  1.00  0.00    +0.000 N 
ATOM     19  C16 UNL A   1      11.839  48.774   6.815  1.00  0.00    +0.000 C 
ATOM    142  H44 UNL A   1      10.998  46.919   7.530  1.00  0.00    +0.000 H 
ATOM    143  H45 UNL A   1      12.215  47.549   8.570  1.00  0.00    +0.000 H 
ATOM    113  H15 UNL A   1      10.930  48.814   6.251  1.00  0.00    +0.000 H 
ATOM     95  C69 UNL A   1      11.942  47.423   7.543  1.00  0.00    +0.000 C 
ATOM     96  S1  UNL A   1      13.180  46.468   6.634  1.00  0.00    +0.000 S 
BRANCH   17   16
ATOM      6  C6  UNL A   1      16.135  49.358   6.518  1.00  0.00    +0.000 C 
ATOM      7  N1  UNL A   1      16.821  49.722   7.627  1.00  0.00    +0.000 N 
ATOM      8  N2  UNL A   1      16.013  49.373   8.662  1.00  0.00    +0.000 N 
ATOM    109  H11 UNL A   1      14.320  48.082   8.870  1.00  0.00    +0.000 H 
ATOM     15  C13 UNL A   1      14.981  48.583   8.256  1.00  0.00    +0.000 C 
ATOM     16  C14 UNL A   1      14.979  48.570   6.877  1.00  0.00    +0.000 C 
BRANCH    6    5
ATOM     97  C70 UNL A   1      16.487  48.934   4.065  1.00  0.00    +0.000 C 
ATOM      2  C2  UNL A   1      17.274  50.689   2.555  1.00  0.00    +0.000 C 
ATOM      3  C3  UNL A   1      17.391  51.541   3.649  1.00  0.00    +0.000 C 
ATOM      4  C4  UNL A   1      17.036  51.096   4.926  1.00  0.00    +0.000 C 
ATOM     98  C71 UNL A   1      16.839  49.377   2.775  1.00  0.00    +0.000 C 
ATOM    102  H4  UNL A   1      17.743  52.502   3.518  1.00  0.00    +0.000 H 
ATOM      5  C5  UNL A   1      16.550  49.799   5.162  1.00  0.00    +0.000 C 
ATOM    103  H5  UNL A   1      17.133  51.745   5.724  1.00  0.00    +0.000 H 
ATOM    144  H46 UNL A   1      16.179  47.959   4.203  1.00  0.00    +0.000 H 
ATOM    145  H47 UNL A   1      16.776  48.723   1.979  1.00  0.00    +0.000 H 
BRANCH    2    1
ATOM      1  C1  UNL A   1      17.618  51.202   1.187  1.00  0.00    +0.000 C 
ATOM     99  H1  UNL A   1      17.155  50.583   0.446  1.00  0.00    +0.000 H 
ATOM    100  H2  UNL A   1      18.680  51.184   1.056  1.00  0.00    +0.000 H 
ATOM    101  H3  UNL A   1      17.264  52.207   1.084  1.00  0.00    +0.000 H 
ENDBRANCH    2    1
ENDBRANCH    6    5
BRANCH    8    9
ATOM    104  H6  UNL A   1      14.137  49.379  10.507  1.00  0.00    +0.000 H 
ATOM      9  C7  UNL A   1      16.099  49.958   9.947  1.00  0.00    +0.000 C 
ATOM     10  C8  UNL A   1      14.979  49.899  10.799  1.00  0.00    +0.000 C 
ATOM     11  C9  UNL A   1      15.006  50.542  12.035  1.00  0.00    +0.000 C 
ATOM    108  H10 UNL A   1      18.086  50.644   9.739  1.00  0.00    +0.000 H 
ATOM     13  C11 UNL A   1      17.312  51.157  11.644  1.00  0.00    +0.000 C 
ATOM     14  C12 UNL A   1      17.267  50.592  10.364  1.00  0.00    +0.000 C 
ATOM    105  H7  UNL A   1      14.162  50.562  12.630  1.00  0.00    +0.000 H 
ATOM    107  H9  UNL A   1      18.190  51.576  11.985  1.00  0.00    +0.000 H 
ATOM     12  C10 UNL A   1      16.178  51.157  12.463  1.00  0.00    +0.000 C 
ATOM    106  H8  UNL A   1      16.212  51.615  13.388  1.00  0.00    +0.000 H 
ENDBRANCH    8    9
ENDBRANCH   17   16
ENDBRANCH   20   19
ENDBRANCH   22   20
ENDBRANCH   23   22
ENDBRANCH   24   23
ENDBRANCH   25   24
ENDBRANCH   26   25
ENDBRANCH   27   26
ENDBRANCH   28   27
ENDBRANCH   29   28
ENDBRANCH   30   29
ENDBRANCH   32   30
ENDBRANCH   36   35
BRANCH   40   41
ATOM     41  C33 UNL A   1      11.810  48.907   1.916  1.00  0.00    +0.000 C 
ATOM     42  C34 UNL A   1      10.456  49.309   1.842  1.00  0.00    +0.000 C 
ATOM     43  F1  UNL A   1      10.086  50.399   1.154  1.00  0.00    +0.000 F 
ATOM     44  C35 UNL A   1       9.423  48.623   2.492  1.00  0.00    +0.000 C 
ATOM     45  F2  UNL A   1       8.170  49.095   2.430  1.00  0.00    +0.000 F 
ATOM     46  C36 UNL A   1       9.685  47.479   3.215  1.00  0.00    +0.000 C 
ATOM     47  F3  UNL A   1       8.702  46.828   3.850  1.00  0.00    +0.000 F 
ATOM     48  C37 UNL A   1      10.979  47.021   3.282  1.00  0.00    +0.000 C 
ATOM     49  F4  UNL A   1      11.262  45.907   3.973  1.00  0.00    +0.000 F 
ATOM     50  C38 UNL A   1      12.015  47.725   2.660  1.00  0.00    +0.000 C 
ATOM     51  F5  UNL A   1      13.222  47.199   2.867  1.00  0.00    +0.000 F 
ENDBRANCH   40   41
BRANCH   57   58
ATOM     65  C48 UNL A   1      17.558  46.299  -3.550  1.00  0.00    +0.000 C 
ATOM     66  F9  UNL A   1      17.381  45.566  -4.659  1.00  0.00    +0.000 F 
ATOM     67  C49 UNL A   1      16.811  47.460  -3.362  1.00  0.00    +0.000 C 
ATOM     68  F10 UNL A   1      15.888  47.751  -4.292  1.00  0.00    +0.000 F 
ATOM     58  C44 UNL A   1      16.995  48.287  -2.238  1.00  0.00    +0.000 C 
ATOM     59  C45 UNL A   1      17.938  47.861  -1.289  1.00  0.00    +0.000 C 
ATOM     60  F6  UNL A   1      18.184  48.598  -0.196  1.00  0.00    +0.000 F 
ATOM     61  C46 UNL A   1      18.653  46.675  -1.458  1.00  0.00    +0.000 C 
ATOM     62  F7  UNL A   1      19.524  46.283  -0.518  1.00  0.00    +0.000 F 
ATOM     63  C47 UNL A   1      18.476  45.904  -2.596  1.00  0.00    +0.000 C 
ATOM     64  F8  UNL A   1      19.187  44.782  -2.770  1.00  0.00    +0.000 F 
ENDBRANCH   57   58
BRANCH   72   73
ATOM     73  C53 UNL A   1      17.907  55.405  -1.798  1.00  0.00    +0.000 C 
ATOM     74  C54 UNL A   1      18.037  56.612  -2.513  1.00  0.00    +0.000 C 
ATOM     75  F11 UNL A   1      17.553  56.707  -3.762  1.00  0.00    +0.000 F 
ATOM     76  C55 UNL A   1      18.556  57.754  -1.911  1.00  0.00    +0.000 C 
ATOM     77  F12 UNL A   1      18.568  58.916  -2.580  1.00  0.00    +0.000 F 
ATOM     78  C56 UNL A   1      18.990  57.704  -0.597  1.00  0.00    +0.000 C 
ATOM     79  F13 UNL A   1      19.406  58.820   0.016  1.00  0.00    +0.000 F 
ATOM     80  C57 UNL A   1      18.957  56.501   0.095  1.00  0.00    +0.000 C 
ATOM     81  F14 UNL A   1      19.355  56.458   1.374  1.00  0.00    +0.000 F 
ATOM     82  C58 UNL A   1      18.425  55.357  -0.501  1.00  0.00    +0.000 C 
ATOM     83  F15 UNL A   1      18.313  54.240   0.232  1.00  0.00    +0.000 F 
ENDBRANCH   72   73
TORSDOF 19
ENDMDL
MODEL 3
REMARK VINA RESULT:      -8.9     37.215     45.487
ROOT
ATOM    130  H32 UNL A   1       7.243  28.091   4.609  1.00  0.00    +0.000 H 
ATOM    131  H33 UNL A   1       7.099  30.654   3.998  1.00  0.00    +0.000 H 
ATOM    132  H34 UNL A   1       6.205  28.452   0.629  1.00  0.00    +0.000 H 
ATOM    133  H35 UNL A   1      10.455  30.812   3.261  1.00  0.00    +0.000 H 
ATOM    134  H36 UNL A   1      10.069  28.305   2.960  1.00  0.00    +0.000 H 
ATOM    135  H37 UNL A   1      13.165  29.485   0.460  1.00  0.00    +0.000 H 
ATOM    136  H38 UNL A   1       9.611  33.676  -1.062  1.00  0.00    +0.000 H 
ATOM    137  H39 UNL A   1       7.082  33.280  -0.778  1.00  0.00    +0.000 H 
ATOM    138  H40 UNL A   1       7.834  24.247   0.194  1.00  0.00    +0.000 H 
ATOM    139  H41 UNL A   1      10.264  24.710  -0.512  1.00  0.00    +0.000 H 
ATOM     36  C29 UNL A   1      11.131  27.372   0.407  1.00  0.00    +0.000 C 
ATOM     37  C30 UNL A   1       9.857  26.649   0.575  1.00  0.00    +0.000 C 
ATOM     38  N6  UNL A   1       8.807  27.160   1.126  1.00  0.00    +0.000 N 
ATOM     39  C31 UNL A   1       7.872  26.163   1.257  1.00  0.00    +0.000 C 
ATOM     40  C32 UNL A   1       6.849  26.341   2.140  1.00  0.00    +0.000 C 
ATOM     52  C39 UNL A   1       6.738  27.750   2.538  1.00  0.00    +0.000 C 
ATOM     53  C40 UNL A   1       7.017  28.481   3.681  1.00  0.00    +0.000 C 
ATOM     54  C41 UNL A   1       6.935  29.868   3.350  1.00  0.00    +0.000 C 
ATOM     55  C42 UNL A   1       6.598  29.975   2.013  1.00  0.00    +0.000 C 
ATOM     56  N7  UNL A   1       6.464  28.683   1.551  1.00  0.00    +0.000 N 
ATOM     57  C43 UNL A   1       6.447  31.076   1.079  1.00  0.00    +0.000 C 
ATOM     69  C50 UNL A   1       7.586  31.700   0.669  1.00  0.00    +0.000 C 
ATOM     70  N8  UNL A   1       8.827  31.318   1.098  1.00  0.00    +0.000 N 
ATOM     71  C51 UNL A   1       9.731  31.987   0.438  1.00  0.00    +0.000 C 
ATOM     72  C52 UNL A   1      11.212  31.694   0.496  1.00  0.00    +0.000 C 
ATOM     84  C59 UNL A   1      11.570  30.688   1.342  1.00  0.00    +0.000 C 
ATOM     85  C60 UNL A   1      10.804  30.229   2.484  1.00  0.00    +0.000 C 
ATOM     86  C61 UNL A   1      10.636  28.908   2.342  1.00  0.00    +0.000 C 
ATOM     87  C62 UNL A   1      11.384  28.463   1.169  1.00  0.00    +0.000 C 
ATOM     88  N9  UNL A   1      12.275  29.530   0.880  1.00  0.00    +0.000 N 
ATOM     89  C63 UNL A   1       9.141  32.985  -0.458  1.00  0.00    +0.000 C 
ATOM     90  C64 UNL A   1       7.827  32.761  -0.289  1.00  0.00    +0.000 C 
ATOM     91  C65 UNL A   1       8.377  25.090   0.438  1.00  0.00    +0.000 C 
ATOM     92  C66 UNL A   1       9.631  25.315   0.034  1.00  0.00    +0.000 C 
ENDROOT
BRANCH   36   35
ATOM     33  C26 UNL A   1      13.709  25.185  -1.158  1.00  0.00    +0.000 C 
ATOM     34  C27 UNL A   1      13.109  25.947  -0.162  1.00  0.00    +0.000 C 
ATOM    129  H31 UNL A   1      13.375  25.822   0.827  1.00  0.00    +0.000 H 
ATOM     35  C28 UNL A   1      12.141  26.883  -0.527  1.00  0.00    +0.000 C 
ATOM    140  H42 UNL A   1      11.383  28.067  -2.112  1.00  0.00    +0.000 H 
ATOM    141  H43 UNL A   1      12.619  26.877  -3.844  1.00  0.00    +0.000 H 
ATOM    128  H30 UNL A   1      14.408  24.465  -0.923  1.00  0.00    +0.000 H 
ATOM     93  C67 UNL A   1      11.985  27.266  -1.869  1.00  0.00    +0.000 C 
ATOM     94  C68 UNL A   1      12.644  26.564  -2.861  1.00  0.00    +0.000 C 
ATOM     32  C25 UNL A   1      13.340  25.419  -2.486  1.00  0.00    +0.000 C 
BRANCH   32   30
ATOM     30  C24 UNL A   1      13.274  24.238  -3.379  1.00  0.00    +0.000 C 
ATOM     31  O2  UNL A   1      12.208  23.751  -3.677  1.00  0.00    +0.000 O 
BRANCH   30   29
ATOM     29  N5  UNL A   1      14.485  23.791  -3.910  1.00  0.00    +0.000 N 
ATOM    127  H29 UNL A   1      14.866  24.334  -4.637  1.00  0.00    +0.000 H 
BRANCH   29   28
ATOM     28  C23 UNL A   1      15.263  22.605  -3.514  1.00  0.00    +0.000 C 
ATOM    125  H27 UNL A   1      15.133  22.462  -2.462  1.00  0.00    +0.000 H 
ATOM    126  H28 UNL A   1      14.890  21.797  -4.107  1.00  0.00    +0.000 H 
BRANCH   28   27
ATOM     27  C22 UNL A   1      16.762  22.681  -3.799  1.00  0.00    +0.000 C 
ATOM    124  H26 UNL A   1      16.937  23.714  -4.016  1.00  0.00    +0.000 H 
ATOM    123  H25 UNL A   1      16.968  21.994  -4.594  1.00  0.00    +0.000 H 
BRANCH   27   26
ATOM    121  H23 UNL A   1      17.142  22.091  -1.811  1.00  0.00    +0.000 H 
ATOM     26  C21 UNL A   1      17.732  22.363  -2.661  1.00  0.00    +0.000 C 
ATOM    122  H24 UNL A   1      18.363  21.598  -3.061  1.00  0.00    +0.000 H 
BRANCH   26   25
ATOM     25  C20 UNL A   1      18.709  23.458  -2.203  1.00  0.00    +0.000 C 
ATOM    119  H21 UNL A   1      19.615  22.949  -1.945  1.00  0.00    +0.000 H 
ATOM    120  H22 UNL A   1      18.677  24.124  -3.040  1.00  0.00    +0.000 H 
BRANCH   25   24
ATOM    117  H19 UNL A   1      17.419  24.773  -1.170  1.00  0.00    +0.000 H 
ATOM    118  H20 UNL A   1      18.668  23.836  -0.184  1.00  0.00    +0.000 H 
ATOM     24  C19 UNL A   1      18.425  24.434  -1.036  1.00  0.00    +0.000 C 
BRANCH   24   23
ATOM    115  H17 UNL A   1      19.355  26.203  -1.725  1.00  0.00    +0.000 H 
ATOM    116  H18 UNL A   1      18.751  26.223  -0.024  1.00  0.00    +0.000 H 
ATOM     23  C18 UNL A   1      19.268  25.686  -0.792  1.00  0.00    +0.000 C 
BRANCH   23   22
ATOM    114  H16 UNL A   1      21.221  24.924  -0.801  1.00  0.00    +0.000 H 
ATOM     22  N4  UNL A   1      20.614  25.491  -0.273  1.00  0.00    +0.000 N 
BRANCH   22   20
ATOM     20  C17 UNL A   1      21.109  26.030   0.893  1.00  0.00    +0.000 C 
ATOM     21  O1  UNL A   1      20.680  25.517   1.938  1.00  0.00    +0.000 O 
BRANCH   20   19
ATOM    110  H12 UNL A   1      23.396  29.372  -1.145  1.00  0.00    +0.000 H 
ATOM    111  H13 UNL A   1      23.945  27.350  -0.167  1.00  0.00    +0.000 H 
ATOM    112  H14 UNL A   1      22.578  26.908  -1.024  1.00  0.00    +0.000 H 
ATOM     17  C15 UNL A   1      22.654  28.889  -0.545  1.00  0.00    +0.000 C 
ATOM     18  N3  UNL A   1      22.937  27.478  -0.258  1.00  0.00    +0.000 N 
ATOM     19  C16 UNL A   1      22.275  27.060   1.002  1.00  0.00    +0.000 C 
ATOM    142  H44 UNL A   1      22.269  28.164   2.858  1.00  0.00    +0.000 H 
ATOM    143  H45 UNL A   1      20.815  28.357   1.958  1.00  0.00    +0.000 H 
ATOM    113  H15 UNL A   1      23.044  26.500   1.493  1.00  0.00    +0.000 H 
ATOM     95  C69 UNL A   1      21.878  28.269   1.867  1.00  0.00    +0.000 C 
ATOM     96  S1  UNL A   1      22.601  29.714   1.054  1.00  0.00    +0.000 S 
BRANCH   17   16
ATOM      6  C6  UNL A   1      21.102  28.415  -2.634  1.00  0.00    +0.000 C 
ATOM      7  N1  UNL A   1      19.842  28.731  -3.016  1.00  0.00    +0.000 N 
ATOM      8  N2  UNL A   1      19.274  29.277  -1.910  1.00  0.00    +0.000 N 
ATOM    109  H11 UNL A   1      20.032  30.082  -0.078  1.00  0.00    +0.000 H 
ATOM     15  C13 UNL A   1      20.196  29.546  -0.945  1.00  0.00    +0.000 C 
ATOM     16  C14 UNL A   1      21.389  28.974  -1.334  1.00  0.00    +0.000 C 
BRANCH    6    5
ATOM     97  C70 UNL A   1      22.862  28.112  -4.403  1.00  0.00    +0.000 C 
ATOM      2  C2  UNL A   1      23.715  25.901  -5.006  1.00  0.00    +0.000 C 
ATOM      3  C3  UNL A   1      22.803  25.336  -4.119  1.00  0.00    +0.000 C 
ATOM      4  C4  UNL A   1      21.953  26.156  -3.370  1.00  0.00    +0.000 C 
ATOM     98  C71 UNL A   1      23.724  27.293  -5.158  1.00  0.00    +0.000 C 
ATOM    102  H4  UNL A   1      22.753  24.311  -4.015  1.00  0.00    +0.000 H 
ATOM      5  C5  UNL A   1      21.980  27.558  -3.470  1.00  0.00    +0.000 C 
ATOM    103  H5  UNL A   1      21.283  25.716  -2.720  1.00  0.00    +0.000 H 
ATOM    144  H46 UNL A   1      22.882  29.135  -4.540  1.00  0.00    +0.000 H 
ATOM    145  H47 UNL A   1      24.373  27.725  -5.834  1.00  0.00    +0.000 H 
BRANCH    2    1
ATOM      1  C1  UNL A   1      24.648  25.005  -5.766  1.00  0.00    +0.000 C 
ATOM     99  H1  UNL A   1      25.579  24.932  -5.244  1.00  0.00    +0.000 H 
ATOM    100  H2  UNL A   1      24.816  25.410  -6.742  1.00  0.00    +0.000 H 
ATOM    101  H3  UNL A   1      24.213  24.031  -5.855  1.00  0.00    +0.000 H 
ENDBRANCH    2    1
ENDBRANCH    6    5
BRANCH    8    9
ATOM    104  H6  UNL A   1      17.472  27.672  -2.959  1.00  0.00    +0.000 H 
ATOM      9  C7  UNL A   1      17.876  29.329  -1.699  1.00  0.00    +0.000 C 
ATOM     10  C8  UNL A   1      17.049  28.410  -2.374  1.00  0.00    +0.000 C 
ATOM     11  C9  UNL A   1      15.664  28.494  -2.253  1.00  0.00    +0.000 C 
ATOM    108  H10 UNL A   1      17.921  30.961  -0.357  1.00  0.00    +0.000 H 
ATOM     13  C11 UNL A   1      15.932  30.297  -0.664  1.00  0.00    +0.000 C 
ATOM     14  C12 UNL A   1      17.319  30.280  -0.847  1.00  0.00    +0.000 C 
ATOM    105  H7  UNL A   1      15.054  27.868  -2.804  1.00  0.00    +0.000 H 
ATOM    107  H9  UNL A   1      15.514  30.957   0.010  1.00  0.00    +0.000 H 
ATOM     12  C10 UNL A   1      15.106  29.428  -1.385  1.00  0.00    +0.000 C 
ATOM    106  H8  UNL A   1      14.082  29.480  -1.273  1.00  0.00    +0.000 H 
ENDBRANCH    8    9
ENDBRANCH   17   16
ENDBRANCH   20   19
ENDBRANCH   22   20
ENDBRANCH   23   22
ENDBRANCH   24   23
ENDBRANCH   25   24
ENDBRANCH   26   25
ENDBRANCH   27   26
ENDBRANCH   28   27
ENDBRANCH   29   28
ENDBRANCH   30   29
ENDBRANCH   32   30
ENDBRANCH   36   35
BRANCH   40   41
ATOM     41  C33 UNL A   1       6.025  25.235   2.782  1.00  0.00    +0.000 C 
ATOM     42  C34 UNL A   1       4.685  25.030   2.380  1.00  0.00    +0.000 C 
ATOM     43  F1  UNL A   1       4.151  25.704   1.352  1.00  0.00    +0.000 F 
ATOM     44  C35 UNL A   1       3.824  24.139   3.034  1.00  0.00    +0.000 C 
ATOM     45  F2  UNL A   1       2.547  24.039   2.638  1.00  0.00    +0.000 F 
ATOM     46  C36 UNL A   1       4.270  23.381   4.094  1.00  0.00    +0.000 C 
ATOM     47  F3  UNL A   1       3.447  22.538   4.730  1.00  0.00    +0.000 F 
ATOM     48  C37 UNL A   1       5.578  23.511   4.496  1.00  0.00    +0.000 C 
ATOM     49  F4  UNL A   1       6.041  22.780   5.521  1.00  0.00    +0.000 F 
ATOM     50  C38 UNL A   1       6.428  24.425   3.865  1.00  0.00    +0.000 C 
ATOM     51  F5  UNL A   1       7.644  24.489   4.405  1.00  0.00    +0.000 F 
ENDBRANCH   40   41
BRANCH   57   58
ATOM     65  C48 UNL A   1       3.243  33.077   0.561  1.00  0.00    +0.000 C 
ATOM     66  F9  UNL A   1       2.679  34.190   1.053  1.00  0.00    +0.000 F 
ATOM     67  C49 UNL A   1       4.433  32.604   1.109  1.00  0.00    +0.000 C 
ATOM     68  F10 UNL A   1       4.925  33.267   2.167  1.00  0.00    +0.000 F 
ATOM     58  C44 UNL A   1       5.088  31.469   0.595  1.00  0.00    +0.000 C 
ATOM     59  C45 UNL A   1       4.458  30.807  -0.470  1.00  0.00    +0.000 C 
ATOM     60  F6  UNL A   1       5.022  29.724  -1.028  1.00  0.00    +0.000 F 
ATOM     61  C46 UNL A   1       3.243  31.257  -0.989  1.00  0.00    +0.000 C 
ATOM     62  F7  UNL A   1       2.655  30.583  -1.987  1.00  0.00    +0.000 F 
ATOM     63  C47 UNL A   1       2.646  32.401  -0.486  1.00  0.00    +0.000 C 
ATOM     64  F8  UNL A   1       1.495  32.848  -1.007  1.00  0.00    +0.000 F 
ENDBRANCH   57   58
BRANCH   72   73
ATOM     73  C53 UNL A   1      12.162  31.862  -0.630  1.00  0.00    +0.000 C 
ATOM     74  C54 UNL A   1      11.922  31.144  -1.818  1.00  0.00    +0.000 C 
ATOM     75  F11 UNL A   1      11.095  30.086  -1.806  1.00  0.00    +0.000 F 
ATOM     76  C55 UNL A   1      12.434  31.576  -3.037  1.00  0.00    +0.000 C 
ATOM     77  F12 UNL A   1      12.101  30.936  -4.167  1.00  0.00    +0.000 F 
ATOM     78  C56 UNL A   1      13.226  32.711  -3.088  1.00  0.00    +0.000 C 
ATOM     79  F13 UNL A   1      13.647  33.183  -4.269  1.00  0.00    +0.000 F 
ATOM     80  C57 UNL A   1      13.551  33.379  -1.916  1.00  0.00    +0.000 C 
ATOM     81  F14 UNL A   1      14.297  34.491  -1.969  1.00  0.00    +0.000 F 
ATOM     82  C58 UNL A   1      13.028  32.956  -0.693  1.00  0.00    +0.000 C 
ATOM     83  F15 UNL A   1      13.278  33.688   0.403  1.00  0.00    +0.000 F 
ENDBRANCH   72   73
TORSDOF 19
ENDMDL
MODEL 4
REMARK VINA RESULT:      -8.7      1.206      3.378
ROOT
ATOM    130  H32 UNL A   1      52.742  14.429   6.566  1.00  0.00    +0.000 H 
ATOM    131  H33 UNL A   1      50.782  15.421   8.027  1.00  0.00    +0.000 H 
ATOM    132  H34 UNL A   1      51.869  18.231   5.213  1.00  0.00    +0.000 H 
ATOM    133  H35 UNL A   1      52.968  16.633  10.389  1.00  0.00    +0.000 H 
ATOM    134  H36 UNL A   1      54.549  16.468   8.391  1.00  0.00    +0.000 H 
ATOM    135  H37 UNL A   1      55.853  19.531  10.867  1.00  0.00    +0.000 H 
ATOM    136  H38 UNL A   1      50.403  21.203  10.760  1.00  0.00    +0.000 H 
ATOM    137  H39 UNL A   1      48.965  20.511   8.739  1.00  0.00    +0.000 H 
ATOM    138  H40 UNL A   1      56.068  18.201   3.512  1.00  0.00    +0.000 H 
ATOM    139  H41 UNL A   1      57.400  19.304   5.417  1.00  0.00    +0.000 H 
ATOM     36  C29 UNL A   1      56.018  18.958   7.995  1.00  0.00    +0.000 C 
ATOM     37  C30 UNL A   1      55.676  18.499   6.636  1.00  0.00    +0.000 C 
ATOM     38  N6  UNL A   1      54.574  17.898   6.336  1.00  0.00    +0.000 N 
ATOM     39  C31 UNL A   1      54.664  17.478   5.032  1.00  0.00    +0.000 C 
ATOM     40  C32 UNL A   1      53.816  16.502   4.601  1.00  0.00    +0.000 C 
ATOM     52  C39 UNL A   1      52.699  16.326   5.537  1.00  0.00    +0.000 C 
ATOM     53  C40 UNL A   1      52.325  15.367   6.464  1.00  0.00    +0.000 C 
ATOM     54  C41 UNL A   1      51.262  15.904   7.252  1.00  0.00    +0.000 C 
ATOM     55  C42 UNL A   1      50.987  17.180   6.796  1.00  0.00    +0.000 C 
ATOM     56  N7  UNL A   1      51.854  17.404   5.747  1.00  0.00    +0.000 N 
ATOM     57  C43 UNL A   1      50.101  18.251   7.218  1.00  0.00    +0.000 C 
ATOM     69  C50 UNL A   1      50.430  18.911   8.363  1.00  0.00    +0.000 C 
ATOM     70  N8  UNL A   1      51.543  18.602   9.094  1.00  0.00    +0.000 N 
ATOM     71  C51 UNL A   1      51.685  19.481  10.047  1.00  0.00    +0.000 C 
ATOM     72  C52 UNL A   1      52.905  19.583  10.931  1.00  0.00    +0.000 C 
ATOM     84  C59 UNL A   1      53.865  18.643  10.703  1.00  0.00    +0.000 C 
ATOM     85  C60 UNL A   1      53.652  17.347  10.091  1.00  0.00    +0.000 C 
ATOM     86  C61 UNL A   1      54.508  17.248   9.066  1.00  0.00    +0.000 C 
ATOM     87  C62 UNL A   1      55.372  18.425   9.061  1.00  0.00    +0.000 C 
ATOM     88  N9  UNL A   1      55.204  19.005  10.346  1.00  0.00    +0.000 N 
ATOM     89  C63 UNL A   1      50.575  20.436  10.092  1.00  0.00    +0.000 C 
ATOM     90  C64 UNL A   1      49.840  20.052   9.035  1.00  0.00    +0.000 C 
ATOM     91  C65 UNL A   1      55.815  18.174   4.512  1.00  0.00    +0.000 C 
ATOM     92  C66 UNL A   1      56.512  18.781   5.477  1.00  0.00    +0.000 C 
ENDROOT
BRANCH   36   35
ATOM     33  C26 UNL A   1      59.391  20.389   8.666  1.00  0.00    +0.000 C 
ATOM     34  C27 UNL A   1      58.252  19.628   8.904  1.00  0.00    +0.000 C 
ATOM    129  H31 UNL A   1      58.270  18.855   9.587  1.00  0.00    +0.000 H 
ATOM     35  C28 UNL A   1      57.087  19.932   8.201  1.00  0.00    +0.000 C 
ATOM    140  H42 UNL A   1      56.054  21.433   7.119  1.00  0.00    +0.000 H 
ATOM    141  H43 UNL A   1      58.001  22.882   6.901  1.00  0.00    +0.000 H 
ATOM    128  H30 UNL A   1      60.279  20.176   9.147  1.00  0.00    +0.000 H 
ATOM     93  C67 UNL A   1      56.967  21.144   7.502  1.00  0.00    +0.000 C 
ATOM     94  C68 UNL A   1      58.078  21.947   7.331  1.00  0.00    +0.000 C 
ATOM     32  C25 UNL A   1      59.305  21.448   7.759  1.00  0.00    +0.000 C 
BRANCH   32   30
ATOM     30  C24 UNL A   1      60.495  21.702   6.912  1.00  0.00    +0.000 C 
ATOM     31  O2  UNL A   1      60.373  21.925   5.731  1.00  0.00    +0.000 O 
BRANCH   30   29
ATOM     29  N5  UNL A   1      61.726  21.751   7.569  1.00  0.00    +0.000 N 
ATOM    127  H29 UNL A   1      61.943  22.599   8.020  1.00  0.00    +0.000 H 
BRANCH   29   28
ATOM     28  C23 UNL A   1      62.740  20.688   7.670  1.00  0.00    +0.000 C 
ATOM    125  H27 UNL A   1      62.403  19.855   7.089  1.00  0.00    +0.000 H 
ATOM    126  H28 UNL A   1      63.654  21.118   7.316  1.00  0.00    +0.000 H 
BRANCH   28   27
ATOM     27  C22 UNL A   1      63.028  20.191   9.085  1.00  0.00    +0.000 C 
ATOM    124  H26 UNL A   1      62.421  20.810   9.711  1.00  0.00    +0.000 H 
ATOM    123  H25 UNL A   1      64.085  20.266   9.238  1.00  0.00    +0.000 H 
BRANCH   27   26
ATOM    121  H23 UNL A   1      61.852  18.472   8.760  1.00  0.00    +0.000 H 
ATOM     26  C21 UNL A   1      62.616  18.764   9.449  1.00  0.00    +0.000 C 
ATOM    122  H24 UNL A   1      63.529  18.209   9.404  1.00  0.00    +0.000 H 
BRANCH   26   25
ATOM     25  C20 UNL A   1      62.080  18.495  10.864  1.00  0.00    +0.000 C 
ATOM    119  H21 UNL A   1      62.725  19.032  11.527  1.00  0.00    +0.000 H 
ATOM    120  H22 UNL A   1      61.054  18.778  10.752  1.00  0.00    +0.000 H 
BRANCH   25   24
ATOM    117  H19 UNL A   1      60.968  17.057  11.941  1.00  0.00    +0.000 H 
ATOM    118  H20 UNL A   1      62.121  16.453  10.629  1.00  0.00    +0.000 H 
ATOM     24  C19 UNL A   1      61.932  17.080  11.474  1.00  0.00    +0.000 C 
BRANCH   24   23
ATOM    115  H17 UNL A   1      63.883  16.920  12.272  1.00  0.00    +0.000 H 
ATOM    116  H18 UNL A   1      62.522  16.824  13.454  1.00  0.00    +0.000 H 
ATOM     23  C18 UNL A   1      62.916  16.525  12.505  1.00  0.00    +0.000 C 
BRANCH   23   22
ATOM    114  H16 UNL A   1      63.923  14.690  12.378  1.00  0.00    +0.000 H 
ATOM     22  N4  UNL A   1      63.043  15.078  12.590  1.00  0.00    +0.000 N 
BRANCH   22   20
ATOM     20  C17 UNL A   1      62.037  14.204  12.940  1.00  0.00    +0.000 C 
ATOM     21  O1  UNL A   1      61.590  14.345  14.088  1.00  0.00    +0.000 O 
BRANCH   20   19
ATOM    110  H12 UNL A   1      58.108  13.060  10.988  1.00  0.00    +0.000 H 
ATOM    111  H13 UNL A   1      59.691  11.976  12.281  1.00  0.00    +0.000 H 
ATOM    112  H14 UNL A   1      59.591  13.437  13.091  1.00  0.00    +0.000 H 
ATOM     17  C15 UNL A   1      59.056  13.538  11.125  1.00  0.00    +0.000 C 
ATOM     18  N3  UNL A   1      59.859  12.980  12.219  1.00  0.00    +0.000 N 
ATOM     19  C16 UNL A   1      61.304  13.220  11.978  1.00  0.00    +0.000 C 
ATOM    142  H44 UNL A   1      62.348  12.907  10.114  1.00  0.00    +0.000 H 
ATOM    143  H45 UNL A   1      61.946  14.558  10.390  1.00  0.00    +0.000 H 
ATOM    113  H15 UNL A   1      61.739  12.274  12.226  1.00  0.00    +0.000 H 
ATOM     95  C69 UNL A   1      61.590  13.555  10.504  1.00  0.00    +0.000 C 
ATOM     96  S1  UNL A   1      60.028  13.296   9.629  1.00  0.00    +0.000 S 
BRANCH   17   16
ATOM      6  C6  UNL A   1      58.628  16.081  10.531  1.00  0.00    +0.000 C 
ATOM      7  N1  UNL A   1      58.345  17.216  11.213  1.00  0.00    +0.000 N 
ATOM      8  N2  UNL A   1      58.066  16.799  12.475  1.00  0.00    +0.000 N 
ATOM    109  H11 UNL A   1      58.423  14.997  13.571  1.00  0.00    +0.000 H 
ATOM     15  C13 UNL A   1      58.410  15.496  12.668  1.00  0.00    +0.000 C 
ATOM     16  C14 UNL A   1      58.740  14.963  11.440  1.00  0.00    +0.000 C 
BRANCH    6    5
ATOM     97  C70 UNL A   1      57.702  15.562   8.252  1.00  0.00    +0.000 C 
ATOM      2  C2  UNL A   1      58.926  16.116   6.208  1.00  0.00    +0.000 C 
ATOM      3  C3  UNL A   1      59.981  16.567   6.995  1.00  0.00    +0.000 C 
ATOM      4  C4  UNL A   1      59.881  16.537   8.390  1.00  0.00    +0.000 C 
ATOM     98  C71 UNL A   1      57.794  15.594   6.847  1.00  0.00    +0.000 C 
ATOM    102  H4  UNL A   1      60.840  16.924   6.548  1.00  0.00    +0.000 H 
ATOM      5  C5  UNL A   1      58.734  16.064   9.051  1.00  0.00    +0.000 C 
ATOM    103  H5  UNL A   1      60.677  16.875   8.953  1.00  0.00    +0.000 H 
ATOM    144  H46 UNL A   1      56.861  15.164   8.699  1.00  0.00    +0.000 H 
ATOM    145  H47 UNL A   1      57.015  15.227   6.279  1.00  0.00    +0.000 H 
BRANCH    2    1
ATOM      1  C1  UNL A   1      59.037  16.199   4.715  1.00  0.00    +0.000 C 
ATOM     99  H1  UNL A   1      58.529  17.075   4.367  1.00  0.00    +0.000 H 
ATOM    100  H2  UNL A   1      58.594  15.331   4.274  1.00  0.00    +0.000 H 
ATOM    101  H3  UNL A   1      60.069  16.252   4.437  1.00  0.00    +0.000 H 
ENDBRANCH    2    1
ENDBRANCH    6    5
BRANCH    8    9
ATOM    104  H6  UNL A   1      56.823  15.879  14.605  1.00  0.00    +0.000 H 
ATOM      9  C7  UNL A   1      57.292  17.553  13.389  1.00  0.00    +0.000 C 
ATOM     10  C8  UNL A   1      56.663  16.888  14.460  1.00  0.00    +0.000 C 
ATOM     11  C9  UNL A   1      55.825  17.591  15.324  1.00  0.00    +0.000 C 
ATOM    108  H10 UNL A   1      57.597  19.417  12.444  1.00  0.00    +0.000 H 
ATOM     13  C11 UNL A   1      56.372  19.638  14.159  1.00  0.00    +0.000 C 
ATOM     14  C12 UNL A   1      57.144  18.928  13.232  1.00  0.00    +0.000 C 
ATOM    105  H7  UNL A   1      55.306  17.093  16.065  1.00  0.00    +0.000 H 
ATOM    107  H9  UNL A   1      56.305  20.664  14.087  1.00  0.00    +0.000 H 
ATOM     12  C10 UNL A   1      55.693  18.969  15.182  1.00  0.00    +0.000 C 
ATOM    106  H8  UNL A   1      55.093  19.499  15.834  1.00  0.00    +0.000 H 
ENDBRANCH    8    9
ENDBRANCH   17   16
ENDBRANCH   20   19
ENDBRANCH   22   20
ENDBRANCH   23   22
ENDBRANCH   24   23
ENDBRANCH   25   24
ENDBRANCH   26   25
ENDBRANCH   27   26
ENDBRANCH   28   27
ENDBRANCH   29   28
ENDBRANCH   30   29
ENDBRANCH   32   30
ENDBRANCH   36   35
BRANCH   40   41
ATOM     41  C33 UNL A   1      54.049  15.581   3.413  1.00  0.00    +0.000 C 
ATOM     42  C34 UNL A   1      52.974  15.247   2.557  1.00  0.00    +0.000 C 
ATOM     43  F1  UNL A   1      51.770  15.823   2.688  1.00  0.00    +0.000 F 
ATOM     44  C35 UNL A   1      53.080  14.287   1.543  1.00  0.00    +0.000 C 
ATOM     45  F2  UNL A   1      52.003  13.975   0.808  1.00  0.00    +0.000 F 
ATOM     46  C36 UNL A   1      54.275  13.644   1.307  1.00  0.00    +0.000 C 
ATOM     47  F3  UNL A   1      54.378  12.715   0.347  1.00  0.00    +0.000 F 
ATOM     48  C37 UNL A   1      55.364  13.964   2.083  1.00  0.00    +0.000 C 
ATOM     49  F4  UNL A   1      56.541  13.358   1.871  1.00  0.00    +0.000 F 
ATOM     50  C38 UNL A   1      55.248  14.898   3.117  1.00  0.00    +0.000 C 
ATOM     51  F5  UNL A   1      56.366  15.056   3.825  1.00  0.00    +0.000 F 
ENDBRANCH   40   41
BRANCH   57   58
ATOM     65  C48 UNL A   1      46.634  18.064   5.642  1.00  0.00    +0.000 C 
ATOM     66  F9  UNL A   1      45.619  17.190   5.580  1.00  0.00    +0.000 F 
ATOM     67  C49 UNL A   1      47.825  17.699   6.266  1.00  0.00    +0.000 C 
ATOM     68  F10 UNL A   1      47.915  16.441   6.723  1.00  0.00    +0.000 F 
ATOM     58  C44 UNL A   1      48.900  18.598   6.397  1.00  0.00    +0.000 C 
ATOM     59  C45 UNL A   1      48.732  19.869   5.828  1.00  0.00    +0.000 C 
ATOM     60  F6  UNL A   1      49.703  20.791   5.920  1.00  0.00    +0.000 F 
ATOM     61  C46 UNL A   1      47.555  20.218   5.164  1.00  0.00    +0.000 C 
ATOM     62  F7  UNL A   1      47.439  21.431   4.606  1.00  0.00    +0.000 F 
ATOM     63  C47 UNL A   1      46.500  19.323   5.088  1.00  0.00    +0.000 C 
ATOM     64  F8  UNL A   1      45.359  19.672   4.477  1.00  0.00    +0.000 F 
ENDBRANCH   57   58
BRANCH   72   73
ATOM     73  C53 UNL A   1      53.457  20.842  11.486  1.00  0.00    +0.000 C 
ATOM     74  C54 UNL A   1      53.723  21.902  10.599  1.00  0.00    +0.000 C 
ATOM     75  F11 UNL A   1      53.824  21.665   9.281  1.00  0.00    +0.000 F 
ATOM     76  C55 UNL A   1      53.770  23.220  11.044  1.00  0.00    +0.000 C 
ATOM     77  F12 UNL A   1      53.917  24.219  10.161  1.00  0.00    +0.000 F 
ATOM     78  C56 UNL A   1      53.590  23.501  12.387  1.00  0.00    +0.000 C 
ATOM     79  F13 UNL A   1      53.544  24.772  12.808  1.00  0.00    +0.000 F 
ATOM     80  C57 UNL A   1      53.419  22.462  13.292  1.00  0.00    +0.000 C 
ATOM     81  F14 UNL A   1      53.221  22.735  14.589  1.00  0.00    +0.000 F 
ATOM     82  C58 UNL A   1      53.359  21.141  12.848  1.00  0.00    +0.000 C 
ATOM     83  F15 UNL A   1      53.088  20.173  13.736  1.00  0.00    +0.000 F 
ENDBRANCH   72   73
TORSDOF 19
ENDMDL
MODEL 5
REMARK VINA RESULT:      -8.7     28.303     35.696
ROOT
ATOM    130  H32 UNL A   1      28.815  25.989  -7.632  1.00  0.00    +0.000 H 
ATOM    131  H33 UNL A   1      26.636  27.435  -7.988  1.00  0.00    +0.000 H 
ATOM    132  H34 UNL A   1      25.565  23.862  -6.232  1.00  0.00    +0.000 H 
ATOM    133  H35 UNL A   1      26.194  26.240 -11.182  1.00  0.00    +0.000 H 
ATOM    134  H36 UNL A   1      27.627  24.359 -10.217  1.00  0.00    +0.000 H 
ATOM    135  H37 UNL A   1      25.181  22.783 -13.176  1.00  0.00    +0.000 H 
ATOM    136  H38 UNL A   1      21.025  25.611 -10.486  1.00  0.00    +0.000 H 
ATOM    137  H39 UNL A   1      21.342  26.135  -7.984  1.00  0.00    +0.000 H 
ATOM    138  H40 UNL A   1      28.162  20.198  -6.824  1.00  0.00    +0.000 H 
ATOM    139  H41 UNL A   1      27.481  19.465  -9.194  1.00  0.00    +0.000 H 
ATOM     36  C29 UNL A   1      26.431  21.747 -10.733  1.00  0.00    +0.000 C 
ATOM     37  C30 UNL A   1      26.960  21.658  -9.359  1.00  0.00    +0.000 C 
ATOM     38  N6  UNL A   1      26.960  22.641  -8.523  1.00  0.00    +0.000 N 
ATOM     39  C31 UNL A   1      27.667  22.250  -7.413  1.00  0.00    +0.000 C 
ATOM     40  C32 UNL A   1      28.137  23.211  -6.567  1.00  0.00    +0.000 C 
ATOM     52  C39 UNL A   1      27.480  24.499  -6.819  1.00  0.00    +0.000 C 
ATOM     53  C40 UNL A   1      27.852  25.706  -7.388  1.00  0.00    +0.000 C 
ATOM     54  C41 UNL A   1      26.673  26.489  -7.578  1.00  0.00    +0.000 C 
ATOM     55  C42 UNL A   1      25.592  25.762  -7.115  1.00  0.00    +0.000 C 
ATOM     56  N7  UNL A   1      26.107  24.573  -6.643  1.00  0.00    +0.000 N 
ATOM     57  C43 UNL A   1      24.153  25.960  -7.102  1.00  0.00    +0.000 C 
ATOM     69  C50 UNL A   1      23.503  25.851  -8.294  1.00  0.00    +0.000 C 
ATOM     70  N8  UNL A   1      24.154  25.562  -9.461  1.00  0.00    +0.000 N 
ATOM     71  C51 UNL A   1      23.274  25.378 -10.405  1.00  0.00    +0.000 C 
ATOM     72  C52 UNL A   1      23.605  24.848 -11.780  1.00  0.00    +0.000 C 
ATOM     84  C59 UNL A   1      24.928  24.609 -12.005  1.00  0.00    +0.000 C 
ATOM     85  C60 UNL A   1      26.031  25.227 -11.298  1.00  0.00    +0.000 C 
ATOM     86  C61 UNL A   1      26.802  24.239 -10.825  1.00  0.00    +0.000 C 
ATOM     87  C62 UNL A   1      26.279  22.964 -11.311  1.00  0.00    +0.000 C 
ATOM     88  N9  UNL A   1      25.406  23.310 -12.375  1.00  0.00    +0.000 N 
ATOM     89  C63 UNL A   1      21.905  25.635  -9.949  1.00  0.00    +0.000 C 
ATOM     90  C64 UNL A   1      22.099  25.910  -8.648  1.00  0.00    +0.000 C 
ATOM     91  C65 UNL A   1      27.812  20.824  -7.565  1.00  0.00    +0.000 C 
ATOM     92  C66 UNL A   1      27.440  20.410  -8.780  1.00  0.00    +0.000 C 
ENDROOT
BRANCH   36   35
ATOM     33  C26 UNL A   1      24.519  19.132 -12.570  1.00  0.00    +0.000 C 
ATOM     34  C27 UNL A   1      24.862  19.956 -11.505  1.00  0.00    +0.000 C 
ATOM    129  H31 UNL A   1      24.193  20.134 -10.740  1.00  0.00    +0.000 H 
ATOM     35  C28 UNL A   1      26.131  20.536 -11.490  1.00  0.00    +0.000 C 
ATOM    140  H42 UNL A   1      28.112  20.395 -12.231  1.00  0.00    +0.000 H 
ATOM    141  H43 UNL A   1      27.553  18.767 -13.956  1.00  0.00    +0.000 H 
ATOM    128  H30 UNL A   1      23.580  18.708 -12.628  1.00  0.00    +0.000 H 
ATOM     93  C67 UNL A   1      27.139  20.075 -12.353  1.00  0.00    +0.000 C 
ATOM     94  C68 UNL A   1      26.820  19.190 -13.366  1.00  0.00    +0.000 C 
ATOM     32  C25 UNL A   1      25.475  18.892 -13.560  1.00  0.00    +0.000 C 
BRANCH   32   30
ATOM     30  C24 UNL A   1      24.980  18.776 -14.953  1.00  0.00    +0.000 C 
ATOM     31  O2  UNL A   1      24.719  17.695 -15.425  1.00  0.00    +0.000 O 
BRANCH   30   29
ATOM     29  N5  UNL A   1      24.758  19.974 -15.635  1.00  0.00    +0.000 N 
ATOM    127  H29 UNL A   1      23.928  20.453 -15.410  1.00  0.00    +0.000 H 
BRANCH   29   28
ATOM     28  C23 UNL A   1      25.614  20.607 -16.651  1.00  0.00    +0.000 C 
ATOM    125  H27 UNL A   1      26.101  19.830 -17.203  1.00  0.00    +0.000 H 
ATOM    126  H28 UNL A   1      24.965  21.215 -17.247  1.00  0.00    +0.000 H 
BRANCH   28   27
ATOM     27  C22 UNL A   1      26.690  21.545 -16.107  1.00  0.00    +0.000 C 
ATOM    124  H26 UNL A   1      26.709  21.345 -15.057  1.00  0.00    +0.000 H 
ATOM    123  H25 UNL A   1      26.415  22.540 -16.389  1.00  0.00    +0.000 H 
BRANCH   27   26
ATOM    121  H23 UNL A   1      28.119  20.564 -17.308  1.00  0.00    +0.000 H 
ATOM     26  C21 UNL A   1      28.135  21.329 -16.560  1.00  0.00    +0.000 C 
ATOM    122  H24 UNL A   1      28.456  22.297 -16.881  1.00  0.00    +0.000 H 
BRANCH   26   25
ATOM     25  C20 UNL A   1      29.178  20.915 -15.509  1.00  0.00    +0.000 C 
ATOM    119  H21 UNL A   1      28.899  21.420 -14.608  1.00  0.00    +0.000 H 
ATOM    120  H22 UNL A   1      29.123  19.848 -15.575  1.00  0.00    +0.000 H 
BRANCH   25   24
ATOM    117  H19 UNL A   1      31.080  21.312 -14.681  1.00  0.00    +0.000 H 
ATOM    118  H20 UNL A   1      31.001  20.270 -16.205  1.00  0.00    +0.000 H 
ATOM     24  C19 UNL A   1      30.700  21.144 -15.668  1.00  0.00    +0.000 C 
BRANCH   24   23
ATOM    115  H17 UNL A   1      32.180  21.899 -16.975  1.00  0.00    +0.000 H 
ATOM    116  H18 UNL A   1      30.497  22.493 -17.240  1.00  0.00    +0.000 H 
ATOM     23  C18 UNL A   1      31.273  22.262 -16.540  1.00  0.00    +0.000 C 
BRANCH   23   22
ATOM    114  H16 UNL A   1      31.003  23.791 -15.131  1.00  0.00    +0.000 H 
ATOM     22  N4  UNL A   1      31.576  23.526 -15.886  1.00  0.00    +0.000 N 
BRANCH   22   20
ATOM     20  C17 UNL A   1      32.597  24.384 -16.232  1.00  0.00    +0.000 C 
ATOM     21  O1  UNL A   1      33.376  23.956 -17.099  1.00  0.00    +0.000 O 
BRANCH   20   19
ATOM    110  H12 UNL A   1      30.950  27.711 -13.629  1.00  0.00    +0.000 H 
ATOM    111  H13 UNL A   1      31.405  27.443 -15.882  1.00  0.00    +0.000 H 
ATOM    112  H14 UNL A   1      30.695  25.967 -15.541  1.00  0.00    +0.000 H 
ATOM     17  C15 UNL A   1      31.548  26.873 -13.924  1.00  0.00    +0.000 C 
ATOM     18  N3  UNL A   1      31.496  26.572 -15.359  1.00  0.00    +0.000 N 
ATOM     19  C16 UNL A   1      32.733  25.872 -15.788  1.00  0.00    +0.000 C 
ATOM    142  H44 UNL A   1      34.751  26.426 -15.261  1.00  0.00    +0.000 H 
ATOM    143  H45 UNL A   1      34.142  25.127 -14.311  1.00  0.00    +0.000 H 
ATOM    113  H15 UNL A   1      32.976  26.374 -16.702  1.00  0.00    +0.000 H 
ATOM     95  C69 UNL A   1      33.874  26.055 -14.774  1.00  0.00    +0.000 C 
ATOM     96  S1  UNL A   1      33.269  27.255 -13.563  1.00  0.00    +0.000 S 
BRANCH   17   16
ATOM      6  C6  UNL A   1      29.674  25.131 -13.250  1.00  0.00    +0.000 C 
ATOM      7  N1  UNL A   1      29.559  24.094 -12.387  1.00  0.00    +0.000 N 
ATOM      8  N2  UNL A   1      30.823  23.877 -11.939  1.00  0.00    +0.000 N 
ATOM    109  H11 UNL A   1      32.632  25.019 -11.949  1.00  0.00    +0.000 H 
ATOM     15  C13 UNL A   1      31.665  24.888 -12.286  1.00  0.00    +0.000 C 
ATOM     16  C14 UNL A   1      30.995  25.709 -13.169  1.00  0.00    +0.000 C 
BRANCH    6    5
ATOM     97  C70 UNL A   1      27.724  26.595 -13.862  1.00  0.00    +0.000 C 
ATOM      2  C2  UNL A   1      26.496  26.295 -15.956  1.00  0.00    +0.000 C 
ATOM      3  C3  UNL A   1      27.293  25.189 -16.234  1.00  0.00    +0.000 C 
ATOM      4  C4  UNL A   1      28.305  24.812 -15.346  1.00  0.00    +0.000 C 
ATOM     98  C71 UNL A   1      26.705  26.983 -14.754  1.00  0.00    +0.000 C 
ATOM    102  H4  UNL A   1      27.135  24.645 -17.096  1.00  0.00    +0.000 H 
ATOM      5  C5  UNL A   1      28.565  25.518 -14.158  1.00  0.00    +0.000 C 
ATOM    103  H5  UNL A   1      28.883  23.987 -15.571  1.00  0.00    +0.000 H 
ATOM    144  H46 UNL A   1      27.852  27.113 -12.979  1.00  0.00    +0.000 H 
ATOM    145  H47 UNL A   1      26.103  27.787 -14.518  1.00  0.00    +0.000 H 
BRANCH    2    1
ATOM      1  C1  UNL A   1      25.445  26.708 -16.944  1.00  0.00    +0.000 C 
ATOM     99  H1  UNL A   1      24.483  26.398 -16.594  1.00  0.00    +0.000 H 
ATOM    100  H2  UNL A   1      25.646  26.251 -17.890  1.00  0.00    +0.000 H 
ATOM    101  H3  UNL A   1      25.458  27.773 -17.053  1.00  0.00    +0.000 H 
ENDBRANCH    2    1
ENDBRANCH    6    5
BRANCH    8    9
ATOM    104  H6  UNL A   1      29.601  22.472 -10.079  1.00  0.00    +0.000 H 
ATOM      9  C7  UNL A   1      31.254  22.643 -11.397  1.00  0.00    +0.000 C 
ATOM     10  C8  UNL A   1      30.493  22.044 -10.375  1.00  0.00    +0.000 C 
ATOM     11  C9  UNL A   1      30.940  20.875  -9.762  1.00  0.00    +0.000 C 
ATOM    108  H10 UNL A   1      32.984  22.474 -12.598  1.00  0.00    +0.000 H 
ATOM     13  C11 UNL A   1      32.811  20.812 -11.294  1.00  0.00    +0.000 C 
ATOM     14  C12 UNL A   1      32.418  22.033 -11.855  1.00  0.00    +0.000 C 
ATOM    105  H7  UNL A   1      30.421  20.474  -8.965  1.00  0.00    +0.000 H 
ATOM    107  H9  UNL A   1      33.638  20.322 -11.667  1.00  0.00    +0.000 H 
ATOM     12  C10 UNL A   1      32.091  20.251 -10.234  1.00  0.00    +0.000 C 
ATOM    106  H8  UNL A   1      32.415  19.372  -9.800  1.00  0.00    +0.000 H 
ENDBRANCH    8    9
ENDBRANCH   17   16
ENDBRANCH   20   19
ENDBRANCH   22   20
ENDBRANCH   23   22
ENDBRANCH   24   23
ENDBRANCH   25   24
ENDBRANCH   26   25
ENDBRANCH   27   26
ENDBRANCH   28   27
ENDBRANCH   29   28
ENDBRANCH   30   29
ENDBRANCH   32   30
ENDBRANCH   36   35
BRANCH   40   41
ATOM     41  C33 UNL A   1      29.301  23.054  -5.601  1.00  0.00    +0.000 C 
ATOM     42  C34 UNL A   1      30.629  23.056  -6.090  1.00  0.00    +0.000 C 
ATOM     43  F1  UNL A   1      30.901  23.320  -7.376  1.00  0.00    +0.000 F 
ATOM     44  C35 UNL A   1      31.735  22.762  -5.283  1.00  0.00    +0.000 C 
ATOM     45  F2  UNL A   1      32.960  22.722  -5.826  1.00  0.00    +0.000 F 
ATOM     46  C36 UNL A   1      31.575  22.492  -3.942  1.00  0.00    +0.000 C 
ATOM     47  F3  UNL A   1      32.629  22.196  -3.170  1.00  0.00    +0.000 F 
ATOM     48  C37 UNL A   1      30.309  22.520  -3.408  1.00  0.00    +0.000 C 
ATOM     49  F4  UNL A   1      30.124  22.267  -2.104  1.00  0.00    +0.000 F 
ATOM     50  C38 UNL A   1      29.201  22.781  -4.220  1.00  0.00    +0.000 C 
ATOM     51  F5  UNL A   1      28.035  22.709  -3.579  1.00  0.00    +0.000 F 
ENDBRANCH   40   41
BRANCH   57   58
ATOM     65  C48 UNL A   1      22.377  25.443  -3.767  1.00  0.00    +0.000 C 
ATOM     66  F9  UNL A   1      21.903  24.417  -3.046  1.00  0.00    +0.000 F 
ATOM     67  C49 UNL A   1      22.894  25.212  -5.040  1.00  0.00    +0.000 C 
ATOM     68  F10 UNL A   1      22.827  23.958  -5.510  1.00  0.00    +0.000 F 
ATOM     58  C44 UNL A   1      23.448  26.249  -5.816  1.00  0.00    +0.000 C 
ATOM     59  C45 UNL A   1      23.412  27.538  -5.262  1.00  0.00    +0.000 C 
ATOM     60  F6  UNL A   1      23.930  28.581  -5.928  1.00  0.00    +0.000 F 
ATOM     61  C46 UNL A   1      22.854  27.773  -4.005  1.00  0.00    +0.000 C 
ATOM     62  F7  UNL A   1      22.809  29.022  -3.518  1.00  0.00    +0.000 F 
ATOM     63  C47 UNL A   1      22.354  26.724  -3.251  1.00  0.00    +0.000 C 
ATOM     64  F8  UNL A   1      21.846  26.949  -2.031  1.00  0.00    +0.000 F 
ENDBRANCH   57   58
BRANCH   72   73
ATOM     73  C53 UNL A   1      22.720  23.989 -12.602  1.00  0.00    +0.000 C 
ATOM     74  C54 UNL A   1      22.555  24.310 -13.964  1.00  0.00    +0.000 C 
ATOM     75  F11 UNL A   1      22.881  25.535 -14.408  1.00  0.00    +0.000 F 
ATOM     76  C55 UNL A   1      22.169  23.347 -14.890  1.00  0.00    +0.000 C 
ATOM     77  F12 UNL A   1      22.124  23.653 -16.194  1.00  0.00    +0.000 F 
ATOM     78  C56 UNL A   1      21.902  22.054 -14.470  1.00  0.00    +0.000 C 
ATOM     79  F13 UNL A   1      21.618  21.102 -15.368  1.00  0.00    +0.000 F 
ATOM     80  C57 UNL A   1      21.969  21.741 -13.120  1.00  0.00    +0.000 C 
ATOM     81  F14 UNL A   1      21.735  20.484 -12.716  1.00  0.00    +0.000 F 
ATOM     82  C58 UNL A   1      22.368  22.701 -12.190  1.00  0.00    +0.000 C 
ATOM     83  F15 UNL A   1      22.522  22.334 -10.909  1.00  0.00    +0.000 F 
ENDBRANCH   72   73
TORSDOF 19
ENDMDL
MODEL 6
REMARK VINA RESULT:      -8.6     28.184     34.784
ROOT
ATOM    130  H32 UNL A   1      28.737  26.198  -7.385  1.00  0.00    +0.000 H 
ATOM    131  H33 UNL A   1      26.499  27.576  -7.620  1.00  0.00    +0.000 H 
ATOM    132  H34 UNL A   1      25.581  23.823  -6.184  1.00  0.00    +0.000 H 
ATOM    133  H35 UNL A   1      26.106  26.645 -10.908  1.00  0.00    +0.000 H 
ATOM    134  H36 UNL A   1      27.618  24.749 -10.105  1.00  0.00    +0.000 H 
ATOM    135  H37 UNL A   1      25.238  23.335 -13.197  1.00  0.00    +0.000 H 
ATOM    136  H38 UNL A   1      20.968  25.742 -10.283  1.00  0.00    +0.000 H 
ATOM    137  H39 UNL A   1      21.265  26.060  -7.745  1.00  0.00    +0.000 H 
ATOM    138  H40 UNL A   1      28.329  20.336  -7.084  1.00  0.00    +0.000 H 
ATOM    139  H41 UNL A   1      27.678  19.784  -9.511  1.00  0.00    +0.000 H 
ATOM     36  C29 UNL A   1      26.532  22.144 -10.849  1.00  0.00    +0.000 C 
ATOM     37  C30 UNL A   1      27.066  21.959  -9.487  1.00  0.00    +0.000 C 
ATOM     38  N6  UNL A   1      27.025  22.865  -8.568  1.00  0.00    +0.000 N 
ATOM     39  C31 UNL A   1      27.748  22.409  -7.494  1.00  0.00    +0.000 C 
ATOM     40  C32 UNL A   1      28.178  23.311  -6.567  1.00  0.00    +0.000 C 
ATOM     52  C39 UNL A   1      27.467  24.588  -6.709  1.00  0.00    +0.000 C 
ATOM     53  C40 UNL A   1      27.788  25.854  -7.169  1.00  0.00    +0.000 C 
ATOM     54  C41 UNL A   1      26.577  26.601  -7.294  1.00  0.00    +0.000 C 
ATOM     55  C42 UNL A   1      25.527  25.791  -6.899  1.00  0.00    +0.000 C 
ATOM     56  N7  UNL A   1      26.093  24.588  -6.531  1.00  0.00    +0.000 N 
ATOM     57  C43 UNL A   1      24.082  25.927  -6.873  1.00  0.00    +0.000 C 
ATOM     69  C50 UNL A   1      23.436  25.895  -8.072  1.00  0.00    +0.000 C 
ATOM     70  N8  UNL A   1      24.097  25.736  -9.258  1.00  0.00    +0.000 N 
ATOM     71  C51 UNL A   1      23.225  25.598 -10.217  1.00  0.00    +0.000 C 
ATOM     72  C52 UNL A   1      23.577  25.203 -11.632  1.00  0.00    +0.000 C 
ATOM     84  C59 UNL A   1      24.909  25.040 -11.872  1.00  0.00    +0.000 C 
ATOM     85  C60 UNL A   1      25.986  25.640 -11.112  1.00  0.00    +0.000 C 
ATOM     86  C61 UNL A   1      26.798  24.648 -10.724  1.00  0.00    +0.000 C 
ATOM     87  C62 UNL A   1      26.329  23.399 -11.319  1.00  0.00    +0.000 C 
ATOM     88  N9  UNL A   1      25.441  23.800 -12.353  1.00  0.00    +0.000 N 
ATOM     89  C63 UNL A   1      21.847  25.757  -9.744  1.00  0.00    +0.000 C 
ATOM     90  C64 UNL A   1      22.030  25.925  -8.424  1.00  0.00    +0.000 C 
ATOM     91  C65 UNL A   1      27.953  21.009  -7.769  1.00  0.00    +0.000 C 
ATOM     92  C66 UNL A   1      27.598  20.686  -9.017  1.00  0.00    +0.000 C 
ENDROOT
BRANCH   36   35
ATOM     33  C26 UNL A   1      27.071  19.457 -13.371  1.00  0.00    +0.000 C 
ATOM     34  C27 UNL A   1      27.014  20.754 -12.874  1.00  0.00    +0.000 C 
ATOM    129  H31 UNL A   1      27.502  21.524 -13.357  1.00  0.00    +0.000 H 
ATOM     35  C28 UNL A   1      26.283  20.992 -11.710  1.00  0.00    +0.000 C 
ATOM    140  H42 UNL A   1      24.737  20.270 -10.453  1.00  0.00    +0.000 H 
ATOM    141  H43 UNL A   1      24.673  18.061 -11.482  1.00  0.00    +0.000 H 
ATOM    128  H30 UNL A   1      27.624  19.238 -14.214  1.00  0.00    +0.000 H 
ATOM     93  C67 UNL A   1      25.387  20.029 -11.217  1.00  0.00    +0.000 C 
ATOM     94  C68 UNL A   1      25.380  18.759 -11.762  1.00  0.00    +0.000 C 
ATOM     32  C25 UNL A   1      26.361  18.457 -12.701  1.00  0.00    +0.000 C 
BRANCH   32   30
ATOM     30  C24 UNL A   1      26.988  17.114 -12.647  1.00  0.00    +0.000 C 
ATOM     31  O2  UNL A   1      26.509  16.186 -13.255  1.00  0.00    +0.000 O 
BRANCH   30   29
ATOM     29  N5  UNL A   1      28.187  17.017 -11.939  1.00  0.00    +0.000 N 
ATOM    127  H29 UNL A   1      28.107  16.854 -10.971  1.00  0.00    +0.000 H 
BRANCH   29   28
ATOM     28  C23 UNL A   1      29.558  17.129 -12.463  1.00  0.00    +0.000 C 
ATOM    125  H27 UNL A   1      30.140  16.339 -12.038  1.00  0.00    +0.000 H 
ATOM    126  H28 UNL A   1      29.472  17.074 -13.529  1.00  0.00    +0.000 H 
BRANCH   28   27
ATOM     27  C22 UNL A   1      30.266  18.450 -12.166  1.00  0.00    +0.000 C 
ATOM    124  H26 UNL A   1      30.602  18.348 -11.156  1.00  0.00    +0.000 H 
ATOM    123  H25 UNL A   1      29.562  19.235 -12.347  1.00  0.00    +0.000 H 
BRANCH   27   26
ATOM    121  H23 UNL A   1      32.319  18.926 -12.242  1.00  0.00    +0.000 H 
ATOM     26  C21 UNL A   1      31.533  18.786 -12.954  1.00  0.00    +0.000 C 
ATOM    122  H24 UNL A   1      31.648  17.962 -13.627  1.00  0.00    +0.000 H 
BRANCH   26   25
ATOM     25  C20 UNL A   1      31.521  20.021 -13.868  1.00  0.00    +0.000 C 
ATOM    119  H21 UNL A   1      30.628  19.942 -14.453  1.00  0.00    +0.000 H 
ATOM    120  H22 UNL A   1      31.636  20.808 -13.151  1.00  0.00    +0.000 H 
BRANCH   25   24
ATOM    117  H19 UNL A   1      33.428  20.824 -14.293  1.00  0.00    +0.000 H 
ATOM    118  H20 UNL A   1      32.831  19.419 -15.333  1.00  0.00    +0.000 H 
ATOM     24  C19 UNL A   1      32.651  20.365 -14.869  1.00  0.00    +0.000 C 
BRANCH   24   23
ATOM    115  H17 UNL A   1      33.300  21.213 -16.693  1.00  0.00    +0.000 H 
ATOM    116  H18 UNL A   1      31.528  20.907 -16.535  1.00  0.00    +0.000 H 
ATOM     23  C18 UNL A   1      32.425  21.271 -16.079  1.00  0.00    +0.000 C 
BRANCH   23   22
ATOM    114  H16 UNL A   1      32.860  23.179 -15.326  1.00  0.00    +0.000 H 
ATOM     22  N4  UNL A   1      32.168  22.679 -15.816  1.00  0.00    +0.000 N 
BRANCH   22   20
ATOM     20  C17 UNL A   1      31.039  23.372 -16.193  1.00  0.00    +0.000 C 
ATOM     21  O1  UNL A   1      30.940  23.601 -17.409  1.00  0.00    +0.000 O 
BRANCH   20   19
ATOM    110  H12 UNL A   1      29.616  24.275 -11.984  1.00  0.00    +0.000 H 
ATOM    111  H13 UNL A   1      29.062  22.741 -13.624  1.00  0.00    +0.000 H 
ATOM    112  H14 UNL A   1      30.731  22.706 -13.731  1.00  0.00    +0.000 H 
ATOM     17  C15 UNL A   1      29.983  24.446 -12.975  1.00  0.00    +0.000 C 
ATOM     18  N3  UNL A   1      29.897  23.278 -13.859  1.00  0.00    +0.000 N 
ATOM     19  C16 UNL A   1      29.821  23.705 -15.278  1.00  0.00    +0.000 C 
ATOM    142  H44 UNL A   1      28.564  25.274 -16.066  1.00  0.00    +0.000 H 
ATOM    143  H45 UNL A   1      30.192  25.776 -15.824  1.00  0.00    +0.000 H 
ATOM    113  H15 UNL A   1      29.049  23.074 -15.668  1.00  0.00    +0.000 H 
ATOM     95  C69 UNL A   1      29.405  25.180 -15.410  1.00  0.00    +0.000 C 
ATOM     96  S1  UNL A   1      28.966  25.718 -13.740  1.00  0.00    +0.000 S 
BRANCH   17   16
ATOM      6  C6  UNL A   1      32.424  24.168 -11.992  1.00  0.00    +0.000 C 
ATOM      7  N1  UNL A   1      33.606  24.819 -12.095  1.00  0.00    +0.000 N 
ATOM      8  N2  UNL A   1      33.423  25.708 -13.106  1.00  0.00    +0.000 N 
ATOM    109  H11 UNL A   1      31.708  26.515 -14.098  1.00  0.00    +0.000 H 
ATOM     15  C13 UNL A   1      32.112  25.813 -13.458  1.00  0.00    +0.000 C 
ATOM     16  C14 UNL A   1      31.421  24.814 -12.805  1.00  0.00    +0.000 C 
BRANCH    6    5
ATOM     97  C70 UNL A   1      31.063  22.599 -10.575  1.00  0.00    +0.000 C 
ATOM      2  C2  UNL A   1      32.002  20.521  -9.690  1.00  0.00    +0.000 C 
ATOM      3  C3  UNL A   1      33.231  20.873 -10.241  1.00  0.00    +0.000 C 
ATOM      4  C4  UNL A   1      33.360  22.060 -10.968  1.00  0.00    +0.000 C 
ATOM     98  C71 UNL A   1      30.925  21.402  -9.845  1.00  0.00    +0.000 C 
ATOM    102  H4  UNL A   1      34.048  20.257 -10.111  1.00  0.00    +0.000 H 
ATOM      5  C5  UNL A   1      32.279  22.935 -11.179  1.00  0.00    +0.000 C 
ATOM    103  H5  UNL A   1      34.281  22.302 -11.366  1.00  0.00    +0.000 H 
ATOM    144  H46 UNL A   1      30.257  23.236 -10.667  1.00  0.00    +0.000 H 
ATOM    145  H47 UNL A   1      30.015  21.171  -9.417  1.00  0.00    +0.000 H 
BRANCH    2    1
ATOM      1  C1  UNL A   1      31.875  19.221  -8.952  1.00  0.00    +0.000 C 
ATOM     99  H1  UNL A   1      31.079  19.290  -8.240  1.00  0.00    +0.000 H 
ATOM    100  H2  UNL A   1      32.792  19.009  -8.443  1.00  0.00    +0.000 H 
ATOM    101  H3  UNL A   1      31.664  18.435  -9.647  1.00  0.00    +0.000 H 
ENDBRANCH    2    1
ENDBRANCH    6    5
BRANCH    8    9
ATOM    104  H6  UNL A   1      33.539  25.940 -15.725  1.00  0.00    +0.000 H 
ATOM      9  C7  UNL A   1      34.487  26.264 -13.855  1.00  0.00    +0.000 C 
ATOM     10  C8  UNL A   1      34.398  26.275 -15.260  1.00  0.00    +0.000 C 
ATOM     11  C9  UNL A   1      35.468  26.736 -16.025  1.00  0.00    +0.000 C 
ATOM    108  H10 UNL A   1      35.682  26.771 -12.188  1.00  0.00    +0.000 H 
ATOM     13  C11 UNL A   1      36.640  27.328 -13.994  1.00  0.00    +0.000 C 
ATOM     14  C12 UNL A   1      35.610  26.785 -13.217  1.00  0.00    +0.000 C 
ATOM    105  H7  UNL A   1      35.434  26.677 -17.056  1.00  0.00    +0.000 H 
ATOM    107  H9  UNL A   1      37.449  27.770 -13.532  1.00  0.00    +0.000 H 
ATOM     12  C10 UNL A   1      36.582  27.277 -15.391  1.00  0.00    +0.000 C 
ATOM    106  H8  UNL A   1      37.368  27.642 -15.952  1.00  0.00    +0.000 H 
ENDBRANCH    8    9
ENDBRANCH   17   16
ENDBRANCH   20   19
ENDBRANCH   22   20
ENDBRANCH   23   22
ENDBRANCH   24   23
ENDBRANCH   25   24
ENDBRANCH   26   25
ENDBRANCH   27   26
ENDBRANCH   28   27
ENDBRANCH   29   28
ENDBRANCH   30   29
ENDBRANCH   32   30
ENDBRANCH   36   35
BRANCH   40   41
ATOM     41  C33 UNL A   1      29.348  23.120  -5.615  1.00  0.00    +0.000 C 
ATOM     42  C34 UNL A   1      30.673  23.165  -6.108  1.00  0.00    +0.000 C 
ATOM     43  F1  UNL A   1      30.937  23.499  -7.379  1.00  0.00    +0.000 F 
ATOM     44  C35 UNL A   1      31.787  22.845  -5.322  1.00  0.00    +0.000 C 
ATOM     45  F2  UNL A   1      33.011  22.849  -5.870  1.00  0.00    +0.000 F 
ATOM     46  C36 UNL A   1      31.637  22.503  -3.995  1.00  0.00    +0.000 C 
ATOM     47  F3  UNL A   1      32.698  22.182  -3.244  1.00  0.00    +0.000 F 
ATOM     48  C37 UNL A   1      30.373  22.487  -3.456  1.00  0.00    +0.000 C 
ATOM     49  F4  UNL A   1      30.197  22.165  -2.166  1.00  0.00    +0.000 F 
ATOM     50  C38 UNL A   1      29.258  22.775  -4.250  1.00  0.00    +0.000 C 
ATOM     51  F5  UNL A   1      28.096  22.654  -3.608  1.00  0.00    +0.000 F 
ENDBRANCH   40   41
BRANCH   57   58
ATOM     65  C48 UNL A   1      22.283  25.048  -3.628  1.00  0.00    +0.000 C 
ATOM     66  F9  UNL A   1      21.806  23.949  -3.026  1.00  0.00    +0.000 F 
ATOM     67  C49 UNL A   1      22.810  24.958  -4.914  1.00  0.00    +0.000 C 
ATOM     68  F10 UNL A   1      22.750  23.761  -5.518  1.00  0.00    +0.000 F 
ATOM     58  C44 UNL A   1      23.366  26.074  -5.569  1.00  0.00    +0.000 C 
ATOM     59  C45 UNL A   1      23.322  27.295  -4.879  1.00  0.00    +0.000 C 
ATOM     60  F6  UNL A   1      23.841  28.405  -5.425  1.00  0.00    +0.000 F 
ATOM     61  C46 UNL A   1      22.753  27.392  -3.608  1.00  0.00    +0.000 C 
ATOM     62  F7  UNL A   1      22.701  28.580  -2.990  1.00  0.00    +0.000 F 
ATOM     63  C47 UNL A   1      22.251  26.266  -2.976  1.00  0.00    +0.000 C 
ATOM     64  F8  UNL A   1      21.733  26.356  -1.743  1.00  0.00    +0.000 F 
ENDBRANCH   57   58
BRANCH   72   73
ATOM     73  C53 UNL A   1      22.728  24.382 -12.528  1.00  0.00    +0.000 C 
ATOM     74  C54 UNL A   1      22.474  24.860 -13.828  1.00  0.00    +0.000 C 
ATOM     75  F11 UNL A   1      22.676  26.156 -14.118  1.00  0.00    +0.000 F 
ATOM     76  C55 UNL A   1      22.125  23.994 -14.859  1.00  0.00    +0.000 C 
ATOM     77  F12 UNL A   1      21.994  24.460 -16.109  1.00  0.00    +0.000 F 
ATOM     78  C56 UNL A   1      21.987  22.640 -14.604  1.00  0.00    +0.000 C 
ATOM     79  F13 UNL A   1      21.740  21.789 -15.610  1.00  0.00    +0.000 F 
ATOM     80  C57 UNL A   1      22.143  22.162 -13.311  1.00  0.00    +0.000 C 
ATOM     81  F14 UNL A   1      22.032  20.848 -13.069  1.00  0.00    +0.000 F 
ATOM     82  C58 UNL A   1      22.505  23.026 -12.277  1.00  0.00    +0.000 C 
ATOM     83  F15 UNL A   1      22.749  22.512 -11.062  1.00  0.00    +0.000 F 
ENDBRANCH   72   73
TORSDOF 19
ENDMDL
MODEL 7
REMARK VINA RESULT:      -8.3     40.509     47.717
ROOT
ATOM    130  H32 UNL A   1       6.572  32.703   0.762  1.00  0.00    +0.000 H 
ATOM    131  H33 UNL A   1       8.330  34.345  -0.323  1.00  0.00    +0.000 H 
ATOM    132  H34 UNL A   1       8.052  30.976  -2.684  1.00  0.00    +0.000 H 
ATOM    133  H35 UNL A   1      10.903  33.065   1.566  1.00  0.00    +0.000 H 
ATOM    134  H36 UNL A   1       9.285  31.092   1.658  1.00  0.00    +0.000 H 
ATOM    135  H37 UNL A   1      13.162  29.647   1.969  1.00  0.00    +0.000 H 
ATOM    136  H38 UNL A   1      14.190  32.992  -2.533  1.00  0.00    +0.000 H 
ATOM    137  H39 UNL A   1      12.213  33.588  -4.073  1.00  0.00    +0.000 H 
ATOM    138  H40 UNL A   1       6.743  27.046  -0.850  1.00  0.00    +0.000 H 
ATOM    139  H41 UNL A   1       8.901  26.286   0.326  1.00  0.00    +0.000 H 
ATOM     36  C29 UNL A   1      10.620  28.595   0.951  1.00  0.00    +0.000 C 
ATOM     37  C30 UNL A   1       9.295  28.511   0.310  1.00  0.00    +0.000 C 
ATOM     38  N6  UNL A   1       8.675  29.524  -0.196  1.00  0.00    +0.000 N 
ATOM     39  C31 UNL A   1       7.416  29.112  -0.556  1.00  0.00    +0.000 C 
ATOM     40  C32 UNL A   1       6.452  30.055  -0.750  1.00  0.00    +0.000 C 
ATOM     52  C39 UNL A   1       7.043  31.391  -0.887  1.00  0.00    +0.000 C 
ATOM     53  C40 UNL A   1       7.113  32.529  -0.100  1.00  0.00    +0.000 C 
ATOM     54  C41 UNL A   1       8.062  33.419  -0.689  1.00  0.00    +0.000 C 
ATOM     55  C42 UNL A   1       8.557  32.824  -1.836  1.00  0.00    +0.000 C 
ATOM     56  N7  UNL A   1       7.912  31.610  -1.945  1.00  0.00    +0.000 N 
ATOM     57  C43 UNL A   1       9.580  33.167  -2.808  1.00  0.00    +0.000 C 
ATOM     69  C50 UNL A   1      10.876  33.074  -2.401  1.00  0.00    +0.000 C 
ATOM     70  N8  UNL A   1      11.223  32.672  -1.141  1.00  0.00    +0.000 N 
ATOM     71  C51 UNL A   1      12.518  32.537  -1.077  1.00  0.00    +0.000 C 
ATOM     72  C52 UNL A   1      13.250  31.918   0.090  1.00  0.00    +0.000 C 
ATOM     84  C59 UNL A   1      12.458  31.537   1.132  1.00  0.00    +0.000 C 
ATOM     85  C60 UNL A   1      11.146  32.070   1.437  1.00  0.00    +0.000 C 
ATOM     86  C61 UNL A   1      10.306  31.030   1.522  1.00  0.00    +0.000 C 
ATOM     87  C62 UNL A   1      11.075  29.795   1.388  1.00  0.00    +0.000 C 
ATOM     88  N9  UNL A   1      12.425  30.182   1.596  1.00  0.00    +0.000 N 
ATOM     89  C63 UNL A   1      13.182  32.951  -2.317  1.00  0.00    +0.000 C 
ATOM     90  C64 UNL A   1      12.134  33.260  -3.098  1.00  0.00    +0.000 C 
ATOM     91  C65 UNL A   1       7.479  27.673  -0.489  1.00  0.00    +0.000 C 
ATOM     92  C66 UNL A   1       8.604  27.247   0.094  1.00  0.00    +0.000 C 
ENDROOT
BRANCH   36   35
ATOM     33  C26 UNL A   1      11.696  25.291   2.293  1.00  0.00    +0.000 C 
ATOM     34  C27 UNL A   1      11.305  26.624   2.335  1.00  0.00    +0.000 C 
ATOM    129  H31 UNL A   1      10.944  27.040   3.207  1.00  0.00    +0.000 H 
ATOM     35  C28 UNL A   1      11.413  27.389   1.173  1.00  0.00    +0.000 C 
ATOM    140  H42 UNL A   1      12.372  27.561  -0.709  1.00  0.00    +0.000 H 
ATOM    141  H43 UNL A   1      13.258  25.291  -0.677  1.00  0.00    +0.000 H 
ATOM    128  H30 UNL A   1      11.605  24.688   3.125  1.00  0.00    +0.000 H 
ATOM     93  C67 UNL A   1      12.165  26.930   0.080  1.00  0.00    +0.000 C 
ATOM     94  C68 UNL A   1      12.628  25.628   0.068  1.00  0.00    +0.000 C 
ATOM     32  C25 UNL A   1      12.214  24.787   1.097  1.00  0.00    +0.000 C 
BRANCH   32   30
ATOM     30  C24 UNL A   1      11.871  23.386   0.758  1.00  0.00    +0.000 C 
ATOM     31  O2  UNL A   1      12.213  22.477   1.478  1.00  0.00    +0.000 O 
BRANCH   30   29
ATOM     29  N5  UNL A   1      11.072  23.197  -0.371  1.00  0.00    +0.000 N 
ATOM    127  H29 UNL A   1      11.471  23.456  -1.233  1.00  0.00    +0.000 H 
BRANCH   29   28
ATOM     28  C23 UNL A   1       9.703  22.658  -0.429  1.00  0.00    +0.000 C 
ATOM    125  H27 UNL A   1       9.576  22.182  -1.379  1.00  0.00    +0.000 H 
ATOM    126  H28 UNL A   1       9.614  21.990   0.402  1.00  0.00    +0.000 H 
BRANCH   28   27
ATOM     27  C22 UNL A   1       8.587  23.688  -0.264  1.00  0.00    +0.000 C 
ATOM    124  H26 UNL A   1       7.745  23.246  -0.753  1.00  0.00    +0.000 H 
ATOM    123  H25 UNL A   1       8.941  24.608  -0.683  1.00  0.00    +0.000 H 
BRANCH   27   26
ATOM    121  H23 UNL A   1       8.852  23.677   1.828  1.00  0.00    +0.000 H 
ATOM     26  C21 UNL A   1       8.088  23.994   1.148  1.00  0.00    +0.000 C 
ATOM    122  H24 UNL A   1       7.880  25.043   1.131  1.00  0.00    +0.000 H 
BRANCH   26   25
ATOM     25  C20 UNL A   1       6.770  23.355   1.615  1.00  0.00    +0.000 C 
ATOM    119  H21 UNL A   1       6.184  24.156   2.014  1.00  0.00    +0.000 H 
ATOM    120  H22 UNL A   1       6.464  22.844   0.726  1.00  0.00    +0.000 H 
BRANCH   25   24
ATOM    117  H19 UNL A   1       7.018  22.632   3.585  1.00  0.00    +0.000 H 
ATOM    118  H20 UNL A   1       5.672  21.895   2.556  1.00  0.00    +0.000 H 
ATOM     24  C19 UNL A   1       6.687  22.213   2.656  1.00  0.00    +0.000 C 
BRANCH   24   23
ATOM    115  H17 UNL A   1       6.858  20.125   2.940  1.00  0.00    +0.000 H 
ATOM    116  H18 UNL A   1       7.598  20.794   1.436  1.00  0.00    +0.000 H 
ATOM     23  C18 UNL A   1       7.447  20.896   2.490  1.00  0.00    +0.000 C 
BRANCH   23   22
ATOM    114  H16 UNL A   1       9.409  20.177   2.670  1.00  0.00    +0.000 H 
ATOM     22  N4  UNL A   1       8.781  20.822   3.069  1.00  0.00    +0.000 N 
BRANCH   22   20
ATOM     20  C17 UNL A   1       9.239  21.575   4.127  1.00  0.00    +0.000 C 
ATOM     21  O1  UNL A   1       9.703  22.685   3.825  1.00  0.00    +0.000 O 
BRANCH   20   19
ATOM    110  H12 UNL A   1       9.994  22.877   8.403  1.00  0.00    +0.000 H 
ATOM    111  H13 UNL A   1      10.414  20.976   7.155  1.00  0.00    +0.000 H 
ATOM    112  H14 UNL A   1      10.837  22.160   6.051  1.00  0.00    +0.000 H 
ATOM     17  C15 UNL A   1       9.498  22.777   7.461  1.00  0.00    +0.000 C 
ATOM     18  N3  UNL A   1      10.071  21.749   6.584  1.00  0.00    +0.000 N 
ATOM     19  C16 UNL A   1       9.046  21.242   5.638  1.00  0.00    +0.000 C 
ATOM    142  H44 UNL A   1       7.022  20.685   6.140  1.00  0.00    +0.000 H 
ATOM    143  H45 UNL A   1       7.133  22.256   5.445  1.00  0.00    +0.000 H 
ATOM    113  H15 UNL A   1       9.204  20.184   5.673  1.00  0.00    +0.000 H 
ATOM     95  C69 UNL A   1       7.620  21.572   6.110  1.00  0.00    +0.000 C 
ATOM     96  S1  UNL A   1       7.800  22.269   7.770  1.00  0.00    +0.000 S 
BRANCH   17   16
ATOM      6  C6  UNL A   1      10.847  24.760   6.342  1.00  0.00    +0.000 C 
ATOM      7  N1  UNL A   1      10.556  25.969   5.807  1.00  0.00    +0.000 N 
ATOM      8  N2  UNL A   1       9.200  25.990   5.720  1.00  0.00    +0.000 N 
ATOM    109  H11 UNL A   1       7.625  24.844   6.603  1.00  0.00    +0.000 H 
ATOM     15  C13 UNL A   1       8.631  24.962   6.408  1.00  0.00    +0.000 C 
ATOM     16  C14 UNL A   1       9.641  24.107   6.797  1.00  0.00    +0.000 C 
BRANCH    6    5
ATOM     97  C70 UNL A   1      13.032  24.329   7.508  1.00  0.00    +0.000 C 
ATOM      2  C2  UNL A   1      14.861  23.129   6.414  1.00  0.00    +0.000 C 
ATOM      3  C3  UNL A   1      14.094  23.072   5.254  1.00  0.00    +0.000 C 
ATOM      4  C4  UNL A   1      12.805  23.616   5.237  1.00  0.00    +0.000 C 
ATOM     98  C71 UNL A   1      14.328  23.779   7.534  1.00  0.00    +0.000 C 
ATOM    102  H4  UNL A   1      14.477  22.629   4.405  1.00  0.00    +0.000 H 
ATOM      5  C5  UNL A   1      12.233  24.228   6.365  1.00  0.00    +0.000 C 
ATOM    103  H5  UNL A   1      12.255  23.564   4.365  1.00  0.00    +0.000 H 
ATOM    144  H46 UNL A   1      12.666  24.811   8.344  1.00  0.00    +0.000 H 
ATOM    145  H47 UNL A   1      14.896  23.858   8.392  1.00  0.00    +0.000 H 
BRANCH    2    1
ATOM      1  C1  UNL A   1      16.223  22.500   6.423  1.00  0.00    +0.000 C 
ATOM     99  H1  UNL A   1      16.907  23.120   5.882  1.00  0.00    +0.000 H 
ATOM    100  H2  UNL A   1      16.174  21.535   5.964  1.00  0.00    +0.000 H 
ATOM    101  H3  UNL A   1      16.560  22.396   7.434  1.00  0.00    +0.000 H 
ENDBRANCH    2    1
ENDBRANCH    6    5
BRANCH    8    9
ATOM    104  H6  UNL A   1       9.933  28.384   4.906  1.00  0.00    +0.000 H 
ATOM      9  C7  UNL A   1       8.491  26.829   4.828  1.00  0.00    +0.000 C 
ATOM     10  C8  UNL A   1       9.014  28.102   4.528  1.00  0.00    +0.000 C 
ATOM     11  C9  UNL A   1       8.295  28.983   3.723  1.00  0.00    +0.000 C 
ATOM    108  H10 UNL A   1       6.900  25.483   4.486  1.00  0.00    +0.000 H 
ATOM     13  C11 UNL A   1       6.620  27.271   3.382  1.00  0.00    +0.000 C 
ATOM     14  C12 UNL A   1       7.290  26.412   4.262  1.00  0.00    +0.000 C 
ATOM    105  H7  UNL A   1       8.641  29.942   3.561  1.00  0.00    +0.000 H 
ATOM    107  H9  UNL A   1       5.762  26.949   2.911  1.00  0.00    +0.000 H 
ATOM     12  C10 UNL A   1       7.105  28.560   3.137  1.00  0.00    +0.000 C 
ATOM    106  H8  UNL A   1       6.579  29.199   2.521  1.00  0.00    +0.000 H 
ENDBRANCH    8    9
ENDBRANCH   17   16
ENDBRANCH   20   19
ENDBRANCH   22   20
ENDBRANCH   23   22
ENDBRANCH   24   23
ENDBRANCH   25   24
ENDBRANCH   26   25
ENDBRANCH   27   26
ENDBRANCH   28   27
ENDBRANCH   29   28
ENDBRANCH   30   29
ENDBRANCH   32   30
ENDBRANCH   36   35
BRANCH   40   41
ATOM     41  C33 UNL A   1       4.950  29.822  -0.669  1.00  0.00    +0.000 C 
ATOM     42  C34 UNL A   1       4.198  29.652  -1.855  1.00  0.00    +0.000 C 
ATOM     43  F1  UNL A   1       4.791  29.563  -3.054  1.00  0.00    +0.000 F 
ATOM     44  C35 UNL A   1       2.799  29.591  -1.864  1.00  0.00    +0.000 C 
ATOM     45  F2  UNL A   1       2.146  29.490  -3.030  1.00  0.00    +0.000 F 
ATOM     46  C36 UNL A   1       2.085  29.655  -0.687  1.00  0.00    +0.000 C 
ATOM     47  F3  UNL A   1       0.746  29.611  -0.692  1.00  0.00    +0.000 F 
ATOM     48  C37 UNL A   1       2.771  29.777   0.498  1.00  0.00    +0.000 C 
ATOM     49  F4  UNL A   1       2.102  29.836   1.658  1.00  0.00    +0.000 F 
ATOM     50  C38 UNL A   1       4.166  29.872   0.503  1.00  0.00    +0.000 C 
ATOM     51  F5  UNL A   1       4.688  30.053   1.716  1.00  0.00    +0.000 F 
ENDBRANCH   40   41
BRANCH   57   58
ATOM     65  C48 UNL A   1       8.305  35.278  -5.716  1.00  0.00    +0.000 C 
ATOM     66  F9  UNL A   1       7.713  36.469  -5.892  1.00  0.00    +0.000 F 
ATOM     67  C49 UNL A   1       8.531  34.802  -4.427  1.00  0.00    +0.000 C 
ATOM     68  F10 UNL A   1       8.074  35.548  -3.410  1.00  0.00    +0.000 F 
ATOM     58  C44 UNL A   1       9.191  33.581  -4.191  1.00  0.00    +0.000 C 
ATOM     59  C45 UNL A   1       9.572  32.842  -5.323  1.00  0.00    +0.000 C 
ATOM     60  F6  UNL A   1      10.218  31.674  -5.188  1.00  0.00    +0.000 F 
ATOM     61  C46 UNL A   1       9.305  33.301  -6.613  1.00  0.00    +0.000 C 
ATOM     62  F7  UNL A   1       9.656  32.556  -7.671  1.00  0.00    +0.000 F 
ATOM     63  C47 UNL A   1       8.689  34.526  -6.810  1.00  0.00    +0.000 C 
ATOM     64  F8  UNL A   1       8.462  34.978  -8.051  1.00  0.00    +0.000 F 
ENDBRANCH   57   58
BRANCH   72   73
ATOM     73  C53 UNL A   1      14.494  31.119  -0.006  1.00  0.00    +0.000 C 
ATOM     74  C54 UNL A   1      14.551  30.085  -0.960  1.00  0.00    +0.000 C 
ATOM     75  F11 UNL A   1      13.417  29.605  -1.497  1.00  0.00    +0.000 F 
ATOM     76  C55 UNL A   1      15.768  29.623  -1.452  1.00  0.00    +0.000 C 
ATOM     77  F12 UNL A   1      15.790  28.715  -2.437  1.00  0.00    +0.000 F 
ATOM     78  C56 UNL A   1      16.952  30.158  -0.972  1.00  0.00    +0.000 C 
ATOM     79  F13 UNL A   1      18.122  29.782  -1.505  1.00  0.00    +0.000 F 
ATOM     80  C57 UNL A   1      16.920  31.112   0.035  1.00  0.00    +0.000 C 
ATOM     81  F14 UNL A   1      18.065  31.646   0.481  1.00  0.00    +0.000 F 
ATOM     82  C58 UNL A   1      15.701  31.586   0.521  1.00  0.00    +0.000 C 
ATOM     83  F15 UNL A   1      15.708  32.583   1.418  1.00  0.00    +0.000 F 
ENDBRANCH   72   73
TORSDOF 19
ENDMDL
MODEL 8
REMARK VINA RESULT:      -8.3     48.043     52.992
ROOT
ATOM    130  H32 UNL A   1      11.371  49.838  -1.111  1.00  0.00    +0.000 H 
ATOM    131  H33 UNL A   1      13.126  49.960  -3.078  1.00  0.00    +0.000 H 
ATOM    132  H34 UNL A   1      15.141  49.159   0.429  1.00  0.00    +0.000 H 
ATOM    133  H35 UNL A   1      13.474  53.366  -2.745  1.00  0.00    +0.000 H 
ATOM    134  H36 UNL A   1      12.603  52.796  -0.413  1.00  0.00    +0.000 H 
ATOM    135  H37 UNL A   1      15.002  56.171  -0.149  1.00  0.00    +0.000 H 
ATOM    136  H38 UNL A   1      18.699  53.119  -3.235  1.00  0.00    +0.000 H 
ATOM    137  H39 UNL A   1      18.545  50.550  -3.113  1.00  0.00    +0.000 H 
ATOM    138  H40 UNL A   1      13.367  50.457   4.390  1.00  0.00    +0.000 H 
ATOM    139  H41 UNL A   1      13.933  52.967   4.406  1.00  0.00    +0.000 H 
ATOM     36  C29 UNL A   1      14.282  53.978   1.661  1.00  0.00    +0.000 C 
ATOM     37  C30 UNL A   1      13.937  52.638   2.170  1.00  0.00    +0.000 C 
ATOM     38  N6  UNL A   1      13.810  51.594   1.421  1.00  0.00    +0.000 N 
ATOM     39  C31 UNL A   1      13.331  50.571   2.201  1.00  0.00    +0.000 C 
ATOM     40  C32 UNL A   1      12.755  49.498   1.588  1.00  0.00    +0.000 C 
ATOM     52  C39 UNL A   1      13.081  49.474   0.157  1.00  0.00    +0.000 C 
ATOM     53  C40 UNL A   1      12.393  49.721  -1.020  1.00  0.00    +0.000 C 
ATOM     54  C41 UNL A   1      13.343  49.784  -2.084  1.00  0.00    +0.000 C 
ATOM     55  C42 UNL A   1      14.601  49.565  -1.554  1.00  0.00    +0.000 C 
ATOM     56  N7  UNL A   1      14.414  49.360  -0.203  1.00  0.00    +0.000 N 
ATOM     57  C43 UNL A   1      15.954  49.584  -2.083  1.00  0.00    +0.000 C 
ATOM     69  C50 UNL A   1      16.479  50.801  -2.395  1.00  0.00    +0.000 C 
ATOM     70  N8  UNL A   1      15.786  51.967  -2.219  1.00  0.00    +0.000 N 
ATOM     71  C51 UNL A   1      16.578  52.974  -2.460  1.00  0.00    +0.000 C 
ATOM     72  C52 UNL A   1      16.226  54.415  -2.177  1.00  0.00    +0.000 C 
ATOM     84  C59 UNL A   1      14.972  54.618  -1.682  1.00  0.00    +0.000 C 
ATOM     85  C60 UNL A   1      13.842  53.726  -1.850  1.00  0.00    +0.000 C 
ATOM     86  C61 UNL A   1      13.364  53.459  -0.628  1.00  0.00    +0.000 C 
ATOM     87  C62 UNL A   1      14.099  54.259   0.348  1.00  0.00    +0.000 C 
ATOM     88  N9  UNL A   1      14.755  55.258  -0.420  1.00  0.00    +0.000 N 
ATOM     89  C63 UNL A   1      17.898  52.544  -2.931  1.00  0.00    +0.000 C 
ATOM     90  C64 UNL A   1      17.790  51.207  -2.863  1.00  0.00    +0.000 C 
ATOM     91  C65 UNL A   1      13.488  51.048   3.552  1.00  0.00    +0.000 C 
ATOM     92  C66 UNL A   1      13.809  52.345   3.592  1.00  0.00    +0.000 C 
ENDROOT
BRANCH   36   35
ATOM     33  C26 UNL A   1      14.282  56.649   4.257  1.00  0.00    +0.000 C 
ATOM     34  C27 UNL A   1      13.922  56.011   3.076  1.00  0.00    +0.000 C 
ATOM    129  H31 UNL A   1      13.053  56.270   2.582  1.00  0.00    +0.000 H 
ATOM     35  C28 UNL A   1      14.758  55.015   2.571  1.00  0.00    +0.000 C 
ATOM    140  H42 UNL A   1      16.728  54.234   2.581  1.00  0.00    +0.000 H 
ATOM    141  H43 UNL A   1      17.436  55.531   4.519  1.00  0.00    +0.000 H 
ATOM    128  H30 UNL A   1      13.675  57.371   4.674  1.00  0.00    +0.000 H 
ATOM     93  C67 UNL A   1      16.065  54.861   3.061  1.00  0.00    +0.000 C 
ATOM     94  C68 UNL A   1      16.458  55.555   4.190  1.00  0.00    +0.000 C 
ATOM     32  C25 UNL A   1      15.487  56.287   4.866  1.00  0.00    +0.000 C 
BRANCH   32   30
ATOM     30  C24 UNL A   1      15.508  56.273   6.349  1.00  0.00    +0.000 C 
ATOM     31  O2  UNL A   1      16.228  57.026   6.961  1.00  0.00    +0.000 O 
BRANCH   30   29
ATOM     29  N5  UNL A   1      14.601  55.416   6.974  1.00  0.00    +0.000 N 
ATOM    127  H29 UNL A   1      13.734  55.298   6.523  1.00  0.00    +0.000 H 
BRANCH   29   28
ATOM     28  C23 UNL A   1      14.783  54.667   8.228  1.00  0.00    +0.000 C 
ATOM    125  H27 UNL A   1      15.689  55.005   8.686  1.00  0.00    +0.000 H 
ATOM    126  H28 UNL A   1      13.908  54.857   8.815  1.00  0.00    +0.000 H 
BRANCH   28   27
ATOM     27  C22 UNL A   1      14.868  53.149   8.077  1.00  0.00    +0.000 C 
ATOM    124  H26 UNL A   1      14.534  52.770   9.020  1.00  0.00    +0.000 H 
ATOM    123  H25 UNL A   1      15.878  52.913   7.810  1.00  0.00    +0.000 H 
BRANCH   27   26
ATOM    121  H23 UNL A   1      13.832  53.158   6.240  1.00  0.00    +0.000 H 
ATOM     26  C21 UNL A   1      13.958  52.472   7.052  1.00  0.00    +0.000 C 
ATOM    122  H24 UNL A   1      14.459  51.556   6.821  1.00  0.00    +0.000 H 
BRANCH   26   25
ATOM     25  C20 UNL A   1      12.554  52.032   7.496  1.00  0.00    +0.000 C 
ATOM    119  H21 UNL A   1      12.189  52.816   8.127  1.00  0.00    +0.000 H 
ATOM    120  H22 UNL A   1      12.092  51.832   6.552  1.00  0.00    +0.000 H 
BRANCH   25   24
ATOM    117  H19 UNL A   1      11.201  50.577   8.217  1.00  0.00    +0.000 H 
ATOM    118  H20 UNL A   1      12.898  50.020   7.742  1.00  0.00    +0.000 H 
ATOM     24  C19 UNL A   1      12.263  50.712   8.252  1.00  0.00    +0.000 C 
BRANCH   24   23
ATOM    115  H17 UNL A   1      13.536  49.869   9.714  1.00  0.00    +0.000 H 
ATOM    116  H18 UNL A   1      12.823  51.480  10.104  1.00  0.00    +0.000 H 
ATOM     23  C18 UNL A   1      12.670  50.497   9.710  1.00  0.00    +0.000 C 
BRANCH   23   22
ATOM    114  H16 UNL A   1      10.738  49.971  10.334  1.00  0.00    +0.000 H 
ATOM     22  N4  UNL A   1      11.685  49.889  10.593  1.00  0.00    +0.000 N 
BRANCH   22   20
ATOM     20  C17 UNL A   1      11.963  49.211  11.758  1.00  0.00    +0.000 C 
ATOM     21  O1  UNL A   1      12.471  49.895  12.660  1.00  0.00    +0.000 O 
BRANCH   20   19
ATOM    110  H12 UNL A   1      10.646  45.192  10.125  1.00  0.00    +0.000 H 
ATOM    111  H13 UNL A   1       9.803  46.715  11.647  1.00  0.00    +0.000 H 
ATOM    112  H14 UNL A   1      10.313  47.751  10.437  1.00  0.00    +0.000 H 
ATOM     17  C15 UNL A   1      11.299  45.965  10.473  1.00  0.00    +0.000 C 
ATOM     18  N3  UNL A   1      10.612  47.076  11.141  1.00  0.00    +0.000 N 
ATOM     19  C16 UNL A   1      11.524  47.753  12.096  1.00  0.00    +0.000 C 
ATOM    142  H44 UNL A   1      12.823  46.777  13.518  1.00  0.00    +0.000 H 
ATOM    143  H45 UNL A   1      13.649  47.293  12.098  1.00  0.00    +0.000 H 
ATOM    113  H15 UNL A   1      10.902  47.884  12.957  1.00  0.00    +0.000 H 
ATOM     95  C69 UNL A   1      12.732  46.871  12.455  1.00  0.00    +0.000 C 
ATOM     96  S1  UNL A   1      12.403  45.258  11.705  1.00  0.00    +0.000 S 
BRANCH   17   16
ATOM      6  C6  UNL A   1      11.390  46.880   7.992  1.00  0.00    +0.000 C 
ATOM      7  N1  UNL A   1      12.350  47.283   7.126  1.00  0.00    +0.000 N 
ATOM      8  N2  UNL A   1      13.480  47.358   7.876  1.00  0.00    +0.000 N 
ATOM    109  H11 UNL A   1      14.065  46.590   9.785  1.00  0.00    +0.000 H 
ATOM     15  C13 UNL A   1      13.319  46.778   9.098  1.00  0.00    +0.000 C 
ATOM     16  C14 UNL A   1      11.980  46.488   9.251  1.00  0.00    +0.000 C 
BRANCH    6    5
ATOM     97  C70 UNL A   1       9.187  45.752   7.547  1.00  0.00    +0.000 C 
ATOM      2  C2  UNL A   1       7.167  47.030   7.031  1.00  0.00    +0.000 C 
ATOM      3  C3  UNL A   1       7.928  48.195   7.064  1.00  0.00    +0.000 C 
ATOM      4  C4  UNL A   1       9.294  48.134   7.359  1.00  0.00    +0.000 C 
ATOM     98  C71 UNL A   1       7.811  45.807   7.254  1.00  0.00    +0.000 C 
ATOM    102  H4  UNL A   1       7.484  49.106   6.869  1.00  0.00    +0.000 H 
ATOM      5  C5  UNL A   1       9.949  46.921   7.636  1.00  0.00    +0.000 C 
ATOM    103  H5  UNL A   1       9.839  49.010   7.376  1.00  0.00    +0.000 H 
ATOM    144  H46 UNL A   1       9.640  44.837   7.698  1.00  0.00    +0.000 H 
ATOM    145  H47 UNL A   1       7.267  44.931   7.203  1.00  0.00    +0.000 H 
BRANCH    2    1
ATOM      1  C1  UNL A   1       5.695  47.124   6.756  1.00  0.00    +0.000 C 
ATOM     99  H1  UNL A   1       5.235  46.177   6.945  1.00  0.00    +0.000 H 
ATOM    100  H2  UNL A   1       5.540  47.400   5.734  1.00  0.00    +0.000 H 
ATOM    101  H3  UNL A   1       5.260  47.865   7.395  1.00  0.00    +0.000 H 
ENDBRANCH    2    1
ENDBRANCH    6    5
BRANCH    8    9
ATOM    104  H6  UNL A   1      15.473  48.045   9.451  1.00  0.00    +0.000 H 
ATOM      9  C7  UNL A   1      14.596  48.153   7.523  1.00  0.00    +0.000 C 
ATOM     10  C8  UNL A   1      15.557  48.456   8.508  1.00  0.00    +0.000 C 
ATOM     11  C9  UNL A   1      16.619  49.307   8.211  1.00  0.00    +0.000 C 
ATOM    108  H10 UNL A   1      14.035  48.427   5.505  1.00  0.00    +0.000 H 
ATOM     13  C11 UNL A   1      15.861  49.421   5.917  1.00  0.00    +0.000 C 
ATOM     14  C12 UNL A   1      14.741  48.639   6.227  1.00  0.00    +0.000 C 
ATOM    105  H7  UNL A   1      17.283  49.588   8.950  1.00  0.00    +0.000 H 
ATOM    107  H9  UNL A   1      16.010  49.736   4.947  1.00  0.00    +0.000 H 
ATOM     12  C10 UNL A   1      16.779  49.777   6.911  1.00  0.00    +0.000 C 
ATOM    106  H8  UNL A   1      17.577  50.389   6.678  1.00  0.00    +0.000 H 
ENDBRANCH    8    9
ENDBRANCH   17   16
ENDBRANCH   20   19
ENDBRANCH   22   20
ENDBRANCH   23   22
ENDBRANCH   24   23
ENDBRANCH   25   24
ENDBRANCH   26   25
ENDBRANCH   27   26
ENDBRANCH   28   27
ENDBRANCH   29   28
ENDBRANCH   30   29
ENDBRANCH   32   30
ENDBRANCH   36   35
BRANCH   40   41
ATOM     41  C33 UNL A   1      11.765  48.535   2.224  1.00  0.00    +0.000 C 
ATOM     42  C34 UNL A   1      10.375  48.742   2.062  1.00  0.00    +0.000 C 
ATOM     43  F1  UNL A   1       9.900  49.699   1.253  1.00  0.00    +0.000 F 
ATOM     44  C35 UNL A   1       9.411  47.991   2.745  1.00  0.00    +0.000 C 
ATOM     45  F2  UNL A   1       8.111  48.281   2.591  1.00  0.00    +0.000 F 
ATOM     46  C36 UNL A   1       9.784  46.969   3.591  1.00  0.00    +0.000 C 
ATOM     47  F3  UNL A   1       8.866  46.257   4.256  1.00  0.00    +0.000 F 
ATOM     48  C37 UNL A   1      11.123  46.698   3.749  1.00  0.00    +0.000 C 
ATOM     49  F4  UNL A   1      11.515  45.706   4.562  1.00  0.00    +0.000 F 
ATOM     50  C38 UNL A   1      12.087  47.471   3.094  1.00  0.00    +0.000 C 
ATOM     51  F5  UNL A   1      13.340  47.135   3.395  1.00  0.00    +0.000 F 
ENDBRANCH   40   41
BRANCH   57   58
ATOM     65  C48 UNL A   1      17.443  46.452  -3.668  1.00  0.00    +0.000 C 
ATOM     66  F9  UNL A   1      17.356  45.794  -4.834  1.00  0.00    +0.000 F 
ATOM     67  C49 UNL A   1      16.624  47.555  -3.434  1.00  0.00    +0.000 C 
ATOM     68  F10 UNL A   1      15.728  47.864  -4.383  1.00  0.00    +0.000 F 
ATOM     58  C44 UNL A   1      16.713  48.306  -2.246  1.00  0.00    +0.000 C 
ATOM     59  C45 UNL A   1      17.636  47.862  -1.287  1.00  0.00    +0.000 C 
ATOM     60  F6  UNL A   1      17.793  48.528  -0.134  1.00  0.00    +0.000 F 
ATOM     61  C46 UNL A   1      18.424  46.731  -1.506  1.00  0.00    +0.000 C 
ATOM     62  F7  UNL A   1      19.274  46.318  -0.556  1.00  0.00    +0.000 F 
ATOM     63  C47 UNL A   1      18.340  46.038  -2.702  1.00  0.00    +0.000 C 
ATOM     64  F8  UNL A   1      19.120  44.970  -2.922  1.00  0.00    +0.000 F 
ENDBRANCH   57   58
BRANCH   72   73
ATOM     73  C53 UNL A   1      17.185  55.463  -1.754  1.00  0.00    +0.000 C 
ATOM     74  C54 UNL A   1      18.020  55.198  -0.652  1.00  0.00    +0.000 C 
ATOM     75  F11 UNL A   1      17.713  54.206   0.199  1.00  0.00    +0.000 F 
ATOM     76  C55 UNL A   1      19.228  55.868  -0.486  1.00  0.00    +0.000 C 
ATOM     77  F12 UNL A   1      20.054  55.520   0.512  1.00  0.00    +0.000 F 
ATOM     78  C56 UNL A   1      19.607  56.842  -1.394  1.00  0.00    +0.000 C 
ATOM     79  F13 UNL A   1      20.808  57.427  -1.290  1.00  0.00    +0.000 F 
ATOM     80  C57 UNL A   1      18.754  57.184  -2.434  1.00  0.00    +0.000 C 
ATOM     81  F14 UNL A   1      19.132  58.110  -3.327  1.00  0.00    +0.000 F 
ATOM     82  C58 UNL A   1      17.548  56.505  -2.612  1.00  0.00    +0.000 C 
ATOM     83  F15 UNL A   1      16.800  56.790  -3.688  1.00  0.00    +0.000 F 
ENDBRANCH   72   73
TORSDOF 19
ENDMDL
MODEL 9
REMARK VINA RESULT:      -8.2     47.649     51.288
ROOT
ATOM    130  H32 UNL A   1      18.978 -16.534  35.333  1.00  0.00    +0.000 H 
ATOM    131  H33 UNL A   1      19.370 -15.027  37.463  1.00  0.00    +0.000 H 
ATOM    132  H34 UNL A   1      20.043 -12.740  34.100  1.00  0.00    +0.000 H 
ATOM    133  H35 UNL A   1      22.660 -15.997  37.718  1.00  0.00    +0.000 H 
ATOM    134  H36 UNL A   1      22.256 -16.504  35.248  1.00  0.00    +0.000 H 
ATOM    135  H37 UNL A   1      26.265 -15.569  35.777  1.00  0.00    +0.000 H 
ATOM    136  H38 UNL A   1      24.275 -11.095  38.697  1.00  0.00    +0.000 H 
ATOM    137  H39 UNL A   1      21.904 -10.250  38.150  1.00  0.00    +0.000 H 
ATOM    138  H40 UNL A   1      21.310 -14.739  30.237  1.00  0.00    +0.000 H 
ATOM    139  H41 UNL A   1      23.806 -15.176  30.682  1.00  0.00    +0.000 H 
ATOM     36  C29 UNL A   1      24.341 -15.334  33.574  1.00  0.00    +0.000 C 
ATOM     37  C30 UNL A   1      23.089 -15.123  32.824  1.00  0.00    +0.000 C 
ATOM     38  N6  UNL A   1      21.952 -14.866  33.379  1.00  0.00    +0.000 N 
ATOM     39  C31 UNL A   1      20.990 -14.890  32.400  1.00  0.00    +0.000 C 
ATOM     40  C32 UNL A   1      19.686 -15.033  32.771  1.00  0.00    +0.000 C 
ATOM     52  C39 UNL A   1      19.517 -14.773  34.206  1.00  0.00    +0.000 C 
ATOM     53  C40 UNL A   1      19.266 -15.543  35.330  1.00  0.00    +0.000 C 
ATOM     54  C41 UNL A   1      19.475 -14.726  36.482  1.00  0.00    +0.000 C 
ATOM     55  C42 UNL A   1      19.841 -13.462  36.056  1.00  0.00    +0.000 C 
ATOM     56  N7  UNL A   1      19.839 -13.510  34.678  1.00  0.00    +0.000 N 
ATOM     57  C43 UNL A   1      20.259 -12.238  36.717  1.00  0.00    +0.000 C 
ATOM     69  C50 UNL A   1      21.503 -12.229  37.272  1.00  0.00    +0.000 C 
ATOM     70  N8  UNL A   1      22.340 -13.309  37.215  1.00  0.00    +0.000 N 
ATOM     71  C51 UNL A   1      23.505 -12.971  37.695  1.00  0.00    +0.000 C 
ATOM     72  C52 UNL A   1      24.739 -13.838  37.612  1.00  0.00    +0.000 C 
ATOM     84  C59 UNL A   1      24.552 -15.056  37.030  1.00  0.00    +0.000 C 
ATOM     85  C60 UNL A   1      23.292 -15.764  36.936  1.00  0.00    +0.000 C 
ATOM     86  C61 UNL A   1      23.101 -16.062  35.644  1.00  0.00    +0.000 C 
ATOM     87  C62 UNL A   1      24.284 -15.655  34.890  1.00  0.00    +0.000 C 
ATOM     88  N9  UNL A   1      25.291 -15.458  35.871  1.00  0.00    +0.000 N 
ATOM     89  C63 UNL A   1      23.514 -11.605  38.224  1.00  0.00    +0.000 C 
ATOM     90  C64 UNL A   1      22.269 -11.190  37.932  1.00  0.00    +0.000 C 
ATOM     91  C65 UNL A   1      21.736 -14.882  31.166  1.00  0.00    +0.000 C 
ATOM     92  C66 UNL A   1      23.042 -15.080  31.369  1.00  0.00    +0.000 C 
ENDROOT
BRANCH   36   35
ATOM     33  C26 UNL A   1      27.668 -14.071  32.474  1.00  0.00    +0.000 C 
ATOM     34  C27 UNL A   1      26.292 -14.051  32.672  1.00  0.00    +0.000 C 
ATOM    129  H31 UNL A   1      25.771 -13.161  32.653  1.00  0.00    +0.000 H 
ATOM     35  C28 UNL A   1      25.632 -15.260  32.896  1.00  0.00    +0.000 C 
ATOM    140  H42 UNL A   1      25.729 -17.362  32.649  1.00  0.00    +0.000 H 
ATOM    141  H43 UNL A   1      28.097 -17.375  32.071  1.00  0.00    +0.000 H 
ATOM    128  H30 UNL A   1      28.194 -13.194  32.333  1.00  0.00    +0.000 H 
ATOM     93  C67 UNL A   1      26.269 -16.483  32.634  1.00  0.00    +0.000 C 
ATOM     94  C68 UNL A   1      27.622 -16.504  32.355  1.00  0.00    +0.000 C 
ATOM     32  C25 UNL A   1      28.321 -15.306  32.471  1.00  0.00    +0.000 C 
BRANCH   32   30
ATOM     30  C24 UNL A   1      29.678 -15.345  33.067  1.00  0.00    +0.000 C 
ATOM     31  O2  UNL A   1      29.823 -15.461  34.261  1.00  0.00    +0.000 O 
BRANCH   30   29
ATOM     29  N5  UNL A   1      30.750 -15.330  32.172  1.00  0.00    +0.000 N 
ATOM    127  H29 UNL A   1      30.529 -15.502  31.229  1.00  0.00    +0.000 H 
BRANCH   29   28
ATOM     28  C23 UNL A   1      32.171 -15.087  32.469  1.00  0.00    +0.000 C 
ATOM    125  H27 UNL A   1      32.241 -14.180  33.031  1.00  0.00    +0.000 H 
ATOM    126  H28 UNL A   1      32.513 -15.951  33.003  1.00  0.00    +0.000 H 
BRANCH   28   27
ATOM     27  C22 UNL A   1      33.082 -14.958  31.249  1.00  0.00    +0.000 C 
ATOM    124  H26 UNL A   1      33.693 -15.835  31.281  1.00  0.00    +0.000 H 
ATOM    123  H25 UNL A   1      33.599 -14.025  31.337  1.00  0.00    +0.000 H 
BRANCH   27   26
ATOM    121  H23 UNL A   1      32.992 -15.702  29.278  1.00  0.00    +0.000 H 
ATOM     26  C21 UNL A   1      32.441 -14.993  29.861  1.00  0.00    +0.000 C 
ATOM    122  H24 UNL A   1      31.416 -15.235  30.052  1.00  0.00    +0.000 H 
BRANCH   26   25
ATOM     25  C20 UNL A   1      32.377 -13.689  29.051  1.00  0.00    +0.000 C 
ATOM    119  H21 UNL A   1      33.266 -13.148  29.300  1.00  0.00    +0.000 H 
ATOM    120  H22 UNL A   1      32.229 -14.070  28.061  1.00  0.00    +0.000 H 
BRANCH   25   24
ATOM    117  H19 UNL A   1      31.606 -11.741  28.779  1.00  0.00    +0.000 H 
ATOM    118  H20 UNL A   1      30.438 -13.163  28.616  1.00  0.00    +0.000 H 
ATOM     24  C19 UNL A   1      31.219 -12.667  29.152  1.00  0.00    +0.000 C 
BRANCH   24   23
ATOM    115  H17 UNL A   1      30.412 -13.255  31.015  1.00  0.00    +0.000 H 
ATOM    116  H18 UNL A   1      31.165 -11.616  30.947  1.00  0.00    +0.000 H 
ATOM     23  C18 UNL A   1      30.531 -12.338  30.477  1.00  0.00    +0.000 C 
BRANCH   23   22
ATOM    114  H16 UNL A   1      28.902 -11.245  31.217  1.00  0.00    +0.000 H 
ATOM     22  N4  UNL A   1      29.224 -11.699  30.406  1.00  0.00    +0.000 N 
BRANCH   22   20
ATOM     20  C17 UNL A   1      28.402 -11.678  29.302  1.00  0.00    +0.000 C 
ATOM     21  O1  UNL A   1      27.523 -12.554  29.280  1.00  0.00    +0.000 O 
BRANCH   20   19
ATOM    110  H12 UNL A   1      25.816  -8.741  27.013  1.00  0.00    +0.000 H 
ATOM    111  H13 UNL A   1      27.301 -10.423  26.453  1.00  0.00    +0.000 H 
ATOM    112  H14 UNL A   1      26.463 -11.164  27.697  1.00  0.00    +0.000 H 
ATOM     17  C15 UNL A   1      26.450  -9.126  27.783  1.00  0.00    +0.000 C 
ATOM     18  N3  UNL A   1      27.095 -10.402  27.451  1.00  0.00    +0.000 N 
ATOM     19  C16 UNL A   1      28.357 -10.561  28.215  1.00  0.00    +0.000 C 
ATOM    142  H44 UNL A   1      29.881  -9.054  28.474  1.00  0.00    +0.000 H 
ATOM    143  H45 UNL A   1      28.839  -9.196  29.837  1.00  0.00    +0.000 H 
ATOM    113  H15 UNL A   1      29.033 -10.925  27.469  1.00  0.00    +0.000 H 
ATOM     95  C69 UNL A   1      28.865  -9.218  28.767  1.00  0.00    +0.000 C 
ATOM     96  S1  UNL A   1      27.789  -7.953  28.048  1.00  0.00    +0.000 S 
BRANCH   17   16
ATOM      6  C6  UNL A   1      24.377 -10.157  29.064  1.00  0.00    +0.000 C 
ATOM      7  N1  UNL A   1      23.837 -10.059  30.302  1.00  0.00    +0.000 N 
ATOM      8  N2  UNL A   1      24.761  -9.377  31.028  1.00  0.00    +0.000 N 
ATOM    109  H11 UNL A   1      26.450  -8.160  30.537  1.00  0.00    +0.000 H 
ATOM     15  C13 UNL A   1      25.725  -8.830  30.237  1.00  0.00    +0.000 C 
ATOM     16  C14 UNL A   1      25.558  -9.332  28.964  1.00  0.00    +0.000 C 
BRANCH    6    5
ATOM     97  C70 UNL A   1      23.430 -10.573  26.773  1.00  0.00    +0.000 C 
ATOM      2  C2  UNL A   1      22.784 -12.813  26.033  1.00  0.00    +0.000 C 
ATOM      3  C3  UNL A   1      23.103 -13.294  27.300  1.00  0.00    +0.000 C 
ATOM      4  C4  UNL A   1      23.602 -12.425  28.276  1.00  0.00    +0.000 C 
ATOM     98  C71 UNL A   1      22.932 -11.443  25.784  1.00  0.00    +0.000 C 
ATOM    102  H4  UNL A   1      22.971 -14.293  27.519  1.00  0.00    +0.000 H 
ATOM      5  C5  UNL A   1      23.805 -11.056  28.031  1.00  0.00    +0.000 C 
ATOM    103  H5  UNL A   1      23.830 -12.803  29.209  1.00  0.00    +0.000 H 
ATOM    144  H46 UNL A   1      23.520  -9.566  26.567  1.00  0.00    +0.000 H 
ATOM    145  H47 UNL A   1      22.670 -11.065  24.860  1.00  0.00    +0.000 H 
BRANCH    2    1
ATOM      1  C1  UNL A   1      22.293 -13.771  24.988  1.00  0.00    +0.000 C 
ATOM     99  H1  UNL A   1      22.396 -14.774  25.347  1.00  0.00    +0.000 H 
ATOM    100  H2  UNL A   1      22.869 -13.650  24.095  1.00  0.00    +0.000 H 
ATOM    101  H3  UNL A   1      21.263 -13.571  24.777  1.00  0.00    +0.000 H 
ENDBRANCH    2    1
ENDBRANCH    6    5
BRANCH    8    9
ATOM    104  H6  UNL A   1      22.962 -10.401  32.654  1.00  0.00    +0.000 H 
ATOM      9  C7  UNL A   1      24.841  -9.439  32.439  1.00  0.00    +0.000 C 
ATOM     10  C8  UNL A   1      23.763  -9.991  33.159  1.00  0.00    +0.000 C 
ATOM     11  C9  UNL A   1      23.777  -9.985  34.553  1.00  0.00    +0.000 C 
ATOM    108  H10 UNL A   1      26.747  -8.541  32.586  1.00  0.00    +0.000 H 
ATOM     13  C11 UNL A   1      26.001  -9.035  34.507  1.00  0.00    +0.000 C 
ATOM     14  C12 UNL A   1      25.960  -8.954  33.110  1.00  0.00    +0.000 C 
ATOM    105  H7  UNL A   1      22.958 -10.322  35.083  1.00  0.00    +0.000 H 
ATOM    107  H9  UNL A   1      26.849  -8.734  35.011  1.00  0.00    +0.000 H 
ATOM     12  C10 UNL A   1      24.904  -9.521  35.226  1.00  0.00    +0.000 C 
ATOM    106  H8  UNL A   1      24.930  -9.536  36.257  1.00  0.00    +0.000 H 
ENDBRANCH    8    9
ENDBRANCH   17   16
ENDBRANCH   20   19
ENDBRANCH   22   20
ENDBRANCH   23   22
ENDBRANCH   24   23
ENDBRANCH   25   24
ENDBRANCH   26   25
ENDBRANCH   27   26
ENDBRANCH   28   27
ENDBRANCH   29   28
ENDBRANCH   30   29
ENDBRANCH   32   30
ENDBRANCH   36   35
BRANCH   40   41
ATOM     41  C33 UNL A   1      18.563 -15.558  31.890  1.00  0.00    +0.000 C 
ATOM     42  C34 UNL A   1      17.354 -14.831  31.781  1.00  0.00    +0.000 C 
ATOM     43  F1  UNL A   1      17.213 -13.619  32.336  1.00  0.00    +0.000 F 
ATOM     44  C35 UNL A   1      16.226 -15.329  31.117  1.00  0.00    +0.000 C 
ATOM     45  F2  UNL A   1      15.093 -14.613  31.104  1.00  0.00    +0.000 F 
ATOM     46  C36 UNL A   1      16.262 -16.557  30.494  1.00  0.00    +0.000 C 
ATOM     47  F3  UNL A   1      15.182 -17.044  29.870  1.00  0.00    +0.000 F 
ATOM     48  C37 UNL A   1      17.428 -17.285  30.534  1.00  0.00    +0.000 C 
ATOM     49  F4  UNL A   1      17.493 -18.481  29.931  1.00  0.00    +0.000 F 
ATOM     50  C38 UNL A   1      18.543 -16.803  31.226  1.00  0.00    +0.000 C 
ATOM     51  F5  UNL A   1      19.576 -17.645  31.233  1.00  0.00    +0.000 F 
ENDBRANCH   40   41
BRANCH   57   58
ATOM     65  C48 UNL A   1      17.350  -9.954  37.641  1.00  0.00    +0.000 C 
ATOM     66  F9  UNL A   1      16.225 -10.026  38.368  1.00  0.00    +0.000 F 
ATOM     67  C49 UNL A   1      18.133 -11.092  37.464  1.00  0.00    +0.000 C 
ATOM     68  F10 UNL A   1      17.674 -12.239  37.988  1.00  0.00    +0.000 F 
ATOM     58  C44 UNL A   1      19.346 -11.055  36.751  1.00  0.00    +0.000 C 
ATOM     59  C45 UNL A   1      19.707  -9.822  36.185  1.00  0.00    +0.000 C 
ATOM     60  F6  UNL A   1      20.854  -9.696  35.501  1.00  0.00    +0.000 F 
ATOM     61  C46 UNL A   1      18.898  -8.693  36.327  1.00  0.00    +0.000 C 
ATOM     62  F7  UNL A   1      19.258  -7.539  35.748  1.00  0.00    +0.000 F 
ATOM     63  C47 UNL A   1      17.731  -8.755  37.069  1.00  0.00    +0.000 C 
ATOM     64  F8  UNL A   1      16.972  -7.662  37.229  1.00  0.00    +0.000 F 
ENDBRANCH   57   58
BRANCH   72   73
ATOM     73  C53 UNL A   1      26.127 -13.339  37.464  1.00  0.00    +0.000 C 
ATOM     74  C54 UNL A   1      27.093 -13.768  38.394  1.00  0.00    +0.000 C 
ATOM     75  F11 UNL A   1      26.707 -14.300  39.565  1.00  0.00    +0.000 F 
ATOM     76  C55 UNL A   1      28.448 -13.761  38.080  1.00  0.00    +0.000 C 
ATOM     77  F12 UNL A   1      29.337 -14.276  38.942  1.00  0.00    +0.000 F 
ATOM     78  C56 UNL A   1      28.868 -13.290  36.847  1.00  0.00    +0.000 C 
ATOM     79  F13 UNL A   1      30.161 -13.365  36.505  1.00  0.00    +0.000 F 
ATOM     80  C57 UNL A   1      27.940 -12.777  35.953  1.00  0.00    +0.000 C 
ATOM     81  F14 UNL A   1      28.344 -12.343  34.751  1.00  0.00    +0.000 F 
ATOM     82  C58 UNL A   1      26.579 -12.794  36.259  1.00  0.00    +0.000 C 
ATOM     83  F15 UNL A   1      25.703 -12.386  35.328  1.00  0.00    +0.000 F 
ENDBRANCH   72   73
TORSDOF 19
ENDMDL
MODEL 10
REMARK VINA RESULT:      -8.2     37.142     45.366
ROOT
ATOM    130  H32 UNL A   1       7.220  28.267   4.610  1.00  0.00    +0.000 H 
ATOM    131  H33 UNL A   1       7.011  30.818   3.969  1.00  0.00    +0.000 H 
ATOM    132  H34 UNL A   1       6.216  28.556   0.615  1.00  0.00    +0.000 H 
ATOM    133  H35 UNL A   1      10.369  31.062   3.266  1.00  0.00    +0.000 H 
ATOM    134  H36 UNL A   1      10.057  28.543   2.988  1.00  0.00    +0.000 H 
ATOM    135  H37 UNL A   1      13.146  29.782   0.509  1.00  0.00    +0.000 H 
ATOM    136  H38 UNL A   1       9.494  33.855  -1.097  1.00  0.00    +0.000 H 
ATOM    137  H39 UNL A   1       6.974  33.391  -0.837  1.00  0.00    +0.000 H 
ATOM    138  H40 UNL A   1       7.967  24.394   0.244  1.00  0.00    +0.000 H 
ATOM    139  H41 UNL A   1      10.391  24.917  -0.441  1.00  0.00    +0.000 H 
ATOM     36  C29 UNL A   1      11.173  27.611   0.457  1.00  0.00    +0.000 C 
ATOM     37  C30 UNL A   1       9.917  26.855   0.620  1.00  0.00    +0.000 C 
ATOM     38  N6  UNL A   1       8.848  27.342   1.154  1.00  0.00    +0.000 N 
ATOM     39  C31 UNL A   1       7.940  26.322   1.286  1.00  0.00    +0.000 C 
ATOM     40  C32 UNL A   1       6.902  26.480   2.156  1.00  0.00    +0.000 C 
ATOM     52  C39 UNL A   1       6.747  27.889   2.537  1.00  0.00    +0.000 C 
ATOM     53  C40 UNL A   1       6.993  28.641   3.675  1.00  0.00    +0.000 C 
ATOM     54  C41 UNL A   1       6.877  30.021   3.328  1.00  0.00    +0.000 C 
ATOM     55  C42 UNL A   1       6.551  30.104   1.986  1.00  0.00    +0.000 C 
ATOM     56  N7  UNL A   1       6.458  28.804   1.536  1.00  0.00    +0.000 N 
ATOM     57  C43 UNL A   1       6.380  31.191   1.038  1.00  0.00    +0.000 C 
ATOM     69  C50 UNL A   1       7.506  31.841   0.633  1.00  0.00    +0.000 C 
ATOM     70  N8  UNL A   1       8.752  31.499   1.080  1.00  0.00    +0.000 N 
ATOM     71  C51 UNL A   1       9.644  32.186   0.422  1.00  0.00    +0.000 C 
ATOM     72  C52 UNL A   1      11.132  31.935   0.499  1.00  0.00    +0.000 C 
ATOM     84  C59 UNL A   1      11.508  30.948   1.361  1.00  0.00    +0.000 C 
ATOM     85  C60 UNL A   1      10.743  30.481   2.499  1.00  0.00    +0.000 C 
ATOM     86  C61 UNL A   1      10.613  29.155   2.370  1.00  0.00    +0.000 C 
ATOM     87  C62 UNL A   1      11.386  28.718   1.210  1.00  0.00    +0.000 C 
ATOM     88  N9  UNL A   1      12.251  29.806   0.919  1.00  0.00    +0.000 N 
ATOM     89  C63 UNL A   1       9.036  33.157  -0.491  1.00  0.00    +0.000 C 
ATOM     90  C64 UNL A   1       7.727  32.899  -0.333  1.00  0.00    +0.000 C 
ATOM     91  C65 UNL A   1       8.483  25.254   0.485  1.00  0.00    +0.000 C 
ATOM     92  C66 UNL A   1       9.735  25.510   0.091  1.00  0.00    +0.000 C 
ENDROOT
BRANCH   36   35
ATOM     33  C26 UNL A   1      13.783  25.452  -1.090  1.00  0.00    +0.000 C 
ATOM     34  C27 UNL A   1      13.160  26.192  -0.092  1.00  0.00    +0.000 C 
ATOM    129  H31 UNL A   1      13.398  26.041   0.901  1.00  0.00    +0.000 H 
ATOM     35  C28 UNL A   1      12.206  27.141  -0.460  1.00  0.00    +0.000 C 
ATOM    140  H42 UNL A   1      11.497  28.368  -2.036  1.00  0.00    +0.000 H 
ATOM    141  H43 UNL A   1      12.776  27.216  -3.762  1.00  0.00    +0.000 H 
ATOM    128  H30 UNL A   1      14.473  24.723  -0.854  1.00  0.00    +0.000 H 
ATOM     93  C67 UNL A   1      12.089  27.558  -1.796  1.00  0.00    +0.000 C 
ATOM     94  C68 UNL A   1      12.772  26.878  -2.787  1.00  0.00    +0.000 C 
ATOM     32  C25 UNL A   1      13.453  25.720  -2.421  1.00  0.00    +0.000 C 
BRANCH   32   30
ATOM     30  C24 UNL A   1      13.406  24.562  -3.345  1.00  0.00    +0.000 C 
ATOM     31  O2  UNL A   1      12.456  24.393  -4.072  1.00  0.00    +0.000 O 
BRANCH   30   29
ATOM     29  N5  UNL A   1      14.542  23.751  -3.382  1.00  0.00    +0.000 N 
ATOM    127  H29 UNL A   1      15.382  24.192  -3.642  1.00  0.00    +0.000 H 
BRANCH   29   28
ATOM     28  C23 UNL A   1      14.635  22.313  -3.078  1.00  0.00    +0.000 C 
ATOM    125  H27 UNL A   1      14.541  22.193  -2.019  1.00  0.00    +0.000 H 
ATOM    126  H28 UNL A   1      13.851  21.843  -3.635  1.00  0.00    +0.000 H 
BRANCH   28   27
ATOM     27  C22 UNL A   1      15.931  21.635  -3.517  1.00  0.00    +0.000 C 
ATOM    124  H26 UNL A   1      16.222  22.167  -4.398  1.00  0.00    +0.000 H 
ATOM    123  H25 UNL A   1      15.715  20.594  -3.650  1.00  0.00    +0.000 H 
BRANCH   27   26
ATOM    121  H23 UNL A   1      16.788  22.010  -1.627  1.00  0.00    +0.000 H 
ATOM     26  C21 UNL A   1      17.147  21.732  -2.596  1.00  0.00    +0.000 C 
ATOM    122  H24 UNL A   1      17.609  20.770  -2.670  1.00  0.00    +0.000 H 
BRANCH   26   25
ATOM     25  C20 UNL A   1      18.268  22.717  -2.964  1.00  0.00    +0.000 C 
ATOM    119  H21 UNL A   1      18.055  23.042  -3.962  1.00  0.00    +0.000 H 
ATOM    120  H22 UNL A   1      18.216  23.403  -2.144  1.00  0.00    +0.000 H 
BRANCH   25   24
ATOM    117  H19 UNL A   1      19.835  21.352  -2.582  1.00  0.00    +0.000 H 
ATOM    118  H20 UNL A   1      20.059  22.561  -3.961  1.00  0.00    +0.000 H 
ATOM     24  C19 UNL A   1      19.773  22.355  -2.951  1.00  0.00    +0.000 C 
BRANCH   24   23
ATOM    115  H17 UNL A   1      20.479  23.189  -1.142  1.00  0.00    +0.000 H 
ATOM    116  H18 UNL A   1      21.735  22.663  -2.328  1.00  0.00    +0.000 H 
ATOM     23  C18 UNL A   1      20.803  23.163  -2.161  1.00  0.00    +0.000 C 
BRANCH   23   22
ATOM    114  H16 UNL A   1      20.426  25.225  -2.227  1.00  0.00    +0.000 H 
ATOM     22  N4  UNL A   1      21.034  24.537  -2.582  1.00  0.00    +0.000 N 
BRANCH   22   20
ATOM     20  C17 UNL A   1      22.031  24.957  -3.435  1.00  0.00    +0.000 C 
ATOM     21  O1  UNL A   1      22.671  24.050  -3.989  1.00  0.00    +0.000 O 
BRANCH   20   19
ATOM    110  H12 UNL A   1      21.196  29.348  -2.676  1.00  0.00    +0.000 H 
ATOM    111  H13 UNL A   1      20.972  27.908  -4.472  1.00  0.00    +0.000 H 
ATOM    112  H14 UNL A   1      20.405  26.936  -3.235  1.00  0.00    +0.000 H 
ATOM     17  C15 UNL A   1      21.687  28.399  -2.621  1.00  0.00    +0.000 C 
ATOM     18  N3  UNL A   1      21.219  27.421  -3.611  1.00  0.00    +0.000 N 
ATOM     19  C16 UNL A   1      22.280  26.425  -3.899  1.00  0.00    +0.000 C 
ATOM    142  H44 UNL A   1      24.361  26.861  -4.275  1.00  0.00    +0.000 H 
ATOM    143  H45 UNL A   1      24.067  26.334  -2.663  1.00  0.00    +0.000 H 
ATOM    113  H15 UNL A   1      22.242  26.349  -4.966  1.00  0.00    +0.000 H 
ATOM     95  C69 UNL A   1      23.668  26.925  -3.462  1.00  0.00    +0.000 C 
ATOM     96  S1  UNL A   1      23.435  28.649  -2.966  1.00  0.00    +0.000 S 
BRANCH   17   16
ATOM      6  C6  UNL A   1      20.136  27.909  -0.534  1.00  0.00    +0.000 C 
ATOM      7  N1  UNL A   1      20.281  27.350   0.690  1.00  0.00    +0.000 N 
ATOM      8  N2  UNL A   1      21.516  26.784   0.666  1.00  0.00    +0.000 N 
ATOM    109  H11 UNL A   1      23.239  27.003  -0.583  1.00  0.00    +0.000 H 
ATOM     15  C13 UNL A   1      22.237  27.185  -0.417  1.00  0.00    +0.000 C 
ATOM     16  C14 UNL A   1      21.388  27.878  -1.254  1.00  0.00    +0.000 C 
BRANCH    6    5
ATOM     97  C70 UNL A   1      18.288  29.613  -0.551  1.00  0.00    +0.000 C 
ATOM      2  C2  UNL A   1      16.339  29.386  -2.011  1.00  0.00    +0.000 C 
ATOM      3  C3  UNL A   1      16.836  28.159  -2.439  1.00  0.00    +0.000 C 
ATOM      4  C4  UNL A   1      18.055  27.684  -1.944  1.00  0.00    +0.000 C 
ATOM     98  C71 UNL A   1      17.063  30.100  -1.048  1.00  0.00    +0.000 C 
ATOM    102  H4  UNL A   1      16.304  27.597  -3.122  1.00  0.00    +0.000 H 
ATOM      5  C5  UNL A   1      18.823  28.407  -1.015  1.00  0.00    +0.000 C 
ATOM    103  H5  UNL A   1      18.404  26.770  -2.274  1.00  0.00    +0.000 H 
ATOM    144  H46 UNL A   1      18.798  30.154   0.165  1.00  0.00    +0.000 H 
ATOM    145  H47 UNL A   1      16.693  30.997  -0.698  1.00  0.00    +0.000 H 
BRANCH    2    1
ATOM      1  C1  UNL A   1      15.052  29.897  -2.589  1.00  0.00    +0.000 C 
ATOM     99  H1  UNL A   1      15.249  30.755  -3.198  1.00  0.00    +0.000 H 
ATOM    100  H2  UNL A   1      14.387  30.166  -1.796  1.00  0.00    +0.000 H 
ATOM    101  H3  UNL A   1      14.602  29.132  -3.187  1.00  0.00    +0.000 H 
ENDBRANCH    2    1
ENDBRANCH    6    5
BRANCH    8    9
ATOM    104  H6  UNL A   1      23.939  26.326   1.586  1.00  0.00    +0.000 H 
ATOM      9  C7  UNL A   1      21.905  25.728   1.524  1.00  0.00    +0.000 C 
ATOM     10  C8  UNL A   1      23.260  25.611   1.890  1.00  0.00    +0.000 C 
ATOM     11  C9  UNL A   1      23.685  24.531   2.662  1.00  0.00    +0.000 C 
ATOM    108  H10 UNL A   1      19.976  24.889   1.719  1.00  0.00    +0.000 H 
ATOM     13  C11 UNL A   1      21.392  23.782   2.841  1.00  0.00    +0.000 C 
ATOM     14  C12 UNL A   1      20.968  24.811   1.993  1.00  0.00    +0.000 C 
ATOM    105  H7  UNL A   1      24.688  24.404   2.871  1.00  0.00    +0.000 H 
ATOM    107  H9  UNL A   1      20.699  23.133   3.242  1.00  0.00    +0.000 H 
ATOM     12  C10 UNL A   1      22.748  23.626   3.150  1.00  0.00    +0.000 C 
ATOM    106  H8  UNL A   1      23.053  22.837   3.742  1.00  0.00    +0.000 H 
ENDBRANCH    8    9
ENDBRANCH   17   16
ENDBRANCH   20   19
ENDBRANCH   22   20
ENDBRANCH   23   22
ENDBRANCH   24   23
ENDBRANCH   25   24
ENDBRANCH   26   25
ENDBRANCH   27   26
ENDBRANCH   28   27
ENDBRANCH   29   28
ENDBRANCH   30   29
ENDBRANCH   32   30
ENDBRANCH   36   35
BRANCH   40   41
ATOM     41  C33 UNL A   1       6.102  25.359   2.802  1.00  0.00    +0.000 C 
ATOM     42  C34 UNL A   1       5.097  24.693   2.062  1.00  0.00    +0.000 C 
ATOM     43  F1  UNL A   1       4.910  24.937   0.757  1.00  0.00    +0.000 F 
ATOM     44  C35 UNL A   1       4.221  23.764   2.637  1.00  0.00    +0.000 C 
ATOM     45  F2  UNL A   1       3.251  23.216   1.892  1.00  0.00    +0.000 F 
ATOM     46  C36 UNL A   1       4.332  23.424   3.968  1.00  0.00    +0.000 C 
ATOM     47  F3  UNL A   1       3.487  22.546   4.525  1.00  0.00    +0.000 F 
ATOM     48  C37 UNL A   1       5.321  24.010   4.720  1.00  0.00    +0.000 C 
ATOM     49  F4  UNL A   1       5.456  23.693   6.016  1.00  0.00    +0.000 F 
ATOM     50  C38 UNL A   1       6.174  24.963   4.154  1.00  0.00    +0.000 C 
ATOM     51  F5  UNL A   1       7.038  25.492   5.020  1.00  0.00    +0.000 F 
ENDBRANCH   40   41
BRANCH   57   58
ATOM     65  C48 UNL A   1       3.120  33.088   0.476  1.00  0.00    +0.000 C 
ATOM     66  F9  UNL A   1       2.514  34.181   0.961  1.00  0.00    +0.000 F 
ATOM     67  C49 UNL A   1       4.317  32.653   1.041  1.00  0.00    +0.000 C 
ATOM     68  F10 UNL A   1       4.773  33.330   2.106  1.00  0.00    +0.000 F 
ATOM     58  C44 UNL A   1       5.015  31.540   0.536  1.00  0.00    +0.000 C 
ATOM     59  C45 UNL A   1       4.423  30.859  -0.539  1.00  0.00    +0.000 C 
ATOM     60  F6  UNL A   1       5.029  29.796  -1.089  1.00  0.00    +0.000 F 
ATOM     61  C46 UNL A   1       3.202  31.270  -1.075  1.00  0.00    +0.000 C 
ATOM     62  F7  UNL A   1       2.649  30.579  -2.082  1.00  0.00    +0.000 F 
ATOM     63  C47 UNL A   1       2.561  32.394  -0.579  1.00  0.00    +0.000 C 
ATOM     64  F8  UNL A   1       1.403  32.804  -1.116  1.00  0.00    +0.000 F 
ENDBRANCH   57   58
BRANCH   72   73
ATOM     73  C53 UNL A   1      12.089  32.117  -0.618  1.00  0.00    +0.000 C 
ATOM     74  C54 UNL A   1      11.830  31.453  -1.833  1.00  0.00    +0.000 C 
ATOM     75  F11 UNL A   1      10.972  30.421  -1.863  1.00  0.00    +0.000 F 
ATOM     76  C55 UNL A   1      12.358  31.917  -3.034  1.00  0.00    +0.000 C 
ATOM     77  F12 UNL A   1      12.009  31.330  -4.188  1.00  0.00    +0.000 F 
ATOM     78  C56 UNL A   1      13.184  33.028  -3.040  1.00  0.00    +0.000 C 
ATOM     79  F13 UNL A   1      13.622  33.532  -4.202  1.00  0.00    +0.000 F 
ATOM     80  C57 UNL A   1      13.526  33.640  -1.843  1.00  0.00    +0.000 C 
ATOM     81  F14 UNL A   1      14.306  34.730  -1.852  1.00  0.00    +0.000 F 
ATOM     82  C58 UNL A   1      12.988  33.186  -0.638  1.00  0.00    +0.000 C 
ATOM     83  F15 UNL A   1      13.258  33.867   0.486  1.00  0.00    +0.000 F 
ENDBRANCH   72   73
TORSDOF 19
ENDMDL
