MODEL 1
REMARK VINA RESULT:     -11.7      0.000      0.000
ROOT
ATOM     28  C19 UNL A   1      53.188  20.044  11.581  1.00  0.00    +0.000 C 
ATOM     29  C20 UNL A   1      52.936  20.655  12.932  1.00  0.00    +0.000 C 
ATOM     30  N5  UNL A   1      53.759  20.801  13.941  1.00  0.00    +0.000 N 
ATOM     31  C21 UNL A   1      53.038  21.463  14.926  1.00  0.00    +0.000 C 
ATOM     32  C22 UNL A   1      53.427  21.795  16.180  1.00  0.00    +0.000 C 
ATOM     44  C29 UNL A   1      54.722  21.492  16.733  1.00  0.00    +0.000 C 
ATOM     45  C30 UNL A   1      55.185  21.719  18.018  1.00  0.00    +0.000 C 
ATOM     46  C31 UNL A   1      56.520  21.307  18.081  1.00  0.00    +0.000 C 
ATOM     47  C32 UNL A   1      56.873  20.774  16.851  1.00  0.00    +0.000 C 
ATOM     48  N6  UNL A   1      55.761  20.899  16.033  1.00  0.00    +0.000 N 
ATOM     49  C33 UNL A   1      58.129  20.195  16.452  1.00  0.00    +0.000 C 
ATOM     61  C40 UNL A   1      58.392  19.684  15.224  1.00  0.00    +0.000 C 
ATOM     62  N7  UNL A   1      57.560  19.599  14.116  1.00  0.00    +0.000 N 
ATOM     63  C41 UNL A   1      58.276  19.046  13.168  1.00  0.00    +0.000 C 
ATOM     64  C42 UNL A   1      57.876  18.684  11.764  1.00  0.00    +0.000 C 
ATOM     76  C49 UNL A   1      56.610  18.907  11.362  1.00  0.00    +0.000 C 
ATOM     77  C50 UNL A   1      56.072  18.591  10.043  1.00  0.00    +0.000 C 
ATOM     78  C51 UNL A   1      54.791  18.985   9.987  1.00  0.00    +0.000 C 
ATOM     79  C52 UNL A   1      54.406  19.553  11.280  1.00  0.00    +0.000 C 
ATOM     80  N8  UNL A   1      55.548  19.462  12.036  1.00  0.00    +0.000 N 
ATOM     81  C53 UNL A   1      59.658  18.741  13.562  1.00  0.00    +0.000 C 
ATOM     82  C54 UNL A   1      59.663  19.109  14.835  1.00  0.00    +0.000 C 
ATOM     83  C55 UNL A   1      51.726  21.735  14.377  1.00  0.00    +0.000 C 
ATOM     84  C56 UNL A   1      51.591  21.199  13.173  1.00  0.00    +0.000 C 
ATOM    117  H22 UNL A   1      54.639  22.122  18.795  1.00  0.00    +0.000 H 
ATOM    118  H23 UNL A   1      57.138  21.385  18.904  1.00  0.00    +0.000 H 
ATOM    119  H24 UNL A   1      55.716  20.609  15.093  1.00  0.00    +0.000 H 
ATOM    120  H25 UNL A   1      56.594  18.138   9.277  1.00  0.00    +0.000 H 
ATOM    121  H26 UNL A   1      54.175  18.901   9.163  1.00  0.00    +0.000 H 
ATOM    122  H27 UNL A   1      55.601  19.764  12.971  1.00  0.00    +0.000 H 
ATOM    123  H28 UNL A   1      60.425  18.344  12.997  1.00  0.00    +0.000 H 
ATOM    124  H29 UNL A   1      60.469  18.999  15.469  1.00  0.00    +0.000 H 
ATOM    125  H30 UNL A   1      50.992  22.276  14.862  1.00  0.00    +0.000 H 
ATOM    126  H31 UNL A   1      50.759  21.171  12.563  1.00  0.00    +0.000 H 
ENDROOT
BRANCH   28   27
ATOM    115  H20 UNL A   1      50.686  21.964   8.205  1.00  0.00    +0.000 H 
ATOM    116  H21 UNL A   1      52.522  21.958   9.791  1.00  0.00    +0.000 H 
ATOM     85  C57 UNL A   1      51.302  18.894  10.405  1.00  0.00    +0.000 C 
ATOM     86  C58 UNL A   1      50.301  18.868   9.435  1.00  0.00    +0.000 C 
ATOM     24  C15 UNL A   1      50.039  20.008   8.670  1.00  0.00    +0.000 C 
ATOM     25  C16 UNL A   1      50.856  21.135   8.795  1.00  0.00    +0.000 C 
ATOM     26  C17 UNL A   1      51.902  21.137   9.719  1.00  0.00    +0.000 C 
ATOM     27  C18 UNL A   1      52.117  20.027  10.552  1.00  0.00    +0.000 C 
ATOM    127  H32 UNL A   1      51.445  18.075  11.018  1.00  0.00    +0.000 H 
ATOM    128  H33 UNL A   1      49.754  18.005   9.281  1.00  0.00    +0.000 H 
BRANCH   24   22
ATOM     22  C14 UNL A   1      48.926  20.046   7.695  1.00  0.00    +0.000 C 
ATOM     23  O4  UNL A   1      48.395  21.118   7.420  1.00  0.00    +0.000 O 
BRANCH   22   21
ATOM    114  H19 UNL A   1      47.559  18.626   7.354  1.00  0.00    +0.000 H 
ATOM     21  N4  UNL A   1      48.475  18.890   7.109  1.00  0.00    +0.000 N 
BRANCH   21   20
ATOM    113  H18 UNL A   1      49.439  17.124   6.724  1.00  0.00    +0.000 H 
ATOM     20  C13 UNL A   1      49.149  18.000   6.182  1.00  0.00    +0.000 C 
ATOM    112  H17 UNL A   1      49.998  18.507   5.775  1.00  0.00    +0.000 H 
BRANCH   20   19
ATOM     19  C12 UNL A   1      48.244  17.561   5.035  1.00  0.00    +0.000 C 
ATOM    110  H15 UNL A   1      48.850  17.449   4.160  1.00  0.00    +0.000 H 
ATOM    111  H16 UNL A   1      47.783  16.650   5.354  1.00  0.00    +0.000 H 
BRANCH   19   18
ATOM     18  C11 UNL A   1      47.100  18.521   4.699  1.00  0.00    +0.000 C 
ATOM    108  H13 UNL A   1      46.307  18.344   5.394  1.00  0.00    +0.000 H 
ATOM    109  H14 UNL A   1      47.519  19.505   4.760  1.00  0.00    +0.000 H 
BRANCH   18   17
ATOM     17  C10 UNL A   1      46.525  18.399   3.285  1.00  0.00    +0.000 C 
ATOM    106  H11 UNL A   1      46.759  19.298   2.754  1.00  0.00    +0.000 H 
ATOM    107  H12 UNL A   1      46.968  17.522   2.861  1.00  0.00    +0.000 H 
BRANCH   17   16
ATOM    105  H10 UNL A   1      44.688  17.966   4.204  1.00  0.00    +0.000 H 
ATOM    104  H9  UNL A   1      44.822  17.394   2.514  1.00  0.00    +0.000 H 
ATOM     16  C9  UNL A   1      45.012  18.187   3.207  1.00  0.00    +0.000 C 
BRANCH   16   15
ATOM    103  H8  UNL A   1      44.700  19.837   1.907  1.00  0.00    +0.000 H 
ATOM    102  H7  UNL A   1      44.174  20.115   3.563  1.00  0.00    +0.000 H 
ATOM     15  C8  UNL A   1      44.214  19.409   2.759  1.00  0.00    +0.000 C 
BRANCH   15   14
ATOM    101  H6  UNL A   1      42.722  19.052   1.410  1.00  0.00    +0.000 H 
ATOM     14  N3  UNL A   1      42.865  19.042   2.383  1.00  0.00    +0.000 N 
BRANCH   14   12
ATOM     12  C7  UNL A   1      41.740  18.681   3.082  1.00  0.00    +0.000 C 
ATOM     13  O3  UNL A   1      41.864  17.814   3.945  1.00  0.00    +0.000 O 
BRANCH   12   11
ATOM    129  H34 UNL A   1      39.121  18.688   4.460  1.00  0.00    +0.000 H 
ATOM    130  H35 UNL A   1      38.927  17.656   3.135  1.00  0.00    +0.000 H 
ATOM    131  H36 UNL A   1      37.365  19.189   2.173  1.00  0.00    +0.000 H 
ATOM      9  N1  UNL A   1      38.878  20.668   2.136  1.00  0.00    +0.000 N 
ATOM     10  N2  UNL A   1      40.193  20.284   2.053  1.00  0.00    +0.000 N 
ATOM     11  C6  UNL A   1      40.352  19.248   2.819  1.00  0.00    +0.000 C 
ATOM     87  C59 UNL A   1      39.103  18.680   3.389  1.00  0.00    +0.000 C 
ATOM     88  C60 UNL A   1      38.061  19.656   2.838  1.00  0.00    +0.000 C 
BRANCH    9    8
ATOM     99  H4  UNL A   1      38.810  23.365  -1.564  1.00  0.00    +0.000 H 
ATOM    100  H5  UNL A   1      39.823  22.580   0.501  1.00  0.00    +0.000 H 
ATOM      5  C2  UNL A   1      37.088  22.152  -1.382  1.00  0.00    +0.000 C 
ATOM      6  C3  UNL A   1      38.331  22.656  -0.987  1.00  0.00    +0.000 C 
ATOM      7  C4  UNL A   1      38.917  22.193   0.196  1.00  0.00    +0.000 C 
ATOM    136  H41 UNL A   1      35.515  20.826  -0.903  1.00  0.00    +0.000 H 
ATOM    135  H40 UNL A   1      36.551  20.022   1.134  1.00  0.00    +0.000 H 
ATOM      8  C5  UNL A   1      38.289  21.208   0.974  1.00  0.00    +0.000 C 
ATOM     94  C65 UNL A   1      37.037  20.730   0.560  1.00  0.00    +0.000 C 
ATOM     95  C66 UNL A   1      36.435  21.191  -0.610  1.00  0.00    +0.000 C 
BRANCH    5    2
ATOM      2  S1  UNL A   1      36.346  22.716  -2.893  1.00  0.00    +0.000 S 
ATOM      3  O1  UNL A   1      36.835  21.868  -3.967  1.00  0.00    +0.000 O 
ATOM      4  O2  UNL A   1      36.529  24.152  -2.939  1.00  0.00    +0.000 O 
BRANCH    2    1
ATOM      1  C1  UNL A   1      34.618  22.373  -2.698  1.00  0.00    +0.000 C 
ATOM     98  H3  UNL A   1      34.279  21.771  -3.515  1.00  0.00    +0.000 H 
ATOM     97  H2  UNL A   1      34.460  21.848  -1.779  1.00  0.00    +0.000 H 
ATOM     96  H1  UNL A   1      34.071  23.293  -2.681  1.00  0.00    +0.000 H 
ENDBRANCH    2    1
ENDBRANCH    5    2
ENDBRANCH    9    8
BRANCH   88   89
ATOM    132  H37 UNL A   1      37.361  22.309   3.736  1.00  0.00    +0.000 H 
ATOM    133  H38 UNL A   1      35.619  22.618   5.603  1.00  0.00    +0.000 H 
ATOM    134  H39 UNL A   1      34.635  20.410   6.355  1.00  0.00    +0.000 H 
ATOM     89  C61 UNL A   1      37.092  20.195   3.881  1.00  0.00    +0.000 C 
ATOM     90  C62 UNL A   1      36.872  21.526   4.197  1.00  0.00    +0.000 C 
ATOM     91  C63 UNL A   1      35.901  21.701   5.225  1.00  0.00    +0.000 C 
ATOM     92  C64 UNL A   1      35.385  20.500   5.651  1.00  0.00    +0.000 C 
ATOM     93  S2  UNL A   1      36.135  19.176   4.882  1.00  0.00    +0.000 S 
ENDBRANCH   88   89
ENDBRANCH   12   11
ENDBRANCH   14   12
ENDBRANCH   15   14
ENDBRANCH   16   15
ENDBRANCH   17   16
ENDBRANCH   18   17
ENDBRANCH   19   18
ENDBRANCH   20   19
ENDBRANCH   21   20
ENDBRANCH   22   21
ENDBRANCH   24   22
ENDBRANCH   28   27
BRANCH   32   33
ATOM     33  C23 UNL A   1      52.442  22.522  17.048  1.00  0.00    +0.000 C 
ATOM     34  C24 UNL A   1      51.697  21.856  18.034  1.00  0.00    +0.000 C 
ATOM     35  F1  UNL A   1      51.806  20.527  18.181  1.00  0.00    +0.000 F 
ATOM     36  C25 UNL A   1      50.809  22.550  18.852  1.00  0.00    +0.000 C 
ATOM     37  F2  UNL A   1      50.077  21.886  19.757  1.00  0.00    +0.000 F 
ATOM     38  C26 UNL A   1      50.674  23.924  18.727  1.00  0.00    +0.000 C 
ATOM     39  F3  UNL A   1      49.829  24.592  19.523  1.00  0.00    +0.000 F 
ATOM     40  C27 UNL A   1      51.414  24.606  17.772  1.00  0.00    +0.000 C 
ATOM     41  F4  UNL A   1      51.295  25.936  17.657  1.00  0.00    +0.000 F 
ATOM     42  C28 UNL A   1      52.280  23.911  16.932  1.00  0.00    +0.000 C 
ATOM     43  F5  UNL A   1      52.973  24.597  16.011  1.00  0.00    +0.000 F 
ENDBRANCH   32   33
BRANCH   49   50
ATOM     50  C34 UNL A   1      59.226  20.127  17.473  1.00  0.00    +0.000 C 
ATOM     51  C35 UNL A   1      60.016  21.244  17.781  1.00  0.00    +0.000 C 
ATOM     52  F6  UNL A   1      59.832  22.402  17.128  1.00  0.00    +0.000 F 
ATOM     53  C36 UNL A   1      61.028  21.164  18.734  1.00  0.00    +0.000 C 
ATOM     54  F7  UNL A   1      61.804  22.229  18.975  1.00  0.00    +0.000 F 
ATOM     55  C37 UNL A   1      61.246  19.979  19.421  1.00  0.00    +0.000 C 
ATOM     56  F8  UNL A   1      62.218  19.906  20.341  1.00  0.00    +0.000 F 
ATOM     57  C38 UNL A   1      60.463  18.868  19.148  1.00  0.00    +0.000 C 
ATOM     58  F9  UNL A   1      60.663  17.727  19.821  1.00  0.00    +0.000 F 
ATOM     59  C39 UNL A   1      59.471  18.936  18.174  1.00  0.00    +0.000 C 
ATOM     60  F10 UNL A   1      58.739  17.840  17.923  1.00  0.00    +0.000 F 
ENDBRANCH   49   50
BRANCH   64   65
ATOM     65  C43 UNL A   1      58.854  18.068  10.829  1.00  0.00    +0.000 C 
ATOM     66  C44 UNL A   1      59.635  18.860   9.976  1.00  0.00    +0.000 C 
ATOM     67  F11 UNL A   1      59.496  20.193   9.989  1.00  0.00    +0.000 F 
ATOM     68  C45 UNL A   1      60.527  18.284   9.074  1.00  0.00    +0.000 C 
ATOM     69  F12 UNL A   1      61.222  19.062   8.235  1.00  0.00    +0.000 F 
ATOM     70  C46 UNL A   1      60.679  16.906   9.031  1.00  0.00    +0.000 C 
ATOM     71  F13 UNL A   1      61.539  16.352   8.164  1.00  0.00    +0.000 F 
ATOM     72  C47 UNL A   1      59.935  16.103   9.881  1.00  0.00    +0.000 C 
ATOM     73  F14 UNL A   1      60.091  14.773   9.853  1.00  0.00    +0.000 F 
ATOM     74  C48 UNL A   1      59.021  16.677  10.763  1.00  0.00    +0.000 C 
ATOM     75  F15 UNL A   1      58.303  15.874  11.562  1.00  0.00    +0.000 F 
ENDBRANCH   64   65
TORSDOF 19
ENDMDL
MODEL 2
REMARK VINA RESULT:     -11.1     45.491     50.041
ROOT
ATOM     28  C19 UNL A   1      13.934  54.092   5.050  1.00  0.00    +0.000 C 
ATOM     29  C20 UNL A   1      13.556  52.636   5.073  1.00  0.00    +0.000 C 
ATOM     30  N5  UNL A   1      13.940  51.669   4.278  1.00  0.00    +0.000 N 
ATOM     31  C21 UNL A   1      13.335  50.516   4.763  1.00  0.00    +0.000 C 
ATOM     32  C22 UNL A   1      13.374  49.262   4.252  1.00  0.00    +0.000 C 
ATOM     44  C29 UNL A   1      14.080  48.897   3.052  1.00  0.00    +0.000 C 
ATOM     45  C30 UNL A   1      14.117  47.671   2.412  1.00  0.00    +0.000 C 
ATOM     46  C31 UNL A   1      14.974  47.776   1.311  1.00  0.00    +0.000 C 
ATOM     47  C32 UNL A   1      15.429  49.083   1.234  1.00  0.00    +0.000 C 
ATOM     48  N6  UNL A   1      14.876  49.758   2.311  1.00  0.00    +0.000 N 
ATOM     49  C33 UNL A   1      16.302  49.672   0.252  1.00  0.00    +0.000 C 
ATOM     61  C40 UNL A   1      16.695  50.969   0.242  1.00  0.00    +0.000 C 
ATOM     62  N7  UNL A   1      16.367  51.989   1.126  1.00  0.00    +0.000 N 
ATOM     63  C41 UNL A   1      17.007  53.051   0.705  1.00  0.00    +0.000 C 
ATOM     64  C42 UNL A   1      16.998  54.449   1.262  1.00  0.00    +0.000 C 
ATOM     76  C49 UNL A   1      16.224  54.726   2.328  1.00  0.00    +0.000 C 
ATOM     77  C50 UNL A   1      16.096  56.034   2.964  1.00  0.00    +0.000 C 
ATOM     78  C51 UNL A   1      15.271  55.930   4.017  1.00  0.00    +0.000 C 
ATOM     79  C52 UNL A   1      14.785  54.552   4.112  1.00  0.00    +0.000 C 
ATOM     80  N8  UNL A   1      15.400  53.911   3.066  1.00  0.00    +0.000 N 
ATOM     81  C53 UNL A   1      17.839  52.818  -0.484  1.00  0.00    +0.000 C 
ATOM     82  C54 UNL A   1      17.577  51.546  -0.750  1.00  0.00    +0.000 C 
ATOM     83  C55 UNL A   1      12.598  50.894   5.950  1.00  0.00    +0.000 C 
ATOM     84  C56 UNL A   1      12.650  52.204   6.148  1.00  0.00    +0.000 C 
ATOM    117  H22 UNL A   1      13.602  46.824   2.698  1.00  0.00    +0.000 H 
ATOM    118  H23 UNL A   1      15.224  47.011   0.665  1.00  0.00    +0.000 H 
ATOM    119  H24 UNL A   1      15.027  50.709   2.519  1.00  0.00    +0.000 H 
ATOM    120  H25 UNL A   1      16.564  56.899   2.653  1.00  0.00    +0.000 H 
ATOM    121  H26 UNL A   1      15.020  56.698   4.658  1.00  0.00    +0.000 H 
ATOM    122  H27 UNL A   1      15.264  52.957   2.864  1.00  0.00    +0.000 H 
ATOM    123  H28 UNL A   1      18.462  53.472  -0.982  1.00  0.00    +0.000 H 
ATOM    124  H29 UNL A   1      17.955  51.033  -1.561  1.00  0.00    +0.000 H 
ATOM    125  H30 UNL A   1      12.098  50.230   6.562  1.00  0.00    +0.000 H 
ATOM    126  H31 UNL A   1      12.177  52.772   6.868  1.00  0.00    +0.000 H 
ENDROOT
BRANCH   28   27
ATOM    115  H20 UNL A   1      10.759  56.939   6.827  1.00  0.00    +0.000 H 
ATOM    116  H21 UNL A   1      11.532  55.326   5.187  1.00  0.00    +0.000 H 
ATOM     85  C57 UNL A   1      14.216  55.339   7.201  1.00  0.00    +0.000 C 
ATOM     86  C58 UNL A   1      13.736  56.201   8.186  1.00  0.00    +0.000 C 
ATOM     24  C15 UNL A   1      12.497  56.829   8.022  1.00  0.00    +0.000 C 
ATOM     25  C16 UNL A   1      11.689  56.503   6.930  1.00  0.00    +0.000 C 
ATOM     26  C17 UNL A   1      12.141  55.587   5.978  1.00  0.00    +0.000 C 
ATOM     27  C18 UNL A   1      13.420  55.019   6.090  1.00  0.00    +0.000 C 
ATOM    127  H32 UNL A   1      15.161  54.934   7.289  1.00  0.00    +0.000 H 
ATOM    128  H33 UNL A   1      14.294  56.374   9.036  1.00  0.00    +0.000 H 
BRANCH   24   22
ATOM     22  C14 UNL A   1      11.996  57.818   9.003  1.00  0.00    +0.000 C 
ATOM     23  O4  UNL A   1      12.261  59.008   8.855  1.00  0.00    +0.000 O 
BRANCH   22   21
ATOM    114  H19 UNL A   1      11.087  58.106  10.761  1.00  0.00    +0.000 H 
ATOM     21  N4  UNL A   1      11.253  57.412  10.082  1.00  0.00    +0.000 N 
BRANCH   21   20
ATOM    113  H18 UNL A   1      10.429  55.650   9.437  1.00  0.00    +0.000 H 
ATOM     20  C13 UNL A   1      10.676  56.113  10.371  1.00  0.00    +0.000 C 
ATOM    112  H17 UNL A   1       9.808  56.250  10.980  1.00  0.00    +0.000 H 
BRANCH   20   19
ATOM     19  C12 UNL A   1      11.649  55.194  11.103  1.00  0.00    +0.000 C 
ATOM    110  H15 UNL A   1      12.644  55.503  10.858  1.00  0.00    +0.000 H 
ATOM    111  H16 UNL A   1      11.417  55.286  12.143  1.00  0.00    +0.000 H 
BRANCH   19   18
ATOM     18  C11 UNL A   1      11.520  53.705  10.770  1.00  0.00    +0.000 C 
ATOM    108  H13 UNL A   1      11.687  53.151  11.670  1.00  0.00    +0.000 H 
ATOM    109  H14 UNL A   1      10.538  53.582  10.361  1.00  0.00    +0.000 H 
BRANCH   18   17
ATOM     17  C10 UNL A   1      12.486  53.178   9.705  1.00  0.00    +0.000 C 
ATOM    106  H11 UNL A   1      12.116  52.234   9.363  1.00  0.00    +0.000 H 
ATOM    107  H12 UNL A   1      12.522  53.927   8.943  1.00  0.00    +0.000 H 
BRANCH   17   16
ATOM    105  H10 UNL A   1      13.899  52.223  10.928  1.00  0.00    +0.000 H 
ATOM    104  H9  UNL A   1      14.299  53.918  10.520  1.00  0.00    +0.000 H 
ATOM     16  C9  UNL A   1      13.929  52.977  10.169  1.00  0.00    +0.000 C 
BRANCH   16   15
ATOM    103  H8  UNL A   1      15.624  53.217   8.911  1.00  0.00    +0.000 H 
ATOM    102  H7  UNL A   1      14.331  52.257   8.203  1.00  0.00    +0.000 H 
ATOM     15  C8  UNL A   1      14.885  52.464   9.094  1.00  0.00    +0.000 C 
BRANCH   15   14
ATOM    101  H6  UNL A   1      16.275  51.429  10.176  1.00  0.00    +0.000 H 
ATOM     14  N3  UNL A   1      15.556  51.256   9.527  1.00  0.00    +0.000 N 
BRANCH   14   12
ATOM     12  C7  UNL A   1      15.413  49.924   9.233  1.00  0.00    +0.000 C 
ATOM     13  O3  UNL A   1      16.263  49.409   8.510  1.00  0.00    +0.000 O 
BRANCH   12   11
ATOM    129  H34 UNL A   1      14.896  48.014  11.434  1.00  0.00    +0.000 H 
ATOM    130  H35 UNL A   1      14.999  47.068  10.037  1.00  0.00    +0.000 H 
ATOM    131  H36 UNL A   1      12.689  46.495  10.258  1.00  0.00    +0.000 H 
ATOM      9  N1  UNL A   1      12.191  48.545  10.101  1.00  0.00    +0.000 N 
ATOM     10  N2  UNL A   1      13.024  49.389   9.411  1.00  0.00    +0.000 N 
ATOM     11  C6  UNL A   1      14.247  49.066   9.704  1.00  0.00    +0.000 C 
ATOM     87  C59 UNL A   1      14.402  47.823  10.504  1.00  0.00    +0.000 C 
ATOM     88  C60 UNL A   1      12.938  47.429  10.716  1.00  0.00    +0.000 C 
BRANCH    9    8
ATOM     99  H4  UNL A   1       8.532  45.863   9.482  1.00  0.00    +0.000 H 
ATOM    100  H5  UNL A   1      10.679  46.361  10.506  1.00  0.00    +0.000 H 
ATOM      5  C2  UNL A   1       8.529  47.580   8.248  1.00  0.00    +0.000 C 
ATOM      6  C3  UNL A   1       9.050  46.714   9.213  1.00  0.00    +0.000 C 
ATOM      7  C4  UNL A   1      10.281  47.010   9.809  1.00  0.00    +0.000 C 
ATOM    136  H41 UNL A   1       8.835  49.366   7.164  1.00  0.00    +0.000 H 
ATOM    135  H40 UNL A   1      10.956  49.873   8.218  1.00  0.00    +0.000 H 
ATOM      8  C5  UNL A   1      10.982  48.179   9.475  1.00  0.00    +0.000 C 
ATOM     94  C65 UNL A   1      10.441  49.022   8.493  1.00  0.00    +0.000 C 
ATOM     95  C66 UNL A   1       9.221  48.733   7.881  1.00  0.00    +0.000 C 
BRANCH    5    2
ATOM      2  S1  UNL A   1       6.957  47.226   7.501  1.00  0.00    +0.000 S 
ATOM      3  O1  UNL A   1       7.003  47.705   6.130  1.00  0.00    +0.000 O 
ATOM      4  O2  UNL A   1       5.941  47.700   8.418  1.00  0.00    +0.000 O 
BRANCH    2    1
ATOM      1  C1  UNL A   1       6.879  45.457   7.437  1.00  0.00    +0.000 C 
ATOM     98  H3  UNL A   1       6.519  45.081   8.372  1.00  0.00    +0.000 H 
ATOM     97  H2  UNL A   1       6.215  45.157   6.653  1.00  0.00    +0.000 H 
ATOM     96  H1  UNL A   1       7.856  45.063   7.247  1.00  0.00    +0.000 H 
ENDBRANCH    2    1
ENDBRANCH    5    2
ENDBRANCH    9    8
BRANCH   88   89
ATOM    132  H37 UNL A   1      12.494  44.972  12.166  1.00  0.00    +0.000 H 
ATOM    133  H38 UNL A   1      11.871  45.044  14.660  1.00  0.00    +0.000 H 
ATOM    134  H39 UNL A   1      11.839  47.410  15.560  1.00  0.00    +0.000 H 
ATOM     89  C61 UNL A   1      12.578  47.107  12.160  1.00  0.00    +0.000 C 
ATOM     90  C62 UNL A   1      12.396  45.846  12.706  1.00  0.00    +0.000 C 
ATOM     91  C63 UNL A   1      12.060  45.882  14.089  1.00  0.00    +0.000 C 
ATOM     92  C64 UNL A   1      12.017  47.169  14.572  1.00  0.00    +0.000 C 
ATOM     93  S2  UNL A   1      12.289  48.319  13.344  1.00  0.00    +0.000 S 
ENDBRANCH   88   89
ENDBRANCH   12   11
ENDBRANCH   14   12
ENDBRANCH   15   14
ENDBRANCH   16   15
ENDBRANCH   17   16
ENDBRANCH   18   17
ENDBRANCH   19   18
ENDBRANCH   20   19
ENDBRANCH   21   20
ENDBRANCH   22   21
ENDBRANCH   24   22
ENDBRANCH   28   27
BRANCH   32   33
ATOM     33  C23 UNL A   1      12.627  48.186   4.985  1.00  0.00    +0.000 C 
ATOM     34  C24 UNL A   1      11.367  47.741   4.557  1.00  0.00    +0.000 C 
ATOM     35  F1  UNL A   1      10.768  48.319   3.505  1.00  0.00    +0.000 F 
ATOM     36  C25 UNL A   1      10.701  46.720   5.230  1.00  0.00    +0.000 C 
ATOM     37  F2  UNL A   1       9.480  46.341   4.829  1.00  0.00    +0.000 F 
ATOM     38  C26 UNL A   1      11.294  46.101   6.320  1.00  0.00    +0.000 C 
ATOM     39  F3  UNL A   1      10.657  45.111   6.959  1.00  0.00    +0.000 F 
ATOM     40  C27 UNL A   1      12.547  46.513   6.751  1.00  0.00    +0.000 C 
ATOM     41  F4  UNL A   1      13.128  45.907   7.796  1.00  0.00    +0.000 F 
ATOM     42  C28 UNL A   1      13.203  47.553   6.098  1.00  0.00    +0.000 C 
ATOM     43  F5  UNL A   1      14.408  47.936   6.545  1.00  0.00    +0.000 F 
ENDBRANCH   32   33
BRANCH   49   50
ATOM     50  C34 UNL A   1      16.800  48.796  -0.860  1.00  0.00    +0.000 C 
ATOM     51  C35 UNL A   1      17.986  48.057  -0.740  1.00  0.00    +0.000 C 
ATOM     52  F6  UNL A   1      18.734  48.154   0.370  1.00  0.00    +0.000 F 
ATOM     53  C36 UNL A   1      18.432  47.246  -1.780  1.00  0.00    +0.000 C 
ATOM     54  F7  UNL A   1      19.595  46.590  -1.665  1.00  0.00    +0.000 F 
ATOM     55  C37 UNL A   1      17.684  47.130  -2.943  1.00  0.00    +0.000 C 
ATOM     56  F8  UNL A   1      18.114  46.346  -3.942  1.00  0.00    +0.000 F 
ATOM     57  C38 UNL A   1      16.497  47.834  -3.074  1.00  0.00    +0.000 C 
ATOM     58  F9  UNL A   1      15.767  47.712  -4.191  1.00  0.00    +0.000 F 
ATOM     59  C39 UNL A   1      16.065  48.669  -2.048  1.00  0.00    +0.000 C 
ATOM     60  F10 UNL A   1      14.919  49.348  -2.210  1.00  0.00    +0.000 F 
ENDBRANCH   49   50
BRANCH   64   65
ATOM     65  C43 UNL A   1      17.814  55.522   0.637  1.00  0.00    +0.000 C 
ATOM     66  C44 UNL A   1      17.357  56.211  -0.495  1.00  0.00    +0.000 C 
ATOM     67  F11 UNL A   1      16.171  55.896  -1.035  1.00  0.00    +0.000 F 
ATOM     68  C45 UNL A   1      18.135  57.194  -1.103  1.00  0.00    +0.000 C 
ATOM     69  F12 UNL A   1      17.696  57.800  -2.214  1.00  0.00    +0.000 F 
ATOM     70  C46 UNL A   1      19.371  57.530  -0.572  1.00  0.00    +0.000 C 
ATOM     71  F13 UNL A   1      20.119  58.476  -1.157  1.00  0.00    +0.000 F 
ATOM     72  C47 UNL A   1      19.835  56.878   0.561  1.00  0.00    +0.000 C 
ATOM     73  F14 UNL A   1      21.022  57.211   1.086  1.00  0.00    +0.000 F 
ATOM     74  C48 UNL A   1      19.070  55.875   1.153  1.00  0.00    +0.000 C 
ATOM     75  F15 UNL A   1      19.551  55.251   2.238  1.00  0.00    +0.000 F 
ENDBRANCH   64   65
TORSDOF 19
ENDMDL
MODEL 3
REMARK VINA RESULT:     -11.0     45.315     50.240
ROOT
ATOM     28  C19 UNL A   1      13.848  53.795   5.134  1.00  0.00    +0.000 C 
ATOM     29  C20 UNL A   1      14.778  54.260   4.048  1.00  0.00    +0.000 C 
ATOM     30  N5  UNL A   1      15.275  53.588   3.040  1.00  0.00    +0.000 N 
ATOM     31  C21 UNL A   1      16.036  54.497   2.316  1.00  0.00    +0.000 C 
ATOM     32  C22 UNL A   1      16.798  54.277   1.218  1.00  0.00    +0.000 C 
ATOM     44  C29 UNL A   1      16.961  52.992   0.589  1.00  0.00    +0.000 C 
ATOM     45  C30 UNL A   1      17.770  52.652  -0.481  1.00  0.00    +0.000 C 
ATOM     46  C31 UNL A   1      17.561  51.300  -0.775  1.00  0.00    +0.000 C 
ATOM     47  C32 UNL A   1      16.662  50.785   0.145  1.00  0.00    +0.000 C 
ATOM     48  N6  UNL A   1      16.299  51.835   0.973  1.00  0.00    +0.000 N 
ATOM     49  C33 UNL A   1      16.171  49.436   0.260  1.00  0.00    +0.000 C 
ATOM     61  C40 UNL A   1      15.294  49.008   1.200  1.00  0.00    +0.000 C 
ATOM     62  N7  UNL A   1      14.691  49.726   2.224  1.00  0.00    +0.000 N 
ATOM     63  C41 UNL A   1      13.913  48.878   2.851  1.00  0.00    +0.000 C 
ATOM     64  C42 UNL A   1      13.044  49.099   4.059  1.00  0.00    +0.000 C 
ATOM     76  C49 UNL A   1      13.033  50.309   4.648  1.00  0.00    +0.000 C 
ATOM     77  C50 UNL A   1      12.260  50.667   5.833  1.00  0.00    +0.000 C 
ATOM     78  C51 UNL A   1      12.464  51.963   6.115  1.00  0.00    +0.000 C 
ATOM     79  C52 UNL A   1      13.411  52.520   5.148  1.00  0.00    +0.000 C 
ATOM     80  N8  UNL A   1      13.698  51.466   4.318  1.00  0.00    +0.000 N 
ATOM     81  C53 UNL A   1      13.915  47.525   2.275  1.00  0.00    +0.000 C 
ATOM     82  C54 UNL A   1      14.805  47.649   1.301  1.00  0.00    +0.000 C 
ATOM     83  C55 UNL A   1      15.897  55.781   2.972  1.00  0.00    +0.000 C 
ATOM     84  C56 UNL A   1      15.183  55.674   4.083  1.00  0.00    +0.000 C 
ATOM    117  H22 UNL A   1      18.416  53.286  -0.976  1.00  0.00    +0.000 H 
ATOM    118  H23 UNL A   1      18.003  50.775  -1.547  1.00  0.00    +0.000 H 
ATOM    119  H24 UNL A   1      15.663  51.770   1.722  1.00  0.00    +0.000 H 
ATOM    120  H25 UNL A   1      11.653  50.026   6.368  1.00  0.00    +0.000 H 
ATOM    121  H26 UNL A   1      12.024  52.483   6.890  1.00  0.00    +0.000 H 
ATOM    122  H27 UNL A   1      14.320  51.531   3.558  1.00  0.00    +0.000 H 
ATOM    123  H28 UNL A   1      13.369  46.697   2.556  1.00  0.00    +0.000 H 
ATOM    124  H29 UNL A   1      15.112  46.875   0.692  1.00  0.00    +0.000 H 
ATOM    125  H30 UNL A   1      16.302  56.662   2.619  1.00  0.00    +0.000 H 
ATOM    126  H31 UNL A   1      14.968  56.395   4.789  1.00  0.00    +0.000 H 
ENDROOT
BRANCH   28   27
ATOM    115  H20 UNL A   1      10.843  56.888   6.793  1.00  0.00    +0.000 H 
ATOM    116  H21 UNL A   1      11.561  55.240   5.164  1.00  0.00    +0.000 H 
ATOM     85  C57 UNL A   1      14.114  54.974   7.325  1.00  0.00    +0.000 C 
ATOM     86  C58 UNL A   1      13.657  55.860   8.300  1.00  0.00    +0.000 C 
ATOM     24  C15 UNL A   1      12.492  56.600   8.081  1.00  0.00    +0.000 C 
ATOM     25  C16 UNL A   1      11.722  56.368   6.938  1.00  0.00    +0.000 C 
ATOM     26  C17 UNL A   1      12.145  55.431   5.993  1.00  0.00    +0.000 C 
ATOM     27  C18 UNL A   1      13.359  54.747   6.164  1.00  0.00    +0.000 C 
ATOM    127  H32 UNL A   1      15.012  54.484   7.458  1.00  0.00    +0.000 H 
ATOM    128  H33 UNL A   1      14.179  55.967   9.185  1.00  0.00    +0.000 H 
BRANCH   24   22
ATOM     22  C14 UNL A   1      12.025  57.614   9.054  1.00  0.00    +0.000 C 
ATOM     23  O4  UNL A   1      12.310  58.796   8.884  1.00  0.00    +0.000 O 
BRANCH   22   21
ATOM    114  H19 UNL A   1      10.947  57.981  10.699  1.00  0.00    +0.000 H 
ATOM     21  N4  UNL A   1      11.292  57.239  10.151  1.00  0.00    +0.000 N 
BRANCH   21   20
ATOM    113  H18 UNL A   1      11.374  55.202   9.944  1.00  0.00    +0.000 H 
ATOM     20  C13 UNL A   1      10.950  55.911  10.625  1.00  0.00    +0.000 C 
ATOM    112  H17 UNL A   1       9.884  55.825  10.665  1.00  0.00    +0.000 H 
BRANCH   20   19
ATOM     19  C12 UNL A   1      11.518  55.623  12.011  1.00  0.00    +0.000 C 
ATOM    110  H15 UNL A   1      12.286  56.341  12.209  1.00  0.00    +0.000 H 
ATOM    111  H16 UNL A   1      10.692  55.683  12.688  1.00  0.00    +0.000 H 
BRANCH   19   18
ATOM     18  C11 UNL A   1      12.118  54.226  12.195  1.00  0.00    +0.000 C 
ATOM    108  H13 UNL A   1      12.710  54.238  13.086  1.00  0.00    +0.000 H 
ATOM    109  H14 UNL A   1      11.285  53.555  12.237  1.00  0.00    +0.000 H 
BRANCH   18   17
ATOM     17  C10 UNL A   1      13.001  53.727  11.048  1.00  0.00    +0.000 C 
ATOM    106  H11 UNL A   1      12.406  53.706  10.159  1.00  0.00    +0.000 H 
ATOM    107  H12 UNL A   1      13.828  54.403  10.997  1.00  0.00    +0.000 H 
BRANCH   17   16
ATOM    105  H10 UNL A   1      12.856  51.636  10.931  1.00  0.00    +0.000 H 
ATOM    104  H9  UNL A   1      13.878  52.231  12.273  1.00  0.00    +0.000 H 
ATOM     16  C9  UNL A   1      13.605  52.335  11.243  1.00  0.00    +0.000 C 
BRANCH   16   15
ATOM    103  H8  UNL A   1      15.456  51.345  10.920  1.00  0.00    +0.000 H 
ATOM    102  H7  UNL A   1      15.372  52.959  10.226  1.00  0.00    +0.000 H 
ATOM     15  C8  UNL A   1      14.841  52.045  10.394  1.00  0.00    +0.000 C 
BRANCH   15   14
ATOM    101  H6  UNL A   1      14.141  52.137   8.477  1.00  0.00    +0.000 H 
ATOM     14  N3  UNL A   1      14.474  51.469   9.118  1.00  0.00    +0.000 N 
BRANCH   14   12
ATOM     12  C7  UNL A   1      14.487  50.197   8.601  1.00  0.00    +0.000 C 
ATOM     13  O3  UNL A   1      15.337  49.942   7.751  1.00  0.00    +0.000 O 
BRANCH   12   11
ATOM    129  H34 UNL A   1      14.485  47.767  10.289  1.00  0.00    +0.000 H 
ATOM    130  H35 UNL A   1      14.462  47.204   8.696  1.00  0.00    +0.000 H 
ATOM    131  H36 UNL A   1      12.274  46.308   9.046  1.00  0.00    +0.000 H 
ATOM      9  N1  UNL A   1      11.572  48.256   9.480  1.00  0.00    +0.000 N 
ATOM     10  N2  UNL A   1      12.211  49.339   8.931  1.00  0.00    +0.000 N 
ATOM     11  C6  UNL A   1      13.489  49.112   8.978  1.00  0.00    +0.000 C 
ATOM     87  C59 UNL A   1      13.875  47.743   9.410  1.00  0.00    +0.000 C 
ATOM     88  C60 UNL A   1      12.503  47.128   9.693  1.00  0.00    +0.000 C 
BRANCH    9    8
ATOM     99  H4  UNL A   1       8.012  45.446   8.851  1.00  0.00    +0.000 H 
ATOM    100  H5  UNL A   1      10.232  45.939   9.709  1.00  0.00    +0.000 H 
ATOM      5  C2  UNL A   1       7.780  47.317   7.894  1.00  0.00    +0.000 C 
ATOM      6  C3  UNL A   1       8.452  46.361   8.660  1.00  0.00    +0.000 C 
ATOM      7  C4  UNL A   1       9.725  46.652   9.163  1.00  0.00    +0.000 C 
ATOM    136  H41 UNL A   1       7.868  49.257   7.063  1.00  0.00    +0.000 H 
ATOM    135  H40 UNL A   1      10.065  49.752   7.955  1.00  0.00    +0.000 H 
ATOM      8  C5  UNL A   1      10.321  47.902   8.935  1.00  0.00    +0.000 C 
ATOM     94  C65 UNL A   1       9.630  48.837   8.152  1.00  0.00    +0.000 C 
ATOM     95  C66 UNL A   1       8.366  48.556   7.634  1.00  0.00    +0.000 C 
BRANCH    5    2
ATOM      2  S1  UNL A   1       6.155  46.967   7.270  1.00  0.00    +0.000 S 
ATOM      3  O1  UNL A   1       6.005  45.523   7.217  1.00  0.00    +0.000 O 
ATOM      4  O2  UNL A   1       5.980  47.776   6.081  1.00  0.00    +0.000 O 
BRANCH    2    1
ATOM      1  C1  UNL A   1       5.055  47.564   8.525  1.00  0.00    +0.000 C 
ATOM     98  H3  UNL A   1       5.594  48.193   9.203  1.00  0.00    +0.000 H 
ATOM     97  H2  UNL A   1       4.266  48.125   8.070  1.00  0.00    +0.000 H 
ATOM     96  H1  UNL A   1       4.640  46.735   9.060  1.00  0.00    +0.000 H 
ENDBRANCH    2    1
ENDBRANCH    5    2
ENDBRANCH    9    8
BRANCH   88   89
ATOM    132  H37 UNL A   1      12.269  44.365  10.495  1.00  0.00    +0.000 H 
ATOM    133  H38 UNL A   1      12.097  43.759  12.989  1.00  0.00    +0.000 H 
ATOM    134  H39 UNL A   1      12.273  45.801  14.474  1.00  0.00    +0.000 H 
ATOM     89  C61 UNL A   1      12.396  46.427  11.040  1.00  0.00    +0.000 C 
ATOM     90  C62 UNL A   1      12.286  45.062  11.256  1.00  0.00    +0.000 C 
ATOM     91  C63 UNL A   1      12.199  44.723  12.636  1.00  0.00    +0.000 C 
ATOM     92  C64 UNL A   1      12.269  45.835  13.442  1.00  0.00    +0.000 C 
ATOM     93  S2  UNL A   1      12.345  47.275  12.535  1.00  0.00    +0.000 S 
ENDBRANCH   88   89
ENDBRANCH   12   11
ENDBRANCH   14   12
ENDBRANCH   15   14
ENDBRANCH   16   15
ENDBRANCH   17   16
ENDBRANCH   18   17
ENDBRANCH   19   18
ENDBRANCH   20   19
ENDBRANCH   21   20
ENDBRANCH   22   21
ENDBRANCH   24   22
ENDBRANCH   28   27
BRANCH   32   33
ATOM     33  C23 UNL A   1      17.521  55.450   0.623  1.00  0.00    +0.000 C 
ATOM     34  C24 UNL A   1      16.927  56.265  -0.353  1.00  0.00    +0.000 C 
ATOM     35  F1  UNL A   1      15.707  55.971  -0.826  1.00  0.00    +0.000 F 
ATOM     36  C25 UNL A   1      17.600  57.367  -0.873  1.00  0.00    +0.000 C 
ATOM     37  F2  UNL A   1      17.030  58.105  -1.835  1.00  0.00    +0.000 F 
ATOM     38  C26 UNL A   1      18.863  57.698  -0.404  1.00  0.00    +0.000 C 
ATOM     39  F3  UNL A   1      19.504  58.766  -0.896  1.00  0.00    +0.000 F 
ATOM     40  C27 UNL A   1      19.462  56.917   0.574  1.00  0.00    +0.000 C 
ATOM     41  F4  UNL A   1      20.677  57.243   1.038  1.00  0.00    +0.000 F 
ATOM     42  C28 UNL A   1      18.804  55.797   1.074  1.00  0.00    +0.000 C 
ATOM     43  F5  UNL A   1      19.415  55.056   2.011  1.00  0.00    +0.000 F 
ENDBRANCH   32   33
BRANCH   49   50
ATOM     50  C34 UNL A   1      16.683  48.417  -0.716  1.00  0.00    +0.000 C 
ATOM     51  C35 UNL A   1      17.934  47.806  -0.552  1.00  0.00    +0.000 C 
ATOM     52  F6  UNL A   1      18.730  48.157   0.470  1.00  0.00    +0.000 F 
ATOM     53  C36 UNL A   1      18.393  46.861  -1.466  1.00  0.00    +0.000 C 
ATOM     54  F7  UNL A   1      19.614  46.327  -1.320  1.00  0.00    +0.000 F 
ATOM     55  C37 UNL A   1      17.596  46.481  -2.536  1.00  0.00    +0.000 C 
ATOM     56  F8  UNL A   1      18.038  45.567  -3.412  1.00  0.00    +0.000 F 
ATOM     57  C38 UNL A   1      16.346  47.057  -2.704  1.00  0.00    +0.000 C 
ATOM     58  F9  UNL A   1      15.569  46.682  -3.730  1.00  0.00    +0.000 F 
ATOM     59  C39 UNL A   1      15.898  48.025  -1.811  1.00  0.00    +0.000 C 
ATOM     60  F10 UNL A   1      14.690  48.573  -2.008  1.00  0.00    +0.000 F 
ENDBRANCH   49   50
BRANCH   64   65
ATOM     65  C43 UNL A   1      12.218  47.995   4.614  1.00  0.00    +0.000 C 
ATOM     66  C44 UNL A   1      10.902  47.788   4.179  1.00  0.00    +0.000 C 
ATOM     67  F11 UNL A   1      10.368  48.600   3.255  1.00  0.00    +0.000 F 
ATOM     68  C45 UNL A   1      10.114  46.776   4.723  1.00  0.00    +0.000 C 
ATOM     69  F12 UNL A   1       8.844  46.633   4.325  1.00  0.00    +0.000 F 
ATOM     70  C46 UNL A   1      10.638  45.930   5.689  1.00  0.00    +0.000 C 
ATOM     71  F13 UNL A   1       9.880  44.955   6.212  1.00  0.00    +0.000 F 
ATOM     72  C47 UNL A   1      11.945  46.100   6.119  1.00  0.00    +0.000 C 
ATOM     73  F14 UNL A   1      12.459  45.276   7.042  1.00  0.00    +0.000 F 
ATOM     74  C48 UNL A   1      12.724  47.131   5.597  1.00  0.00    +0.000 C 
ATOM     75  F15 UNL A   1      13.979  47.282   6.044  1.00  0.00    +0.000 F 
ENDBRANCH   64   65
TORSDOF 19
ENDMDL
MODEL 4
REMARK VINA RESULT:     -11.0     45.438     49.970
ROOT
ATOM     28  C19 UNL A   1      13.960  53.964   5.042  1.00  0.00    +0.000 C 
ATOM     29  C20 UNL A   1      13.602  52.503   5.048  1.00  0.00    +0.000 C 
ATOM     30  N5  UNL A   1      13.994  51.552   4.237  1.00  0.00    +0.000 N 
ATOM     31  C21 UNL A   1      13.408  50.385   4.709  1.00  0.00    +0.000 C 
ATOM     32  C22 UNL A   1      13.460  49.139   4.182  1.00  0.00    +0.000 C 
ATOM     44  C29 UNL A   1      14.165  48.800   2.973  1.00  0.00    +0.000 C 
ATOM     45  C30 UNL A   1      14.216  47.583   2.316  1.00  0.00    +0.000 C 
ATOM     46  C31 UNL A   1      15.065  47.715   1.213  1.00  0.00    +0.000 C 
ATOM     47  C32 UNL A   1      15.502  49.029   1.151  1.00  0.00    +0.000 C 
ATOM     48  N6  UNL A   1      14.945  49.682   2.240  1.00  0.00    +0.000 N 
ATOM     49  C33 UNL A   1      16.362  49.643   0.173  1.00  0.00    +0.000 C 
ATOM     61  C40 UNL A   1      16.737  50.945   0.179  1.00  0.00    +0.000 C 
ATOM     62  N7  UNL A   1      16.400  51.948   1.078  1.00  0.00    +0.000 N 
ATOM     63  C41 UNL A   1      17.024  53.025   0.669  1.00  0.00    +0.000 C 
ATOM     64  C42 UNL A   1      16.998  54.415   1.244  1.00  0.00    +0.000 C 
ATOM     76  C49 UNL A   1      16.226  54.667   2.318  1.00  0.00    +0.000 C 
ATOM     77  C50 UNL A   1      16.084  55.964   2.972  1.00  0.00    +0.000 C 
ATOM     78  C51 UNL A   1      15.266  55.835   4.028  1.00  0.00    +0.000 C 
ATOM     79  C52 UNL A   1      14.799  54.449   4.106  1.00  0.00    +0.000 C 
ATOM     80  N8  UNL A   1      15.417  53.830   3.049  1.00  0.00    +0.000 N 
ATOM     81  C53 UNL A   1      17.852  52.819  -0.528  1.00  0.00    +0.000 C 
ATOM     82  C54 UNL A   1      17.606  51.548  -0.810  1.00  0.00    +0.000 C 
ATOM     83  C55 UNL A   1      12.672  50.737   5.906  1.00  0.00    +0.000 C 
ATOM     84  C56 UNL A   1      12.707  52.044   6.121  1.00  0.00    +0.000 C 
ATOM    117  H22 UNL A   1      13.713  46.725   2.593  1.00  0.00    +0.000 H 
ATOM    118  H23 UNL A   1      15.322  46.962   0.555  1.00  0.00    +0.000 H 
ATOM    119  H24 UNL A   1      15.084  50.631   2.460  1.00  0.00    +0.000 H 
ATOM    120  H25 UNL A   1      16.538  56.840   2.671  1.00  0.00    +0.000 H 
ATOM    121  H26 UNL A   1      15.007  56.591   4.681  1.00  0.00    +0.000 H 
ATOM    122  H27 UNL A   1      15.293  52.878   2.834  1.00  0.00    +0.000 H 
ATOM    123  H28 UNL A   1      18.463  53.489  -1.020  1.00  0.00    +0.000 H 
ATOM    124  H29 UNL A   1      17.986  51.051  -1.630  1.00  0.00    +0.000 H 
ATOM    125  H30 UNL A   1      12.184  50.058   6.510  1.00  0.00    +0.000 H 
ATOM    126  H31 UNL A   1      12.230  52.596   6.851  1.00  0.00    +0.000 H 
ENDROOT
BRANCH   28   27
ATOM    115  H20 UNL A   1      10.707  56.645   6.935  1.00  0.00    +0.000 H 
ATOM    116  H21 UNL A   1      11.499  55.064   5.274  1.00  0.00    +0.000 H 
ATOM     85  C57 UNL A   1      14.260  55.243   7.172  1.00  0.00    +0.000 C 
ATOM     86  C58 UNL A   1      13.775  56.086   8.171  1.00  0.00    +0.000 C 
ATOM     24  C15 UNL A   1      12.497  56.642   8.056  1.00  0.00    +0.000 C 
ATOM     25  C16 UNL A   1      11.663  56.263   7.001  1.00  0.00    +0.000 C 
ATOM     26  C17 UNL A   1      12.126  55.366   6.036  1.00  0.00    +0.000 C 
ATOM     27  C18 UNL A   1      13.438  54.870   6.098  1.00  0.00    +0.000 C 
ATOM    127  H32 UNL A   1      15.230  54.892   7.223  1.00  0.00    +0.000 H 
ATOM    128  H33 UNL A   1      14.358  56.297   8.996  1.00  0.00    +0.000 H 
BRANCH   24   22
ATOM     22  C14 UNL A   1      11.983  57.610   9.051  1.00  0.00    +0.000 C 
ATOM     23  O4  UNL A   1      12.191  58.810   8.895  1.00  0.00    +0.000 O 
BRANCH   22   21
ATOM    114  H19 UNL A   1      11.086  57.868  10.820  1.00  0.00    +0.000 H 
ATOM     21  N4  UNL A   1      11.290  57.174  10.152  1.00  0.00    +0.000 N 
BRANCH   21   20
ATOM    113  H18 UNL A   1      10.574  55.349   9.559  1.00  0.00    +0.000 H 
ATOM     20  C13 UNL A   1      10.815  55.842  10.477  1.00  0.00    +0.000 C 
ATOM    112  H17 UNL A   1       9.958  55.929  11.111  1.00  0.00    +0.000 H 
BRANCH   20   19
ATOM     19  C12 UNL A   1      11.871  55.006  11.192  1.00  0.00    +0.000 C 
ATOM    110  H15 UNL A   1      12.835  55.367  10.896  1.00  0.00    +0.000 H 
ATOM    111  H16 UNL A   1      11.677  55.115  12.238  1.00  0.00    +0.000 H 
BRANCH   19   18
ATOM     18  C11 UNL A   1      11.820  53.503  10.906  1.00  0.00    +0.000 C 
ATOM    108  H13 UNL A   1      12.123  52.989  11.794  1.00  0.00    +0.000 H 
ATOM    109  H14 UNL A   1      10.813  53.297  10.608  1.00  0.00    +0.000 H 
BRANCH   18   17
ATOM     17  C10 UNL A   1      12.705  53.016   9.754  1.00  0.00    +0.000 C 
ATOM    106  H11 UNL A   1      12.324  52.074   9.421  1.00  0.00    +0.000 H 
ATOM    107  H12 UNL A   1      12.667  53.783   9.010  1.00  0.00    +0.000 H 
BRANCH   17   16
ATOM    105  H10 UNL A   1      14.224  52.097  10.873  1.00  0.00    +0.000 H 
ATOM    104  H9  UNL A   1      14.579  53.782  10.391  1.00  0.00    +0.000 H 
ATOM     16  C9  UNL A   1      14.184  52.832  10.095  1.00  0.00    +0.000 C 
BRANCH   16   15
ATOM    103  H8  UNL A   1      15.764  53.045   8.691  1.00  0.00    +0.000 H 
ATOM    102  H7  UNL A   1      14.417  52.068   8.119  1.00  0.00    +0.000 H 
ATOM     15  C8  UNL A   1      15.046  52.296   8.954  1.00  0.00    +0.000 C 
BRANCH   15   14
ATOM    101  H6  UNL A   1      16.553  51.290   9.899  1.00  0.00    +0.000 H 
ATOM     14  N3  UNL A   1      15.755  51.099   9.354  1.00  0.00    +0.000 N 
BRANCH   14   12
ATOM     12  C7  UNL A   1      15.564  49.756   9.145  1.00  0.00    +0.000 C 
ATOM     13  O3  UNL A   1      16.401  49.164   8.468  1.00  0.00    +0.000 O 
BRANCH   12   11
ATOM    129  H34 UNL A   1      14.972  47.945  11.410  1.00  0.00    +0.000 H 
ATOM    130  H35 UNL A   1      15.010  46.953  10.042  1.00  0.00    +0.000 H 
ATOM    131  H36 UNL A   1      12.676  46.508  10.302  1.00  0.00    +0.000 H 
ATOM      9  N1  UNL A   1      12.283  48.577  10.086  1.00  0.00    +0.000 N 
ATOM     10  N2  UNL A   1      13.152  49.354   9.363  1.00  0.00    +0.000 N 
ATOM     11  C6  UNL A   1      14.359  48.976   9.653  1.00  0.00    +0.000 C 
ATOM     87  C59 UNL A   1      14.458  47.752  10.491  1.00  0.00    +0.000 C 
ATOM     88  C60 UNL A   1      12.978  47.442  10.729  1.00  0.00    +0.000 C 
BRANCH    9    8
ATOM     99  H4  UNL A   1       8.887  49.219   7.083  1.00  0.00    +0.000 H 
ATOM    100  H5  UNL A   1      10.948  49.907   8.171  1.00  0.00    +0.000 H 
ATOM      5  C2  UNL A   1       8.639  47.486   8.268  1.00  0.00    +0.000 C 
ATOM      6  C3  UNL A   1       9.287  48.649   7.846  1.00  0.00    +0.000 C 
ATOM      7  C4  UNL A   1      10.480  49.036   8.466  1.00  0.00    +0.000 C 
ATOM    136  H41 UNL A   1       8.689  45.853   9.608  1.00  0.00    +0.000 H 
ATOM    135  H40 UNL A   1      10.764  46.528  10.660  1.00  0.00    +0.000 H 
ATOM      8  C5  UNL A   1      11.050  48.256   9.483  1.00  0.00    +0.000 C 
ATOM     94  C65 UNL A   1      10.371  47.100   9.896  1.00  0.00    +0.000 C 
ATOM     95  C66 UNL A   1       9.174  46.709   9.296  1.00  0.00    +0.000 C 
BRANCH    5    2
ATOM      2  S1  UNL A   1       7.136  46.972   7.473  1.00  0.00    +0.000 S 
ATOM      3  O1  UNL A   1       6.040  47.246   8.386  1.00  0.00    +0.000 O 
ATOM      4  O2  UNL A   1       7.366  45.634   6.969  1.00  0.00    +0.000 O 
BRANCH    2    1
ATOM      1  C1  UNL A   1       6.961  48.072   6.095  1.00  0.00    +0.000 C 
ATOM     98  H3  UNL A   1       7.427  47.642   5.233  1.00  0.00    +0.000 H 
ATOM     97  H2  UNL A   1       5.921  48.231   5.896  1.00  0.00    +0.000 H 
ATOM     96  H1  UNL A   1       7.427  49.009   6.323  1.00  0.00    +0.000 H 
ENDBRANCH    2    1
ENDBRANCH    5    2
ENDBRANCH    9    8
BRANCH   88   89
ATOM    132  H37 UNL A   1      12.982  45.089  12.403  1.00  0.00    +0.000 H 
ATOM    133  H38 UNL A   1      12.227  45.254  14.856  1.00  0.00    +0.000 H 
ATOM    134  H39 UNL A   1      11.654  47.631  15.513  1.00  0.00    +0.000 H 
ATOM     89  C61 UNL A   1      12.618  47.183  12.185  1.00  0.00    +0.000 C 
ATOM     90  C62 UNL A   1      12.675  45.968  12.849  1.00  0.00    +0.000 C 
ATOM     91  C63 UNL A   1      12.266  46.058  14.210  1.00  0.00    +0.000 C 
ATOM     92  C64 UNL A   1      11.930  47.344  14.560  1.00  0.00    +0.000 C 
ATOM     93  S2  UNL A   1      12.020  48.410  13.232  1.00  0.00    +0.000 S 
ENDBRANCH   88   89
ENDBRANCH   12   11
ENDBRANCH   14   12
ENDBRANCH   15   14
ENDBRANCH   16   15
ENDBRANCH   17   16
ENDBRANCH   18   17
ENDBRANCH   19   18
ENDBRANCH   20   19
ENDBRANCH   21   20
ENDBRANCH   22   21
ENDBRANCH   24   22
ENDBRANCH   28   27
BRANCH   32   33
ATOM     33  C23 UNL A   1      12.732  48.043   4.904  1.00  0.00    +0.000 C 
ATOM     34  C24 UNL A   1      13.249  47.459   6.071  1.00  0.00    +0.000 C 
ATOM     35  F1  UNL A   1      14.451  47.831   6.537  1.00  0.00    +0.000 F 
ATOM     36  C25 UNL A   1      12.546  46.465   6.746  1.00  0.00    +0.000 C 
ATOM     37  F2  UNL A   1      13.079  45.891   7.834  1.00  0.00    +0.000 F 
ATOM     38  C26 UNL A   1      11.301  46.060   6.291  1.00  0.00    +0.000 C 
ATOM     39  F3  UNL A   1      10.621  45.111   6.949  1.00  0.00    +0.000 F 
ATOM     40  C27 UNL A   1      10.762  46.635   5.150  1.00  0.00    +0.000 C 
ATOM     41  F4  UNL A   1       9.553  46.255   4.715  1.00  0.00    +0.000 F 
ATOM     42  C28 UNL A   1      11.475  47.609   4.455  1.00  0.00    +0.000 C 
ATOM     43  F5  UNL A   1      10.933  48.139   3.349  1.00  0.00    +0.000 F 
ENDBRANCH   32   33
BRANCH   49   50
ATOM     50  C34 UNL A   1      16.866  48.789  -0.953  1.00  0.00    +0.000 C 
ATOM     51  C35 UNL A   1      16.176  48.694  -2.171  1.00  0.00    +0.000 C 
ATOM     52  F6  UNL A   1      15.012  49.340  -2.340  1.00  0.00    +0.000 F 
ATOM     53  C36 UNL A   1      16.658  47.899  -3.207  1.00  0.00    +0.000 C 
ATOM     54  F7  UNL A   1      15.957  47.782  -4.342  1.00  0.00    +0.000 F 
ATOM     55  C37 UNL A   1      17.856  47.214  -3.060  1.00  0.00    +0.000 C 
ATOM     56  F8  UNL A   1      18.321  46.452  -4.060  1.00  0.00    +0.000 F 
ATOM     57  C38 UNL A   1      18.566  47.311  -1.872  1.00  0.00    +0.000 C 
ATOM     58  F9  UNL A   1      19.729  46.661  -1.734  1.00  0.00    +0.000 F 
ATOM     59  C39 UNL A   1      18.070  48.080  -0.824  1.00  0.00    +0.000 C 
ATOM     60  F10 UNL A   1      18.773  48.143   0.317  1.00  0.00    +0.000 F 
ENDBRANCH   49   50
BRANCH   64   65
ATOM     65  C43 UNL A   1      17.796  55.508   0.630  1.00  0.00    +0.000 C 
ATOM     66  C44 UNL A   1      19.059  55.851   1.135  1.00  0.00    +0.000 C 
ATOM     67  F11 UNL A   1      19.555  55.196   2.194  1.00  0.00    +0.000 F 
ATOM     68  C45 UNL A   1      19.794  56.898   0.584  1.00  0.00    +0.000 C 
ATOM     69  F12 UNL A   1      20.974  57.238   1.118  1.00  0.00    +0.000 F 
ATOM     70  C46 UNL A   1      19.297  57.600  -0.504  1.00  0.00    +0.000 C 
ATOM     71  F13 UNL A   1      20.006  58.606  -1.035  1.00  0.00    +0.000 F 
ATOM     72  C47 UNL A   1      18.061  57.264  -1.035  1.00  0.00    +0.000 C 
ATOM     73  F14 UNL A   1      17.585  57.930  -2.095  1.00  0.00    +0.000 F 
ATOM     74  C48 UNL A   1      17.312  56.236  -0.466  1.00  0.00    +0.000 C 
ATOM     75  F15 UNL A   1      16.113  55.944  -0.991  1.00  0.00    +0.000 F 
ENDBRANCH   64   65
TORSDOF 19
ENDMDL
MODEL 5
REMARK VINA RESULT:     -10.9     43.002     51.145
ROOT
ATOM     28  C19 UNL A   1      25.787  39.332  46.896  1.00  0.00    +0.000 C 
ATOM     29  C20 UNL A   1      25.187  37.971  46.673  1.00  0.00    +0.000 C 
ATOM     30  N5  UNL A   1      23.977  37.546  46.942  1.00  0.00    +0.000 N 
ATOM     31  C21 UNL A   1      23.930  36.231  46.499  1.00  0.00    +0.000 C 
ATOM     32  C22 UNL A   1      22.915  35.340  46.603  1.00  0.00    +0.000 C 
ATOM     44  C29 UNL A   1      21.650  35.621  47.231  1.00  0.00    +0.000 C 
ATOM     45  C30 UNL A   1      20.588  34.763  47.454  1.00  0.00    +0.000 C 
ATOM     46  C31 UNL A   1      19.553  35.492  48.049  1.00  0.00    +0.000 C 
ATOM     47  C32 UNL A   1      19.990  36.792  48.247  1.00  0.00    +0.000 C 
ATOM     48  N6  UNL A   1      21.277  36.858  47.736  1.00  0.00    +0.000 N 
ATOM     49  C33 UNL A   1      19.287  37.892  48.855  1.00  0.00    +0.000 C 
ATOM     61  C40 UNL A   1      19.793  39.139  49.020  1.00  0.00    +0.000 C 
ATOM     62  N7  UNL A   1      21.041  39.630  48.663  1.00  0.00    +0.000 N 
ATOM     63  C41 UNL A   1      21.045  40.893  49.012  1.00  0.00    +0.000 C 
ATOM     64  C42 UNL A   1      22.149  41.908  48.893  1.00  0.00    +0.000 C 
ATOM     76  C49 UNL A   1      23.338  41.530  48.387  1.00  0.00    +0.000 C 
ATOM     77  C50 UNL A   1      24.504  42.394  48.229  1.00  0.00    +0.000 C 
ATOM     78  C51 UNL A   1      25.496  41.691  47.661  1.00  0.00    +0.000 C 
ATOM     79  C52 UNL A   1      25.046  40.315  47.444  1.00  0.00    +0.000 C 
ATOM     80  N8  UNL A   1      23.755  40.310  47.909  1.00  0.00    +0.000 N 
ATOM     81  C53 UNL A   1      19.784  41.354  49.609  1.00  0.00    +0.000 C 
ATOM     82  C54 UNL A   1      19.072  40.236  49.630  1.00  0.00    +0.000 C 
ATOM     83  C55 UNL A   1      25.215  35.941  45.899  1.00  0.00    +0.000 C 
ATOM     84  C56 UNL A   1      26.049  36.962  46.039  1.00  0.00    +0.000 C 
ATOM    117  H22 UNL A   1      20.563  33.758  47.220  1.00  0.00    +0.000 H 
ATOM    118  H23 UNL A   1      18.622  35.123  48.300  1.00  0.00    +0.000 H 
ATOM    119  H24 UNL A   1      21.842  37.664  47.731  1.00  0.00    +0.000 H 
ATOM    120  H25 UNL A   1      24.558  43.385  48.510  1.00  0.00    +0.000 H 
ATOM    121  H26 UNL A   1      26.427  42.061  47.415  1.00  0.00    +0.000 H 
ATOM    122  H27 UNL A   1      23.181  39.511  47.901  1.00  0.00    +0.000 H 
ATOM    123  H28 UNL A   1      19.521  42.299  49.928  1.00  0.00    +0.000 H 
ATOM    124  H29 UNL A   1      18.125  40.158  50.031  1.00  0.00    +0.000 H 
ATOM    125  H30 UNL A   1      25.450  35.055  45.425  1.00  0.00    +0.000 H 
ATOM    126  H31 UNL A   1      27.043  37.031  45.773  1.00  0.00    +0.000 H 
ENDROOT
BRANCH   28   27
ATOM    115  H20 UNL A   1      30.351  39.558  47.578  1.00  0.00    +0.000 H 
ATOM    116  H21 UNL A   1      28.098  38.960  48.251  1.00  0.00    +0.000 H 
ATOM     85  C57 UNL A   1      27.423  40.139  45.183  1.00  0.00    +0.000 C 
ATOM     86  C58 UNL A   1      28.727  40.403  44.767  1.00  0.00    +0.000 C 
ATOM     24  C15 UNL A   1      29.791  40.244  45.660  1.00  0.00    +0.000 C 
ATOM     25  C16 UNL A   1      29.562  39.709  46.931  1.00  0.00    +0.000 C 
ATOM     26  C17 UNL A   1      28.263  39.381  47.323  1.00  0.00    +0.000 C 
ATOM     27  C18 UNL A   1      27.179  39.620  46.464  1.00  0.00    +0.000 C 
ATOM    127  H32 UNL A   1      26.633  40.327  44.546  1.00  0.00    +0.000 H 
ATOM    128  H33 UNL A   1      28.907  40.714  43.799  1.00  0.00    +0.000 H 
BRANCH   24   22
ATOM     22  C14 UNL A   1      31.177  40.600  45.282  1.00  0.00    +0.000 C 
ATOM     23  O4  UNL A   1      31.703  41.597  45.768  1.00  0.00    +0.000 O 
BRANCH   22   21
ATOM    114  H19 UNL A   1      31.928  40.201  43.471  1.00  0.00    +0.000 H 
ATOM     21  N4  UNL A   1      31.872  39.832  44.382  1.00  0.00    +0.000 N 
BRANCH   21   20
ATOM    113  H18 UNL A   1      33.014  38.577  45.530  1.00  0.00    +0.000 H 
ATOM     20  C13 UNL A   1      32.535  38.555  44.574  1.00  0.00    +0.000 C 
ATOM    112  H17 UNL A   1      33.243  38.414  43.785  1.00  0.00    +0.000 H 
BRANCH   20   19
ATOM     19  C12 UNL A   1      31.556  37.385  44.569  1.00  0.00    +0.000 C 
ATOM    110  H15 UNL A   1      32.124  36.479  44.518  1.00  0.00    +0.000 H 
ATOM    111  H16 UNL A   1      30.980  37.478  45.466  1.00  0.00    +0.000 H 
BRANCH   19   18
ATOM     18  C11 UNL A   1      30.549  37.378  43.416  1.00  0.00    +0.000 C 
ATOM    108  H13 UNL A   1      29.570  37.283  43.836  1.00  0.00    +0.000 H 
ATOM    109  H14 UNL A   1      30.707  38.294  42.886  1.00  0.00    +0.000 H 
BRANCH   18   17
ATOM     17  C10 UNL A   1      30.730  36.261  42.384  1.00  0.00    +0.000 C 
ATOM    106  H11 UNL A   1      29.766  35.850  42.171  1.00  0.00    +0.000 H 
ATOM    107  H12 UNL A   1      31.201  36.714  41.539  1.00  0.00    +0.000 H 
BRANCH   17   16
ATOM    105  H10 UNL A   1      32.174  35.457  43.679  1.00  0.00    +0.000 H 
ATOM    104  H9  UNL A   1      32.290  34.876  41.991  1.00  0.00    +0.000 H 
ATOM     16  C9  UNL A   1      31.646  35.113  42.813  1.00  0.00    +0.000 C 
BRANCH   16   15
ATOM    103  H8  UNL A   1      30.981  33.747  44.297  1.00  0.00    +0.000 H 
ATOM    102  H7  UNL A   1      31.393  32.997  42.760  1.00  0.00    +0.000 H 
ATOM     15  C8  UNL A   1      30.923  33.835  43.232  1.00  0.00    +0.000 C 
BRANCH   15   14
ATOM    101  H6  UNL A   1      29.393  33.761  41.880  1.00  0.00    +0.000 H 
ATOM     14  N3  UNL A   1      29.528  33.875  42.849  1.00  0.00    +0.000 N 
BRANCH   14   12
ATOM     12  C7  UNL A   1      28.350  34.036  43.534  1.00  0.00    +0.000 C 
ATOM     13  O3  UNL A   1      27.388  34.476  42.909  1.00  0.00    +0.000 O 
BRANCH   12   11
ATOM    129  H34 UNL A   1      28.035  31.642  45.246  1.00  0.00    +0.000 H 
ATOM    130  H35 UNL A   1      26.519  32.389  45.239  1.00  0.00    +0.000 H 
ATOM    131  H36 UNL A   1      26.746  32.868  47.570  1.00  0.00    +0.000 H 
ATOM      9  N1  UNL A   1      28.477  34.007  47.142  1.00  0.00    +0.000 N 
ATOM     10  N2  UNL A   1      28.608  34.595  45.910  1.00  0.00    +0.000 N 
ATOM     11  C6  UNL A   1      28.181  33.752  45.020  1.00  0.00    +0.000 C 
ATOM     87  C59 UNL A   1      27.529  32.531  45.562  1.00  0.00    +0.000 C 
ATOM     88  C60 UNL A   1      27.684  32.762  47.067  1.00  0.00    +0.000 C 
BRANCH    9    8
ATOM     99  H4  UNL A   1      25.871  35.405  50.637  1.00  0.00    +0.000 H 
ATOM    100  H5  UNL A   1      26.282  34.008  48.692  1.00  0.00    +0.000 H 
ATOM      5  C2  UNL A   1      27.668  36.503  50.442  1.00  0.00    +0.000 C 
ATOM      6  C3  UNL A   1      26.735  35.526  50.085  1.00  0.00    +0.000 C 
ATOM      7  C4  UNL A   1      26.980  34.715  48.971  1.00  0.00    +0.000 C 
ATOM    136  H41 UNL A   1      29.522  37.397  49.968  1.00  0.00    +0.000 H 
ATOM    135  H40 UNL A   1      29.940  35.973  48.053  1.00  0.00    +0.000 H 
ATOM      8  C5  UNL A   1      28.164  34.848  48.229  1.00  0.00    +0.000 C 
ATOM     94  C65 UNL A   1      29.076  35.846  48.603  1.00  0.00    +0.000 C 
ATOM     95  C66 UNL A   1      28.838  36.670  49.703  1.00  0.00    +0.000 C 
BRANCH    5    2
ATOM      2  S1  UNL A   1      27.378  37.523  51.867  1.00  0.00    +0.000 S 
ATOM      3  O1  UNL A   1      28.350  37.151  52.880  1.00  0.00    +0.000 O 
ATOM      4  O2  UNL A   1      25.957  37.460  52.144  1.00  0.00    +0.000 O 
BRANCH    2    1
ATOM      1  C1  UNL A   1      27.777  39.164  51.332  1.00  0.00    +0.000 C 
ATOM     98  H3  UNL A   1      28.519  39.118  50.562  1.00  0.00    +0.000 H 
ATOM     97  H2  UNL A   1      26.897  39.638  50.949  1.00  0.00    +0.000 H 
ATOM     96  H1  UNL A   1      28.154  39.728  52.159  1.00  0.00    +0.000 H 
ENDBRANCH    2    1
ENDBRANCH    5    2
ENDBRANCH    9    8
BRANCH   88   89
ATOM    132  H37 UNL A   1      26.526  30.341  48.134  1.00  0.00    +0.000 H 
ATOM    133  H38 UNL A   1      28.005  28.651  49.386  1.00  0.00    +0.000 H 
ATOM    134  H39 UNL A   1      30.436  29.355  49.411  1.00  0.00    +0.000 H 
ATOM     89  C61 UNL A   1      28.247  31.570  47.830  1.00  0.00    +0.000 C 
ATOM     90  C62 UNL A   1      27.540  30.467  48.280  1.00  0.00    +0.000 C 
ATOM     91  C63 UNL A   1      28.358  29.525  48.967  1.00  0.00    +0.000 C 
ATOM     92  C64 UNL A   1      29.675  29.919  49.002  1.00  0.00    +0.000 C 
ATOM     93  S2  UNL A   1      29.898  31.454  48.295  1.00  0.00    +0.000 S 
ENDBRANCH   88   89
ENDBRANCH   12   11
ENDBRANCH   14   12
ENDBRANCH   15   14
ENDBRANCH   16   15
ENDBRANCH   17   16
ENDBRANCH   18   17
ENDBRANCH   19   18
ENDBRANCH   20   19
ENDBRANCH   21   20
ENDBRANCH   22   21
ENDBRANCH   24   22
ENDBRANCH   28   27
BRANCH   32   33
ATOM     33  C23 UNL A   1      23.127  33.969  46.028  1.00  0.00    +0.000 C 
ATOM     34  C24 UNL A   1      23.797  32.966  46.745  1.00  0.00    +0.000 C 
ATOM     35  F1  UNL A   1      24.324  33.233  47.949  1.00  0.00    +0.000 F 
ATOM     36  C25 UNL A   1      23.959  31.690  46.210  1.00  0.00    +0.000 C 
ATOM     37  F2  UNL A   1      24.640  30.760  46.894  1.00  0.00    +0.000 F 
ATOM     38  C26 UNL A   1      23.425  31.382  44.968  1.00  0.00    +0.000 C 
ATOM     39  F3  UNL A   1      23.571  30.151  44.461  1.00  0.00    +0.000 F 
ATOM     40  C27 UNL A   1      22.743  32.353  44.250  1.00  0.00    +0.000 C 
ATOM     41  F4  UNL A   1      22.215  32.054  43.055  1.00  0.00    +0.000 F 
ATOM     42  C28 UNL A   1      22.605  33.638  44.769  1.00  0.00    +0.000 C 
ATOM     43  F5  UNL A   1      21.950  34.558  44.045  1.00  0.00    +0.000 F 
ENDBRANCH   32   33
BRANCH   49   50
ATOM     50  C34 UNL A   1      17.901  37.639  49.369  1.00  0.00    +0.000 C 
ATOM     51  C35 UNL A   1      17.614  37.636  50.742  1.00  0.00    +0.000 C 
ATOM     52  F6  UNL A   1      18.596  37.816  51.638  1.00  0.00    +0.000 F 
ATOM     53  C36 UNL A   1      16.321  37.402  51.202  1.00  0.00    +0.000 C 
ATOM     54  F7  UNL A   1      16.079  37.351  52.519  1.00  0.00    +0.000 F 
ATOM     55  C37 UNL A   1      15.285  37.206  50.301  1.00  0.00    +0.000 C 
ATOM     56  F8  UNL A   1      14.040  36.986  50.746  1.00  0.00    +0.000 F 
ATOM     57  C38 UNL A   1      15.542  37.228  48.938  1.00  0.00    +0.000 C 
ATOM     58  F9  UNL A   1      14.540  37.052  48.066  1.00  0.00    +0.000 F 
ATOM     59  C39 UNL A   1      16.839  37.430  48.476  1.00  0.00    +0.000 C 
ATOM     60  F10 UNL A   1      17.058  37.432  47.152  1.00  0.00    +0.000 F 
ENDBRANCH   49   50
BRANCH   64   65
ATOM     65  C43 UNL A   1      21.945  43.310  49.342  1.00  0.00    +0.000 C 
ATOM     66  C44 UNL A   1      22.139  43.674  50.682  1.00  0.00    +0.000 C 
ATOM     67  F11 UNL A   1      22.503  42.748  51.580  1.00  0.00    +0.000 F 
ATOM     68  C45 UNL A   1      21.915  44.980  51.113  1.00  0.00    +0.000 C 
ATOM     69  F12 UNL A   1      22.058  45.288  52.409  1.00  0.00    +0.000 F 
ATOM     70  C46 UNL A   1      21.525  45.955  50.207  1.00  0.00    +0.000 C 
ATOM     71  F13 UNL A   1      21.311  47.211  50.621  1.00  0.00    +0.000 F 
ATOM     72  C47 UNL A   1      21.350  45.624  48.872  1.00  0.00    +0.000 C 
ATOM     73  F14 UNL A   1      20.988  46.566  47.991  1.00  0.00    +0.000 F 
ATOM     74  C48 UNL A   1      21.545  44.312  48.445  1.00  0.00    +0.000 C 
ATOM     75  F15 UNL A   1      21.352  44.017  47.151  1.00  0.00    +0.000 F 
ENDBRANCH   64   65
TORSDOF 19
ENDMDL
MODEL 6
REMARK VINA RESULT:     -10.9      1.108      2.311
ROOT
ATOM     28  C19 UNL A   1      53.379  19.260  10.998  1.00  0.00    +0.000 C 
ATOM     29  C20 UNL A   1      53.254  20.075  12.257  1.00  0.00    +0.000 C 
ATOM     30  N5  UNL A   1      54.132  20.267  13.208  1.00  0.00    +0.000 N 
ATOM     31  C21 UNL A   1      53.530  21.132  14.112  1.00  0.00    +0.000 C 
ATOM     32  C22 UNL A   1      54.008  21.589  15.294  1.00  0.00    +0.000 C 
ATOM     44  C29 UNL A   1      55.289  21.226  15.844  1.00  0.00    +0.000 C 
ATOM     45  C30 UNL A   1      55.831  21.575  17.069  1.00  0.00    +0.000 C 
ATOM     46  C31 UNL A   1      57.118  21.033  17.148  1.00  0.00    +0.000 C 
ATOM     47  C32 UNL A   1      57.358  20.302  15.995  1.00  0.00    +0.000 C 
ATOM     48  N6  UNL A   1      56.228  20.433  15.203  1.00  0.00    +0.000 N 
ATOM     49  C33 UNL A   1      58.528  19.541  15.643  1.00  0.00    +0.000 C 
ATOM     61  C40 UNL A   1      58.680  18.841  14.492  1.00  0.00    +0.000 C 
ATOM     62  N7  UNL A   1      57.794  18.696  13.433  1.00  0.00    +0.000 N 
ATOM     63  C41 UNL A   1      58.405  17.944  12.551  1.00  0.00    +0.000 C 
ATOM     64  C42 UNL A   1      57.906  17.438  11.225  1.00  0.00    +0.000 C 
ATOM     76  C49 UNL A   1      56.652  17.741  10.836  1.00  0.00    +0.000 C 
ATOM     77  C50 UNL A   1      56.025  17.307   9.591  1.00  0.00    +0.000 C 
ATOM     78  C51 UNL A   1      54.790  17.826   9.520  1.00  0.00    +0.000 C 
ATOM     79  C52 UNL A   1      54.525  18.604  10.732  1.00  0.00    +0.000 C 
ATOM     80  N8  UNL A   1      55.685  18.494  11.457  1.00  0.00    +0.000 N 
ATOM     81  C53 UNL A   1      59.765  17.548  12.941  1.00  0.00    +0.000 C 
ATOM     82  C54 UNL A   1      59.866  18.084  14.149  1.00  0.00    +0.000 C 
ATOM     83  C55 UNL A   1      52.229  21.468  13.572  1.00  0.00    +0.000 C 
ATOM     84  C56 UNL A   1      51.984  20.789  12.460  1.00  0.00    +0.000 C 
ATOM    117  H22 UNL A   1      55.366  22.137  17.798  1.00  0.00    +0.000 H 
ATOM    118  H23 UNL A   1      57.778  21.156  17.933  1.00  0.00    +0.000 H 
ATOM    119  H24 UNL A   1      56.111  20.024  14.314  1.00  0.00    +0.000 H 
ATOM    120  H25 UNL A   1      56.461  16.699   8.881  1.00  0.00    +0.000 H 
ATOM    121  H26 UNL A   1      54.131  17.698   8.736  1.00  0.00    +0.000 H 
ATOM    122  H27 UNL A   1      55.812  18.913  12.338  1.00  0.00    +0.000 H 
ATOM    123  H28 UNL A   1      60.460  16.997  12.414  1.00  0.00    +0.000 H 
ATOM    124  H29 UNL A   1      60.685  17.975  14.767  1.00  0.00    +0.000 H 
ATOM    125  H30 UNL A   1      51.578  22.146  13.998  1.00  0.00    +0.000 H 
ATOM    126  H31 UNL A   1      51.127  20.768  11.887  1.00  0.00    +0.000 H 
ENDROOT
BRANCH   28   27
ATOM    115  H20 UNL A   1      50.868  21.015   7.539  1.00  0.00    +0.000 H 
ATOM    116  H21 UNL A   1      52.767  21.033   9.050  1.00  0.00    +0.000 H 
ATOM     85  C57 UNL A   1      51.372  18.138  10.012  1.00  0.00    +0.000 C 
ATOM     86  C58 UNL A   1      50.330  18.088   9.087  1.00  0.00    +0.000 C 
ATOM     24  C15 UNL A   1      50.112  19.164   8.222  1.00  0.00    +0.000 C 
ATOM     25  C16 UNL A   1      51.008  20.237   8.203  1.00  0.00    +0.000 C 
ATOM     26  C17 UNL A   1      52.091  20.255   9.084  1.00  0.00    +0.000 C 
ATOM     27  C18 UNL A   1      52.266  19.219  10.016  1.00  0.00    +0.000 C 
ATOM    127  H32 UNL A   1      51.486  17.375  10.699  1.00  0.00    +0.000 H 
ATOM    128  H33 UNL A   1      49.721  17.256   9.040  1.00  0.00    +0.000 H 
BRANCH   24   22
ATOM     22  C14 UNL A   1      48.963  19.185   7.289  1.00  0.00    +0.000 C 
ATOM     23  O4  UNL A   1      48.497  20.260   6.923  1.00  0.00    +0.000 O 
BRANCH   22   21
ATOM    114  H19 UNL A   1      47.532  17.788   7.233  1.00  0.00    +0.000 H 
ATOM     21  N4  UNL A   1      48.408  18.012   6.842  1.00  0.00    +0.000 N 
BRANCH   21   20
ATOM    113  H18 UNL A   1      49.135  16.147   6.406  1.00  0.00    +0.000 H 
ATOM     20  C13 UNL A   1      48.920  17.054   5.880  1.00  0.00    +0.000 C 
ATOM    112  H17 UNL A   1      49.800  17.461   5.427  1.00  0.00    +0.000 H 
BRANCH   20   19
ATOM     19  C12 UNL A   1      47.908  16.730   4.786  1.00  0.00    +0.000 C 
ATOM    110  H15 UNL A   1      48.448  16.552   3.879  1.00  0.00    +0.000 H 
ATOM    111  H16 UNL A   1      47.360  15.879   5.132  1.00  0.00    +0.000 H 
BRANCH   19   18
ATOM     18  C11 UNL A   1      46.869  17.821   4.512  1.00  0.00    +0.000 C 
ATOM    108  H13 UNL A   1      45.976  17.565   5.042  1.00  0.00    +0.000 H 
ATOM    109  H14 UNL A   1      47.317  18.738   4.835  1.00  0.00    +0.000 H 
BRANCH   18   17
ATOM     17  C10 UNL A   1      46.501  18.031   3.040  1.00  0.00    +0.000 C 
ATOM    106  H11 UNL A   1      46.958  18.941   2.713  1.00  0.00    +0.000 H 
ATOM    107  H12 UNL A   1      46.850  17.164   2.522  1.00  0.00    +0.000 H 
BRANCH   17   16
ATOM    105  H10 UNL A   1      44.549  17.282   3.226  1.00  0.00    +0.000 H 
ATOM    104  H9  UNL A   1      44.872  18.127   1.683  1.00  0.00    +0.000 H 
ATOM     16  C9  UNL A   1      45.003  18.124   2.745  1.00  0.00    +0.000 C 
BRANCH   16   15
ATOM    103  H8  UNL A   1      44.791  20.231   2.908  1.00  0.00    +0.000 H 
ATOM    102  H7  UNL A   1      44.390  19.351   4.377  1.00  0.00    +0.000 H 
ATOM     15  C8  UNL A   1      44.312  19.363   3.310  1.00  0.00    +0.000 C 
BRANCH   15   14
ATOM    101  H6  UNL A   1      42.733  19.991   2.175  1.00  0.00    +0.000 H 
ATOM     14  N3  UNL A   1      42.913  19.395   2.938  1.00  0.00    +0.000 N 
BRANCH   14   12
ATOM     12  C7  UNL A   1      41.781  18.779   3.410  1.00  0.00    +0.000 C 
ATOM     13  O3  UNL A   1      41.931  17.781   4.112  1.00  0.00    +0.000 O 
BRANCH   12   11
ATOM    129  H34 UNL A   1      39.140  18.728   4.744  1.00  0.00    +0.000 H 
ATOM    130  H35 UNL A   1      39.042  17.573   3.514  1.00  0.00    +0.000 H 
ATOM    131  H36 UNL A   1      37.401  18.905   2.397  1.00  0.00    +0.000 H 
ATOM      9  N1  UNL A   1      38.812  20.475   2.250  1.00  0.00    +0.000 N 
ATOM     10  N2  UNL A   1      40.151  20.176   2.220  1.00  0.00    +0.000 N 
ATOM     11  C6  UNL A   1      40.364  19.225   3.078  1.00  0.00    +0.000 C 
ATOM     87  C59 UNL A   1      39.144  18.625   3.679  1.00  0.00    +0.000 C 
ATOM     88  C60 UNL A   1      38.051  19.475   3.027  1.00  0.00    +0.000 C 
BRANCH    9    8
ATOM     99  H4  UNL A   1      35.394  20.598  -0.794  1.00  0.00    +0.000 H 
ATOM    100  H5  UNL A   1      36.421  19.771   1.247  1.00  0.00    +0.000 H 
ATOM      5  C2  UNL A   1      37.053  21.784  -1.352  1.00  0.00    +0.000 C 
ATOM      6  C3  UNL A   1      36.344  20.904  -0.530  1.00  0.00    +0.000 C 
ATOM      7  C4  UNL A   1      36.933  20.439   0.650  1.00  0.00    +0.000 C 
ATOM    136  H41 UNL A   1      38.858  22.850  -1.613  1.00  0.00    +0.000 H 
ATOM    135  H40 UNL A   1      39.858  22.049   0.443  1.00  0.00    +0.000 H 
ATOM      8  C5  UNL A   1      38.212  20.869   1.036  1.00  0.00    +0.000 C 
ATOM     94  C65 UNL A   1      38.906  21.742   0.186  1.00  0.00    +0.000 C 
ATOM     95  C66 UNL A   1      38.336  22.204  -1.001  1.00  0.00    +0.000 C 
BRANCH    5    2
ATOM      2  S1  UNL A   1      36.306  22.399  -2.841  1.00  0.00    +0.000 S 
ATOM      3  O1  UNL A   1      34.961  21.856  -2.915  1.00  0.00    +0.000 O 
ATOM      4  O2  UNL A   1      37.258  22.174  -3.910  1.00  0.00    +0.000 O 
BRANCH    2    1
ATOM      1  C1  UNL A   1      36.155  24.145  -2.579  1.00  0.00    +0.000 C 
ATOM     98  H3  UNL A   1      36.754  24.667  -3.295  1.00  0.00    +0.000 H 
ATOM     97  H2  UNL A   1      35.131  24.435  -2.691  1.00  0.00    +0.000 H 
ATOM     96  H1  UNL A   1      36.488  24.388  -1.591  1.00  0.00    +0.000 H 
ENDBRANCH    2    1
ENDBRANCH    5    2
ENDBRANCH    9    8
BRANCH   88   89
ATOM    132  H37 UNL A   1      36.101  18.278   4.789  1.00  0.00    +0.000 H 
ATOM    133  H38 UNL A   1      34.583  19.769   6.233  1.00  0.00    +0.000 H 
ATOM    134  H39 UNL A   1      35.129  22.225   5.955  1.00  0.00    +0.000 H 
ATOM     89  C61 UNL A   1      37.027  20.036   4.004  1.00  0.00    +0.000 C 
ATOM     90  C62 UNL A   1      36.146  19.308   4.789  1.00  0.00    +0.000 C 
ATOM     91  C63 UNL A   1      35.310  20.132   5.597  1.00  0.00    +0.000 C 
ATOM     92  C64 UNL A   1      35.589  21.468   5.427  1.00  0.00    +0.000 C 
ATOM     93  S2  UNL A   1      36.783  21.723   4.237  1.00  0.00    +0.000 S 
ENDBRANCH   88   89
ENDBRANCH   12   11
ENDBRANCH   14   12
ENDBRANCH   15   14
ENDBRANCH   16   15
ENDBRANCH   17   16
ENDBRANCH   18   17
ENDBRANCH   19   18
ENDBRANCH   20   19
ENDBRANCH   21   20
ENDBRANCH   22   21
ENDBRANCH   24   22
ENDBRANCH   28   27
BRANCH   32   33
ATOM     33  C23 UNL A   1      53.144  22.530  16.082  1.00  0.00    +0.000 C 
ATOM     34  C24 UNL A   1      53.056  23.893  15.762  1.00  0.00    +0.000 C 
ATOM     35  F1  UNL A   1      53.802  24.403  14.770  1.00  0.00    +0.000 F 
ATOM     36  C25 UNL A   1      52.226  24.747  16.483  1.00  0.00    +0.000 C 
ATOM     37  F2  UNL A   1      52.192  26.054  16.187  1.00  0.00    +0.000 F 
ATOM     38  C26 UNL A   1      51.441  24.251  17.513  1.00  0.00    +0.000 C 
ATOM     39  F3  UNL A   1      50.634  25.071  18.198  1.00  0.00    +0.000 F 
ATOM     40  C27 UNL A   1      51.498  22.903  17.835  1.00  0.00    +0.000 C 
ATOM     41  F4  UNL A   1      50.731  22.418  18.822  1.00  0.00    +0.000 F 
ATOM     42  C28 UNL A   1      52.349  22.052  17.135  1.00  0.00    +0.000 C 
ATOM     43  F5  UNL A   1      52.390  20.756  17.479  1.00  0.00    +0.000 F 
ENDBRANCH   32   33
BRANCH   49   50
ATOM     50  C34 UNL A   1      59.658  19.494  16.629  1.00  0.00    +0.000 C 
ATOM     51  C35 UNL A   1      59.781  18.451  17.558  1.00  0.00    +0.000 C 
ATOM     52  F6  UNL A   1      58.854  17.483  17.614  1.00  0.00    +0.000 F 
ATOM     53  C36 UNL A   1      60.838  18.422  18.464  1.00  0.00    +0.000 C 
ATOM     54  F7  UNL A   1      60.908  17.444  19.378  1.00  0.00    +0.000 F 
ATOM     55  C37 UNL A   1      61.809  19.412  18.436  1.00  0.00    +0.000 C 
ATOM     56  F8  UNL A   1      62.827  19.379  19.306  1.00  0.00    +0.000 F 
ATOM     57  C38 UNL A   1      61.718  20.441  17.510  1.00  0.00    +0.000 C 
ATOM     58  F9  UNL A   1      62.663  21.391  17.472  1.00  0.00    +0.000 F 
ATOM     59  C39 UNL A   1      60.647  20.490  16.624  1.00  0.00    +0.000 C 
ATOM     60  F10 UNL A   1      60.580  21.505  15.750  1.00  0.00    +0.000 F 
ENDBRANCH   49   50
BRANCH   64   65
ATOM     65  C43 UNL A   1      58.771  16.598  10.356  1.00  0.00    +0.000 C 
ATOM     66  C44 UNL A   1      58.840  15.209  10.534  1.00  0.00    +0.000 C 
ATOM     67  F11 UNL A   1      58.127  14.623  11.507  1.00  0.00    +0.000 F 
ATOM     68  C45 UNL A   1      59.677  14.423   9.745  1.00  0.00    +0.000 C 
ATOM     69  F12 UNL A   1      59.762  13.106   9.970  1.00  0.00    +0.000 F 
ATOM     70  C46 UNL A   1      60.435  15.006   8.740  1.00  0.00    +0.000 C 
ATOM     71  F13 UNL A   1      61.239  14.249   7.980  1.00  0.00    +0.000 F 
ATOM     72  C47 UNL A   1      60.365  16.374   8.530  1.00  0.00    +0.000 C 
ATOM     73  F14 UNL A   1      61.085  16.939   7.551  1.00  0.00    +0.000 F 
ATOM     74  C48 UNL A   1      59.551  17.165   9.338  1.00  0.00    +0.000 C 
ATOM     75  F15 UNL A   1      59.516  18.489   9.123  1.00  0.00    +0.000 F 
ENDBRANCH   64   65
TORSDOF 19
ENDMDL
MODEL 7
REMARK VINA RESULT:     -10.7     44.993     50.485
ROOT
ATOM     28  C19 UNL A   1      14.211  49.998   4.258  1.00  0.00    +0.000 C 
ATOM     29  C20 UNL A   1      14.839  49.599   2.952  1.00  0.00    +0.000 C 
ATOM     30  N5  UNL A   1      15.442  50.346   2.061  1.00  0.00    +0.000 N 
ATOM     31  C21 UNL A   1      15.876  49.477   1.068  1.00  0.00    +0.000 C 
ATOM     32  C22 UNL A   1      16.501  49.769  -0.097  1.00  0.00    +0.000 C 
ATOM     44  C29 UNL A   1      16.831  51.103  -0.528  1.00  0.00    +0.000 C 
ATOM     45  C30 UNL A   1      17.396  51.509  -1.725  1.00  0.00    +0.000 C 
ATOM     46  C31 UNL A   1      17.578  52.894  -1.676  1.00  0.00    +0.000 C 
ATOM     47  C32 UNL A   1      17.078  53.360  -0.470  1.00  0.00    +0.000 C 
ATOM     48  N6  UNL A   1      16.627  52.249   0.226  1.00  0.00    +0.000 N 
ATOM     49  C33 UNL A   1      17.017  54.716   0.012  1.00  0.00    +0.000 C 
ATOM     61  C40 UNL A   1      16.500  55.091   1.208  1.00  0.00    +0.000 C 
ATOM     62  N7  UNL A   1      15.935  54.303   2.202  1.00  0.00    +0.000 N 
ATOM     63  C41 UNL A   1      15.603  55.124   3.168  1.00  0.00    +0.000 C 
ATOM     64  C42 UNL A   1      14.925  54.825   4.477  1.00  0.00    +0.000 C 
ATOM     76  C49 UNL A   1      14.556  53.560   4.753  1.00  0.00    +0.000 C 
ATOM     77  C50 UNL A   1      13.875  53.123   5.968  1.00  0.00    +0.000 C 
ATOM     78  C51 UNL A   1      13.699  51.793   5.916  1.00  0.00    +0.000 C 
ATOM     79  C52 UNL A   1      14.226  51.288   4.647  1.00  0.00    +0.000 C 
ATOM     80  N8  UNL A   1      14.711  52.408   4.020  1.00  0.00    +0.000 N 
ATOM     81  C53 UNL A   1      15.946  56.528   2.905  1.00  0.00    +0.000 C 
ATOM     82  C54 UNL A   1      16.448  56.458   1.681  1.00  0.00    +0.000 C 
ATOM     83  C55 UNL A   1      15.512  48.140   1.488  1.00  0.00    +0.000 C 
ATOM     84  C56 UNL A   1      14.813  48.167   2.614  1.00  0.00    +0.000 C 
ATOM    117  H22 UNL A   1      17.640  50.894  -2.516  1.00  0.00    +0.000 H 
ATOM    118  H23 UNL A   1      18.012  53.473  -2.413  1.00  0.00    +0.000 H 
ATOM    119  H24 UNL A   1      16.223  52.271   1.124  1.00  0.00    +0.000 H 
ATOM    120  H25 UNL A   1      13.577  53.737   6.741  1.00  0.00    +0.000 H 
ATOM    121  H26 UNL A   1      13.262  51.219   6.653  1.00  0.00    +0.000 H 
ATOM    122  H27 UNL A   1      15.130  52.389   3.129  1.00  0.00    +0.000 H 
ATOM    123  H28 UNL A   1      15.826  57.353   3.513  1.00  0.00    +0.000 H 
ATOM    124  H29 UNL A   1      16.763  57.275   1.134  1.00  0.00    +0.000 H 
ATOM    125  H30 UNL A   1      15.764  47.280   0.977  1.00  0.00    +0.000 H 
ATOM    126  H31 UNL A   1      14.365  47.387   3.120  1.00  0.00    +0.000 H 
ENDROOT
BRANCH   28   27
ATOM    115  H20 UNL A   1      14.474  46.346   7.076  1.00  0.00    +0.000 H 
ATOM    116  H21 UNL A   1      15.463  48.098   5.721  1.00  0.00    +0.000 H 
ATOM     85  C57 UNL A   1      12.231  48.917   5.342  1.00  0.00    +0.000 C 
ATOM     86  C58 UNL A   1      11.671  47.961   6.188  1.00  0.00    +0.000 C 
ATOM     24  C15 UNL A   1      12.483  46.988   6.777  1.00  0.00    +0.000 C 
ATOM     25  C16 UNL A   1      13.870  47.043   6.612  1.00  0.00    +0.000 C 
ATOM     26  C17 UNL A   1      14.437  48.042   5.819  1.00  0.00    +0.000 C 
ATOM     27  C18 UNL A   1      13.621  48.971   5.154  1.00  0.00    +0.000 C 
ATOM    127  H32 UNL A   1      11.621  49.589   4.851  1.00  0.00    +0.000 H 
ATOM    128  H33 UNL A   1      10.657  47.974   6.381  1.00  0.00    +0.000 H 
BRANCH   24   22
ATOM     22  C14 UNL A   1      11.913  45.904   7.609  1.00  0.00    +0.000 C 
ATOM     23  O4  UNL A   1      11.676  44.811   7.103  1.00  0.00    +0.000 O 
BRANCH   22   21
ATOM    114  H19 UNL A   1      10.729  46.466   9.121  1.00  0.00    +0.000 H 
ATOM     21  N4  UNL A   1      11.632  46.119   8.934  1.00  0.00    +0.000 N 
BRANCH   21   20
ATOM    113  H18 UNL A   1      13.397  45.498   9.768  1.00  0.00    +0.000 H 
ATOM     20  C13 UNL A   1      12.468  45.911  10.102  1.00  0.00    +0.000 C 
ATOM    112  H17 UNL A   1      11.964  45.248  10.772  1.00  0.00    +0.000 H 
BRANCH   20   19
ATOM     19  C12 UNL A   1      12.775  47.212  10.837  1.00  0.00    +0.000 C 
ATOM    110  H15 UNL A   1      11.845  47.691  11.064  1.00  0.00    +0.000 H 
ATOM    111  H16 UNL A   1      13.337  46.937  11.704  1.00  0.00    +0.000 H 
BRANCH   19   18
ATOM     18  C11 UNL A   1      13.645  48.210  10.067  1.00  0.00    +0.000 C 
ATOM    108  H13 UNL A   1      13.248  48.298   9.078  1.00  0.00    +0.000 H 
ATOM    109  H14 UNL A   1      13.612  49.120  10.630  1.00  0.00    +0.000 H 
BRANCH   18   17
ATOM     17  C10 UNL A   1      15.128  47.845   9.950  1.00  0.00    +0.000 C 
ATOM    106  H11 UNL A   1      15.573  47.961  10.915  1.00  0.00    +0.000 H 
ATOM    107  H12 UNL A   1      15.156  46.842   9.581  1.00  0.00    +0.000 H 
BRANCH   17   16
ATOM    105  H10 UNL A   1      15.321  49.525   8.706  1.00  0.00    +0.000 H 
ATOM    104  H9  UNL A   1      16.167  48.066   8.113  1.00  0.00    +0.000 H 
ATOM     16  C9  UNL A   1      15.933  48.683   8.955  1.00  0.00    +0.000 C 
BRANCH   16   15
ATOM    103  H8  UNL A   1      17.522  50.091   8.903  1.00  0.00    +0.000 H 
ATOM    102  H7  UNL A   1      17.994  48.492   9.466  1.00  0.00    +0.000 H 
ATOM     15  C8  UNL A   1      17.240  49.251   9.503  1.00  0.00    +0.000 C 
BRANCH   15   14
ATOM    101  H6  UNL A   1      17.311  48.999  11.529  1.00  0.00    +0.000 H 
ATOM     14  N3  UNL A   1      17.083  49.695  10.872  1.00  0.00    +0.000 N 
BRANCH   14   12
ATOM     12  C7  UNL A   1      16.688  50.871  11.458  1.00  0.00    +0.000 C 
ATOM     13  O3  UNL A   1      17.548  51.532  12.036  1.00  0.00    +0.000 O 
BRANCH   12   11
ATOM    129  H34 UNL A   1      14.704  51.634  13.518  1.00  0.00    +0.000 H 
ATOM    130  H35 UNL A   1      14.156  50.162  12.893  1.00  0.00    +0.000 H 
ATOM    131  H36 UNL A   1      12.238  51.264  11.986  1.00  0.00    +0.000 H 
ATOM      9  N1  UNL A   1      13.519  52.483  10.824  1.00  0.00    +0.000 N 
ATOM     10  N2  UNL A   1      14.754  52.008  10.461  1.00  0.00    +0.000 N 
ATOM     11  C6  UNL A   1      15.251  51.374  11.479  1.00  0.00    +0.000 C 
ATOM     87  C59 UNL A   1      14.323  51.184  12.625  1.00  0.00    +0.000 C 
ATOM     88  C60 UNL A   1      13.078  51.914  12.115  1.00  0.00    +0.000 C 
BRANCH    9    8
ATOM     99  H4  UNL A   1      10.809  54.636   7.827  1.00  0.00    +0.000 H 
ATOM    100  H5  UNL A   1      12.423  54.634   9.644  1.00  0.00    +0.000 H 
ATOM      5  C2  UNL A   1      10.621  52.531   7.763  1.00  0.00    +0.000 C 
ATOM      6  C3  UNL A   1      11.127  53.744   8.238  1.00  0.00    +0.000 C 
ATOM      7  C4  UNL A   1      12.065  53.739   9.276  1.00  0.00    +0.000 C 
ATOM    136  H41 UNL A   1      10.666  50.429   7.961  1.00  0.00    +0.000 H 
ATOM    135  H40 UNL A   1      12.303  50.436   9.746  1.00  0.00    +0.000 H 
ATOM      8  C5  UNL A   1      12.527  52.532   9.824  1.00  0.00    +0.000 C 
ATOM     94  C65 UNL A   1      11.992  51.331   9.337  1.00  0.00    +0.000 C 
ATOM     95  C66 UNL A   1      11.047  51.322   8.311  1.00  0.00    +0.000 C 
BRANCH    5    2
ATOM      2  S1  UNL A   1       9.447  52.525   6.431  1.00  0.00    +0.000 S 
ATOM      3  O1  UNL A   1       9.623  51.285   5.695  1.00  0.00    +0.000 O 
ATOM      4  O2  UNL A   1       9.563  53.806   5.764  1.00  0.00    +0.000 O 
BRANCH    2    1
ATOM      1  C1  UNL A   1       7.866  52.445   7.227  1.00  0.00    +0.000 C 
ATOM     98  H3  UNL A   1       7.358  53.379   7.108  1.00  0.00    +0.000 H 
ATOM     97  H2  UNL A   1       7.283  51.664   6.784  1.00  0.00    +0.000 H 
ATOM     96  H1  UNL A   1       8.000  52.241   8.269  1.00  0.00    +0.000 H 
ENDBRANCH    2    1
ENDBRANCH    5    2
ENDBRANCH    9    8
BRANCH   88   89
ATOM    132  H37 UNL A   1      13.470  54.732  12.609  1.00  0.00    +0.000 H 
ATOM    133  H38 UNL A   1      12.162  55.903  14.488  1.00  0.00    +0.000 H 
ATOM    134  H39 UNL A   1      10.542  54.332  15.635  1.00  0.00    +0.000 H 
ATOM     89  C61 UNL A   1      12.481  52.904  13.106  1.00  0.00    +0.000 C 
ATOM     90  C62 UNL A   1      12.786  54.252  13.214  1.00  0.00    +0.000 C 
ATOM     91  C63 UNL A   1      12.056  54.905  14.249  1.00  0.00    +0.000 C 
ATOM     92  C64 UNL A   1      11.195  54.046  14.889  1.00  0.00    +0.000 C 
ATOM     93  S2  UNL A   1      11.336  52.450  14.306  1.00  0.00    +0.000 S 
ENDBRANCH   88   89
ENDBRANCH   12   11
ENDBRANCH   14   12
ENDBRANCH   15   14
ENDBRANCH   16   15
ENDBRANCH   17   16
ENDBRANCH   18   17
ENDBRANCH   19   18
ENDBRANCH   20   19
ENDBRANCH   21   20
ENDBRANCH   22   21
ENDBRANCH   24   22
ENDBRANCH   28   27
BRANCH   32   33
ATOM     33  C23 UNL A   1      16.870  48.627  -0.999  1.00  0.00    +0.000 C 
ATOM     34  C24 UNL A   1      16.104  48.303  -2.129  1.00  0.00    +0.000 C 
ATOM     35  F1  UNL A   1      14.976  48.979  -2.397  1.00  0.00    +0.000 F 
ATOM     36  C25 UNL A   1      16.476  47.260  -2.973  1.00  0.00    +0.000 C 
ATOM     37  F2  UNL A   1      15.706  46.942  -4.022  1.00  0.00    +0.000 F 
ATOM     38  C26 UNL A   1      17.637  46.543  -2.724  1.00  0.00    +0.000 C 
ATOM     39  F3  UNL A   1      18.000  45.547  -3.543  1.00  0.00    +0.000 F 
ATOM     40  C27 UNL A   1      18.419  46.857  -1.623  1.00  0.00    +0.000 C 
ATOM     41  F4  UNL A   1      19.549  46.174  -1.388  1.00  0.00    +0.000 F 
ATOM     42  C28 UNL A   1      18.034  47.880  -0.761  1.00  0.00    +0.000 C 
ATOM     43  F5  UNL A   1      18.806  48.152   0.302  1.00  0.00    +0.000 F 
ENDBRANCH   32   33
BRANCH   49   50
ATOM     50  C34 UNL A   1      17.539  55.802  -0.881  1.00  0.00    +0.000 C 
ATOM     51  C35 UNL A   1      16.705  56.480  -1.782  1.00  0.00    +0.000 C 
ATOM     52  F6  UNL A   1      15.413  56.136  -1.896  1.00  0.00    +0.000 F 
ATOM     53  C36 UNL A   1      17.206  57.487  -2.602  1.00  0.00    +0.000 C 
ATOM     54  F7  UNL A   1      16.403  58.086  -3.492  1.00  0.00    +0.000 F 
ATOM     55  C37 UNL A   1      18.539  57.862  -2.511  1.00  0.00    +0.000 C 
ATOM     56  F8  UNL A   1      19.017  58.836  -3.298  1.00  0.00    +0.000 F 
ATOM     57  C38 UNL A   1      19.377  57.220  -1.611  1.00  0.00    +0.000 C 
ATOM     58  F9  UNL A   1      20.661  57.590  -1.513  1.00  0.00    +0.000 F 
ATOM     59  C39 UNL A   1      18.886  56.191  -0.813  1.00  0.00    +0.000 C 
ATOM     60  F10 UNL A   1      19.725  55.581   0.038  1.00  0.00    +0.000 F 
ENDBRANCH   49   50
BRANCH   64   65
ATOM     65  C43 UNL A   1      14.645  55.910   5.454  1.00  0.00    +0.000 C 
ATOM     66  C44 UNL A   1      15.674  56.476   6.220  1.00  0.00    +0.000 C 
ATOM     67  F11 UNL A   1      16.931  56.030   6.084  1.00  0.00    +0.000 F 
ATOM     68  C45 UNL A   1      15.409  57.469   7.161  1.00  0.00    +0.000 C 
ATOM     69  F12 UNL A   1      16.403  57.955   7.915  1.00  0.00    +0.000 F 
ATOM     70  C46 UNL A   1      14.115  57.938   7.331  1.00  0.00    +0.000 C 
ATOM     71  F13 UNL A   1      13.861  58.895   8.235  1.00  0.00    +0.000 F 
ATOM     72  C47 UNL A   1      13.085  57.411   6.568  1.00  0.00    +0.000 C 
ATOM     73  F14 UNL A   1      11.836  57.873   6.718  1.00  0.00    +0.000 F 
ATOM     74  C48 UNL A   1      13.344  56.397   5.648  1.00  0.00    +0.000 C 
ATOM     75  F15 UNL A   1      12.325  55.894   4.935  1.00  0.00    +0.000 F 
ENDBRANCH   64   65
TORSDOF 19
ENDMDL
MODEL 8
REMARK VINA RESULT:     -10.7     41.975     45.850
ROOT
ATOM     28  C19 UNL A   1      29.144 -14.033  31.135  1.00  0.00    +0.000 C 
ATOM     29  C20 UNL A   1      28.863 -14.145  32.608  1.00  0.00    +0.000 C 
ATOM     30  N5  UNL A   1      27.854 -13.673  33.296  1.00  0.00    +0.000 N 
ATOM     31  C21 UNL A   1      28.055 -14.097  34.604  1.00  0.00    +0.000 C 
ATOM     32  C22 UNL A   1      27.318 -13.819  35.705  1.00  0.00    +0.000 C 
ATOM     44  C29 UNL A   1      26.144 -12.985  35.706  1.00  0.00    +0.000 C 
ATOM     45  C30 UNL A   1      25.373 -12.582  36.782  1.00  0.00    +0.000 C 
ATOM     46  C31 UNL A   1      24.305 -11.821  36.295  1.00  0.00    +0.000 C 
ATOM     47  C32 UNL A   1      24.440 -11.705  34.921  1.00  0.00    +0.000 C 
ATOM     48  N6  UNL A   1      25.570 -12.428  34.573  1.00  0.00    +0.000 N 
ATOM     49  C33 UNL A   1      23.601 -10.990  33.995  1.00  0.00    +0.000 C 
ATOM     61  C40 UNL A   1      23.809 -10.918  32.657  1.00  0.00    +0.000 C 
ATOM     62  N7  UNL A   1      24.825 -11.483  31.898  1.00  0.00    +0.000 N 
ATOM     63  C41 UNL A   1      24.579 -11.145  30.657  1.00  0.00    +0.000 C 
ATOM     64  C42 UNL A   1      25.369 -11.454  29.414  1.00  0.00    +0.000 C 
ATOM     76  C49 UNL A   1      26.515 -12.153  29.520  1.00  0.00    +0.000 C 
ATOM     77  C50 UNL A   1      27.394 -12.511  28.411  1.00  0.00    +0.000 C 
ATOM     78  C51 UNL A   1      28.419 -13.238  28.882  1.00  0.00    +0.000 C 
ATOM     79  C52 UNL A   1      28.287 -13.370  30.334  1.00  0.00    +0.000 C 
ATOM     80  N8  UNL A   1      27.130 -12.691  30.625  1.00  0.00    +0.000 N 
ATOM     81  C53 UNL A   1      23.360 -10.344  30.484  1.00  0.00    +0.000 C 
ATOM     82  C54 UNL A   1      22.954 -10.197  31.737  1.00  0.00    +0.000 C 
ATOM     83  C55 UNL A   1      29.255 -14.906  34.605  1.00  0.00    +0.000 C 
ATOM     84  C56 UNL A   1      29.828 -14.914  33.410  1.00  0.00    +0.000 C 
ATOM    117  H22 UNL A   1      25.554 -12.804  37.773  1.00  0.00    +0.000 H 
ATOM    118  H23 UNL A   1      23.545 -11.414  36.864  1.00  0.00    +0.000 H 
ATOM    119  H24 UNL A   1      25.914 -12.532  33.656  1.00  0.00    +0.000 H 
ATOM    120  H25 UNL A   1      27.251 -12.247  27.424  1.00  0.00    +0.000 H 
ATOM    121  H26 UNL A   1      29.180 -13.639  28.312  1.00  0.00    +0.000 H 
ATOM    122  H27 UNL A   1      26.774 -12.599  31.538  1.00  0.00    +0.000 H 
ATOM    123  H28 UNL A   1      22.932  -9.987  29.615  1.00  0.00    +0.000 H 
ATOM    124  H29 UNL A   1      22.133  -9.641  32.021  1.00  0.00    +0.000 H 
ATOM    125  H30 UNL A   1      29.617 -15.410  35.430  1.00  0.00    +0.000 H 
ATOM    126  H31 UNL A   1      30.718 -15.345  33.118  1.00  0.00    +0.000 H 
ENDROOT
BRANCH   28   27
ATOM    115  H20 UNL A   1      33.561 -14.134  29.782  1.00  0.00    +0.000 H 
ATOM    116  H21 UNL A   1      31.663 -13.084  30.869  1.00  0.00    +0.000 H 
ATOM     85  C57 UNL A   1      30.233 -16.005  30.047  1.00  0.00    +0.000 C 
ATOM     86  C58 UNL A   1      31.347 -16.638  29.498  1.00  0.00    +0.000 C 
ATOM     24  C15 UNL A   1      32.547 -15.936  29.350  1.00  0.00    +0.000 C 
ATOM     25  C16 UNL A   1      32.664 -14.640  29.859  1.00  0.00    +0.000 C 
ATOM     26  C17 UNL A   1      31.567 -14.030  30.469  1.00  0.00    +0.000 C 
ATOM     27  C18 UNL A   1      30.334 -14.697  30.543  1.00  0.00    +0.000 C 
ATOM    127  H32 UNL A   1      29.329 -16.502  30.087  1.00  0.00    +0.000 H 
ATOM    128  H33 UNL A   1      31.287 -17.626  29.203  1.00  0.00    +0.000 H 
BRANCH   24   22
ATOM     22  C14 UNL A   1      33.724 -16.547  28.692  1.00  0.00    +0.000 C 
ATOM     23  O4  UNL A   1      34.589 -17.088  29.374  1.00  0.00    +0.000 O 
BRANCH   22   21
ATOM    114  H19 UNL A   1      33.624 -17.327  26.852  1.00  0.00    +0.000 H 
ATOM     21  N4  UNL A   1      33.861 -16.498  27.327  1.00  0.00    +0.000 N 
BRANCH   21   20
ATOM    113  H18 UNL A   1      35.066 -15.783  25.832  1.00  0.00    +0.000 H 
ATOM     20  C13 UNL A   1      34.304 -15.405  26.482  1.00  0.00    +0.000 C 
ATOM    112  H17 UNL A   1      34.675 -14.618  27.104  1.00  0.00    +0.000 H 
BRANCH   20   19
ATOM     19  C12 UNL A   1      33.181 -14.852  25.610  1.00  0.00    +0.000 C 
ATOM    110  H15 UNL A   1      33.585 -14.650  24.639  1.00  0.00    +0.000 H 
ATOM    111  H16 UNL A   1      32.414 -15.598  25.607  1.00  0.00    +0.000 H 
BRANCH   19   18
ATOM     18  C11 UNL A   1      32.523 -13.569  26.125  1.00  0.00    +0.000 C 
ATOM    108  H13 UNL A   1      33.145 -13.168  26.898  1.00  0.00    +0.000 H 
ATOM    109  H14 UNL A   1      32.425 -12.929  25.272  1.00  0.00    +0.000 H 
BRANCH   18   17
ATOM     17  C10 UNL A   1      31.110 -13.730  26.692  1.00  0.00    +0.000 C 
ATOM    106  H11 UNL A   1      31.185 -13.772  27.758  1.00  0.00    +0.000 H 
ATOM    107  H12 UNL A   1      30.551 -12.892  26.333  1.00  0.00    +0.000 H 
BRANCH   17   16
ATOM    105  H10 UNL A   1      30.183 -15.569  27.098  1.00  0.00    +0.000 H 
ATOM    104  H9  UNL A   1      30.948 -15.467  25.485  1.00  0.00    +0.000 H 
ATOM     16  C9  UNL A   1      30.352 -14.973  26.224  1.00  0.00    +0.000 C 
BRANCH   16   15
ATOM    103  H8  UNL A   1      28.273 -14.584  26.419  1.00  0.00    +0.000 H 
ATOM    102  H7  UNL A   1      28.701 -15.522  24.993  1.00  0.00    +0.000 H 
ATOM     15  C8  UNL A   1      28.977 -14.700  25.620  1.00  0.00    +0.000 C 
BRANCH   15   14
ATOM    101  H6  UNL A   1      29.539 -13.558  24.022  1.00  0.00    +0.000 H 
ATOM     14  N3  UNL A   1      28.985 -13.485  24.833  1.00  0.00    +0.000 N 
BRANCH   14   12
ATOM     12  C7  UNL A   1      28.391 -12.255  24.963  1.00  0.00    +0.000 C 
ATOM     13  O3  UNL A   1      27.163 -12.216  24.960  1.00  0.00    +0.000 O 
BRANCH   12   11
ATOM    129  H34 UNL A   1      29.205 -10.388  27.110  1.00  0.00    +0.000 H 
ATOM    130  H35 UNL A   1      27.982  -9.587  26.261  1.00  0.00    +0.000 H 
ATOM    131  H36 UNL A   1      29.565  -7.950  25.531  1.00  0.00    +0.000 H 
ATOM      9  N1  UNL A   1      30.672  -9.482  24.579  1.00  0.00    +0.000 N 
ATOM     10  N2  UNL A   1      30.024 -10.613  24.149  1.00  0.00    +0.000 N 
ATOM     11  C6  UNL A   1      29.158 -10.943  25.058  1.00  0.00    +0.000 C 
ATOM     87  C59 UNL A   1      28.981  -9.957  26.156  1.00  0.00    +0.000 C 
ATOM     88  C60 UNL A   1      30.010  -8.895  25.763  1.00  0.00    +0.000 C 
BRANCH    9    8
ATOM     99  H4  UNL A   1      30.291  -5.566  22.237  1.00  0.00    +0.000 H 
ATOM    100  H5  UNL A   1      29.475  -7.188  23.852  1.00  0.00    +0.000 H 
ATOM      5  C2  UNL A   1      31.984  -6.707  21.688  1.00  0.00    +0.000 C 
ATOM      6  C3  UNL A   1      30.813  -6.441  22.402  1.00  0.00    +0.000 C 
ATOM      7  C4  UNL A   1      30.352  -7.372  23.340  1.00  0.00    +0.000 C 
ATOM    136  H41 UNL A   1      33.557  -8.081  21.373  1.00  0.00    +0.000 H 
ATOM    135  H40 UNL A   1      32.757  -9.674  23.013  1.00  0.00    +0.000 H 
ATOM      8  C5  UNL A   1      31.067  -8.552  23.595  1.00  0.00    +0.000 C 
ATOM     94  C65 UNL A   1      32.232  -8.799  22.854  1.00  0.00    +0.000 C 
ATOM     95  C66 UNL A   1      32.696  -7.886  21.907  1.00  0.00    +0.000 C 
BRANCH    5    2
ATOM      2  S1  UNL A   1      32.589  -5.523  20.511  1.00  0.00    +0.000 S 
ATOM      3  O1  UNL A   1      32.958  -4.324  21.244  1.00  0.00    +0.000 O 
ATOM      4  O2  UNL A   1      31.620  -5.468  19.436  1.00  0.00    +0.000 O 
BRANCH    2    1
ATOM      1  C1  UNL A   1      34.085  -6.238  19.886  1.00  0.00    +0.000 C 
ATOM     98  H3  UNL A   1      33.875  -6.773  18.984  1.00  0.00    +0.000 H 
ATOM     97  H2  UNL A   1      34.794  -5.462  19.683  1.00  0.00    +0.000 H 
ATOM     96  H1  UNL A   1      34.492  -6.910  20.613  1.00  0.00    +0.000 H 
ENDBRANCH    2    1
ENDBRANCH    5    2
ENDBRANCH    9    8
BRANCH   88   89
ATOM    132  H37 UNL A   1      29.849  -6.880  27.825  1.00  0.00    +0.000 H 
ATOM    133  H38 UNL A   1      31.782  -6.592  29.497  1.00  0.00    +0.000 H 
ATOM    134  H39 UNL A   1      33.615  -8.299  29.128  1.00  0.00    +0.000 H 
ATOM     89  C61 UNL A   1      30.935  -8.468  26.894  1.00  0.00    +0.000 C 
ATOM     90  C62 UNL A   1      30.704  -7.458  27.815  1.00  0.00    +0.000 C 
ATOM     91  C63 UNL A   1      31.769  -7.303  28.749  1.00  0.00    +0.000 C 
ATOM     92  C64 UNL A   1      32.776  -8.213  28.532  1.00  0.00    +0.000 C 
ATOM     93  S2  UNL A   1      32.477  -9.181  27.161  1.00  0.00    +0.000 S 
ENDBRANCH   88   89
ENDBRANCH   12   11
ENDBRANCH   14   12
ENDBRANCH   15   14
ENDBRANCH   16   15
ENDBRANCH   17   16
ENDBRANCH   18   17
ENDBRANCH   19   18
ENDBRANCH   20   19
ENDBRANCH   21   20
ENDBRANCH   22   21
ENDBRANCH   24   22
ENDBRANCH   28   27
BRANCH   32   33
ATOM     33  C23 UNL A   1      27.759 -14.416  37.010  1.00  0.00    +0.000 C 
ATOM     34  C24 UNL A   1      28.726 -13.795  37.816  1.00  0.00    +0.000 C 
ATOM     35  F1  UNL A   1      29.330 -12.671  37.401  1.00  0.00    +0.000 F 
ATOM     36  C25 UNL A   1      29.101 -14.346  39.038  1.00  0.00    +0.000 C 
ATOM     37  F2  UNL A   1      30.058 -13.759  39.770  1.00  0.00    +0.000 F 
ATOM     38  C26 UNL A   1      28.495 -15.506  39.495  1.00  0.00    +0.000 C 
ATOM     39  F3  UNL A   1      28.849 -16.029  40.677  1.00  0.00    +0.000 F 
ATOM     40  C27 UNL A   1      27.523 -16.128  38.724  1.00  0.00    +0.000 C 
ATOM     41  F4  UNL A   1      26.926 -17.242  39.170  1.00  0.00    +0.000 F 
ATOM     42  C28 UNL A   1      27.167 -15.595  37.488  1.00  0.00    +0.000 C 
ATOM     43  F5  UNL A   1      26.232 -16.226  36.761  1.00  0.00    +0.000 F 
ENDBRANCH   32   33
BRANCH   49   50
ATOM     50  C34 UNL A   1      22.421 -10.246  34.547  1.00  0.00    +0.000 C 
ATOM     51  C35 UNL A   1      21.122 -10.770  34.476  1.00  0.00    +0.000 C 
ATOM     52  F6  UNL A   1      20.898 -11.943  33.864  1.00  0.00    +0.000 F 
ATOM     53  C36 UNL A   1      20.038 -10.068  34.996  1.00  0.00    +0.000 C 
ATOM     54  F7  UNL A   1      18.799 -10.562  34.870  1.00  0.00    +0.000 F 
ATOM     55  C37 UNL A   1      20.235  -8.849  35.629  1.00  0.00    +0.000 C 
ATOM     56  F8  UNL A   1      19.191  -8.177  36.133  1.00  0.00    +0.000 F 
ATOM     57  C38 UNL A   1      21.515  -8.323  35.730  1.00  0.00    +0.000 C 
ATOM     58  F9  UNL A   1      21.709  -7.153  36.353  1.00  0.00    +0.000 F 
ATOM     59  C39 UNL A   1      22.596  -9.008  35.184  1.00  0.00    +0.000 C 
ATOM     60  F10 UNL A   1      23.819  -8.467  35.286  1.00  0.00    +0.000 F 
ENDBRANCH   49   50
BRANCH   64   65
ATOM     65  C43 UNL A   1      24.908 -10.981  28.082  1.00  0.00    +0.000 C 
ATOM     66  C44 UNL A   1      23.931 -11.685  27.364  1.00  0.00    +0.000 C 
ATOM     67  F11 UNL A   1      23.407 -12.809  27.875  1.00  0.00    +0.000 F 
ATOM     68  C45 UNL A   1      23.522 -11.264  26.101  1.00  0.00    +0.000 C 
ATOM     69  F12 UNL A   1      22.624 -11.984  25.416  1.00  0.00    +0.000 F 
ATOM     70  C46 UNL A   1      24.058 -10.113  25.545  1.00  0.00    +0.000 C 
ATOM     71  F13 UNL A   1      23.663  -9.706  24.330  1.00  0.00    +0.000 F 
ATOM     72  C47 UNL A   1      25.009  -9.386  26.246  1.00  0.00    +0.000 C 
ATOM     73  F14 UNL A   1      25.518  -8.265  25.718  1.00  0.00    +0.000 F 
ATOM     74  C48 UNL A   1      25.440  -9.823  27.496  1.00  0.00    +0.000 C 
ATOM     75  F15 UNL A   1      26.373  -9.110  28.144  1.00  0.00    +0.000 F 
ENDBRANCH   64   65
TORSDOF 19
ENDMDL
MODEL 9
REMARK VINA RESULT:     -10.6     45.122     50.313
ROOT
ATOM     28  C19 UNL A   1      14.183  53.994   4.802  1.00  0.00    +0.000 C 
ATOM     29  C20 UNL A   1      15.140  54.420   3.723  1.00  0.00    +0.000 C 
ATOM     30  N5  UNL A   1      15.628  53.723   2.728  1.00  0.00    +0.000 N 
ATOM     31  C21 UNL A   1      16.425  54.601   2.004  1.00  0.00    +0.000 C 
ATOM     32  C22 UNL A   1      17.192  54.347   0.917  1.00  0.00    +0.000 C 
ATOM     44  C29 UNL A   1      17.324  53.050   0.304  1.00  0.00    +0.000 C 
ATOM     45  C30 UNL A   1      18.135  52.675  -0.753  1.00  0.00    +0.000 C 
ATOM     46  C31 UNL A   1      17.890  51.328  -1.036  1.00  0.00    +0.000 C 
ATOM     47  C32 UNL A   1      16.965  50.849  -0.122  1.00  0.00    +0.000 C 
ATOM     48  N6  UNL A   1      16.623  51.918   0.691  1.00  0.00    +0.000 N 
ATOM     49  C33 UNL A   1      16.432  49.517   0.001  1.00  0.00    +0.000 C 
ATOM     61  C40 UNL A   1      15.531  49.125   0.935  1.00  0.00    +0.000 C 
ATOM     62  N7  UNL A   1      14.938  49.871   1.944  1.00  0.00    +0.000 N 
ATOM     63  C41 UNL A   1      14.128  49.053   2.569  1.00  0.00    +0.000 C 
ATOM     64  C42 UNL A   1      13.252  49.313   3.765  1.00  0.00    +0.000 C 
ATOM     76  C49 UNL A   1      13.270  50.529   4.342  1.00  0.00    +0.000 C 
ATOM     77  C50 UNL A   1      12.494  50.922   5.514  1.00  0.00    +0.000 C 
ATOM     78  C51 UNL A   1      12.734  52.214   5.785  1.00  0.00    +0.000 C 
ATOM     79  C52 UNL A   1      13.709  52.733   4.823  1.00  0.00    +0.000 C 
ATOM     80  N8  UNL A   1      13.973  51.662   4.008  1.00  0.00    +0.000 N 
ATOM     81  C53 UNL A   1      14.096  47.696   2.008  1.00  0.00    +0.000 C 
ATOM     82  C54 UNL A   1      15.001  47.782   1.044  1.00  0.00    +0.000 C 
ATOM     83  C55 UNL A   1      16.316  55.895   2.645  1.00  0.00    +0.000 C 
ATOM     84  C56 UNL A   1      15.586  55.821   3.749  1.00  0.00    +0.000 C 
ATOM    117  H22 UNL A   1      18.805  53.284  -1.247  1.00  0.00    +0.000 H 
ATOM    118  H23 UNL A   1      18.324  50.782  -1.797  1.00  0.00    +0.000 H 
ATOM    119  H24 UNL A   1      15.977  51.880   1.433  1.00  0.00    +0.000 H 
ATOM    120  H25 UNL A   1      11.863  50.306   6.048  1.00  0.00    +0.000 H 
ATOM    121  H26 UNL A   1      12.301  52.756   6.549  1.00  0.00    +0.000 H 
ATOM    122  H27 UNL A   1      14.606  51.700   3.255  1.00  0.00    +0.000 H 
ATOM    123  H28 UNL A   1      13.522  46.887   2.291  1.00  0.00    +0.000 H 
ATOM    124  H29 UNL A   1      15.291  46.993   0.446  1.00  0.00    +0.000 H 
ATOM    125  H30 UNL A   1      16.751  56.760   2.288  1.00  0.00    +0.000 H 
ATOM    126  H31 UNL A   1      15.385  56.556   4.445  1.00  0.00    +0.000 H 
ENDROOT
BRANCH   28   27
ATOM    115  H20 UNL A   1      11.264  57.206   6.385  1.00  0.00    +0.000 H 
ATOM    116  H21 UNL A   1      11.951  55.521   4.781  1.00  0.00    +0.000 H 
ATOM     85  C57 UNL A   1      14.453  55.179   6.990  1.00  0.00    +0.000 C 
ATOM     86  C58 UNL A   1      14.011  56.088   7.950  1.00  0.00    +0.000 C 
ATOM     24  C15 UNL A   1      12.878  56.869   7.705  1.00  0.00    +0.000 C 
ATOM     25  C16 UNL A   1      12.121  56.656   6.549  1.00  0.00    +0.000 C 
ATOM     26  C17 UNL A   1      12.526  55.697   5.619  1.00  0.00    +0.000 C 
ATOM     27  C18 UNL A   1      13.711  54.971   5.817  1.00  0.00    +0.000 C 
ATOM    127  H32 UNL A   1      15.331  54.658   7.142  1.00  0.00    +0.000 H 
ATOM    128  H33 UNL A   1      14.521  56.183   8.843  1.00  0.00    +0.000 H 
BRANCH   24   22
ATOM     22  C14 UNL A   1      12.432  57.906   8.662  1.00  0.00    +0.000 C 
ATOM     23  O4  UNL A   1      12.816  59.064   8.526  1.00  0.00    +0.000 O 
BRANCH   22   21
ATOM    114  H19 UNL A   1      11.502  58.276  10.394  1.00  0.00    +0.000 H 
ATOM     21  N4  UNL A   1      11.605  57.579   9.707  1.00  0.00    +0.000 N 
BRANCH   21   20
ATOM    113  H18 UNL A   1      10.669  55.898   9.002  1.00  0.00    +0.000 H 
ATOM     20  C13 UNL A   1      10.862  56.356   9.950  1.00  0.00    +0.000 C 
ATOM    112  H17 UNL A   1       9.953  56.603  10.457  1.00  0.00    +0.000 H 
BRANCH   20   19
ATOM     19  C12 UNL A   1      11.643  55.359  10.800  1.00  0.00    +0.000 C 
ATOM    110  H15 UNL A   1      12.581  55.807  11.056  1.00  0.00    +0.000 H 
ATOM    111  H16 UNL A   1      11.026  55.145  11.647  1.00  0.00    +0.000 H 
BRANCH   19   18
ATOM     18  C11 UNL A   1      11.928  54.012  10.131  1.00  0.00    +0.000 C 
ATOM    108  H13 UNL A   1      12.574  54.189   9.297  1.00  0.00    +0.000 H 
ATOM    109  H14 UNL A   1      12.362  53.395  10.892  1.00  0.00    +0.000 H 
BRANCH   18   17
ATOM     17  C10 UNL A   1      10.701  53.249   9.624  1.00  0.00    +0.000 C 
ATOM    106  H11 UNL A   1      10.784  52.234   9.953  1.00  0.00    +0.000 H 
ATOM    107  H12 UNL A   1       9.851  53.762  10.022  1.00  0.00    +0.000 H 
BRANCH   17   16
ATOM    105  H10 UNL A   1      11.467  52.980   7.689  1.00  0.00    +0.000 H 
ATOM    104  H9  UNL A   1      10.170  54.206   7.806  1.00  0.00    +0.000 H 
ATOM     16  C9  UNL A   1      10.515  53.239   8.106  1.00  0.00    +0.000 C 
BRANCH   16   15
ATOM    103  H8  UNL A   1       9.747  52.005   6.557  1.00  0.00    +0.000 H 
ATOM    102  H7  UNL A   1       8.530  52.584   7.689  1.00  0.00    +0.000 H 
ATOM     15  C8  UNL A   1       9.524  52.200   7.586  1.00  0.00    +0.000 C 
BRANCH   15   14
ATOM    101  H6  UNL A   1       9.008  50.910   9.083  1.00  0.00    +0.000 H 
ATOM     14  N3  UNL A   1       9.633  50.960   8.324  1.00  0.00    +0.000 N 
BRANCH   14   12
ATOM     12  C7  UNL A   1      10.412  49.837   8.202  1.00  0.00    +0.000 C 
ATOM     13  O3  UNL A   1      10.208  49.110   7.232  1.00  0.00    +0.000 O 
BRANCH   12   11
ATOM    129  H34 UNL A   1      13.367  49.718   8.306  1.00  0.00    +0.000 H 
ATOM    130  H35 UNL A   1      12.859  48.110   8.201  1.00  0.00    +0.000 H 
ATOM    131  H36 UNL A   1      13.704  47.701  10.399  1.00  0.00    +0.000 H 
ATOM      9  N1  UNL A   1      12.382  49.171  11.154  1.00  0.00    +0.000 N 
ATOM     10  N2  UNL A   1      11.211  49.429  10.487  1.00  0.00    +0.000 N 
ATOM     11  C6  UNL A   1      11.468  49.416   9.214  1.00  0.00    +0.000 C 
ATOM     87  C59 UNL A   1      12.835  48.962   8.847  1.00  0.00    +0.000 C 
ATOM     88  C60 UNL A   1      13.445  48.725  10.230  1.00  0.00    +0.000 C 
BRANCH    9    8
ATOM     99  H4  UNL A   1      11.693  48.738  15.660  1.00  0.00    +0.000 H 
ATOM    100  H5  UNL A   1      11.972  50.076  13.651  1.00  0.00    +0.000 H 
ATOM      5  C2  UNL A   1      12.026  46.893  14.684  1.00  0.00    +0.000 C 
ATOM      6  C3  UNL A   1      11.896  48.282  14.757  1.00  0.00    +0.000 C 
ATOM      7  C4  UNL A   1      12.045  49.049  13.596  1.00  0.00    +0.000 C 
ATOM    136  H41 UNL A   1      12.398  45.242  13.420  1.00  0.00    +0.000 H 
ATOM    135  H40 UNL A   1      12.636  46.582  11.415  1.00  0.00    +0.000 H 
ATOM      8  C5  UNL A   1      12.291  48.439  12.356  1.00  0.00    +0.000 C 
ATOM     94  C65 UNL A   1      12.431  47.044  12.315  1.00  0.00    +0.000 C 
ATOM     95  C66 UNL A   1      12.297  46.268  13.467  1.00  0.00    +0.000 C 
BRANCH    5    2
ATOM      2  S1  UNL A   1      11.817  45.908  16.147  1.00  0.00    +0.000 S 
ATOM      3  O1  UNL A   1      13.125  45.408  16.532  1.00  0.00    +0.000 O 
ATOM      4  O2  UNL A   1      10.721  44.997  15.885  1.00  0.00    +0.000 O 
BRANCH    2    1
ATOM      1  C1  UNL A   1      11.306  47.060  17.393  1.00  0.00    +0.000 C 
ATOM     98  H3  UNL A   1      12.163  47.404  17.934  1.00  0.00    +0.000 H 
ATOM     97  H2  UNL A   1      10.819  47.894  16.930  1.00  0.00    +0.000 H 
ATOM     96  H1  UNL A   1      10.627  46.580  18.067  1.00  0.00    +0.000 H 
ENDBRANCH    2    1
ENDBRANCH    5    2
ENDBRANCH    9    8
BRANCH   88   89
ATOM    132  H37 UNL A   1      16.157  47.843   9.779  1.00  0.00    +0.000 H 
ATOM    133  H38 UNL A   1      18.127  49.397  10.344  1.00  0.00    +0.000 H 
ATOM    134  H39 UNL A   1      17.342  51.658  11.169  1.00  0.00    +0.000 H 
ATOM     89  C61 UNL A   1      14.810  49.368  10.432  1.00  0.00    +0.000 C 
ATOM     90  C62 UNL A   1      16.043  48.795  10.161  1.00  0.00    +0.000 C 
ATOM     91  C63 UNL A   1      17.136  49.657  10.465  1.00  0.00    +0.000 C 
ATOM     92  C64 UNL A   1      16.710  50.876  10.938  1.00  0.00    +0.000 C 
ATOM     93  S2  UNL A   1      15.014  50.940  11.098  1.00  0.00    +0.000 S 
ENDBRANCH   88   89
ENDBRANCH   12   11
ENDBRANCH   14   12
ENDBRANCH   15   14
ENDBRANCH   16   15
ENDBRANCH   17   16
ENDBRANCH   18   17
ENDBRANCH   19   18
ENDBRANCH   20   19
ENDBRANCH   21   20
ENDBRANCH   22   21
ENDBRANCH   24   22
ENDBRANCH   28   27
BRANCH   32   33
ATOM     33  C23 UNL A   1      17.958  55.491   0.319  1.00  0.00    +0.000 C 
ATOM     34  C24 UNL A   1      19.198  55.897   0.834  1.00  0.00    +0.000 C 
ATOM     35  F1  UNL A   1      19.704  55.303   1.926  1.00  0.00    +0.000 F 
ATOM     36  C25 UNL A   1      19.911  56.940   0.249  1.00  0.00    +0.000 C 
ATOM     37  F2  UNL A   1      21.072  57.339   0.784  1.00  0.00    +0.000 F 
ATOM     38  C26 UNL A   1      19.416  57.574  -0.881  1.00  0.00    +0.000 C 
ATOM     39  F3  UNL A   1      20.108  58.570  -1.450  1.00  0.00    +0.000 F 
ATOM     40  C27 UNL A   1      18.200  57.178  -1.419  1.00  0.00    +0.000 C 
ATOM     41  F4  UNL A   1      17.726  57.779  -2.518  1.00  0.00    +0.000 F 
ATOM     42  C28 UNL A   1      17.471  56.154  -0.818  1.00  0.00    +0.000 C 
ATOM     43  F5  UNL A   1      16.294  55.801  -1.355  1.00  0.00    +0.000 F 
ENDBRANCH   32   33
BRANCH   49   50
ATOM     50  C34 UNL A   1      16.924  48.473  -0.958  1.00  0.00    +0.000 C 
ATOM     51  C35 UNL A   1      18.081  47.723  -0.700  1.00  0.00    +0.000 C 
ATOM     52  F6  UNL A   1      18.806  47.958   0.405  1.00  0.00    +0.000 F 
ATOM     53  C36 UNL A   1      18.523  46.757  -1.599  1.00  0.00    +0.000 C 
ATOM     54  F7  UNL A   1      19.659  46.089  -1.358  1.00  0.00    +0.000 F 
ATOM     55  C37 UNL A   1      17.798  46.495  -2.753  1.00  0.00    +0.000 C 
ATOM     56  F8  UNL A   1      18.223  45.561  -3.615  1.00  0.00    +0.000 F 
ATOM     57  C38 UNL A   1      16.639  47.209  -3.017  1.00  0.00    +0.000 C 
ATOM     58  F9  UNL A   1      15.931  46.948  -4.125  1.00  0.00    +0.000 F 
ATOM     59  C39 UNL A   1      16.213  48.198  -2.136  1.00  0.00    +0.000 C 
ATOM     60  F10 UNL A   1      15.095  48.881  -2.426  1.00  0.00    +0.000 F 
ENDBRANCH   49   50
BRANCH   64   65
ATOM     65  C43 UNL A   1      12.387  48.240   4.322  1.00  0.00    +0.000 C 
ATOM     66  C44 UNL A   1      12.824  47.440   5.387  1.00  0.00    +0.000 C 
ATOM     67  F11 UNL A   1      14.044  47.631   5.909  1.00  0.00    +0.000 F 
ATOM     68  C45 UNL A   1      12.030  46.411   5.888  1.00  0.00    +0.000 C 
ATOM     69  F12 UNL A   1      12.494  45.629   6.871  1.00  0.00    +0.000 F 
ATOM     70  C46 UNL A   1      10.770  46.182   5.356  1.00  0.00    +0.000 C 
ATOM     71  F13 UNL A   1      10.005  45.193   5.839  1.00  0.00    +0.000 F 
ATOM     72  C47 UNL A   1      10.306  46.976   4.318  1.00  0.00    +0.000 C 
ATOM     73  F14 UNL A   1       9.083  46.768   3.811  1.00  0.00    +0.000 F 
ATOM     74  C48 UNL A   1      11.111  47.986   3.796  1.00  0.00    +0.000 C 
ATOM     75  F15 UNL A   1      10.643  48.727   2.781  1.00  0.00    +0.000 F 
ENDBRANCH   64   65
TORSDOF 19
ENDMDL
MODEL 10
REMARK VINA RESULT:     -10.6     43.724     52.045
ROOT
ATOM     28  C19 UNL A   1      24.566  39.594  47.415  1.00  0.00    +0.000 C 
ATOM     29  C20 UNL A   1      23.974  38.235  47.158  1.00  0.00    +0.000 C 
ATOM     30  N5  UNL A   1      22.775  37.788  47.439  1.00  0.00    +0.000 N 
ATOM     31  C21 UNL A   1      22.731  36.489  46.952  1.00  0.00    +0.000 C 
ATOM     32  C22 UNL A   1      21.727  35.584  47.047  1.00  0.00    +0.000 C 
ATOM     44  C29 UNL A   1      20.475  35.830  47.713  1.00  0.00    +0.000 C 
ATOM     45  C30 UNL A   1      19.426  34.953  47.929  1.00  0.00    +0.000 C 
ATOM     46  C31 UNL A   1      18.398  35.649  48.574  1.00  0.00    +0.000 C 
ATOM     47  C32 UNL A   1      18.827  36.946  48.807  1.00  0.00    +0.000 C 
ATOM     48  N6  UNL A   1      20.101  37.044  48.270  1.00  0.00    +0.000 N 
ATOM     49  C33 UNL A   1      18.128  38.016  49.470  1.00  0.00    +0.000 C 
ATOM     61  C40 UNL A   1      18.625  39.262  49.667  1.00  0.00    +0.000 C 
ATOM     62  N7  UNL A   1      19.860  39.779  49.300  1.00  0.00    +0.000 N 
ATOM     63  C41 UNL A   1      19.859  41.029  49.693  1.00  0.00    +0.000 C 
ATOM     64  C42 UNL A   1      20.950  42.059  49.585  1.00  0.00    +0.000 C 
ATOM     76  C49 UNL A   1      22.131  41.711  49.039  1.00  0.00    +0.000 C 
ATOM     77  C50 UNL A   1      23.285  42.593  48.885  1.00  0.00    +0.000 C 
ATOM     78  C51 UNL A   1      24.270  41.921  48.269  1.00  0.00    +0.000 C 
ATOM     79  C52 UNL A   1      23.828  40.548  48.015  1.00  0.00    +0.000 C 
ATOM     80  N8  UNL A   1      22.548  40.514  48.509  1.00  0.00    +0.000 N 
ATOM     81  C53 UNL A   1      18.608  41.455  50.334  1.00  0.00    +0.000 C 
ATOM     82  C54 UNL A   1      17.907  40.330  50.333  1.00  0.00    +0.000 C 
ATOM     83  C55 UNL A   1      24.004  36.234  46.312  1.00  0.00    +0.000 C 
ATOM     84  C56 UNL A   1      24.831  37.258  46.469  1.00  0.00    +0.000 C 
ATOM    117  H22 UNL A   1      19.406  33.957  47.661  1.00  0.00    +0.000 H 
ATOM    118  H23 UNL A   1      17.477  35.262  48.833  1.00  0.00    +0.000 H 
ATOM    119  H24 UNL A   1      20.658  37.856  48.281  1.00  0.00    +0.000 H 
ATOM    120  H25 UNL A   1      23.334  43.574  49.199  1.00  0.00    +0.000 H 
ATOM    121  H26 UNL A   1      25.191  42.309  48.016  1.00  0.00    +0.000 H 
ATOM    122  H27 UNL A   1      21.982  39.709  48.486  1.00  0.00    +0.000 H 
ATOM    123  H28 UNL A   1      18.343  42.385  50.693  1.00  0.00    +0.000 H 
ATOM    124  H29 UNL A   1      16.970  40.227  50.752  1.00  0.00    +0.000 H 
ATOM    125  H30 UNL A   1      24.237  35.368  45.802  1.00  0.00    +0.000 H 
ATOM    126  H31 UNL A   1      25.818  37.347  46.183  1.00  0.00    +0.000 H 
ENDROOT
BRANCH   28   27
ATOM    115  H20 UNL A   1      29.148  39.786  47.977  1.00  0.00    +0.000 H 
ATOM    116  H21 UNL A   1      26.916  39.142  48.676  1.00  0.00    +0.000 H 
ATOM     85  C57 UNL A   1      26.151  40.511  45.710  1.00  0.00    +0.000 C 
ATOM     86  C58 UNL A   1      27.442  40.803  45.274  1.00  0.00    +0.000 C 
ATOM     24  C15 UNL A   1      28.532  40.591  46.123  1.00  0.00    +0.000 C 
ATOM     25  C16 UNL A   1      28.340  39.976  47.364  1.00  0.00    +0.000 C 
ATOM     26  C17 UNL A   1      27.053  39.621  47.773  1.00  0.00    +0.000 C 
ATOM     27  C18 UNL A   1      25.944  39.911  46.962  1.00  0.00    +0.000 C 
ATOM    127  H32 UNL A   1      25.343  40.737  45.109  1.00  0.00    +0.000 H 
ATOM    128  H33 UNL A   1      27.594  41.175  44.323  1.00  0.00    +0.000 H 
BRANCH   24   22
ATOM     22  C14 UNL A   1      29.906  40.972  45.728  1.00  0.00    +0.000 C 
ATOM     23  O4  UNL A   1      30.442  41.943  46.255  1.00  0.00    +0.000 O 
BRANCH   22   21
ATOM    114  H19 UNL A   1      30.419  40.549  43.842  1.00  0.00    +0.000 H 
ATOM     21  N4  UNL A   1      30.578  40.258  44.769  1.00  0.00    +0.000 N 
BRANCH   21   20
ATOM    113  H18 UNL A   1      32.041  39.285  45.822  1.00  0.00    +0.000 H 
ATOM     20  C13 UNL A   1      31.487  39.137  44.918  1.00  0.00    +0.000 C 
ATOM    112  H17 UNL A   1      32.132  39.102  44.065  1.00  0.00    +0.000 H 
BRANCH   20   19
ATOM     19  C12 UNL A   1      30.754  37.805  45.034  1.00  0.00    +0.000 C 
ATOM    110  H15 UNL A   1      31.472  37.053  45.291  1.00  0.00    +0.000 H 
ATOM    111  H16 UNL A   1      29.999  37.946  45.778  1.00  0.00    +0.000 H 
BRANCH   19   18
ATOM     18  C11 UNL A   1      30.023  37.348  43.769  1.00  0.00    +0.000 C 
ATOM    108  H13 UNL A   1      29.067  36.967  44.061  1.00  0.00    +0.000 H 
ATOM    109  H14 UNL A   1      29.971  38.209  43.135  1.00  0.00    +0.000 H 
BRANCH   18   17
ATOM     17  C10 UNL A   1      30.730  36.266  42.947  1.00  0.00    +0.000 C 
ATOM    106  H11 UNL A   1      30.009  35.825  42.291  1.00  0.00    +0.000 H 
ATOM    107  H12 UNL A   1      31.530  36.759  42.437  1.00  0.00    +0.000 H 
BRANCH   17   16
ATOM    105  H10 UNL A   1      31.221  35.389  44.790  1.00  0.00    +0.000 H 
ATOM    104  H9  UNL A   1      32.410  35.088  43.489  1.00  0.00    +0.000 H 
ATOM     16  C9  UNL A   1      31.377  35.143  43.760  1.00  0.00    +0.000 C 
BRANCH   16   15
ATOM    103  H8  UNL A   1      30.728  33.259  44.497  1.00  0.00    +0.000 H 
ATOM    102  H7  UNL A   1      31.357  33.213  42.854  1.00  0.00    +0.000 H 
ATOM     15  C8  UNL A   1      30.759  33.762  43.552  1.00  0.00    +0.000 C 
BRANCH   15   14
ATOM    101  H6  UNL A   1      29.369  33.838  42.058  1.00  0.00    +0.000 H 
ATOM     14  N3  UNL A   1      29.409  33.865  43.041  1.00  0.00    +0.000 N 
BRANCH   14   12
ATOM     12  C7  UNL A   1      28.172  33.992  43.620  1.00  0.00    +0.000 C 
ATOM     13  O3  UNL A   1      27.248  34.374  42.905  1.00  0.00    +0.000 O 
BRANCH   12   11
ATOM    129  H34 UNL A   1      27.907  31.632  45.388  1.00  0.00    +0.000 H 
ATOM    130  H35 UNL A   1      26.339  32.239  45.214  1.00  0.00    +0.000 H 
ATOM    131  H36 UNL A   1      26.304  32.806  47.536  1.00  0.00    +0.000 H 
ATOM      9  N1  UNL A   1      27.962  34.083  47.224  1.00  0.00    +0.000 N 
ATOM     10  N2  UNL A   1      28.156  34.644  45.987  1.00  0.00    +0.000 N 
ATOM     11  C6  UNL A   1      27.889  33.739  45.095  1.00  0.00    +0.000 C 
ATOM     87  C59 UNL A   1      27.298  32.481  45.622  1.00  0.00    +0.000 C 
ATOM     88  C60 UNL A   1      27.291  32.770  47.125  1.00  0.00    +0.000 C 
BRANCH    9    8
ATOM     99  H4  UNL A   1      28.277  37.576  50.167  1.00  0.00    +0.000 H 
ATOM    100  H5  UNL A   1      29.227  36.076  48.508  1.00  0.00    +0.000 H 
ATOM      5  C2  UNL A   1      26.391  36.620  50.202  1.00  0.00    +0.000 C 
ATOM      6  C3  UNL A   1      27.707  36.810  49.774  1.00  0.00    +0.000 C 
ATOM      7  C4  UNL A   1      28.248  35.952  48.809  1.00  0.00    +0.000 C 
ATOM    136  H41 UNL A   1      24.645  35.450  49.997  1.00  0.00    +0.000 H 
ATOM    135  H40 UNL A   1      25.589  33.983  48.316  1.00  0.00    +0.000 H 
ATOM      8  C5  UNL A   1      27.476  34.925  48.245  1.00  0.00    +0.000 C 
ATOM     94  C65 UNL A   1      26.162  34.749  48.704  1.00  0.00    +0.000 C 
ATOM     95  C66 UNL A   1      25.615  35.589  49.673  1.00  0.00    +0.000 C 
BRANCH    5    2
ATOM      2  S1  UNL A   1      25.688  37.717  51.409  1.00  0.00    +0.000 S 
ATOM      3  O1  UNL A   1      26.287  39.026  51.216  1.00  0.00    +0.000 O 
ATOM      4  O2  UNL A   1      25.775  37.042  52.689  1.00  0.00    +0.000 O 
BRANCH    2    1
ATOM      1  C1  UNL A   1      23.980  37.847  50.955  1.00  0.00    +0.000 C 
ATOM     98  H3  UNL A   1      23.379  37.324  51.669  1.00  0.00    +0.000 H 
ATOM     97  H2  UNL A   1      23.694  38.878  50.935  1.00  0.00    +0.000 H 
ATOM     96  H1  UNL A   1      23.835  37.419  49.984  1.00  0.00    +0.000 H 
ENDBRANCH    2    1
ENDBRANCH    5    2
ENDBRANCH    9    8
BRANCH   88   89
ATOM    132  H37 UNL A   1      26.561  30.019  47.613  1.00  0.00    +0.000 H 
ATOM    133  H38 UNL A   1      27.960  28.582  49.222  1.00  0.00    +0.000 H 
ATOM    134  H39 UNL A   1      29.963  29.844  50.120  1.00  0.00    +0.000 H 
ATOM     89  C61 UNL A   1      27.882  31.658  47.980  1.00  0.00    +0.000 C 
ATOM     90  C62 UNL A   1      27.398  30.365  48.107  1.00  0.00    +0.000 C 
ATOM     91  C63 UNL A   1      28.176  29.564  48.991  1.00  0.00    +0.000 C 
ATOM     92  C64 UNL A   1      29.250  30.257  49.499  1.00  0.00    +0.000 C 
ATOM     93  S2  UNL A   1      29.260  31.882  48.984  1.00  0.00    +0.000 S 
ENDBRANCH   88   89
ENDBRANCH   12   11
ENDBRANCH   14   12
ENDBRANCH   15   14
ENDBRANCH   16   15
ENDBRANCH   17   16
ENDBRANCH   18   17
ENDBRANCH   19   18
ENDBRANCH   20   19
ENDBRANCH   21   20
ENDBRANCH   22   21
ENDBRANCH   24   22
ENDBRANCH   28   27
BRANCH   32   33
ATOM     33  C23 UNL A   1      21.939  34.237  46.419  1.00  0.00    +0.000 C 
ATOM     34  C24 UNL A   1      21.418  33.922  45.155  1.00  0.00    +0.000 C 
ATOM     35  F1  UNL A   1      20.656  34.810  44.499  1.00  0.00    +0.000 F 
ATOM     36  C25 UNL A   1      21.650  32.678  44.574  1.00  0.00    +0.000 C 
ATOM     37  F2  UNL A   1      21.105  32.384  43.385  1.00  0.00    +0.000 F 
ATOM     38  C26 UNL A   1      22.435  31.739  45.226  1.00  0.00    +0.000 C 
ATOM     39  F3  UNL A   1      22.666  30.548  44.660  1.00  0.00    +0.000 F 
ATOM     40  C27 UNL A   1      22.976  32.035  46.468  1.00  0.00    +0.000 C 
ATOM     41  F4  UNL A   1      23.745  31.134  47.095  1.00  0.00    +0.000 F 
ATOM     42  C28 UNL A   1      22.721  33.267  47.066  1.00  0.00    +0.000 C 
ATOM     43  F5  UNL A   1      23.249  33.519  48.273  1.00  0.00    +0.000 F 
ENDBRANCH   32   33
BRANCH   49   50
ATOM     50  C34 UNL A   1      16.756  37.731  50.007  1.00  0.00    +0.000 C 
ATOM     51  C35 UNL A   1      15.645  37.610  49.159  1.00  0.00    +0.000 C 
ATOM     52  F6  UNL A   1      15.780  37.792  47.837  1.00  0.00    +0.000 F 
ATOM     53  C36 UNL A   1      14.379  37.343  49.674  1.00  0.00    +0.000 C 
ATOM     54  F7  UNL A   1      13.323  37.283  48.851  1.00  0.00    +0.000 F 
ATOM     55  C37 UNL A   1      14.205  37.155  51.037  1.00  0.00    +0.000 C 
ATOM     56  F8  UNL A   1      12.987  36.894  51.530  1.00  0.00    +0.000 F 
ATOM     57  C38 UNL A   1      15.295  37.249  51.891  1.00  0.00    +0.000 C 
ATOM     58  F9  UNL A   1      15.132  37.055  53.207  1.00  0.00    +0.000 F 
ATOM     59  C39 UNL A   1      16.556  37.547  51.383  1.00  0.00    +0.000 C 
ATOM     60  F10 UNL A   1      17.586  37.645  52.236  1.00  0.00    +0.000 F 
ENDBRANCH   49   50
BRANCH   64   65
ATOM     65  C43 UNL A   1      20.743  43.442  50.088  1.00  0.00    +0.000 C 
ATOM     66  C44 UNL A   1      20.274  44.456  49.241  1.00  0.00    +0.000 C 
ATOM     67  F11 UNL A   1      20.016  44.185  47.953  1.00  0.00    +0.000 F 
ATOM     68  C45 UNL A   1      20.112  45.761  49.701  1.00  0.00    +0.000 C 
ATOM     69  F12 UNL A   1      19.711  46.721  48.857  1.00  0.00    +0.000 F 
ATOM     70  C46 UNL A   1      20.385  46.071  51.025  1.00  0.00    +0.000 C 
ATOM     71  F13 UNL A   1      20.227  47.326  51.468  1.00  0.00    +0.000 F 
ATOM     72  C47 UNL A   1      20.828  45.080  51.888  1.00  0.00    +0.000 C 
ATOM     73  F14 UNL A   1      21.077  45.372  53.171  1.00  0.00    +0.000 F 
ATOM     74  C48 UNL A   1      21.018  43.781  51.421  1.00  0.00    +0.000 C 
ATOM     75  F15 UNL A   1      21.463  42.847  52.274  1.00  0.00    +0.000 F 
ENDBRANCH   64   65
TORSDOF 19
ENDMDL
