MODEL 1
REMARK VINA RESULT:     -10.9      0.000      0.000
ROOT
ATOM     21  C17 UNL A   1      25.782  36.049  45.357  1.00  0.00    +0.000 C 
ATOM     22  C18 UNL A   1      25.697  37.139  46.390  1.00  0.00    +0.000 C 
ATOM     23  N3  UNL A   1      26.613  38.002  46.758  1.00  0.00    +0.000 N 
ATOM     24  C19 UNL A   1      26.021  38.794  47.732  1.00  0.00    +0.000 C 
ATOM     25  C20 UNL A   1      26.571  39.807  48.444  1.00  0.00    +0.000 C 
ATOM     37  C27 UNL A   1      27.932  40.254  48.305  1.00  0.00    +0.000 C 
ATOM     38  C28 UNL A   1      28.581  41.270  48.989  1.00  0.00    +0.000 C 
ATOM     39  C29 UNL A   1      29.887  41.363  48.499  1.00  0.00    +0.000 C 
ATOM     40  C30 UNL A   1      30.067  40.379  47.540  1.00  0.00    +0.000 C 
ATOM     41  N4  UNL A   1      28.857  39.712  47.426  1.00  0.00    +0.000 N 
ATOM     42  C31 UNL A   1      31.252  40.074  46.781  1.00  0.00    +0.000 C 
ATOM     54  C38 UNL A   1      31.359  39.075  45.873  1.00  0.00    +0.000 C 
ATOM     55  N5  UNL A   1      30.398  38.157  45.473  1.00  0.00    +0.000 N 
ATOM     56  C39 UNL A   1      30.970  37.412  44.559  1.00  0.00    +0.000 C 
ATOM     57  C40 UNL A   1      30.400  36.259  43.786  1.00  0.00    +0.000 C 
ATOM     69  C47 UNL A   1      29.107  35.925  43.961  1.00  0.00    +0.000 C 
ATOM     70  C48 UNL A   1      28.418  34.836  43.275  1.00  0.00    +0.000 C 
ATOM     71  C49 UNL A   1      27.137  34.812  43.671  1.00  0.00    +0.000 C 
ATOM     72  C50 UNL A   1      26.931  35.847  44.683  1.00  0.00    +0.000 C 
ATOM     73  N6  UNL A   1      28.145  36.479  44.769  1.00  0.00    +0.000 N 
ATOM     74  C51 UNL A   1      32.363  37.780  44.268  1.00  0.00    +0.000 C 
ATOM     75  C52 UNL A   1      32.559  38.780  45.118  1.00  0.00    +0.000 C 
ATOM     76  C53 UNL A   1      24.659  38.330  47.884  1.00  0.00    +0.000 C 
ATOM     77  C54 UNL A   1      24.421  37.283  47.108  1.00  0.00    +0.000 C 
ATOM    119  H22 UNL A   1      28.170  41.856  49.732  1.00  0.00    +0.000 H 
ATOM    120  H23 UNL A   1      30.597  42.048  48.800  1.00  0.00    +0.000 H 
ATOM    121  H24 UNL A   1      28.681  38.962  46.812  1.00  0.00    +0.000 H 
ATOM    122  H25 UNL A   1      28.848  34.190  42.595  1.00  0.00    +0.000 H 
ATOM    123  H26 UNL A   1      26.414  34.167  43.317  1.00  0.00    +0.000 H 
ATOM    124  H27 UNL A   1      28.311  37.255  45.351  1.00  0.00    +0.000 H 
ATOM    125  H28 UNL A   1      33.016  37.368  43.584  1.00  0.00    +0.000 H 
ATOM    126  H29 UNL A   1      33.453  39.284  45.226  1.00  0.00    +0.000 H 
ATOM    127  H30 UNL A   1      23.964  38.759  48.515  1.00  0.00    +0.000 H 
ATOM    128  H31 UNL A   1      23.563  36.715  47.027  1.00  0.00    +0.000 H 
ENDROOT
BRANCH   21   20
ATOM    129  H32 UNL A   1      23.491  36.508  43.965  1.00  0.00    +0.000 H 
ATOM    130  H33 UNL A   1      21.555  35.054  43.757  1.00  0.00    +0.000 H 
ATOM     78  C55 UNL A   1      23.503  35.570  44.394  1.00  0.00    +0.000 C 
ATOM     79  C56 UNL A   1      22.396  34.727  44.258  1.00  0.00    +0.000 C 
ATOM     17  C13 UNL A   1      22.432  33.440  44.802  1.00  0.00    +0.000 C 
ATOM     18  C14 UNL A   1      23.597  32.966  45.409  1.00  0.00    +0.000 C 
ATOM     19  C15 UNL A   1      24.668  33.830  45.611  1.00  0.00    +0.000 C 
ATOM     20  C16 UNL A   1      24.631  35.144  45.112  1.00  0.00    +0.000 C 
ATOM    117  H20 UNL A   1      23.664  31.981  45.705  1.00  0.00    +0.000 H 
ATOM    118  H21 UNL A   1      25.498  33.505  46.132  1.00  0.00    +0.000 H 
BRANCH   17   15
ATOM     15  C12 UNL A   1      21.216  32.599  44.745  1.00  0.00    +0.000 C 
ATOM     16  O2  UNL A   1      21.010  31.889  43.767  1.00  0.00    +0.000 O 
BRANCH   15   14
ATOM    116  H19 UNL A   1      19.366  32.723  45.511  1.00  0.00    +0.000 H 
ATOM     14  N2  UNL A   1      20.310  32.644  45.779  1.00  0.00    +0.000 N 
BRANCH   14   13
ATOM    114  H17 UNL A   1      19.798  31.976  47.663  1.00  0.00    +0.000 H 
ATOM    115  H18 UNL A   1      21.530  32.183  47.362  1.00  0.00    +0.000 H 
ATOM     13  C11 UNL A   1      20.551  32.588  47.213  1.00  0.00    +0.000 C 
BRANCH   13   12
ATOM    113  H16 UNL A   1      21.251  34.557  47.360  1.00  0.00    +0.000 H 
ATOM     12  C10 UNL A   1      20.516  33.965  47.865  1.00  0.00    +0.000 C 
ATOM    112  H15 UNL A   1      20.718  33.844  48.909  1.00  0.00    +0.000 H 
BRANCH   12   11
ATOM     11  C9  UNL A   1      19.189  34.709  47.719  1.00  0.00    +0.000 C 
ATOM    110  H13 UNL A   1      18.546  34.120  47.097  1.00  0.00    +0.000 H 
ATOM    111  H14 UNL A   1      18.815  34.847  48.712  1.00  0.00    +0.000 H 
BRANCH   11   10
ATOM     10  C8  UNL A   1      19.287  36.111  47.105  1.00  0.00    +0.000 C 
ATOM    108  H11 UNL A   1      19.992  36.674  47.679  1.00  0.00    +0.000 H 
ATOM    109  H12 UNL A   1      19.576  35.966  46.086  1.00  0.00    +0.000 H 
BRANCH   10    9
ATOM      9  C7  UNL A   1      17.974  36.906  47.060  1.00  0.00    +0.000 C 
ATOM    106  H9  UNL A   1      17.299  36.481  47.773  1.00  0.00    +0.000 H 
ATOM    107  H10 UNL A   1      18.223  37.924  47.282  1.00  0.00    +0.000 H 
BRANCH    9    8
ATOM    105  H8  UNL A   1      18.048  36.912  44.938  1.00  0.00    +0.000 H 
ATOM    104  H7  UNL A   1      16.670  37.777  45.616  1.00  0.00    +0.000 H 
ATOM      8  C6  UNL A   1      17.289  36.909  45.693  1.00  0.00    +0.000 C 
BRANCH    8    7
ATOM    103  H6  UNL A   1      15.668  35.673  46.072  1.00  0.00    +0.000 H 
ATOM      7  N1  UNL A   1      16.470  35.730  45.506  1.00  0.00    +0.000 N 
BRANCH    7    5
ATOM      5  C5  UNL A   1      16.664  34.688  44.648  1.00  0.00    +0.000 C 
ATOM      6  O1  UNL A   1      17.822  34.394  44.342  1.00  0.00    +0.000 O 
BRANCH    5    4
ATOM      4  C4  UNL A   1      15.472  33.953  44.039  1.00  0.00    +0.000 C 
ATOM    101  H4  UNL A   1      14.833  33.634  44.837  1.00  0.00    +0.000 H 
ATOM    102  H5  UNL A   1      14.998  34.642  43.372  1.00  0.00    +0.000 H 
BRANCH    4    3
ATOM      2  C2  UNL A   1      16.154  31.501  43.634  1.00  0.00    +0.000 C 
ATOM      3  C3  UNL A   1      15.833  32.752  43.224  1.00  0.00    +0.000 C 
ATOM    131  H34 UNL A   1      15.297  34.728  41.216  1.00  0.00    +0.000 H 
ATOM    133  H36 UNL A   1      16.305  30.248  39.558  1.00  0.00    +0.000 H 
ATOM    132  H35 UNL A   1      15.832  32.061  38.001  1.00  0.00    +0.000 H 
ATOM     80  C57 UNL A   1      15.828  32.754  41.750  1.00  0.00    +0.000 C 
ATOM     81  C58 UNL A   1      15.530  33.786  40.868  1.00  0.00    +0.000 C 
ATOM     82  C59 UNL A   1      15.554  33.515  39.503  1.00  0.00    +0.000 C 
ATOM     83  F16 UNL A   1      15.286  34.498  38.633  1.00  0.00    +0.000 F 
ATOM     84  C60 UNL A   1      15.835  32.239  39.018  1.00  0.00    +0.000 C 
ATOM     85  C61 UNL A   1      16.120  31.202  39.907  1.00  0.00    +0.000 C 
ATOM     86  C62 UNL A   1      16.152  31.472  41.269  1.00  0.00    +0.000 C 
ATOM     87  C63 UNL A   1      16.447  30.656  42.463  1.00  0.00    +0.000 C 
BRANCH    2    1
ATOM      1  C1  UNL A   1      16.206  30.975  45.030  1.00  0.00    +0.000 C 
ATOM     98  H1  UNL A   1      17.220  30.747  45.288  1.00  0.00    +0.000 H 
ATOM     99  H2  UNL A   1      15.613  30.087  45.100  1.00  0.00    +0.000 H 
ATOM    100  H3  UNL A   1      15.825  31.713  45.704  1.00  0.00    +0.000 H 
ENDBRANCH    2    1
BRANCH   87   88
ATOM    134  H37 UNL A   1      17.967  29.295  42.490  1.00  0.00    +0.000 H 
ATOM     88  C64 UNL A   1      16.942  29.404  42.535  1.00  0.00    +0.000 C 
BRANCH   88   89
ATOM     97  C71 UNL A   1      15.359  27.760  41.593  1.00  0.00    +0.000 C 
ATOM    135  H38 UNL A   1      16.744  27.725  44.641  1.00  0.00    +0.000 H 
ATOM    136  H39 UNL A   1      15.781  25.498  44.645  1.00  0.00    +0.000 H 
ATOM    141  H44 UNL A   1      14.202  26.180  40.812  1.00  0.00    +0.000 H 
ATOM    142  H45 UNL A   1      15.214  28.383  40.783  1.00  0.00    +0.000 H 
ATOM     89  C65 UNL A   1      16.141  28.184  42.669  1.00  0.00    +0.000 C 
ATOM     90  C66 UNL A   1      16.245  27.379  43.808  1.00  0.00    +0.000 C 
ATOM     91  C67 UNL A   1      15.670  26.103  43.816  1.00  0.00    +0.000 C 
ATOM     92  C68 UNL A   1      14.950  25.639  42.710  1.00  0.00    +0.000 C 
ATOM     96  C70 UNL A   1      14.772  26.492  41.613  1.00  0.00    +0.000 C 
BRANCH   92   93
ATOM     93  S1  UNL A   1      14.469  23.894  42.612  1.00  0.00    +0.000 S 
BRANCH   93   94
ATOM    137  H40 UNL A   1      12.166  23.737  43.243  1.00  0.00    +0.000 H 
ATOM    138  H41 UNL A   1      12.368  23.569  41.516  1.00  0.00    +0.000 H 
ATOM    139  H42 UNL A   1      12.463  25.148  42.257  1.00  0.00    +0.000 H 
ATOM     94  C69 UNL A   1      12.685  24.110  42.384  1.00  0.00    +0.000 C 
ENDBRANCH   93   94
BRANCH   93   95
ATOM    140  H43 UNL A   1      14.078  23.178  40.636  1.00  0.00    +0.000 H 
ATOM     95  O3  UNL A   1      14.751  23.752  41.034  1.00  0.00    +0.000 O 
ENDBRANCH   93   95
ENDBRANCH   92   93
ENDBRANCH   88   89
ENDBRANCH   87   88
ENDBRANCH    4    3
ENDBRANCH    5    4
ENDBRANCH    7    5
ENDBRANCH    8    7
ENDBRANCH    9    8
ENDBRANCH   10    9
ENDBRANCH   11   10
ENDBRANCH   12   11
ENDBRANCH   13   12
ENDBRANCH   14   13
ENDBRANCH   15   14
ENDBRANCH   17   15
ENDBRANCH   21   20
BRANCH   25   26
ATOM     33  C25 UNL A   1      24.728  40.628  51.671  1.00  0.00    +0.000 C 
ATOM     34  F4  UNL A   1      24.622  40.136  52.913  1.00  0.00    +0.000 F 
ATOM     35  C26 UNL A   1      25.596  40.033  50.758  1.00  0.00    +0.000 C 
ATOM     36  F5  UNL A   1      26.320  38.974  51.152  1.00  0.00    +0.000 F 
ATOM     26  C21 UNL A   1      25.702  40.512  49.443  1.00  0.00    +0.000 C 
ATOM     27  C22 UNL A   1      24.918  41.617  49.082  1.00  0.00    +0.000 C 
ATOM     28  F1  UNL A   1      24.992  42.120  47.840  1.00  0.00    +0.000 F 
ATOM     29  C23 UNL A   1      24.069  42.225  50.003  1.00  0.00    +0.000 C 
ATOM     30  F2  UNL A   1      23.351  43.298  49.644  1.00  0.00    +0.000 F 
ATOM     31  C24 UNL A   1      23.968  41.725  51.294  1.00  0.00    +0.000 C 
ATOM     32  F3  UNL A   1      23.140  42.303  52.175  1.00  0.00    +0.000 F 
ENDBRANCH   25   26
BRANCH   42   43
ATOM     43  C32 UNL A   1      32.466  40.919  47.021  1.00  0.00    +0.000 C 
ATOM     44  C33 UNL A   1      33.543  40.447  47.785  1.00  0.00    +0.000 C 
ATOM     45  F6  UNL A   1      33.475  39.247  48.378  1.00  0.00    +0.000 F 
ATOM     46  C34 UNL A   1      34.686  41.223  47.961  1.00  0.00    +0.000 C 
ATOM     47  F7  UNL A   1      35.691  40.767  48.721  1.00  0.00    +0.000 F 
ATOM     48  C35 UNL A   1      34.782  42.468  47.358  1.00  0.00    +0.000 C 
ATOM     49  F8  UNL A   1      35.889  43.208  47.520  1.00  0.00    +0.000 F 
ATOM     50  C36 UNL A   1      33.732  42.949  46.592  1.00  0.00    +0.000 C 
ATOM     51  F9  UNL A   1      33.829  44.148  45.999  1.00  0.00    +0.000 F 
ATOM     52  C37 UNL A   1      32.579  42.188  46.432  1.00  0.00    +0.000 C 
ATOM     53  F10 UNL A   1      31.576  42.679  45.688  1.00  0.00    +0.000 F 
ENDBRANCH   42   43
BRANCH   57   58
ATOM     65  C45 UNL A   1      32.765  33.639  42.388  1.00  0.00    +0.000 C 
ATOM     66  F14 UNL A   1      33.448  32.571  42.823  1.00  0.00    +0.000 F 
ATOM     67  C46 UNL A   1      31.930  34.331  43.260  1.00  0.00    +0.000 C 
ATOM     68  F15 UNL A   1      31.820  33.905  44.527  1.00  0.00    +0.000 F 
ATOM     58  C41 UNL A   1      31.236  35.476  42.842  1.00  0.00    +0.000 C 
ATOM     59  C42 UNL A   1      31.385  35.882  41.510  1.00  0.00    +0.000 C 
ATOM     60  F11 UNL A   1      30.724  36.959  41.059  1.00  0.00    +0.000 F 
ATOM     61  C43 UNL A   1      32.200  35.172  40.630  1.00  0.00    +0.000 C 
ATOM     62  F12 UNL A   1      32.308  35.566  39.354  1.00  0.00    +0.000 F 
ATOM     63  C44 UNL A   1      32.897  34.057  41.072  1.00  0.00    +0.000 C 
ATOM     64  F13 UNL A   1      33.693  33.385  40.230  1.00  0.00    +0.000 F 
ENDBRANCH   57   58
TORSDOF 22
ENDMDL
MODEL 2
REMARK VINA RESULT:     -10.9     27.589     33.429
ROOT
ATOM     21  C17 UNL A   1      46.445  11.622  47.277  1.00  0.00    +0.000 C 
ATOM     22  C18 UNL A   1      46.693  10.671  48.416  1.00  0.00    +0.000 C 
ATOM     23  N3  UNL A   1      47.551  10.770  49.402  1.00  0.00    +0.000 N 
ATOM     24  C19 UNL A   1      47.366   9.638  50.183  1.00  0.00    +0.000 C 
ATOM     25  C20 UNL A   1      48.038   9.264  51.299  1.00  0.00    +0.000 C 
ATOM     37  C27 UNL A   1      49.113  10.015  51.891  1.00  0.00    +0.000 C 
ATOM     38  C28 UNL A   1      49.860   9.711  53.018  1.00  0.00    +0.000 C 
ATOM     39  C29 UNL A   1      50.775  10.746  53.230  1.00  0.00    +0.000 C 
ATOM     40  C30 UNL A   1      50.630  11.675  52.212  1.00  0.00    +0.000 C 
ATOM     41  N4  UNL A   1      49.602  11.217  51.402  1.00  0.00    +0.000 N 
ATOM     42  C31 UNL A   1      51.370  12.891  51.996  1.00  0.00    +0.000 C 
ATOM     54  C38 UNL A   1      51.186  13.740  50.957  1.00  0.00    +0.000 C 
ATOM     55  N5  UNL A   1      50.281  13.649  49.910  1.00  0.00    +0.000 N 
ATOM     56  C39 UNL A   1      50.471  14.719  49.177  1.00  0.00    +0.000 C 
ATOM     57  C40 UNL A   1      49.772  15.137  47.916  1.00  0.00    +0.000 C 
ATOM     69  C47 UNL A   1      48.757  14.387  47.446  1.00  0.00    +0.000 C 
ATOM     70  C48 UNL A   1      47.985  14.673  46.241  1.00  0.00    +0.000 C 
ATOM     71  C49 UNL A   1      47.039  13.734  46.095  1.00  0.00    +0.000 C 
ATOM     72  C50 UNL A   1      47.178  12.746  47.165  1.00  0.00    +0.000 C 
ATOM     73  N6  UNL A   1      48.202  13.231  47.937  1.00  0.00    +0.000 N 
ATOM     74  C51 UNL A   1      51.516  15.619  49.683  1.00  0.00    +0.000 C 
ATOM     75  C52 UNL A   1      51.940  14.960  50.754  1.00  0.00    +0.000 C 
ATOM     76  C53 UNL A   1      46.297   8.876  49.576  1.00  0.00    +0.000 C 
ATOM     77  C54 UNL A   1      45.875   9.449  48.458  1.00  0.00    +0.000 C 
ATOM    119  H22 UNL A   1      49.756   8.866  53.602  1.00  0.00    +0.000 H 
ATOM    120  H23 UNL A   1      51.445  10.808  54.012  1.00  0.00    +0.000 H 
ATOM    121  H24 UNL A   1      49.269  11.677  50.598  1.00  0.00    +0.000 H 
ATOM    122  H25 UNL A   1      48.141  15.471  45.605  1.00  0.00    +0.000 H 
ATOM    123  H26 UNL A   1      46.328  13.713  45.348  1.00  0.00    +0.000 H 
ATOM    124  H27 UNL A   1      48.508  12.794  48.765  1.00  0.00    +0.000 H 
ATOM    125  H28 UNL A   1      51.836  16.524  49.306  1.00  0.00    +0.000 H 
ATOM    126  H29 UNL A   1      52.710  15.277  51.365  1.00  0.00    +0.000 H 
ATOM    127  H30 UNL A   1      45.914   7.998  49.963  1.00  0.00    +0.000 H 
ATOM    128  H31 UNL A   1      45.159   9.124  47.790  1.00  0.00    +0.000 H 
ENDROOT
BRANCH   21   20
ATOM    129  H32 UNL A   1      46.754  10.254  44.946  1.00  0.00    +0.000 H 
ATOM    130  H33 UNL A   1      45.119   9.931  43.178  1.00  0.00    +0.000 H 
ATOM     78  C55 UNL A   1      45.794  10.614  45.060  1.00  0.00    +0.000 C 
ATOM     79  C56 UNL A   1      44.849  10.411  44.050  1.00  0.00    +0.000 C 
ATOM     17  C13 UNL A   1      43.537  10.861  44.226  1.00  0.00    +0.000 C 
ATOM     18  C14 UNL A   1      43.149  11.438  45.437  1.00  0.00    +0.000 C 
ATOM     19  C15 UNL A   1      44.106  11.708  46.409  1.00  0.00    +0.000 C 
ATOM     20  C16 UNL A   1      45.441  11.306  46.229  1.00  0.00    +0.000 C 
ATOM    117  H20 UNL A   1      42.157  11.663  45.610  1.00  0.00    +0.000 H 
ATOM    118  H21 UNL A   1      43.835  12.209  47.270  1.00  0.00    +0.000 H 
BRANCH   17   15
ATOM     15  C12 UNL A   1      42.577  10.736  43.108  1.00  0.00    +0.000 C 
ATOM     16  O2  UNL A   1      42.824   9.986  42.170  1.00  0.00    +0.000 O 
BRANCH   15   14
ATOM    116  H19 UNL A   1      40.594  10.988  43.285  1.00  0.00    +0.000 H 
ATOM     14  N2  UNL A   1      41.425  11.489  43.115  1.00  0.00    +0.000 N 
BRANCH   14   13
ATOM    114  H17 UNL A   1      40.219  13.153  42.928  1.00  0.00    +0.000 H 
ATOM    115  H18 UNL A   1      41.795  13.422  43.688  1.00  0.00    +0.000 H 
ATOM     13  C11 UNL A   1      41.263  12.920  42.907  1.00  0.00    +0.000 C 
BRANCH   13   12
ATOM    113  H16 UNL A   1      41.063  13.273  40.852  1.00  0.00    +0.000 H 
ATOM     12  C10 UNL A   1      41.842  13.387  41.578  1.00  0.00    +0.000 C 
ATOM    112  H15 UNL A   1      42.706  12.793  41.364  1.00  0.00    +0.000 H 
BRANCH   12   11
ATOM     11  C9  UNL A   1      42.253  14.859  41.541  1.00  0.00    +0.000 C 
ATOM    110  H13 UNL A   1      41.550  15.414  42.129  1.00  0.00    +0.000 H 
ATOM    111  H14 UNL A   1      43.253  14.897  41.920  1.00  0.00    +0.000 H 
BRANCH   11   10
ATOM     10  C8  UNL A   1      42.305  15.491  40.144  1.00  0.00    +0.000 C 
ATOM    108  H11 UNL A   1      41.588  14.990  39.529  1.00  0.00    +0.000 H 
ATOM    109  H12 UNL A   1      42.102  16.531  40.285  1.00  0.00    +0.000 H 
BRANCH   10    9
ATOM      9  C7  UNL A   1      43.666  15.420  39.437  1.00  0.00    +0.000 C 
ATOM    106  H9  UNL A   1      44.210  14.591  39.838  1.00  0.00    +0.000 H 
ATOM    107  H10 UNL A   1      43.464  15.315  38.391  1.00  0.00    +0.000 H 
BRANCH    9    8
ATOM    105  H8  UNL A   1      43.867  17.523  39.652  1.00  0.00    +0.000 H 
ATOM    104  H7  UNL A   1      45.180  16.759  38.758  1.00  0.00    +0.000 H 
ATOM      8  C6  UNL A   1      44.521  16.678  39.596  1.00  0.00    +0.000 C 
BRANCH    8    7
ATOM    103  H6  UNL A   1      46.092  16.041  40.791  1.00  0.00    +0.000 H 
ATOM      7  N1  UNL A   1      45.309  16.636  40.810  1.00  0.00    +0.000 N 
BRANCH    7    5
ATOM      5  C5  UNL A   1      45.109  17.312  41.977  1.00  0.00    +0.000 C 
ATOM      6  O1  UNL A   1      44.190  18.133  42.023  1.00  0.00    +0.000 O 
BRANCH    5    4
ATOM      4  C4  UNL A   1      46.041  17.097  43.167  1.00  0.00    +0.000 C 
ATOM    101  H4  UNL A   1      46.629  16.223  42.978  1.00  0.00    +0.000 H 
ATOM    102  H5  UNL A   1      46.629  17.986  43.257  1.00  0.00    +0.000 H 
BRANCH    4    3
ATOM      2  C2  UNL A   1      44.643  15.849  44.936  1.00  0.00    +0.000 C 
ATOM      3  C3  UNL A   1      45.345  16.914  44.477  1.00  0.00    +0.000 C 
ATOM    131  H34 UNL A   1      46.508  19.521  44.752  1.00  0.00    +0.000 H 
ATOM    133  H36 UNL A   1      44.199  17.810  48.699  1.00  0.00    +0.000 H 
ATOM    132  H35 UNL A   1      45.242  20.011  48.739  1.00  0.00    +0.000 H 
ATOM     80  C57 UNL A   1      45.381  17.923  45.552  1.00  0.00    +0.000 C 
ATOM     81  C58 UNL A   1      46.002  19.165  45.577  1.00  0.00    +0.000 C 
ATOM     82  C59 UNL A   1      45.925  19.918  46.745  1.00  0.00    +0.000 C 
ATOM     83  F16 UNL A   1      46.501  21.127  46.789  1.00  0.00    +0.000 F 
ATOM     84  C60 UNL A   1      45.273  19.438  47.880  1.00  0.00    +0.000 C 
ATOM     85  C61 UNL A   1      44.662  18.184  47.856  1.00  0.00    +0.000 C 
ATOM     86  C62 UNL A   1      44.686  17.446  46.679  1.00  0.00    +0.000 C 
ATOM     87  C63 UNL A   1      44.129  16.137  46.285  1.00  0.00    +0.000 C 
BRANCH    2    1
ATOM      1  C1  UNL A   1      44.401  14.543  44.252  1.00  0.00    +0.000 C 
ATOM     98  H1  UNL A   1      43.721  13.957  44.834  1.00  0.00    +0.000 H 
ATOM     99  H2  UNL A   1      45.328  14.017  44.149  1.00  0.00    +0.000 H 
ATOM    100  H3  UNL A   1      43.982  14.720  43.283  1.00  0.00    +0.000 H 
ENDBRANCH    2    1
BRANCH   87   88
ATOM    134  H37 UNL A   1      42.341  15.185  46.534  1.00  0.00    +0.000 H 
ATOM     88  C64 UNL A   1      43.269  15.344  46.956  1.00  0.00    +0.000 C 
BRANCH   88   89
ATOM     97  C71 UNL A   1      42.552  13.912  48.836  1.00  0.00    +0.000 C 
ATOM    135  H38 UNL A   1      45.535  15.378  48.425  1.00  0.00    +0.000 H 
ATOM    136  H39 UNL A   1      46.091  13.918  50.282  1.00  0.00    +0.000 H 
ATOM    141  H44 UNL A   1      42.129  12.522  50.363  1.00  0.00    +0.000 H 
ATOM    142  H45 UNL A   1      41.588  13.936  48.470  1.00  0.00    +0.000 H 
ATOM     89  C65 UNL A   1      43.546  14.691  48.238  1.00  0.00    +0.000 C 
ATOM     90  C66 UNL A   1      44.823  14.735  48.806  1.00  0.00    +0.000 C 
ATOM     91  C67 UNL A   1      45.136  13.908  49.890  1.00  0.00    +0.000 C 
ATOM     92  C68 UNL A   1      44.166  13.067  50.446  1.00  0.00    +0.000 C 
ATOM     96  C70 UNL A   1      42.865  13.102  49.931  1.00  0.00    +0.000 C 
BRANCH   92   93
ATOM     93  S1  UNL A   1      44.653  11.796  51.644  1.00  0.00    +0.000 S 
BRANCH   93   94
ATOM    137  H40 UNL A   1      46.459  13.364  51.610  1.00  0.00    +0.000 H 
ATOM    138  H41 UNL A   1      46.956  11.833  52.290  1.00  0.00    +0.000 H 
ATOM    139  H42 UNL A   1      46.007  12.947  53.245  1.00  0.00    +0.000 H 
ATOM     94  C69 UNL A   1      46.174  12.564  52.261  1.00  0.00    +0.000 C 
ENDBRANCH   93   94
BRANCH   93   95
ATOM    140  H43 UNL A   1      44.306  12.939  53.418  1.00  0.00    +0.000 H 
ATOM     95  O3  UNL A   1      43.757  12.379  52.848  1.00  0.00    +0.000 O 
ENDBRANCH   93   95
ENDBRANCH   92   93
ENDBRANCH   88   89
ENDBRANCH   87   88
ENDBRANCH    4    3
ENDBRANCH    5    4
ENDBRANCH    7    5
ENDBRANCH    8    7
ENDBRANCH    9    8
ENDBRANCH   10    9
ENDBRANCH   11   10
ENDBRANCH   12   11
ENDBRANCH   13   12
ENDBRANCH   14   13
ENDBRANCH   15   14
ENDBRANCH   17   15
ENDBRANCH   21   20
BRANCH   25   26
ATOM     33  C25 UNL A   1      47.882   5.574  52.219  1.00  0.00    +0.000 C 
ATOM     34  F4  UNL A   1      48.523   4.440  51.905  1.00  0.00    +0.000 F 
ATOM     35  C26 UNL A   1      48.304   6.785  51.673  1.00  0.00    +0.000 C 
ATOM     36  F5  UNL A   1      49.359   6.786  50.845  1.00  0.00    +0.000 F 
ATOM     26  C21 UNL A   1      47.631   7.982  51.963  1.00  0.00    +0.000 C 
ATOM     27  C22 UNL A   1      46.530   7.923  52.831  1.00  0.00    +0.000 C 
ATOM     28  F1  UNL A   1      45.861   9.042  53.149  1.00  0.00    +0.000 F 
ATOM     29  C23 UNL A   1      46.126   6.715  53.393  1.00  0.00    +0.000 C 
ATOM     30  F2  UNL A   1      45.089   6.687  54.242  1.00  0.00    +0.000 F 
ATOM     31  C24 UNL A   1      46.796   5.541  53.081  1.00  0.00    +0.000 C 
ATOM     32  F3  UNL A   1      46.396   4.377  53.612  1.00  0.00    +0.000 F 
ENDBRANCH   25   26
BRANCH   42   43
ATOM     43  C32 UNL A   1      52.436  13.240  52.991  1.00  0.00    +0.000 C 
ATOM     44  C33 UNL A   1      53.751  12.776  52.844  1.00  0.00    +0.000 C 
ATOM     45  F6  UNL A   1      54.065  11.946  51.838  1.00  0.00    +0.000 F 
ATOM     46  C34 UNL A   1      54.743  13.145  53.748  1.00  0.00    +0.000 C 
ATOM     47  F7  UNL A   1      55.986  12.665  53.607  1.00  0.00    +0.000 F 
ATOM     48  C35 UNL A   1      54.445  14.003  54.796  1.00  0.00    +0.000 C 
ATOM     49  F8  UNL A   1      55.405  14.367  55.659  1.00  0.00    +0.000 F 
ATOM     50  C36 UNL A   1      53.153  14.480  54.954  1.00  0.00    +0.000 C 
ATOM     51  F9  UNL A   1      52.866  15.319  55.961  1.00  0.00    +0.000 F 
ATOM     52  C37 UNL A   1      52.153  14.095  54.067  1.00  0.00    +0.000 C 
ATOM     53  F10 UNL A   1      50.911  14.569  54.245  1.00  0.00    +0.000 F 
ENDBRANCH   42   43
BRANCH   57   58
ATOM     65  C45 UNL A   1      51.730  17.512  45.693  1.00  0.00    +0.000 C 
ATOM     66  F14 UNL A   1      52.830  17.491  44.928  1.00  0.00    +0.000 F 
ATOM     67  C46 UNL A   1      51.309  16.351  46.335  1.00  0.00    +0.000 C 
ATOM     68  F15 UNL A   1      52.015  15.223  46.164  1.00  0.00    +0.000 F 
ATOM     58  C41 UNL A   1      50.184  16.355  47.174  1.00  0.00    +0.000 C 
ATOM     59  C42 UNL A   1      49.482  17.557  47.321  1.00  0.00    +0.000 C 
ATOM     60  F11 UNL A   1      48.388  17.604  48.097  1.00  0.00    +0.000 F 
ATOM     61  C43 UNL A   1      49.889  18.712  46.657  1.00  0.00    +0.000 C 
ATOM     62  F12 UNL A   1      49.186  19.845  46.795  1.00  0.00    +0.000 F 
ATOM     63  C44 UNL A   1      51.018  18.691  45.852  1.00  0.00    +0.000 C 
ATOM     64  F13 UNL A   1      51.418  19.807  45.226  1.00  0.00    +0.000 F 
ENDBRANCH   57   58
TORSDOF 22
ENDMDL
MODEL 3
REMARK VINA RESULT:     -10.9     39.325     45.342
ROOT
ATOM     21  C17 UNL A   1      13.739  53.674   5.381  1.00  0.00    +0.000 C 
ATOM     22  C18 UNL A   1      13.287  52.239   5.356  1.00  0.00    +0.000 C 
ATOM     23  N3  UNL A   1      13.632  51.280   4.532  1.00  0.00    +0.000 N 
ATOM     24  C19 UNL A   1      12.942  50.151   4.953  1.00  0.00    +0.000 C 
ATOM     25  C20 UNL A   1      12.938  48.912   4.404  1.00  0.00    +0.000 C 
ATOM     37  C27 UNL A   1      13.684  48.539   3.231  1.00  0.00    +0.000 C 
ATOM     38  C28 UNL A   1      13.736  47.308   2.597  1.00  0.00    +0.000 C 
ATOM     39  C29 UNL A   1      14.615  47.410   1.514  1.00  0.00    +0.000 C 
ATOM     40  C30 UNL A   1      15.078  48.714   1.447  1.00  0.00    +0.000 C 
ATOM     41  N4  UNL A   1      14.504  49.394   2.511  1.00  0.00    +0.000 N 
ATOM     42  C31 UNL A   1      15.980  49.296   0.487  1.00  0.00    +0.000 C 
ATOM     54  C38 UNL A   1      16.369  50.593   0.471  1.00  0.00    +0.000 C 
ATOM     55  N5  UNL A   1      16.015  51.618   1.338  1.00  0.00    +0.000 N 
ATOM     56  C39 UNL A   1      16.666  52.678   0.926  1.00  0.00    +0.000 C 
ATOM     57  C40 UNL A   1      16.658  54.070   1.488  1.00  0.00    +0.000 C 
ATOM     69  C47 UNL A   1      15.951  54.324   2.606  1.00  0.00    +0.000 C 
ATOM     70  C48 UNL A   1      15.856  55.622   3.265  1.00  0.00    +0.000 C 
ATOM     71  C49 UNL A   1      15.095  55.500   4.362  1.00  0.00    +0.000 C 
ATOM     72  C50 UNL A   1      14.599  54.127   4.449  1.00  0.00    +0.000 C 
ATOM     73  N6  UNL A   1      15.183  53.492   3.383  1.00  0.00    +0.000 N 
ATOM     74  C51 UNL A   1      17.518  52.443  -0.248  1.00  0.00    +0.000 C 
ATOM     75  C52 UNL A   1      17.277  51.163  -0.502  1.00  0.00    +0.000 C 
ATOM     76  C53 UNL A   1      12.178  50.533   6.121  1.00  0.00    +0.000 C 
ATOM     77  C54 UNL A   1      12.324  51.823   6.387  1.00  0.00    +0.000 C 
ATOM    119  H22 UNL A   1      13.216  46.461   2.877  1.00  0.00    +0.000 H 
ATOM    120  H23 UNL A   1      14.875  46.644   0.874  1.00  0.00    +0.000 H 
ATOM    121  H24 UNL A   1      14.656  50.343   2.722  1.00  0.00    +0.000 H 
ATOM    122  H25 UNL A   1      16.304  56.493   2.940  1.00  0.00    +0.000 H 
ATOM    123  H26 UNL A   1      14.892  56.254   5.037  1.00  0.00    +0.000 H 
ATOM    124  H27 UNL A   1      15.066  52.533   3.194  1.00  0.00    +0.000 H 
ATOM    125  H28 UNL A   1      18.140  53.100  -0.744  1.00  0.00    +0.000 H 
ATOM    126  H29 UNL A   1      17.685  50.641  -1.294  1.00  0.00    +0.000 H 
ATOM    127  H30 UNL A   1      11.596  49.885   6.674  1.00  0.00    +0.000 H 
ATOM    128  H31 UNL A   1      11.878  52.389   7.125  1.00  0.00    +0.000 H 
ENDROOT
BRANCH   21   20
ATOM    129  H32 UNL A   1      11.384  55.035   5.375  1.00  0.00    +0.000 H 
ATOM    130  H33 UNL A   1      10.631  56.723   6.953  1.00  0.00    +0.000 H 
ATOM     78  C55 UNL A   1      11.964  55.268   6.195  1.00  0.00    +0.000 C 
ATOM     79  C56 UNL A   1      11.522  56.226   7.113  1.00  0.00    +0.000 C 
ATOM     17  C13 UNL A   1      12.290  56.508   8.247  1.00  0.00    +0.000 C 
ATOM     18  C14 UNL A   1      13.453  55.780   8.506  1.00  0.00    +0.000 C 
ATOM     19  C15 UNL A   1      13.931  54.885   7.555  1.00  0.00    +0.000 C 
ATOM     20  C16 UNL A   1      13.196  54.623   6.386  1.00  0.00    +0.000 C 
ATOM    117  H20 UNL A   1      13.955  55.907   9.398  1.00  0.00    +0.000 H 
ATOM    118  H21 UNL A   1      14.834  54.408   7.709  1.00  0.00    +0.000 H 
BRANCH   17   15
ATOM     15  C12 UNL A   1      11.864  57.598   9.152  1.00  0.00    +0.000 C 
ATOM     16  O2  UNL A   1      12.382  58.706   9.060  1.00  0.00    +0.000 O 
BRANCH   15   14
ATOM    116  H19 UNL A   1      10.141  57.964  10.112  1.00  0.00    +0.000 H 
ATOM     14  N2  UNL A   1      10.912  57.350  10.112  1.00  0.00    +0.000 N 
BRANCH   14   13
ATOM    114  H17 UNL A   1      11.883  56.102  11.438  1.00  0.00    +0.000 H 
ATOM    115  H18 UNL A   1      10.280  56.662  11.938  1.00  0.00    +0.000 H 
ATOM     13  C11 UNL A   1      10.881  56.307  11.126  1.00  0.00    +0.000 C 
BRANCH   13   12
ATOM    113  H16 UNL A   1       9.905  55.218   9.626  1.00  0.00    +0.000 H 
ATOM     12  C10 UNL A   1      10.253  55.015  10.617  1.00  0.00    +0.000 C 
ATOM    112  H15 UNL A   1       9.468  54.739  11.291  1.00  0.00    +0.000 H 
BRANCH   12   11
ATOM     11  C9  UNL A   1      11.220  53.836  10.502  1.00  0.00    +0.000 C 
ATOM    110  H13 UNL A   1      11.644  53.852   9.519  1.00  0.00    +0.000 H 
ATOM    111  H14 UNL A   1      11.940  53.967  11.282  1.00  0.00    +0.000 H 
BRANCH   11   10
ATOM     10  C8  UNL A   1      10.597  52.453  10.727  1.00  0.00    +0.000 C 
ATOM    108  H11 UNL A   1      11.129  51.979  11.525  1.00  0.00    +0.000 H 
ATOM    109  H12 UNL A   1       9.564  52.627  10.939  1.00  0.00    +0.000 H 
BRANCH   10    9
ATOM      9  C7  UNL A   1      10.626  51.510   9.515  1.00  0.00    +0.000 C 
ATOM    106  H9  UNL A   1      10.175  52.014   8.687  1.00  0.00    +0.000 H 
ATOM    107  H10 UNL A   1      11.654  51.265   9.341  1.00  0.00    +0.000 H 
BRANCH    9    8
ATOM    105  H8  UNL A   1       8.934  50.254   9.255  1.00  0.00    +0.000 H 
ATOM    104  H7  UNL A   1       9.780  50.019  10.783  1.00  0.00    +0.000 H 
ATOM      8  C6  UNL A   1       9.889  50.188   9.733  1.00  0.00    +0.000 C 
BRANCH    8    7
ATOM    103  H6  UNL A   1      10.910  49.201   8.222  1.00  0.00    +0.000 H 
ATOM      7  N1  UNL A   1      10.609  49.075   9.150  1.00  0.00    +0.000 N 
BRANCH    7    5
ATOM      5  C5  UNL A   1      10.926  47.877   9.717  1.00  0.00    +0.000 C 
ATOM      6  O1  UNL A   1      10.037  47.027   9.815  1.00  0.00    +0.000 O 
BRANCH    5    4
ATOM      4  C4  UNL A   1      12.326  47.626  10.272  1.00  0.00    +0.000 C 
ATOM    101  H4  UNL A   1      12.258  46.865  11.021  1.00  0.00    +0.000 H 
ATOM    102  H5  UNL A   1      12.936  47.342   9.440  1.00  0.00    +0.000 H 
BRANCH    4    3
ATOM      2  C2  UNL A   1      12.919  49.275  12.161  1.00  0.00    +0.000 C 
ATOM      3  C3  UNL A   1      12.976  48.826  10.884  1.00  0.00    +0.000 C 
ATOM    131  H34 UNL A   1      13.921  48.922   8.178  1.00  0.00    +0.000 H 
ATOM    133  H36 UNL A   1      15.735  52.324  11.174  1.00  0.00    +0.000 H 
ATOM    132  H35 UNL A   1      16.414  52.252   8.835  1.00  0.00    +0.000 H 
ATOM     80  C57 UNL A   1      13.883  49.716  10.136  1.00  0.00    +0.000 C 
ATOM     81  C58 UNL A   1      14.287  49.652   8.808  1.00  0.00    +0.000 C 
ATOM     82  C59 UNL A   1      15.199  50.598   8.349  1.00  0.00    +0.000 C 
ATOM     83  F16 UNL A   1      15.591  50.568   7.069  1.00  0.00    +0.000 F 
ATOM     84  C60 UNL A   1      15.728  51.570   9.196  1.00  0.00    +0.000 C 
ATOM     85  C61 UNL A   1      15.331  51.623  10.533  1.00  0.00    +0.000 C 
ATOM     86  C62 UNL A   1      14.381  50.718  10.989  1.00  0.00    +0.000 C 
ATOM     87  C63 UNL A   1      13.714  50.508  12.289  1.00  0.00    +0.000 C 
BRANCH    2    1
ATOM      1  C1  UNL A   1      12.203  48.663  13.320  1.00  0.00    +0.000 C 
ATOM     98  H1  UNL A   1      12.911  48.401  14.079  1.00  0.00    +0.000 H 
ATOM     99  H2  UNL A   1      11.686  47.784  12.997  1.00  0.00    +0.000 H 
ATOM    100  H3  UNL A   1      11.499  49.366  13.716  1.00  0.00    +0.000 H 
ENDBRANCH    2    1
BRANCH   87   88
ATOM    134  H37 UNL A   1      14.359  50.989  14.164  1.00  0.00    +0.000 H 
ATOM     88  C64 UNL A   1      13.741  51.284  13.392  1.00  0.00    +0.000 C 
BRANCH   88   89
ATOM     97  C71 UNL A   1      11.688  52.429  14.145  1.00  0.00    +0.000 C 
ATOM    135  H38 UNL A   1      14.426  53.834  12.826  1.00  0.00    +0.000 H 
ATOM    136  H39 UNL A   1      13.303  55.848  13.583  1.00  0.00    +0.000 H 
ATOM    141  H44 UNL A   1      10.086  53.527  14.967  1.00  0.00    +0.000 H 
ATOM    142  H45 UNL A   1      11.234  51.510  14.265  1.00  0.00    +0.000 H 
ATOM     89  C65 UNL A   1      12.963  52.510  13.583  1.00  0.00    +0.000 C 
ATOM     90  C66 UNL A   1      13.526  53.765  13.325  1.00  0.00    +0.000 C 
ATOM     91  C67 UNL A   1      12.866  54.926  13.743  1.00  0.00    +0.000 C 
ATOM     92  C68 UNL A   1      11.622  54.849  14.378  1.00  0.00    +0.000 C 
ATOM     96  C70 UNL A   1      11.025  53.593  14.545  1.00  0.00    +0.000 C 
BRANCH   92   93
ATOM     93  S1  UNL A   1      10.921  56.319  15.174  1.00  0.00    +0.000 S 
BRANCH   93   94
ATOM    137  H40 UNL A   1       8.611  55.928  15.659  1.00  0.00    +0.000 H 
ATOM    138  H41 UNL A   1       9.083  55.179  14.153  1.00  0.00    +0.000 H 
ATOM    139  H42 UNL A   1       8.806  56.903  14.222  1.00  0.00    +0.000 H 
ATOM     94  C69 UNL A   1       9.178  56.056  14.760  1.00  0.00    +0.000 C 
ENDBRANCH   93   94
BRANCH   93   95
ATOM    140  H43 UNL A   1      11.617  55.722  17.106  1.00  0.00    +0.000 H 
ATOM     95  O3  UNL A   1      10.777  55.644  16.628  1.00  0.00    +0.000 O 
ENDBRANCH   93   95
ENDBRANCH   92   93
ENDBRANCH   88   89
ENDBRANCH   87   88
ENDBRANCH    4    3
ENDBRANCH    5    4
ENDBRANCH    7    5
ENDBRANCH    8    7
ENDBRANCH    9    8
ENDBRANCH   10    9
ENDBRANCH   11   10
ENDBRANCH   12   11
ENDBRANCH   13   12
ENDBRANCH   14   13
ENDBRANCH   15   14
ENDBRANCH   17   15
ENDBRANCH   21   20
BRANCH   25   26
ATOM     33  C25 UNL A   1      11.869  46.091   6.725  1.00  0.00    +0.000 C 
ATOM     34  F4  UNL A   1      12.381  45.392   7.747  1.00  0.00    +0.000 F 
ATOM     35  C26 UNL A   1      12.603  47.130   6.156  1.00  0.00    +0.000 C 
ATOM     36  F5  UNL A   1      13.816  47.413   6.657  1.00  0.00    +0.000 F 
ATOM     26  C21 UNL A   1      12.101  47.857   5.066  1.00  0.00    +0.000 C 
ATOM     27  C22 UNL A   1      10.831  47.516   4.578  1.00  0.00    +0.000 C 
ATOM     28  F1  UNL A   1      10.302  48.190   3.545  1.00  0.00    +0.000 F 
ATOM     29  C23 UNL A   1      10.090  46.493   5.164  1.00  0.00    +0.000 C 
ATOM     30  F2  UNL A   1       8.866  46.204   4.699  1.00  0.00    +0.000 F 
ATOM     31  C24 UNL A   1      10.612  45.776   6.231  1.00  0.00    +0.000 C 
ATOM     32  F3  UNL A   1       9.903  44.783   6.784  1.00  0.00    +0.000 F 
ENDBRANCH   25   26
BRANCH   42   43
ATOM     43  C32 UNL A   1      16.522  48.401  -0.587  1.00  0.00    +0.000 C 
ATOM     44  C33 UNL A   1      15.754  48.062  -1.710  1.00  0.00    +0.000 C 
ATOM     45  F6  UNL A   1      14.483  48.480  -1.809  1.00  0.00    +0.000 F 
ATOM     46  C34 UNL A   1      16.284  47.269  -2.723  1.00  0.00    +0.000 C 
ATOM     47  F7  UNL A   1      15.523  46.930  -3.773  1.00  0.00    +0.000 F 
ATOM     48  C35 UNL A   1      17.596  46.825  -2.645  1.00  0.00    +0.000 C 
ATOM     49  F8  UNL A   1      18.108  46.071  -3.629  1.00  0.00    +0.000 F 
ATOM     50  C36 UNL A   1      18.375  47.156  -1.548  1.00  0.00    +0.000 C 
ATOM     51  F9  UNL A   1      19.646  46.737  -1.477  1.00  0.00    +0.000 F 
ATOM     52  C37 UNL A   1      17.841  47.929  -0.521  1.00  0.00    +0.000 C 
ATOM     53  F10 UNL A   1      18.616  48.232   0.531  1.00  0.00    +0.000 F 
ENDBRANCH   42   43
BRANCH   57   58
ATOM     65  C45 UNL A   1      17.615  56.826  -0.942  1.00  0.00    +0.000 C 
ATOM     66  F14 UNL A   1      17.110  57.422  -2.031  1.00  0.00    +0.000 F 
ATOM     67  C46 UNL A   1      16.882  55.839  -0.289  1.00  0.00    +0.000 C 
ATOM     68  F15 UNL A   1      15.672  55.510  -0.762  1.00  0.00    +0.000 F 
ATOM     58  C41 UNL A   1      17.404  55.171   0.829  1.00  0.00    +0.000 C 
ATOM     59  C42 UNL A   1      18.674  55.549   1.284  1.00  0.00    +0.000 C 
ATOM     60  F11 UNL A   1      19.205  54.952   2.362  1.00  0.00    +0.000 F 
ATOM     61  C43 UNL A   1      19.395  56.556   0.645  1.00  0.00    +0.000 C 
ATOM     62  F12 UNL A   1      20.597  56.916   1.113  1.00  0.00    +0.000 F 
ATOM     63  C44 UNL A   1      18.869  57.186  -0.473  1.00  0.00    +0.000 C 
ATOM     64  F13 UNL A   1      19.570  58.142  -1.097  1.00  0.00    +0.000 F 
ENDBRANCH   57   58
TORSDOF 22
ENDMDL
MODEL 4
REMARK VINA RESULT:     -10.8     39.379     45.232
ROOT
ATOM     21  C17 UNL A   1      14.022  53.556   5.337  1.00  0.00    +0.000 C 
ATOM     22  C18 UNL A   1      13.544  52.132   5.248  1.00  0.00    +0.000 C 
ATOM     23  N3  UNL A   1      13.881  51.201   4.389  1.00  0.00    +0.000 N 
ATOM     24  C19 UNL A   1      13.164  50.069   4.754  1.00  0.00    +0.000 C 
ATOM     25  C20 UNL A   1      13.144  48.854   4.155  1.00  0.00    +0.000 C 
ATOM     37  C27 UNL A   1      13.897  48.515   2.977  1.00  0.00    +0.000 C 
ATOM     38  C28 UNL A   1      13.934  47.311   2.293  1.00  0.00    +0.000 C 
ATOM     39  C29 UNL A   1      14.828  47.440   1.226  1.00  0.00    +0.000 C 
ATOM     40  C30 UNL A   1      15.317  48.736   1.218  1.00  0.00    +0.000 C 
ATOM     41  N4  UNL A   1      14.743  49.383   2.302  1.00  0.00    +0.000 N 
ATOM     42  C31 UNL A   1      16.241  49.339   0.293  1.00  0.00    +0.000 C 
ATOM     54  C38 UNL A   1      16.655  50.628   0.335  1.00  0.00    +0.000 C 
ATOM     55  N5  UNL A   1      16.310  51.623   1.239  1.00  0.00    +0.000 N 
ATOM     56  C39 UNL A   1      16.986  52.686   0.879  1.00  0.00    +0.000 C 
ATOM     57  C40 UNL A   1      16.997  54.054   1.498  1.00  0.00    +0.000 C 
ATOM     69  C47 UNL A   1      16.281  54.276   2.617  1.00  0.00    +0.000 C 
ATOM     70  C48 UNL A   1      16.203  55.548   3.328  1.00  0.00    +0.000 C 
ATOM     71  C49 UNL A   1      15.426  55.395   4.410  1.00  0.00    +0.000 C 
ATOM     72  C50 UNL A   1      14.903  54.029   4.434  1.00  0.00    +0.000 C 
ATOM     73  N6  UNL A   1      15.488  53.428   3.350  1.00  0.00    +0.000 N 
ATOM     74  C51 UNL A   1      17.848  52.483  -0.293  1.00  0.00    +0.000 C 
ATOM     75  C52 UNL A   1      17.586  51.220  -0.603  1.00  0.00    +0.000 C 
ATOM     76  C53 UNL A   1      12.394  50.418   5.928  1.00  0.00    +0.000 C 
ATOM     77  C54 UNL A   1      12.560  51.693   6.249  1.00  0.00    +0.000 C 
ATOM    119  H22 UNL A   1      13.395  46.464   2.532  1.00  0.00    +0.000 H 
ATOM    120  H23 UNL A   1      15.082  46.696   0.558  1.00  0.00    +0.000 H 
ATOM    121  H24 UNL A   1      14.910  50.320   2.554  1.00  0.00    +0.000 H 
ATOM    122  H25 UNL A   1      16.671  56.422   3.044  1.00  0.00    +0.000 H 
ATOM    123  H26 UNL A   1      15.229  56.125   5.113  1.00  0.00    +0.000 H 
ATOM    124  H27 UNL A   1      15.355  52.480   3.120  1.00  0.00    +0.000 H 
ATOM    125  H28 UNL A   1      18.489  53.148  -0.754  1.00  0.00    +0.000 H 
ATOM    126  H29 UNL A   1      17.994  50.723  -1.411  1.00  0.00    +0.000 H 
ATOM    127  H30 UNL A   1      11.792  49.759   6.447  1.00  0.00    +0.000 H 
ATOM    128  H31 UNL A   1      12.116  52.237   7.005  1.00  0.00    +0.000 H 
ENDROOT
BRANCH   21   20
ATOM    129  H32 UNL A   1      14.972  54.089   7.829  1.00  0.00    +0.000 H 
ATOM    130  H33 UNL A   1      13.945  55.456   9.556  1.00  0.00    +0.000 H 
ATOM     78  C55 UNL A   1      14.094  54.594   7.633  1.00  0.00    +0.000 C 
ATOM     79  C56 UNL A   1      13.514  55.395   8.621  1.00  0.00    +0.000 C 
ATOM     17  C13 UNL A   1      12.348  56.113   8.337  1.00  0.00    +0.000 C 
ATOM     18  C14 UNL A   1      11.809  56.095   7.049  1.00  0.00    +0.000 C 
ATOM     19  C15 UNL A   1      12.341  55.239   6.092  1.00  0.00    +0.000 C 
ATOM     20  C16 UNL A   1      13.485  54.474   6.374  1.00  0.00    +0.000 C 
ATOM    117  H20 UNL A   1      11.019  56.714   6.810  1.00  0.00    +0.000 H 
ATOM    118  H21 UNL A   1      11.892  55.165   5.164  1.00  0.00    +0.000 H 
BRANCH   17   15
ATOM     15  C12 UNL A   1      11.686  56.870   9.422  1.00  0.00    +0.000 C 
ATOM     16  O2  UNL A   1      11.438  58.061   9.272  1.00  0.00    +0.000 O 
BRANCH   15   14
ATOM    116  H19 UNL A   1      11.980  56.443  11.360  1.00  0.00    +0.000 H 
ATOM     14  N2  UNL A   1      11.383  56.237  10.604  1.00  0.00    +0.000 N 
BRANCH   14   13
ATOM    114  H17 UNL A   1       9.417  55.643  10.400  1.00  0.00    +0.000 H 
ATOM    115  H18 UNL A   1      10.604  54.340  10.551  1.00  0.00    +0.000 H 
ATOM     13  C11 UNL A   1      10.302  55.307  10.896  1.00  0.00    +0.000 C 
BRANCH   13   12
ATOM    113  H16 UNL A   1      10.207  54.178  12.659  1.00  0.00    +0.000 H 
ATOM     12  C10 UNL A   1      10.014  55.195  12.389  1.00  0.00    +0.000 C 
ATOM    112  H15 UNL A   1       8.999  55.489  12.554  1.00  0.00    +0.000 H 
BRANCH   12   11
ATOM     11  C9  UNL A   1      10.911  56.055  13.280  1.00  0.00    +0.000 C 
ATOM    110  H13 UNL A   1      11.380  56.794  12.662  1.00  0.00    +0.000 H 
ATOM    111  H14 UNL A   1      10.272  56.469  14.031  1.00  0.00    +0.000 H 
BRANCH   11   10
ATOM     10  C8  UNL A   1      12.012  55.296  14.030  1.00  0.00    +0.000 C 
ATOM    108  H11 UNL A   1      12.815  55.119  13.346  1.00  0.00    +0.000 H 
ATOM    109  H12 UNL A   1      12.280  55.914  14.861  1.00  0.00    +0.000 H 
BRANCH   10    9
ATOM      9  C7  UNL A   1      11.594  53.945  14.628  1.00  0.00    +0.000 C 
ATOM    106  H9  UNL A   1      11.682  54.007  15.692  1.00  0.00    +0.000 H 
ATOM    107  H10 UNL A   1      10.589  53.764  14.306  1.00  0.00    +0.000 H 
BRANCH    9    8
ATOM    105  H8  UNL A   1      11.806  51.891  14.133  1.00  0.00    +0.000 H 
ATOM    104  H7  UNL A   1      13.259  52.626  14.807  1.00  0.00    +0.000 H 
ATOM      8  C6  UNL A   1      12.431  52.760  14.145  1.00  0.00    +0.000 C 
BRANCH    8    7
ATOM    103  H6  UNL A   1      12.263  53.245  12.136  1.00  0.00    +0.000 H 
ATOM      7  N1  UNL A   1      12.932  52.974  12.804  1.00  0.00    +0.000 N 
BRANCH    7    5
ATOM      5  C5  UNL A   1      14.210  52.851  12.344  1.00  0.00    +0.000 C 
ATOM      6  O1  UNL A   1      14.679  53.774  11.673  1.00  0.00    +0.000 O 
BRANCH    5    4
ATOM      4  C4  UNL A   1      15.007  51.574  12.602  1.00  0.00    +0.000 C 
ATOM    101  H4  UNL A   1      16.049  51.816  12.564  1.00  0.00    +0.000 H 
ATOM    102  H5  UNL A   1      14.696  51.209  13.559  1.00  0.00    +0.000 H 
BRANCH    4    3
ATOM      2  C2  UNL A   1      13.737  49.572  11.592  1.00  0.00    +0.000 C 
ATOM      3  C3  UNL A   1      14.750  50.472  11.624  1.00  0.00    +0.000 C 
ATOM    131  H34 UNL A   1      17.118  51.698  10.570  1.00  0.00    +0.000 H 
ATOM    133  H36 UNL A   1      15.232  48.083   7.883  1.00  0.00    +0.000 H 
ATOM    132  H35 UNL A   1      17.249  49.239   7.153  1.00  0.00    +0.000 H 
ATOM     80  C57 UNL A   1      15.595  50.239  10.439  1.00  0.00    +0.000 C 
ATOM     81  C58 UNL A   1      16.729  50.921  10.015  1.00  0.00    +0.000 C 
ATOM     82  C59 UNL A   1      17.327  50.528   8.821  1.00  0.00    +0.000 C 
ATOM     83  F16 UNL A   1      18.430  51.159   8.398  1.00  0.00    +0.000 F 
ATOM     84  C60 UNL A   1      16.794  49.502   8.042  1.00  0.00    +0.000 C 
ATOM     85  C61 UNL A   1      15.648  48.828   8.465  1.00  0.00    +0.000 C 
ATOM     86  C62 UNL A   1      15.073  49.175   9.681  1.00  0.00    +0.000 C 
ATOM     87  C63 UNL A   1      13.914  48.669  10.442  1.00  0.00    +0.000 C 
BRANCH    2    1
ATOM      1  C1  UNL A   1      12.577  49.458  12.525  1.00  0.00    +0.000 C 
ATOM     98  H1  UNL A   1      11.756  50.028  12.144  1.00  0.00    +0.000 H 
ATOM     99  H2  UNL A   1      12.855  49.834  13.488  1.00  0.00    +0.000 H 
ATOM    100  H3  UNL A   1      12.289  48.431  12.613  1.00  0.00    +0.000 H 
ENDBRANCH    2    1
BRANCH   87   88
ATOM    134  H37 UNL A   1      13.549  46.662  10.509  1.00  0.00    +0.000 H 
ATOM     88  C64 UNL A   1      13.162  47.572  10.215  1.00  0.00    +0.000 C 
BRANCH   88   89
ATOM     97  C71 UNL A   1      10.934  46.556   9.901  1.00  0.00    +0.000 C 
ATOM    135  H38 UNL A   1      12.123  49.327   8.444  1.00  0.00    +0.000 H 
ATOM    136  H39 UNL A   1       9.795  49.534   7.792  1.00  0.00    +0.000 H 
ATOM    141  H44 UNL A   1       8.933  45.911   9.737  1.00  0.00    +0.000 H 
ATOM    142  H45 UNL A   1      11.247  45.734  10.440  1.00  0.00    +0.000 H 
ATOM     89  C65 UNL A   1      11.842  47.568   9.581  1.00  0.00    +0.000 C 
ATOM     90  C66 UNL A   1      11.436  48.625   8.760  1.00  0.00    +0.000 C 
ATOM     91  C67 UNL A   1      10.097  48.732   8.367  1.00  0.00    +0.000 C 
ATOM     92  C68 UNL A   1       9.164  47.761   8.749  1.00  0.00    +0.000 C 
ATOM     96  C70 UNL A   1       9.602  46.657   9.490  1.00  0.00    +0.000 C 
BRANCH   92   93
ATOM     93  S1  UNL A   1       7.394  48.059   8.490  1.00  0.00    +0.000 S 
BRANCH   93   94
ATOM    137  H40 UNL A   1       7.524  45.712   8.047  1.00  0.00    +0.000 H 
ATOM    138  H41 UNL A   1       7.243  46.623   6.583  1.00  0.00    +0.000 H 
ATOM    139  H42 UNL A   1       5.930  46.340   7.701  1.00  0.00    +0.000 H 
ATOM     94  C69 UNL A   1       6.980  46.527   7.616  1.00  0.00    +0.000 C 
ENDBRANCH   93   94
BRANCH   93   95
ATOM    140  H43 UNL A   1       7.536  46.764  10.185  1.00  0.00    +0.000 H 
ATOM     95  O3  UNL A   1       6.937  47.480   9.920  1.00  0.00    +0.000 O 
ENDBRANCH   93   95
ENDBRANCH   92   93
ENDBRANCH   88   89
ENDBRANCH   87   88
ENDBRANCH    4    3
ENDBRANCH    5    4
ENDBRANCH    7    5
ENDBRANCH    8    7
ENDBRANCH    9    8
ENDBRANCH   10    9
ENDBRANCH   11   10
ENDBRANCH   12   11
ENDBRANCH   13   12
ENDBRANCH   14   13
ENDBRANCH   15   14
ENDBRANCH   17   15
ENDBRANCH   21   20
BRANCH   25   26
ATOM     33  C25 UNL A   1      10.094  46.748   5.019  1.00  0.00    +0.000 C 
ATOM     34  F4  UNL A   1       8.801  46.677   4.676  1.00  0.00    +0.000 F 
ATOM     35  C26 UNL A   1      10.928  47.677   4.400  1.00  0.00    +0.000 C 
ATOM     36  F5  UNL A   1      10.411  48.482   3.459  1.00  0.00    +0.000 F 
ATOM     26  C21 UNL A   1      12.279  47.790   4.763  1.00  0.00    +0.000 C 
ATOM     27  C22 UNL A   1      12.766  46.928   5.756  1.00  0.00    +0.000 C 
ATOM     28  F1  UNL A   1      14.053  46.989   6.130  1.00  0.00    +0.000 F 
ATOM     29  C23 UNL A   1      11.936  45.984   6.356  1.00  0.00    +0.000 C 
ATOM     30  F2  UNL A   1      12.431  45.152   7.283  1.00  0.00    +0.000 F 
ATOM     31  C24 UNL A   1      10.600  45.901   5.993  1.00  0.00    +0.000 C 
ATOM     32  F3  UNL A   1       9.799  45.001   6.582  1.00  0.00    +0.000 F 
ENDBRANCH   25   26
BRANCH   42   43
ATOM     43  C32 UNL A   1      16.780  48.479  -0.810  1.00  0.00    +0.000 C 
ATOM     44  C33 UNL A   1      18.030  47.854  -0.704  1.00  0.00    +0.000 C 
ATOM     45  F6  UNL A   1      18.806  48.075   0.367  1.00  0.00    +0.000 F 
ATOM     46  C34 UNL A   1      18.498  47.020  -1.715  1.00  0.00    +0.000 C 
ATOM     47  F7  UNL A   1      19.710  46.458  -1.609  1.00  0.00    +0.000 F 
ATOM     48  C35 UNL A   1      17.716  46.774  -2.834  1.00  0.00    +0.000 C 
ATOM     49  F8  UNL A   1      18.164  45.961  -3.801  1.00  0.00    +0.000 F 
ATOM     50  C36 UNL A   1      16.472  47.375  -2.954  1.00  0.00    +0.000 C 
ATOM     51  F9  UNL A   1      15.710  47.129  -4.029  1.00  0.00    +0.000 F 
ATOM     52  C37 UNL A   1      16.010  48.229  -1.957  1.00  0.00    +0.000 C 
ATOM     53  F10 UNL A   1      14.805  48.799  -2.100  1.00  0.00    +0.000 F 
ENDBRANCH   42   43
BRANCH   57   58
ATOM     65  C45 UNL A   1      18.059  56.859  -0.830  1.00  0.00    +0.000 C 
ATOM     66  F14 UNL A   1      17.599  57.481  -1.925  1.00  0.00    +0.000 F 
ATOM     67  C46 UNL A   1      17.298  55.861  -0.228  1.00  0.00    +0.000 C 
ATOM     68  F15 UNL A   1      16.106  55.547  -0.757  1.00  0.00    +0.000 F 
ATOM     58  C41 UNL A   1      17.773  55.166   0.894  1.00  0.00    +0.000 C 
ATOM     59  C42 UNL A   1      19.024  55.529   1.408  1.00  0.00    +0.000 C 
ATOM     60  F11 UNL A   1      19.510  54.907   2.492  1.00  0.00    +0.000 F 
ATOM     61  C43 UNL A   1      19.773  56.547   0.820  1.00  0.00    +0.000 C 
ATOM     62  F12 UNL A   1      20.957  56.892   1.344  1.00  0.00    +0.000 F 
ATOM     63  C44 UNL A   1      19.295  57.204  -0.304  1.00  0.00    +0.000 C 
ATOM     64  F13 UNL A   1      20.023  58.171  -0.878  1.00  0.00    +0.000 F 
ENDBRANCH   57   58
TORSDOF 22
ENDMDL
MODEL 5
REMARK VINA RESULT:     -10.8      5.976     12.313
ROOT
ATOM     21  C17 UNL A   1      26.104  39.377  46.744  1.00  0.00    +0.000 C 
ATOM     22  C18 UNL A   1      25.206  40.438  47.322  1.00  0.00    +0.000 C 
ATOM     23  N3  UNL A   1      23.961  40.339  47.719  1.00  0.00    +0.000 N 
ATOM     24  C19 UNL A   1      23.607  41.600  48.179  1.00  0.00    +0.000 C 
ATOM     25  C20 UNL A   1      22.411  42.016  48.662  1.00  0.00    +0.000 C 
ATOM     37  C27 UNL A   1      21.247  41.179  48.783  1.00  0.00    +0.000 C 
ATOM     38  C28 UNL A   1      19.988  41.515  49.255  1.00  0.00    +0.000 C 
ATOM     39  C29 UNL A   1      19.185  40.371  49.215  1.00  0.00    +0.000 C 
ATOM     40  C30 UNL A   1      19.929  39.332  48.679  1.00  0.00    +0.000 C 
ATOM     41  N4  UNL A   1      21.194  39.841  48.426  1.00  0.00    +0.000 N 
ATOM     42  C31 UNL A   1      19.518  37.977  48.421  1.00  0.00    +0.000 C 
ATOM     54  C38 UNL A   1      20.300  37.018  47.868  1.00  0.00    +0.000 C 
ATOM     55  N5  UNL A   1      21.619  37.108  47.446  1.00  0.00    +0.000 N 
ATOM     56  C39 UNL A   1      21.938  35.915  47.009  1.00  0.00    +0.000 C 
ATOM     57  C40 UNL A   1      23.238  35.437  46.431  1.00  0.00    +0.000 C 
ATOM     69  C47 UNL A   1      24.286  36.282  46.379  1.00  0.00    +0.000 C 
ATOM     70  C48 UNL A   1      25.607  35.955  45.853  1.00  0.00    +0.000 C 
ATOM     71  C49 UNL A   1      26.407  37.023  45.986  1.00  0.00    +0.000 C 
ATOM     72  C50 UNL A   1      25.636  38.129  46.553  1.00  0.00    +0.000 C 
ATOM     73  N6  UNL A   1      24.397  37.589  46.784  1.00  0.00    +0.000 N 
ATOM     74  C51 UNL A   1      20.857  34.926  47.112  1.00  0.00    +0.000 C 
ATOM     75  C52 UNL A   1      19.871  35.658  47.615  1.00  0.00    +0.000 C 
ATOM     76  C53 UNL A   1      24.773  42.444  48.038  1.00  0.00    +0.000 C 
ATOM     77  C54 UNL A   1      25.776  41.786  47.475  1.00  0.00    +0.000 C 
ATOM    119  H22 UNL A   1      19.694  42.450  49.581  1.00  0.00    +0.000 H 
ATOM    120  H23 UNL A   1      18.205  40.311  49.531  1.00  0.00    +0.000 H 
ATOM    121  H24 UNL A   1      21.944  39.327  48.047  1.00  0.00    +0.000 H 
ATOM    122  H25 UNL A   1      25.881  35.047  45.445  1.00  0.00    +0.000 H 
ATOM    123  H26 UNL A   1      27.406  37.058  45.729  1.00  0.00    +0.000 H 
ATOM    124  H27 UNL A   1      23.658  38.090  47.201  1.00  0.00    +0.000 H 
ATOM    125  H28 UNL A   1      20.862  33.925  46.859  1.00  0.00    +0.000 H 
ATOM    126  H29 UNL A   1      18.920  35.303  47.802  1.00  0.00    +0.000 H 
ATOM    127  H30 UNL A   1      24.818  43.431  48.338  1.00  0.00    +0.000 H 
ATOM    128  H31 UNL A   1      26.713  42.128  47.212  1.00  0.00    +0.000 H 
ENDROOT
BRANCH   21   20
ATOM    129  H32 UNL A   1      26.987  40.400  44.384  1.00  0.00    +0.000 H 
ATOM    130  H33 UNL A   1      29.285  40.736  43.670  1.00  0.00    +0.000 H 
ATOM     78  C55 UNL A   1      27.763  40.195  45.032  1.00  0.00    +0.000 C 
ATOM     79  C56 UNL A   1      29.084  40.406  44.627  1.00  0.00    +0.000 C 
ATOM     17  C13 UNL A   1      30.132  40.169  45.522  1.00  0.00    +0.000 C 
ATOM     18  C14 UNL A   1      29.858  39.802  46.841  1.00  0.00    +0.000 C 
ATOM     19  C15 UNL A   1      28.550  39.517  47.219  1.00  0.00    +0.000 C 
ATOM     20  C16 UNL A   1      27.488  39.704  46.318  1.00  0.00    +0.000 C 
ATOM    117  H20 UNL A   1      30.622  39.741  47.531  1.00  0.00    +0.000 H 
ATOM    118  H21 UNL A   1      28.357  39.166  48.171  1.00  0.00    +0.000 H 
BRANCH   17   15
ATOM     15  C12 UNL A   1      31.527  40.294  45.048  1.00  0.00    +0.000 C 
ATOM     16  O2  UNL A   1      32.201  41.263  45.379  1.00  0.00    +0.000 O 
BRANCH   15   14
ATOM    116  H19 UNL A   1      32.962  39.038  44.425  1.00  0.00    +0.000 H 
ATOM     14  N2  UNL A   1      32.047  39.334  44.211  1.00  0.00    +0.000 N 
BRANCH   14   13
ATOM    114  H17 UNL A   1      30.514  39.190  42.838  1.00  0.00    +0.000 H 
ATOM    115  H18 UNL A   1      32.127  38.770  42.241  1.00  0.00    +0.000 H 
ATOM     13  C11 UNL A   1      31.437  38.695  43.056  1.00  0.00    +0.000 C 
BRANCH   13   12
ATOM    113  H16 UNL A   1      31.790  36.909  44.092  1.00  0.00    +0.000 H 
ATOM     12  C10 UNL A   1      31.155  37.216  43.287  1.00  0.00    +0.000 C 
ATOM    112  H15 UNL A   1      31.350  36.693  42.374  1.00  0.00    +0.000 H 
BRANCH   12   11
ATOM     11  C9  UNL A   1      29.724  36.897  43.723  1.00  0.00    +0.000 C 
ATOM    110  H13 UNL A   1      29.128  37.773  43.567  1.00  0.00    +0.000 H 
ATOM    111  H14 UNL A   1      29.415  36.059  43.135  1.00  0.00    +0.000 H 
BRANCH   11   10
ATOM     10  C8  UNL A   1      29.564  36.470  45.187  1.00  0.00    +0.000 C 
ATOM    108  H11 UNL A   1      28.954  37.199  45.678  1.00  0.00    +0.000 H 
ATOM    109  H12 UNL A   1      29.132  35.492  45.161  1.00  0.00    +0.000 H 
BRANCH   10    9
ATOM      9  C7  UNL A   1      30.870  36.333  45.983  1.00  0.00    +0.000 C 
ATOM    106  H9  UNL A   1      31.489  35.612  45.490  1.00  0.00    +0.000 H 
ATOM    107  H10 UNL A   1      31.314  37.307  46.014  1.00  0.00    +0.000 H 
BRANCH    9    8
ATOM    105  H8  UNL A   1      31.439  36.348  48.028  1.00  0.00    +0.000 H 
ATOM    104  H7  UNL A   1      30.742  34.824  47.483  1.00  0.00    +0.000 H 
ATOM      8  C6  UNL A   1      30.677  35.890  47.433  1.00  0.00    +0.000 C 
BRANCH    8    7
ATOM    103  H6  UNL A   1      29.121  37.227  47.734  1.00  0.00    +0.000 H 
ATOM      7  N1  UNL A   1      29.390  36.306  47.950  1.00  0.00    +0.000 N 
BRANCH    7    5
ATOM      5  C5  UNL A   1      28.501  35.590  48.696  1.00  0.00    +0.000 C 
ATOM      6  O1  UNL A   1      27.957  34.614  48.174  1.00  0.00    +0.000 O 
BRANCH    5    4
ATOM      4  C4  UNL A   1      28.149  36.029  50.115  1.00  0.00    +0.000 C 
ATOM    101  H4  UNL A   1      27.920  35.155  50.689  1.00  0.00    +0.000 H 
ATOM    102  H5  UNL A   1      28.998  36.564  50.488  1.00  0.00    +0.000 H 
BRANCH    4    3
ATOM      2  C2  UNL A   1      25.661  36.697  50.111  1.00  0.00    +0.000 C 
ATOM      3  C3  UNL A   1      26.986  36.964  50.206  1.00  0.00    +0.000 C 
ATOM    131  H34 UNL A   1      29.219  38.709  50.643  1.00  0.00    +0.000 H 
ATOM    133  H36 UNL A   1      24.812  40.774  51.037  1.00  0.00    +0.000 H 
ATOM    132  H35 UNL A   1      26.829  42.101  51.365  1.00  0.00    +0.000 H 
ATOM     80  C57 UNL A   1      27.134  38.403  50.492  1.00  0.00    +0.000 C 
ATOM     81  C58 UNL A   1      28.287  39.147  50.705  1.00  0.00    +0.000 C 
ATOM     82  C59 UNL A   1      28.154  40.500  51.006  1.00  0.00    +0.000 C 
ATOM     83  F16 UNL A   1      29.251  41.242  51.200  1.00  0.00    +0.000 F 
ATOM     84  C60 UNL A   1      26.901  41.099  51.127  1.00  0.00    +0.000 C 
ATOM     85  C61 UNL A   1      25.744  40.345  50.926  1.00  0.00    +0.000 C 
ATOM     86  C62 UNL A   1      25.865  39.007  50.572  1.00  0.00    +0.000 C 
ATOM     87  C63 UNL A   1      24.892  37.945  50.251  1.00  0.00    +0.000 C 
BRANCH    2    1
ATOM      1  C1  UNL A   1      25.001  35.371  49.916  1.00  0.00    +0.000 C 
ATOM     98  H1  UNL A   1      24.678  34.991  50.863  1.00  0.00    +0.000 H 
ATOM     99  H2  UNL A   1      25.697  34.687  49.477  1.00  0.00    +0.000 H 
ATOM    100  H3  UNL A   1      24.156  35.485  49.270  1.00  0.00    +0.000 H 
ENDBRANCH    2    1
BRANCH   87   88
ATOM    134  H37 UNL A   1      23.232  38.171  49.087  1.00  0.00    +0.000 H 
ATOM     88  C64 UNL A   1      23.561  38.044  50.056  1.00  0.00    +0.000 C 
BRANCH   88   89
ATOM     97  C71 UNL A   1      21.904  36.775  51.375  1.00  0.00    +0.000 C 
ATOM    135  H38 UNL A   1      22.695  40.014  51.688  1.00  0.00    +0.000 H 
ATOM    136  H39 UNL A   1      21.365  39.759  53.703  1.00  0.00    +0.000 H 
ATOM    141  H44 UNL A   1      20.641  35.741  52.710  1.00  0.00    +0.000 H 
ATOM    142  H45 UNL A   1      22.018  35.979  50.729  1.00  0.00    +0.000 H 
ATOM     89  C65 UNL A   1      22.545  37.987  51.110  1.00  0.00    +0.000 C 
ATOM     90  C66 UNL A   1      22.299  39.093  51.931  1.00  0.00    +0.000 C 
ATOM     91  C67 UNL A   1      21.514  38.949  53.081  1.00  0.00    +0.000 C 
ATOM     92  C68 UNL A   1      20.931  37.716  53.395  1.00  0.00    +0.000 C 
ATOM     96  C70 UNL A   1      21.106  36.641  52.514  1.00  0.00    +0.000 C 
BRANCH   92   93
ATOM     93  S1  UNL A   1      20.172  37.466  55.022  1.00  0.00    +0.000 S 
BRANCH   93   94
ATOM    137  H40 UNL A   1      18.483  36.934  53.412  1.00  0.00    +0.000 H 
ATOM    138  H41 UNL A   1      17.786  37.566  54.884  1.00  0.00    +0.000 H 
ATOM    139  H42 UNL A   1      18.359  35.917  54.828  1.00  0.00    +0.000 H 
ATOM     94  C69 UNL A   1      18.533  36.914  54.482  1.00  0.00    +0.000 C 
ENDBRANCH   93   94
BRANCH   93   95
ATOM    140  H43 UNL A   1      19.972  35.349  55.249  1.00  0.00    +0.000 H 
ATOM     95  O3  UNL A   1      20.721  35.964  55.210  1.00  0.00    +0.000 O 
ENDBRANCH   93   95
ENDBRANCH   92   93
ENDBRANCH   88   89
ENDBRANCH   87   88
ENDBRANCH    4    3
ENDBRANCH    5    4
ENDBRANCH    7    5
ENDBRANCH    8    7
ENDBRANCH    9    8
ENDBRANCH   10    9
ENDBRANCH   11   10
ENDBRANCH   12   11
ENDBRANCH   13   12
ENDBRANCH   14   13
ENDBRANCH   15   14
ENDBRANCH   17   15
ENDBRANCH   21   20
BRANCH   25   26
ATOM     33  C25 UNL A   1      21.915  45.788  48.561  1.00  0.00    +0.000 C 
ATOM     34  F4  UNL A   1      21.604  46.730  47.660  1.00  0.00    +0.000 F 
ATOM     35  C26 UNL A   1      21.944  44.447  48.184  1.00  0.00    +0.000 C 
ATOM     36  F5  UNL A   1      21.648  44.127  46.915  1.00  0.00    +0.000 F 
ATOM     26  C21 UNL A   1      22.295  43.446  49.102  1.00  0.00    +0.000 C 
ATOM     27  C22 UNL A   1      22.600  43.835  50.414  1.00  0.00    +0.000 C 
ATOM     28  F1  UNL A   1      22.930  42.914  51.332  1.00  0.00    +0.000 F 
ATOM     29  C23 UNL A   1      22.546  45.174  50.794  1.00  0.00    +0.000 C 
ATOM     30  F2  UNL A   1      22.815  45.520  52.061  1.00  0.00    +0.000 F 
ATOM     31  C24 UNL A   1      22.213  46.149  49.866  1.00  0.00    +0.000 C 
ATOM     32  F3  UNL A   1      22.176  47.439  50.231  1.00  0.00    +0.000 F 
ENDBRANCH   25   26
BRANCH   42   43
ATOM     43  C32 UNL A   1      18.113  37.597  48.780  1.00  0.00    +0.000 C 
ATOM     44  C33 UNL A   1      17.678  37.590  50.113  1.00  0.00    +0.000 C 
ATOM     45  F6  UNL A   1      18.539  37.857  51.105  1.00  0.00    +0.000 F 
ATOM     46  C34 UNL A   1      16.357  37.282  50.429  1.00  0.00    +0.000 C 
ATOM     47  F7  UNL A   1      15.969  37.249  51.712  1.00  0.00    +0.000 F 
ATOM     48  C35 UNL A   1      15.446  37.003  49.422  1.00  0.00    +0.000 C 
ATOM     49  F8  UNL A   1      14.173  36.718  49.729  1.00  0.00    +0.000 F 
ATOM     50  C36 UNL A   1      15.855  37.013  48.097  1.00  0.00    +0.000 C 
ATOM     51  F9  UNL A   1      14.972  36.755  47.121  1.00  0.00    +0.000 F 
ATOM     52  C37 UNL A   1      17.179  37.298  47.777  1.00  0.00    +0.000 C 
ATOM     53  F10 UNL A   1      17.548  37.298  46.488  1.00  0.00    +0.000 F 
ENDBRANCH   42   43
BRANCH   57   58
ATOM     65  C45 UNL A   1      22.930  32.371  44.213  1.00  0.00    +0.000 C 
ATOM     66  F14 UNL A   1      22.369  32.032  43.044  1.00  0.00    +0.000 F 
ATOM     67  C46 UNL A   1      22.844  33.683  44.669  1.00  0.00    +0.000 C 
ATOM     68  F15 UNL A   1      22.204  34.590  43.917  1.00  0.00    +0.000 F 
ATOM     58  C41 UNL A   1      23.387  34.056  45.908  1.00  0.00    +0.000 C 
ATOM     59  C42 UNL A   1      24.044  33.072  46.657  1.00  0.00    +0.000 C 
ATOM     60  F11 UNL A   1      24.597  33.386  47.838  1.00  0.00    +0.000 F 
ATOM     61  C43 UNL A   1      24.152  31.765  46.187  1.00  0.00    +0.000 C 
ATOM     62  F12 UNL A   1      24.807  30.846  46.911  1.00  0.00    +0.000 F 
ATOM     63  C44 UNL A   1      23.587  31.413  44.970  1.00  0.00    +0.000 C 
ATOM     64  F13 UNL A   1      23.677  30.152  44.527  1.00  0.00    +0.000 F 
ENDBRANCH   57   58
TORSDOF 22
ENDMDL
MODEL 6
REMARK VINA RESULT:     -10.7     33.562     41.921
ROOT
ATOM     21  C17 UNL A   1       7.047   2.946  26.145  1.00  0.00    +0.000 C 
ATOM     22  C18 UNL A   1       8.254   3.231  26.997  1.00  0.00    +0.000 C 
ATOM     23  N3  UNL A   1       8.770   4.387  27.337  1.00  0.00    +0.000 N 
ATOM     24  C19 UNL A   1       9.864   4.095  28.139  1.00  0.00    +0.000 C 
ATOM     25  C20 UNL A   1      10.744   4.952  28.711  1.00  0.00    +0.000 C 
ATOM     37  C27 UNL A   1      10.691   6.384  28.574  1.00  0.00    +0.000 C 
ATOM     38  C28 UNL A   1      11.544   7.334  29.112  1.00  0.00    +0.000 C 
ATOM     39  C29 UNL A   1      11.084   8.600  28.734  1.00  0.00    +0.000 C 
ATOM     40  C30 UNL A   1       9.969   8.437  27.927  1.00  0.00    +0.000 C 
ATOM     41  N4  UNL A   1       9.736   7.074  27.844  1.00  0.00    +0.000 N 
ATOM     42  C31 UNL A   1       9.175   9.451  27.284  1.00  0.00    +0.000 C 
ATOM     54  C38 UNL A   1       8.108   9.213  26.484  1.00  0.00    +0.000 C 
ATOM     55  N5  UNL A   1       7.550   7.997  26.118  1.00  0.00    +0.000 N 
ATOM     56  C39 UNL A   1       6.524   8.286  25.357  1.00  0.00    +0.000 C 
ATOM     57  C40 UNL A   1       5.559   7.358  24.677  1.00  0.00    +0.000 C 
ATOM     69  C47 UNL A   1       5.667   6.031  24.882  1.00  0.00    +0.000 C 
ATOM     70  C48 UNL A   1       4.799   5.015  24.296  1.00  0.00    +0.000 C 
ATOM     71  C49 UNL A   1       5.178   3.808  24.740  1.00  0.00    +0.000 C 
ATOM     72  C50 UNL A   1       6.355   3.962  25.596  1.00  0.00    +0.000 C 
ATOM     73  N6  UNL A   1       6.554   5.317  25.649  1.00  0.00    +0.000 N 
ATOM     74  C51 UNL A   1       6.307   9.726  25.159  1.00  0.00    +0.000 C 
ATOM     75  C52 UNL A   1       7.319  10.245  25.844  1.00  0.00    +0.000 C 
ATOM     76  C53 UNL A   1       9.927   2.654  28.260  1.00  0.00    +0.000 C 
ATOM     77  C54 UNL A   1       8.979   2.072  27.539  1.00  0.00    +0.000 C 
ATOM    119  H22 UNL A   1      12.376   7.141  29.692  1.00  0.00    +0.000 H 
ATOM    120  H23 UNL A   1      11.503   9.501  29.010  1.00  0.00    +0.000 H 
ATOM    121  H24 UNL A   1       9.000   6.656  27.339  1.00  0.00    +0.000 H 
ATOM    122  H25 UNL A   1       4.019   5.197  23.645  1.00  0.00    +0.000 H 
ATOM    123  H26 UNL A   1       4.714   2.915  24.514  1.00  0.00    +0.000 H 
ATOM    124  H27 UNL A   1       7.264   5.739  26.187  1.00  0.00    +0.000 H 
ATOM    125  H28 UNL A   1       5.565  10.207  24.628  1.00  0.00    +0.000 H 
ATOM    126  H29 UNL A   1       7.517  11.256  25.911  1.00  0.00    +0.000 H 
ATOM    127  H30 UNL A   1      10.620   2.147  28.833  1.00  0.00    +0.000 H 
ATOM    128  H31 UNL A   1       8.797   1.067  27.396  1.00  0.00    +0.000 H 
ENDROOT
BRANCH   21   20
ATOM    129  H32 UNL A   1       5.228   1.365  27.406  1.00  0.00    +0.000 H 
ATOM    130  H33 UNL A   1       4.745  -0.979  26.990  1.00  0.00    +0.000 H 
ATOM     78  C55 UNL A   1       5.704   0.871  26.636  1.00  0.00    +0.000 C 
ATOM     79  C56 UNL A   1       5.412  -0.473  26.386  1.00  0.00    +0.000 C 
ATOM     17  C13 UNL A   1       6.026  -1.129  25.314  1.00  0.00    +0.000 C 
ATOM     18  C14 UNL A   1       6.865  -0.425  24.448  1.00  0.00    +0.000 C 
ATOM     19  C15 UNL A   1       7.214   0.888  24.743  1.00  0.00    +0.000 C 
ATOM     20  C16 UNL A   1       6.644   1.549  25.845  1.00  0.00    +0.000 C 
ATOM    117  H20 UNL A   1       7.224  -0.878  23.593  1.00  0.00    +0.000 H 
ATOM    118  H21 UNL A   1       7.899   1.382  24.149  1.00  0.00    +0.000 H 
BRANCH   17   15
ATOM     15  C12 UNL A   1       5.790  -2.577  25.126  1.00  0.00    +0.000 C 
ATOM     16  O2  UNL A   1       4.778  -2.962  24.550  1.00  0.00    +0.000 O 
BRANCH   15   14
ATOM    116  H19 UNL A   1       6.805  -3.475  26.606  1.00  0.00    +0.000 H 
ATOM     14  N2  UNL A   1       6.695  -3.483  25.627  1.00  0.00    +0.000 N 
BRANCH   14   13
ATOM    114  H17 UNL A   1       7.955  -5.117  25.626  1.00  0.00    +0.000 H 
ATOM    115  H18 UNL A   1       6.875  -4.976  24.232  1.00  0.00    +0.000 H 
ATOM     13  C11 UNL A   1       7.512  -4.454  24.914  1.00  0.00    +0.000 C 
BRANCH   13   12
ATOM    113  H16 UNL A   1       8.594  -2.755  24.337  1.00  0.00    +0.000 H 
ATOM     12  C10 UNL A   1       8.622  -3.798  24.101  1.00  0.00    +0.000 C 
ATOM    112  H15 UNL A   1       8.439  -4.001  23.066  1.00  0.00    +0.000 H 
BRANCH   12   11
ATOM     11  C9  UNL A   1      10.033  -4.279  24.439  1.00  0.00    +0.000 C 
ATOM    110  H13 UNL A   1       9.955  -5.254  24.876  1.00  0.00    +0.000 H 
ATOM    111  H14 UNL A   1      10.579  -4.265  23.519  1.00  0.00    +0.000 H 
BRANCH   11   10
ATOM     10  C8  UNL A   1      10.815  -3.387  25.411  1.00  0.00    +0.000 C 
ATOM    108  H11 UNL A   1      11.072  -3.976  26.266  1.00  0.00    +0.000 H 
ATOM    109  H12 UNL A   1      11.661  -3.028  24.863  1.00  0.00    +0.000 H 
BRANCH   10    9
ATOM      9  C7  UNL A   1      10.072  -2.137  25.904  1.00  0.00    +0.000 C 
ATOM    106  H9  UNL A   1      10.174  -1.372  25.163  1.00  0.00    +0.000 H 
ATOM    107  H10 UNL A   1       9.054  -2.427  26.062  1.00  0.00    +0.000 H 
BRANCH    9    8
ATOM    105  H8  UNL A   1      11.217  -2.328  27.683  1.00  0.00    +0.000 H 
ATOM    104  H7  UNL A   1       9.750  -1.367  27.866  1.00  0.00    +0.000 H 
ATOM      8  C6  UNL A   1      10.585  -1.588  27.236  1.00  0.00    +0.000 C 
BRANCH    8    7
ATOM    103  H6  UNL A   1      10.971   0.441  27.416  1.00  0.00    +0.000 H 
ATOM      7  N1  UNL A   1      11.365  -0.382  27.050  1.00  0.00    +0.000 N 
BRANCH    7    5
ATOM      5  C5  UNL A   1      12.572  -0.237  26.433  1.00  0.00    +0.000 C 
ATOM      6  O1  UNL A   1      13.512  -0.932  26.825  1.00  0.00    +0.000 O 
BRANCH    5    4
ATOM      4  C4  UNL A   1      12.761   0.805  25.334  1.00  0.00    +0.000 C 
ATOM    101  H4  UNL A   1      12.409   1.747  25.701  1.00  0.00    +0.000 H 
ATOM    102  H5  UNL A   1      13.804   0.812  25.096  1.00  0.00    +0.000 H 
BRANCH    4    3
ATOM      2  C2  UNL A   1      12.149  -0.573  23.245  1.00  0.00    +0.000 C 
ATOM      3  C3  UNL A   1      12.038   0.503  24.060  1.00  0.00    +0.000 C 
ATOM    131  H34 UNL A   1      10.873   2.999  24.858  1.00  0.00    +0.000 H 
ATOM    133  H36 UNL A   1       8.950   0.948  20.866  1.00  0.00    +0.000 H 
ATOM    132  H35 UNL A   1       8.096   3.075  21.692  1.00  0.00    +0.000 H 
ATOM     80  C57 UNL A   1      10.983   1.375  23.511  1.00  0.00    +0.000 C 
ATOM     81  C58 UNL A   1      10.482   2.574  24.004  1.00  0.00    +0.000 C 
ATOM     82  C59 UNL A   1       9.440   3.186  23.314  1.00  0.00    +0.000 C 
ATOM     83  F16 UNL A   1       8.951   4.351  23.760  1.00  0.00    +0.000 F 
ATOM     84  C60 UNL A   1       8.879   2.608  22.177  1.00  0.00    +0.000 C 
ATOM     85  C61 UNL A   1       9.375   1.396  21.693  1.00  0.00    +0.000 C 
ATOM     86  C62 UNL A   1      10.450   0.802  22.341  1.00  0.00    +0.000 C 
ATOM     87  C63 UNL A   1      11.239  -0.422  22.097  1.00  0.00    +0.000 C 
BRANCH    2    1
ATOM      1  C1  UNL A   1      13.018  -1.775  23.420  1.00  0.00    +0.000 C 
ATOM     98  H1  UNL A   1      12.407  -2.632  23.616  1.00  0.00    +0.000 H 
ATOM     99  H2  UNL A   1      13.683  -1.617  24.244  1.00  0.00    +0.000 H 
ATOM    100  H3  UNL A   1      13.586  -1.938  22.529  1.00  0.00    +0.000 H 
ENDBRANCH    2    1
BRANCH   87   88
ATOM    134  H37 UNL A   1      11.820  -1.001  20.228  1.00  0.00    +0.000 H 
ATOM     88  C64 UNL A   1      11.217  -1.246  21.029  1.00  0.00    +0.000 C 
BRANCH   88   89
ATOM     97  C71 UNL A   1       9.027  -2.346  20.733  1.00  0.00    +0.000 C 
ATOM    135  H38 UNL A   1      12.009  -3.827  21.087  1.00  0.00    +0.000 H 
ATOM    136  H39 UNL A   1      10.705  -5.767  20.433  1.00  0.00    +0.000 H 
ATOM    141  H44 UNL A   1       7.253  -3.379  20.254  1.00  0.00    +0.000 H 
ATOM    142  H45 UNL A   1       8.565  -1.430  20.849  1.00  0.00    +0.000 H 
ATOM     89  C65 UNL A   1      10.407  -2.461  20.915  1.00  0.00    +0.000 C 
ATOM     90  C66 UNL A   1      11.007  -3.723  20.863  1.00  0.00    +0.000 C 
ATOM     91  C67 UNL A   1      10.249  -4.844  20.506  1.00  0.00    +0.000 C 
ATOM     92  C68 UNL A   1       8.880  -4.723  20.246  1.00  0.00    +0.000 C 
ATOM     96  C70 UNL A   1       8.270  -3.471  20.396  1.00  0.00    +0.000 C 
BRANCH   92   93
ATOM     93  S1  UNL A   1       7.977  -6.109  19.504  1.00  0.00    +0.000 S 
BRANCH   93   94
ATOM    137  H40 UNL A   1       6.193  -5.174  18.211  1.00  0.00    +0.000 H 
ATOM    138  H41 UNL A   1       7.471  -5.784  17.188  1.00  0.00    +0.000 H 
ATOM    139  H42 UNL A   1       7.670  -4.260  18.018  1.00  0.00    +0.000 H 
ATOM     94  C69 UNL A   1       7.254  -5.243  18.086  1.00  0.00    +0.000 C 
ENDBRANCH   93   94
BRANCH   93   95
ATOM    140  H43 UNL A   1       8.942  -6.848  17.745  1.00  0.00    +0.000 H 
ATOM     95  O3  UNL A   1       9.227  -6.660  18.652  1.00  0.00    +0.000 O 
ENDBRANCH   93   95
ENDBRANCH   92   93
ENDBRANCH   88   89
ENDBRANCH   87   88
ENDBRANCH    4    3
ENDBRANCH    5    4
ENDBRANCH    7    5
ENDBRANCH    8    7
ENDBRANCH    9    8
ENDBRANCH   10    9
ENDBRANCH   11   10
ENDBRANCH   12   11
ENDBRANCH   13   12
ENDBRANCH   14   13
ENDBRANCH   15   14
ENDBRANCH   17   15
ENDBRANCH   21   20
BRANCH   25   26
ATOM     33  C25 UNL A   1      12.887   4.041  31.721  1.00  0.00    +0.000 C 
ATOM     34  F4  UNL A   1      12.862   4.206  33.051  1.00  0.00    +0.000 F 
ATOM     35  C26 UNL A   1      11.829   4.504  30.943  1.00  0.00    +0.000 C 
ATOM     36  F5  UNL A   1      10.793   5.102  31.552  1.00  0.00    +0.000 F 
ATOM     26  C21 UNL A   1      11.846   4.369  29.546  1.00  0.00    +0.000 C 
ATOM     27  C22 UNL A   1      12.955   3.741  28.960  1.00  0.00    +0.000 C 
ATOM     28  F1  UNL A   1      13.014   3.578  27.630  1.00  0.00    +0.000 F 
ATOM     29  C23 UNL A   1      14.000   3.258  29.744  1.00  0.00    +0.000 C 
ATOM     30  F2  UNL A   1      15.037   2.636  29.164  1.00  0.00    +0.000 F 
ATOM     31  C24 UNL A   1      13.970   3.416  31.121  1.00  0.00    +0.000 C 
ATOM     32  F3  UNL A   1      14.984   2.964  31.872  1.00  0.00    +0.000 F 
ENDBRANCH   25   26
BRANCH   42   43
ATOM     43  C32 UNL A   1       9.564  10.882  27.505  1.00  0.00    +0.000 C 
ATOM     44  C33 UNL A   1      10.579  11.486  26.750  1.00  0.00    +0.000 C 
ATOM     45  F6  UNL A   1      11.275  10.768  25.857  1.00  0.00    +0.000 F 
ATOM     46  C34 UNL A   1      10.900  12.829  26.932  1.00  0.00    +0.000 C 
ATOM     47  F7  UNL A   1      11.895  13.379  26.223  1.00  0.00    +0.000 F 
ATOM     48  C35 UNL A   1      10.195  13.595  27.848  1.00  0.00    +0.000 C 
ATOM     49  F8  UNL A   1      10.498  14.891  28.013  1.00  0.00    +0.000 F 
ATOM     50  C36 UNL A   1       9.182  13.019  28.598  1.00  0.00    +0.000 C 
ATOM     51  F9  UNL A   1       8.492  13.762  29.476  1.00  0.00    +0.000 F 
ATOM     52  C37 UNL A   1       8.874  11.671  28.437  1.00  0.00    +0.000 C 
ATOM     53  F10 UNL A   1       7.891  11.139  29.178  1.00  0.00    +0.000 F 
ENDBRANCH   42   43
BRANCH   57   58
ATOM     65  C45 UNL A   1       2.210   8.614  23.406  1.00  0.00    +0.000 C 
ATOM     66  F14 UNL A   1       0.987   8.874  23.890  1.00  0.00    +0.000 F 
ATOM     67  C46 UNL A   1       3.221   8.192  24.264  1.00  0.00    +0.000 C 
ATOM     68  F15 UNL A   1       2.950   8.064  25.571  1.00  0.00    +0.000 F 
ATOM     58  C41 UNL A   1       4.498   7.874  23.778  1.00  0.00    +0.000 C 
ATOM     59  C42 UNL A   1       4.731   8.023  22.404  1.00  0.00    +0.000 C 
ATOM     60  F11 UNL A   1       5.942   7.751  21.897  1.00  0.00    +0.000 F 
ATOM     61  C43 UNL A   1       3.724   8.471  21.550  1.00  0.00    +0.000 C 
ATOM     62  F12 UNL A   1       3.979   8.628  20.244  1.00  0.00    +0.000 F 
ATOM     63  C44 UNL A   1       2.463   8.756  22.050  1.00  0.00    +0.000 C 
ATOM     64  F13 UNL A   1       1.491   9.170  21.225  1.00  0.00    +0.000 F 
ENDBRANCH   57   58
TORSDOF 22
ENDMDL
MODEL 7
REMARK VINA RESULT:     -10.6     32.591     39.559
ROOT
ATOM     21  C17 UNL A   1      46.649  50.756  18.060  1.00  0.00    +0.000 C 
ATOM     22  C18 UNL A   1      46.855  52.058  17.336  1.00  0.00    +0.000 C 
ATOM     23  N3  UNL A   1      47.807  52.947  17.489  1.00  0.00    +0.000 N 
ATOM     24  C19 UNL A   1      47.541  53.952  16.570  1.00  0.00    +0.000 C 
ATOM     25  C20 UNL A   1      48.219  55.107  16.363  1.00  0.00    +0.000 C 
ATOM     37  C27 UNL A   1      49.388  55.507  17.101  1.00  0.00    +0.000 C 
ATOM     38  C28 UNL A   1      50.139  56.664  16.967  1.00  0.00    +0.000 C 
ATOM     39  C29 UNL A   1      51.198  56.607  17.878  1.00  0.00    +0.000 C 
ATOM     40  C30 UNL A   1      51.085  55.435  18.609  1.00  0.00    +0.000 C 
ATOM     41  N4  UNL A   1      49.974  54.767  18.117  1.00  0.00    +0.000 N 
ATOM     42  C31 UNL A   1      51.929  54.959  19.674  1.00  0.00    +0.000 C 
ATOM     54  C38 UNL A   1      51.738  53.808  20.362  1.00  0.00    +0.000 C 
ATOM     55  N5  UNL A   1      50.739  52.858  20.209  1.00  0.00    +0.000 N 
ATOM     56  C39 UNL A   1      50.997  51.920  21.086  1.00  0.00    +0.000 C 
ATOM     57  C40 UNL A   1      50.241  50.653  21.365  1.00  0.00    +0.000 C 
ATOM     69  C47 UNL A   1      49.172  50.343  20.606  1.00  0.00    +0.000 C 
ATOM     70  C48 UNL A   1      48.350  49.148  20.758  1.00  0.00    +0.000 C 
ATOM     71  C49 UNL A   1      47.394  49.153  19.817  1.00  0.00    +0.000 C 
ATOM     72  C50 UNL A   1      47.501  50.384  19.035  1.00  0.00    +0.000 C 
ATOM     73  N6  UNL A   1      48.604  51.014  19.552  1.00  0.00    +0.000 N 
ATOM     74  C51 UNL A   1      52.200  52.164  21.893  1.00  0.00    +0.000 C 
ATOM     75  C52 UNL A   1      52.597  53.343  21.432  1.00  0.00    +0.000 C 
ATOM     76  C53 UNL A   1      46.355  53.556  15.841  1.00  0.00    +0.000 C 
ATOM     77  C54 UNL A   1      45.868  52.413  16.304  1.00  0.00    +0.000 C 
ATOM    119  H22 UNL A   1      49.948  57.435  16.308  1.00  0.00    +0.000 H 
ATOM    120  H23 UNL A   1      51.939  57.316  17.987  1.00  0.00    +0.000 H 
ATOM    121  H24 UNL A   1      49.649  53.896  18.442  1.00  0.00    +0.000 H 
ATOM    122  H25 UNL A   1      48.483  48.416  21.473  1.00  0.00    +0.000 H 
ATOM    123  H26 UNL A   1      46.696  48.408  19.670  1.00  0.00    +0.000 H 
ATOM    124  H27 UNL A   1      48.955  51.865  19.201  1.00  0.00    +0.000 H 
ATOM    125  H28 UNL A   1      52.624  51.574  22.626  1.00  0.00    +0.000 H 
ATOM    126  H29 UNL A   1      53.414  53.862  21.790  1.00  0.00    +0.000 H 
ATOM    127  H30 UNL A   1      45.942  54.094  15.063  1.00  0.00    +0.000 H 
ATOM    128  H31 UNL A   1      45.018  51.904  16.017  1.00  0.00    +0.000 H 
ENDROOT
BRANCH   21   20
ATOM    129  H32 UNL A   1      46.474  48.564  16.459  1.00  0.00    +0.000 H 
ATOM    130  H33 UNL A   1      44.481  47.313  15.855  1.00  0.00    +0.000 H 
ATOM     78  C55 UNL A   1      45.563  48.818  16.870  1.00  0.00    +0.000 C 
ATOM     79  C56 UNL A   1      44.420  48.086  16.536  1.00  0.00    +0.000 C 
ATOM     17  C13 UNL A   1      43.193  48.404  17.128  1.00  0.00    +0.000 C 
ATOM     18  C14 UNL A   1      43.124  49.395  18.109  1.00  0.00    +0.000 C 
ATOM     19  C15 UNL A   1      44.243  50.173  18.382  1.00  0.00    +0.000 C 
ATOM     20  C16 UNL A   1      45.474  49.898  17.761  1.00  0.00    +0.000 C 
ATOM    117  H20 UNL A   1      42.246  49.550  18.628  1.00  0.00    +0.000 H 
ATOM    118  H21 UNL A   1      44.171  50.960  19.047  1.00  0.00    +0.000 H 
BRANCH   17   15
ATOM     15  C12 UNL A   1      41.974  47.692  16.686  1.00  0.00    +0.000 C 
ATOM     16  O2  UNL A   1      41.096  48.300  16.084  1.00  0.00    +0.000 O 
BRANCH   15   14
ATOM    116  H19 UNL A   1      42.065  45.733  16.262  1.00  0.00    +0.000 H 
ATOM     14  N2  UNL A   1      41.822  46.358  16.984  1.00  0.00    +0.000 N 
BRANCH   14   13
ATOM    114  H17 UNL A   1      42.198  45.501  18.823  1.00  0.00    +0.000 H 
ATOM    115  H18 UNL A   1      40.702  46.438  18.700  1.00  0.00    +0.000 H 
ATOM     13  C11 UNL A   1      41.352  45.740  18.214  1.00  0.00    +0.000 C 
BRANCH   13   12
ATOM    113  H16 UNL A   1      40.775  44.167  16.958  1.00  0.00    +0.000 H 
ATOM     12  C10 UNL A   1      40.556  44.466  17.962  1.00  0.00    +0.000 C 
ATOM    112  H15 UNL A   1      39.520  44.683  18.119  1.00  0.00    +0.000 H 
BRANCH   12   11
ATOM     11  C9  UNL A   1      40.937  43.285  18.856  1.00  0.00    +0.000 C 
ATOM    110  H13 UNL A   1      40.073  42.661  18.966  1.00  0.00    +0.000 H 
ATOM    111  H14 UNL A   1      41.757  42.799  18.370  1.00  0.00    +0.000 H 
BRANCH   11   10
ATOM     10  C8  UNL A   1      41.435  43.657  20.257  1.00  0.00    +0.000 C 
ATOM    108  H11 UNL A   1      41.899  44.619  20.197  1.00  0.00    +0.000 H 
ATOM    109  H12 UNL A   1      40.573  43.632  20.891  1.00  0.00    +0.000 H 
BRANCH   10    9
ATOM      9  C7  UNL A   1      42.445  42.684  20.881  1.00  0.00    +0.000 C 
ATOM    106  H9  UNL A   1      42.087  42.403  21.849  1.00  0.00    +0.000 H 
ATOM    107  H10 UNL A   1      42.523  41.851  20.211  1.00  0.00    +0.000 H 
BRANCH    9    8
ATOM    105  H8  UNL A   1      44.388  42.648  21.736  1.00  0.00    +0.000 H 
ATOM    104  H7  UNL A   1      43.783  44.266  21.383  1.00  0.00    +0.000 H 
ATOM      8  C6  UNL A   1      43.854  43.257  21.036  1.00  0.00    +0.000 C 
BRANCH    8    7
ATOM    103  H6  UNL A   1      45.138  42.451  19.622  1.00  0.00    +0.000 H 
ATOM      7  N1  UNL A   1      44.576  43.242  19.781  1.00  0.00    +0.000 N 
BRANCH    7    5
ATOM      5  C5  UNL A   1      44.580  44.179  18.792  1.00  0.00    +0.000 C 
ATOM      6  O1  UNL A   1      44.160  43.852  17.679  1.00  0.00    +0.000 O 
BRANCH    5    4
ATOM      4  C4  UNL A   1      45.150  45.573  19.046  1.00  0.00    +0.000 C 
ATOM    101  H4  UNL A   1      44.933  46.184  18.194  1.00  0.00    +0.000 H 
ATOM    102  H5  UNL A   1      44.693  45.929  19.945  1.00  0.00    +0.000 H 
BRANCH    4    3
ATOM      2  C2  UNL A   1      47.634  45.735  18.380  1.00  0.00    +0.000 C 
ATOM      3  C3  UNL A   1      46.627  45.607  19.278  1.00  0.00    +0.000 C 
ATOM    131  H34 UNL A   1      45.586  45.387  21.941  1.00  0.00    +0.000 H 
ATOM    133  H36 UNL A   1      50.431  45.878  21.599  1.00  0.00    +0.000 H 
ATOM    132  H35 UNL A   1      49.364  45.668  23.779  1.00  0.00    +0.000 H 
ATOM     80  C57 UNL A   1      47.228  45.563  20.623  1.00  0.00    +0.000 C 
ATOM     81  C58 UNL A   1      46.610  45.471  21.865  1.00  0.00    +0.000 C 
ATOM     82  C59 UNL A   1      47.411  45.494  23.003  1.00  0.00    +0.000 C 
ATOM     83  F16 UNL A   1      46.840  45.390  24.211  1.00  0.00    +0.000 F 
ATOM     84  C60 UNL A   1      48.794  45.640  22.919  1.00  0.00    +0.000 C 
ATOM     85  C61 UNL A   1      49.410  45.746  21.671  1.00  0.00    +0.000 C 
ATOM     86  C62 UNL A   1      48.628  45.670  20.525  1.00  0.00    +0.000 C 
ATOM     87  C63 UNL A   1      48.929  45.703  19.081  1.00  0.00    +0.000 C 
BRANCH    2    1
ATOM      1  C1  UNL A   1      47.532  45.907  16.900  1.00  0.00    +0.000 C 
ATOM     98  H1  UNL A   1      46.516  45.767  16.595  1.00  0.00    +0.000 H 
ATOM     99  H2  UNL A   1      48.153  45.184  16.413  1.00  0.00    +0.000 H 
ATOM    100  H3  UNL A   1      47.853  46.892  16.632  1.00  0.00    +0.000 H 
ENDBRANCH    2    1
BRANCH   87   88
ATOM    134  H37 UNL A   1      50.413  44.757  18.048  1.00  0.00    +0.000 H 
ATOM     88  C64 UNL A   1      50.127  45.657  18.462  1.00  0.00    +0.000 C 
BRANCH   88   89
ATOM     97  C71 UNL A   1      52.428  46.531  18.269  1.00  0.00    +0.000 C 
ATOM    135  H38 UNL A   1      49.584  48.297  18.289  1.00  0.00    +0.000 H 
ATOM    136  H39 UNL A   1      51.110  50.059  17.615  1.00  0.00    +0.000 H 
ATOM    141  H44 UNL A   1      54.323  47.363  17.864  1.00  0.00    +0.000 H 
ATOM    142  H45 UNL A   1      52.791  45.588  18.480  1.00  0.00    +0.000 H 
ATOM     89  C65 UNL A   1      51.056  46.783  18.333  1.00  0.00    +0.000 C 
ATOM     90  C66 UNL A   1      50.584  48.087  18.152  1.00  0.00    +0.000 C 
ATOM     91  C67 UNL A   1      51.469  49.106  17.784  1.00  0.00    +0.000 C 
ATOM     92  C68 UNL A   1      52.836  48.844  17.640  1.00  0.00    +0.000 C 
ATOM     96  C70 UNL A   1      53.311  47.556  17.919  1.00  0.00    +0.000 C 
BRANCH   92   93
ATOM     93  S1  UNL A   1      53.919  50.086  16.883  1.00  0.00    +0.000 S 
BRANCH   93   94
ATOM    137  H40 UNL A   1      52.040  51.336  17.678  1.00  0.00    +0.000 H 
ATOM    138  H41 UNL A   1      53.062  52.306  16.644  1.00  0.00    +0.000 H 
ATOM    139  H42 UNL A   1      53.544  51.982  18.291  1.00  0.00    +0.000 H 
ATOM     94  C69 UNL A   1      53.053  51.580  17.430  1.00  0.00    +0.000 C 
ENDBRANCH   93   94
BRANCH   93   95
ATOM    140  H43 UNL A   1      54.695  49.497  18.786  1.00  0.00    +0.000 H 
ATOM     95  O3  UNL A   1      54.967  50.130  18.104  1.00  0.00    +0.000 O 
ENDBRANCH   93   95
ENDBRANCH   92   93
ENDBRANCH   88   89
ENDBRANCH   87   88
ENDBRANCH    4    3
ENDBRANCH    5    4
ENDBRANCH    7    5
ENDBRANCH    8    7
ENDBRANCH    9    8
ENDBRANCH   10    9
ENDBRANCH   11   10
ENDBRANCH   12   11
ENDBRANCH   13   12
ENDBRANCH   14   13
ENDBRANCH   15   14
ENDBRANCH   17   15
ENDBRANCH   21   20
BRANCH   25   26
ATOM     33  C25 UNL A   1      47.677  56.706  12.953  1.00  0.00    +0.000 C 
ATOM     34  F4  UNL A   1      48.042  56.493  11.681  1.00  0.00    +0.000 F 
ATOM     35  C26 UNL A   1      48.065  55.811  13.947  1.00  0.00    +0.000 C 
ATOM     36  F5  UNL A   1      48.796  54.740  13.602  1.00  0.00    +0.000 F 
ATOM     26  C21 UNL A   1      47.719  56.028  15.290  1.00  0.00    +0.000 C 
ATOM     27  C22 UNL A   1      46.959  57.166  15.597  1.00  0.00    +0.000 C 
ATOM     28  F1  UNL A   1      46.594  57.412  16.864  1.00  0.00    +0.000 F 
ATOM     29  C23 UNL A   1      46.553  58.046  14.597  1.00  0.00    +0.000 C 
ATOM     30  F2  UNL A   1      45.803  59.112  14.910  1.00  0.00    +0.000 F 
ATOM     31  C24 UNL A   1      46.919  57.821  13.278  1.00  0.00    +0.000 C 
ATOM     32  F3  UNL A   1      46.539  58.677  12.319  1.00  0.00    +0.000 F 
ENDBRANCH   25   26
BRANCH   42   43
ATOM     43  C32 UNL A   1      53.103  55.806  20.060  1.00  0.00    +0.000 C 
ATOM     44  C33 UNL A   1      54.365  55.612  19.482  1.00  0.00    +0.000 C 
ATOM     45  F6  UNL A   1      54.563  54.607  18.615  1.00  0.00    +0.000 F 
ATOM     46  C34 UNL A   1      55.437  56.436  19.814  1.00  0.00    +0.000 C 
ATOM     47  F7  UNL A   1      56.643  56.213  19.274  1.00  0.00    +0.000 F 
ATOM     48  C35 UNL A   1      55.260  57.483  20.706  1.00  0.00    +0.000 C 
ATOM     49  F8  UNL A   1      56.290  58.282  21.016  1.00  0.00    +0.000 F 
ATOM     50  C36 UNL A   1      54.018  57.698  21.283  1.00  0.00    +0.000 C 
ATOM     51  F9  UNL A   1      53.842  58.716  22.137  1.00  0.00    +0.000 F 
ATOM     52  C37 UNL A   1      52.949  56.862  20.972  1.00  0.00    +0.000 C 
ATOM     53  F10 UNL A   1      51.759  57.091  21.547  1.00  0.00    +0.000 F 
ENDBRANCH   42   43
BRANCH   57   58
ATOM     65  C45 UNL A   1      51.882  47.808  23.270  1.00  0.00    +0.000 C 
ATOM     66  F14 UNL A   1      52.728  46.797  23.029  1.00  0.00    +0.000 F 
ATOM     67  C46 UNL A   1      51.558  48.699  22.252  1.00  0.00    +0.000 C 
ATOM     68  F15 UNL A   1      52.111  48.530  21.042  1.00  0.00    +0.000 F 
ATOM     58  C41 UNL A   1      50.644  49.742  22.466  1.00  0.00    +0.000 C 
ATOM     59  C42 UNL A   1      50.092  49.876  23.746  1.00  0.00    +0.000 C 
ATOM     60  F11 UNL A   1      49.230  50.871  24.004  1.00  0.00    +0.000 F 
ATOM     61  C43 UNL A   1      50.439  48.999  24.772  1.00  0.00    +0.000 C 
ATOM     62  F12 UNL A   1      49.915  49.163  25.995  1.00  0.00    +0.000 F 
ATOM     63  C44 UNL A   1      51.325  47.960  24.531  1.00  0.00    +0.000 C 
ATOM     64  F13 UNL A   1      51.644  47.108  25.514  1.00  0.00    +0.000 F 
ENDBRANCH   57   58
TORSDOF 22
ENDMDL
MODEL 8
REMARK VINA RESULT:     -10.5     46.401     52.029
ROOT
ATOM     21  C17 UNL A   1      26.485 -11.359  30.322  1.00  0.00    +0.000 C 
ATOM     22  C18 UNL A   1      27.624 -12.267  30.696  1.00  0.00    +0.000 C 
ATOM     23  N3  UNL A   1      27.836 -12.905  31.821  1.00  0.00    +0.000 N 
ATOM     24  C19 UNL A   1      29.017 -13.612  31.642  1.00  0.00    +0.000 C 
ATOM     25  C20 UNL A   1      29.673 -14.398  32.530  1.00  0.00    +0.000 C 
ATOM     37  C27 UNL A   1      29.234 -14.643  33.879  1.00  0.00    +0.000 C 
ATOM     38  C28 UNL A   1      29.837 -15.420  34.854  1.00  0.00    +0.000 C 
ATOM     39  C29 UNL A   1      29.036 -15.385  36.000  1.00  0.00    +0.000 C 
ATOM     40  C30 UNL A   1      27.956 -14.554  35.753  1.00  0.00    +0.000 C 
ATOM     41  N4  UNL A   1      28.086 -14.111  34.446  1.00  0.00    +0.000 N 
ATOM     42  C31 UNL A   1      26.882 -14.193  36.643  1.00  0.00    +0.000 C 
ATOM     54  C38 UNL A   1      25.869 -13.348  36.337  1.00  0.00    +0.000 C 
ATOM     55  N5  UNL A   1      25.630 -12.669  35.150  1.00  0.00    +0.000 N 
ATOM     56  C39 UNL A   1      24.519 -12.001  35.335  1.00  0.00    +0.000 C 
ATOM     57  C40 UNL A   1      23.793 -11.092  34.386  1.00  0.00    +0.000 C 
ATOM     69  C47 UNL A   1      24.261 -10.941  33.132  1.00  0.00    +0.000 C 
ATOM     70  C48 UNL A   1      23.658 -10.099  32.104  1.00  0.00    +0.000 C 
ATOM     71  C49 UNL A   1      24.370 -10.213  30.973  1.00  0.00    +0.000 C 
ATOM     72  C50 UNL A   1      25.515 -11.090  31.217  1.00  0.00    +0.000 C 
ATOM     73  N6  UNL A   1      25.352 -11.501  32.514  1.00  0.00    +0.000 N 
ATOM     74  C51 UNL A   1      23.917 -12.188  36.662  1.00  0.00    +0.000 C 
ATOM     75  C52 UNL A   1      24.796 -12.995  37.243  1.00  0.00    +0.000 C 
ATOM     76  C53 UNL A   1      29.466 -13.350  30.292  1.00  0.00    +0.000 C 
ATOM     77  C54 UNL A   1      28.663 -12.491  29.679  1.00  0.00    +0.000 C 
ATOM    119  H22 UNL A   1      30.725 -15.936  34.752  1.00  0.00    +0.000 H 
ATOM    120  H23 UNL A   1      29.218 -15.893  36.879  1.00  0.00    +0.000 H 
ATOM    121  H24 UNL A   1      27.457 -13.507  33.988  1.00  0.00    +0.000 H 
ATOM    122  H25 UNL A   1      22.819  -9.511  32.227  1.00  0.00    +0.000 H 
ATOM    123  H26 UNL A   1      24.146  -9.754  30.077  1.00  0.00    +0.000 H 
ATOM    124  H27 UNL A   1      25.957 -12.138  32.960  1.00  0.00    +0.000 H 
ATOM    125  H28 UNL A   1      23.042 -11.795  37.043  1.00  0.00    +0.000 H 
ATOM    126  H29 UNL A   1      24.723 -13.328  38.218  1.00  0.00    +0.000 H 
ATOM    127  H30 UNL A   1      30.303 -13.775  29.863  1.00  0.00    +0.000 H 
ATOM    128  H31 UNL A   1      28.745 -12.086  28.733  1.00  0.00    +0.000 H 
ENDROOT
BRANCH   21   20
ATOM    129  H32 UNL A   1      25.119 -12.066  28.078  1.00  0.00    +0.000 H 
ATOM    130  H33 UNL A   1      25.244 -11.053  25.873  1.00  0.00    +0.000 H 
ATOM     78  C55 UNL A   1      25.707 -11.232  27.928  1.00  0.00    +0.000 C 
ATOM     79  C56 UNL A   1      25.764 -10.638  26.663  1.00  0.00    +0.000 C 
ATOM     17  C13 UNL A   1      26.526  -9.482  26.472  1.00  0.00    +0.000 C 
ATOM     18  C14 UNL A   1      27.163  -8.874  27.556  1.00  0.00    +0.000 C 
ATOM     19  C15 UNL A   1      27.170  -9.507  28.794  1.00  0.00    +0.000 C 
ATOM     20  C16 UNL A   1      26.447 -10.696  28.993  1.00  0.00    +0.000 C 
ATOM    117  H20 UNL A   1      27.627  -7.961  27.439  1.00  0.00    +0.000 H 
ATOM    118  H21 UNL A   1      27.709  -9.100  29.575  1.00  0.00    +0.000 H 
BRANCH   17   15
ATOM     15  C12 UNL A   1      26.663  -8.927  25.108  1.00  0.00    +0.000 C 
ATOM     16  O2  UNL A   1      26.679  -7.712  24.941  1.00  0.00    +0.000 O 
BRANCH   15   14
ATOM    116  H19 UNL A   1      25.896  -9.928  23.548  1.00  0.00    +0.000 H 
ATOM     14  N2  UNL A   1      26.741  -9.780  24.032  1.00  0.00    +0.000 N 
BRANCH   14   13
ATOM    114  H17 UNL A   1      27.809 -10.554  22.445  1.00  0.00    +0.000 H 
ATOM    115  H18 UNL A   1      28.771  -9.954  23.803  1.00  0.00    +0.000 H 
ATOM     13  C11 UNL A   1      27.896 -10.494  23.509  1.00  0.00    +0.000 C 
BRANCH   13   12
ATOM    113  H16 UNL A   1      28.483 -12.495  23.309  1.00  0.00    +0.000 H 
ATOM     12  C10 UNL A   1      28.013 -11.906  24.069  1.00  0.00    +0.000 C 
ATOM    112  H15 UNL A   1      27.031 -12.248  24.320  1.00  0.00    +0.000 H 
BRANCH   12   11
ATOM     11  C9  UNL A   1      28.893 -12.030  25.314  1.00  0.00    +0.000 C 
ATOM    110  H13 UNL A   1      28.269 -11.899  26.174  1.00  0.00    +0.000 H 
ATOM    111  H14 UNL A   1      29.350 -12.996  25.259  1.00  0.00    +0.000 H 
BRANCH   11   10
ATOM     10  C8  UNL A   1      30.044 -11.021  25.407  1.00  0.00    +0.000 C 
ATOM    108  H11 UNL A   1      29.686 -10.079  25.048  1.00  0.00    +0.000 H 
ATOM    109  H12 UNL A   1      30.340 -11.008  26.434  1.00  0.00    +0.000 H 
BRANCH   10    9
ATOM      9  C7  UNL A   1      31.305 -11.382  24.609  1.00  0.00    +0.000 C 
ATOM    106  H9  UNL A   1      32.082 -11.630  25.303  1.00  0.00    +0.000 H 
ATOM    107  H10 UNL A   1      31.043 -12.202  23.973  1.00  0.00    +0.000 H 
BRANCH    9    8
ATOM    105  H8  UNL A   1      31.345  -9.349  23.999  1.00  0.00    +0.000 H 
ATOM    104  H7  UNL A   1      31.570 -10.502  22.685  1.00  0.00    +0.000 H 
ATOM      8  C6  UNL A   1      31.813 -10.263  23.699  1.00  0.00    +0.000 C 
BRANCH    8    7
ATOM    103  H6  UNL A   1      33.788 -10.883  23.579  1.00  0.00    +0.000 H 
ATOM      7  N1  UNL A   1      33.247 -10.095  23.811  1.00  0.00    +0.000 N 
BRANCH    7    5
ATOM      5  C5  UNL A   1      33.946  -8.990  24.196  1.00  0.00    +0.000 C 
ATOM      6  O1  UNL A   1      34.119  -8.093  23.367  1.00  0.00    +0.000 O 
BRANCH    5    4
ATOM      4  C4  UNL A   1      34.548  -8.902  25.596  1.00  0.00    +0.000 C 
ATOM    101  H4  UNL A   1      35.592  -9.128  25.526  1.00  0.00    +0.000 H 
ATOM    102  H5  UNL A   1      34.357  -7.910  25.948  1.00  0.00    +0.000 H 
BRANCH    4    3
ATOM      2  C2  UNL A   1      34.331 -11.073  26.966  1.00  0.00    +0.000 C 
ATOM      3  C3  UNL A   1      33.936  -9.831  26.595  1.00  0.00    +0.000 C 
ATOM    131  H34 UNL A   1      32.248  -7.521  26.782  1.00  0.00    +0.000 H 
ATOM    133  H36 UNL A   1      31.259 -11.122  29.927  1.00  0.00    +0.000 H 
ATOM    132  H35 UNL A   1      29.926  -9.083  29.930  1.00  0.00    +0.000 H 
ATOM     80  C57 UNL A   1      32.767  -9.468  27.417  1.00  0.00    +0.000 C 
ATOM     81  C58 UNL A   1      32.029  -8.291  27.432  1.00  0.00    +0.000 C 
ATOM     82  C59 UNL A   1      30.985  -8.179  28.345  1.00  0.00    +0.000 C 
ATOM     83  F16 UNL A   1      30.248  -7.060  28.368  1.00  0.00    +0.000 F 
ATOM     84  C60 UNL A   1      30.696  -9.197  29.252  1.00  0.00    +0.000 C 
ATOM     85  C61 UNL A   1      31.449 -10.372  29.243  1.00  0.00    +0.000 C 
ATOM     86  C62 UNL A   1      32.459 -10.519  28.301  1.00  0.00    +0.000 C 
ATOM     87  C63 UNL A   1      33.404 -11.606  27.979  1.00  0.00    +0.000 C 
BRANCH    2    1
ATOM      1  C1  UNL A   1      35.517 -11.843  26.487  1.00  0.00    +0.000 C 
ATOM     98  H1  UNL A   1      35.402 -12.875  26.748  1.00  0.00    +0.000 H 
ATOM     99  H2  UNL A   1      36.403 -11.457  26.946  1.00  0.00    +0.000 H 
ATOM    100  H3  UNL A   1      35.597 -11.751  25.424  1.00  0.00    +0.000 H 
ENDBRANCH    2    1
BRANCH   87   88
ATOM    134  H37 UNL A   1      33.993 -13.056  29.288  1.00  0.00    +0.000 H 
ATOM     88  C64 UNL A   1      33.431 -12.872  28.443  1.00  0.00    +0.000 C 
BRANCH   88   89
ATOM     97  C71 UNL A   1      33.327 -15.269  27.860  1.00  0.00    +0.000 C 
ATOM    135  H38 UNL A   1      31.002 -12.934  27.265  1.00  0.00    +0.000 H 
ATOM    136  H39 UNL A   1      29.698 -14.906  26.714  1.00  0.00    +0.000 H 
ATOM    141  H44 UNL A   1      33.033 -17.330  27.525  1.00  0.00    +0.000 H 
ATOM    142  H45 UNL A   1      34.318 -15.366  28.134  1.00  0.00    +0.000 H 
ATOM     89  C65 UNL A   1      32.727 -14.008  27.843  1.00  0.00    +0.000 C 
ATOM     90  C66 UNL A   1      31.419 -13.872  27.367  1.00  0.00    +0.000 C 
ATOM     91  C67 UNL A   1      30.676 -15.009  27.029  1.00  0.00    +0.000 C 
ATOM     92  C68 UNL A   1      31.246 -16.284  27.118  1.00  0.00    +0.000 C 
ATOM     96  C70 UNL A   1      32.587 -16.400  27.503  1.00  0.00    +0.000 C 
BRANCH   92   93
ATOM     93  S1  UNL A   1      30.197 -17.754  26.965  1.00  0.00    +0.000 S 
BRANCH   93   94
ATOM    137  H40 UNL A   1      28.635 -16.005  27.439  1.00  0.00    +0.000 H 
ATOM    138  H41 UNL A   1      27.850 -17.565  27.386  1.00  0.00    +0.000 H 
ATOM    139  H42 UNL A   1      28.298 -16.762  25.901  1.00  0.00    +0.000 H 
ATOM     94  C69 UNL A   1      28.580 -16.938  26.917  1.00  0.00    +0.000 C 
ENDBRANCH   93   94
BRANCH   93   95
ATOM    140  H43 UNL A   1      30.056 -16.994  24.972  1.00  0.00    +0.000 H 
ATOM     95  O3  UNL A   1      30.305 -17.846  25.362  1.00  0.00    +0.000 O 
ENDBRANCH   93   95
ENDBRANCH   92   93
ENDBRANCH   88   89
ENDBRANCH   87   88
ENDBRANCH    4    3
ENDBRANCH    5    4
ENDBRANCH    7    5
ENDBRANCH    8    7
ENDBRANCH    9    8
ENDBRANCH   10    9
ENDBRANCH   11   10
ENDBRANCH   12   11
ENDBRANCH   13   12
ENDBRANCH   14   13
ENDBRANCH   15   14
ENDBRANCH   17   15
ENDBRANCH   21   20
BRANCH   25   26
ATOM     33  C25 UNL A   1      32.069 -16.948  31.033  1.00  0.00    +0.000 C 
ATOM     34  F4  UNL A   1      32.003 -18.128  30.400  1.00  0.00    +0.000 F 
ATOM     35  C26 UNL A   1      30.897 -16.282  31.386  1.00  0.00    +0.000 C 
ATOM     36  F5  UNL A   1      29.718 -16.841  31.073  1.00  0.00    +0.000 F 
ATOM     26  C21 UNL A   1      30.940 -15.060  32.075  1.00  0.00    +0.000 C 
ATOM     27  C22 UNL A   1      32.198 -14.523  32.382  1.00  0.00    +0.000 C 
ATOM     28  F1  UNL A   1      32.292 -13.352  33.029  1.00  0.00    +0.000 F 
ATOM     29  C23 UNL A   1      33.368 -15.179  32.007  1.00  0.00    +0.000 C 
ATOM     30  F2  UNL A   1      34.560 -14.633  32.286  1.00  0.00    +0.000 F 
ATOM     31  C24 UNL A   1      33.302 -16.394  31.340  1.00  0.00    +0.000 C 
ATOM     32  F3  UNL A   1      34.429 -17.031  30.992  1.00  0.00    +0.000 F 
ENDBRANCH   25   26
BRANCH   42   43
ATOM     43  C32 UNL A   1      26.892 -14.787  38.019  1.00  0.00    +0.000 C 
ATOM     44  C33 UNL A   1      26.278 -16.018  38.286  1.00  0.00    +0.000 C 
ATOM     45  F6  UNL A   1      25.603 -16.659  37.321  1.00  0.00    +0.000 F 
ATOM     46  C34 UNL A   1      26.335 -16.582  39.558  1.00  0.00    +0.000 C 
ATOM     47  F7  UNL A   1      25.714 -17.745  39.800  1.00  0.00    +0.000 F 
ATOM     48  C35 UNL A   1      27.027 -15.940  40.574  1.00  0.00    +0.000 C 
ATOM     49  F8  UNL A   1      27.090 -16.491  41.795  1.00  0.00    +0.000 F 
ATOM     50  C36 UNL A   1      27.648 -14.726  40.328  1.00  0.00    +0.000 C 
ATOM     51  F9  UNL A   1      28.327 -14.110  41.307  1.00  0.00    +0.000 F 
ATOM     52  C37 UNL A   1      27.575 -14.147  39.065  1.00  0.00    +0.000 C 
ATOM     53  F10 UNL A   1      28.182 -12.970  38.855  1.00  0.00    +0.000 F 
ENDBRANCH   42   43
BRANCH   57   58
ATOM     65  C45 UNL A   1      20.160 -10.192  35.022  1.00  0.00    +0.000 C 
ATOM     66  F14 UNL A   1      18.949 -10.743  34.862  1.00  0.00    +0.000 F 
ATOM     67  C46 UNL A   1      21.300 -10.916  34.688  1.00  0.00    +0.000 C 
ATOM     68  F15 UNL A   1      21.161 -12.164  34.216  1.00  0.00    +0.000 F 
ATOM     58  C41 UNL A   1      22.579 -10.350  34.807  1.00  0.00    +0.000 C 
ATOM     59  C42 UNL A   1      22.672  -9.043  35.302  1.00  0.00    +0.000 C 
ATOM     60  F11 UNL A   1      23.874  -8.468  35.453  1.00  0.00    +0.000 F 
ATOM     61  C43 UNL A   1      21.530  -8.329  35.662  1.00  0.00    +0.000 C 
ATOM     62  F12 UNL A   1      21.647  -7.089  36.156  1.00  0.00    +0.000 F 
ATOM     63  C44 UNL A   1      20.275  -8.900  35.512  1.00  0.00    +0.000 C 
ATOM     64  F13 UNL A   1      19.178  -8.207  35.843  1.00  0.00    +0.000 F 
ENDBRANCH   57   58
TORSDOF 22
ENDMDL
MODEL 9
REMARK VINA RESULT:     -10.4      4.014      7.369
ROOT
ATOM     21  C17 UNL A   1      25.476  34.819  45.454  1.00  0.00    +0.000 C 
ATOM     22  C18 UNL A   1      25.162  35.910  46.442  1.00  0.00    +0.000 C 
ATOM     23  N3  UNL A   1      25.897  36.933  46.804  1.00  0.00    +0.000 N 
ATOM     24  C19 UNL A   1      25.140  37.638  47.729  1.00  0.00    +0.000 C 
ATOM     25  C20 UNL A   1      25.475  38.755  48.418  1.00  0.00    +0.000 C 
ATOM     37  C27 UNL A   1      26.740  39.432  48.303  1.00  0.00    +0.000 C 
ATOM     38  C28 UNL A   1      27.174  40.568  48.967  1.00  0.00    +0.000 C 
ATOM     39  C29 UNL A   1      28.461  40.877  48.515  1.00  0.00    +0.000 C 
ATOM     40  C30 UNL A   1      28.846  39.910  47.600  1.00  0.00    +0.000 C 
ATOM     41  N4  UNL A   1      27.778  39.035  47.475  1.00  0.00    +0.000 N 
ATOM     42  C31 UNL A   1      30.093  39.796  46.890  1.00  0.00    +0.000 C 
ATOM     54  C38 UNL A   1      30.409  38.802  46.025  1.00  0.00    +0.000 C 
ATOM     55  N5  UNL A   1      29.640  37.716  45.631  1.00  0.00    +0.000 N 
ATOM     56  C39 UNL A   1      30.369  37.056  44.765  1.00  0.00    +0.000 C 
ATOM     57  C40 UNL A   1      30.040  35.795  44.019  1.00  0.00    +0.000 C 
ATOM     69  C47 UNL A   1      28.820  35.242  44.166  1.00  0.00    +0.000 C 
ATOM     70  C48 UNL A   1      28.361  34.027  43.502  1.00  0.00    +0.000 C 
ATOM     71  C49 UNL A   1      27.090  33.789  43.859  1.00  0.00    +0.000 C 
ATOM     72  C50 UNL A   1      26.667  34.803  44.824  1.00  0.00    +0.000 C 
ATOM     73  N6  UNL A   1      27.747  35.642  44.923  1.00  0.00    +0.000 N 
ATOM     74  C51 UNL A   1      31.684  37.655  44.502  1.00  0.00    +0.000 C 
ATOM     75  C52 UNL A   1      31.669  38.701  45.319  1.00  0.00    +0.000 C 
ATOM     76  C53 UNL A   1      23.876  36.945  47.856  1.00  0.00    +0.000 C 
ATOM     77  C54 UNL A   1      23.855  35.847  47.114  1.00  0.00    +0.000 C 
ATOM    119  H22 UNL A   1      26.639  41.096  49.675  1.00  0.00    +0.000 H 
ATOM    120  H23 UNL A   1      29.027  41.686  48.811  1.00  0.00    +0.000 H 
ATOM    121  H24 UNL A   1      27.760  38.246  46.885  1.00  0.00    +0.000 H 
ATOM    122  H25 UNL A   1      28.923  33.446  42.861  1.00  0.00    +0.000 H 
ATOM    123  H26 UNL A   1      26.506  33.014  43.508  1.00  0.00    +0.000 H 
ATOM    124  H27 UNL A   1      27.751  36.454  45.480  1.00  0.00    +0.000 H 
ATOM    125  H28 UNL A   1      32.425  37.345  43.855  1.00  0.00    +0.000 H 
ATOM    126  H29 UNL A   1      32.456  39.360  45.435  1.00  0.00    +0.000 H 
ATOM    127  H30 UNL A   1      23.093  37.264  48.449  1.00  0.00    +0.000 H 
ATOM    128  H31 UNL A   1      23.114  35.134  47.028  1.00  0.00    +0.000 H 
ENDROOT
BRANCH   21   20
ATOM    129  H32 UNL A   1      23.772  34.448  43.368  1.00  0.00    +0.000 H 
ATOM    130  H33 UNL A   1      22.080  32.723  43.112  1.00  0.00    +0.000 H 
ATOM     78  C55 UNL A   1      23.677  33.710  44.082  1.00  0.00    +0.000 C 
ATOM     79  C56 UNL A   1      22.716  32.707  43.925  1.00  0.00    +0.000 C 
ATOM     17  C13 UNL A   1      22.618  31.683  44.871  1.00  0.00    +0.000 C 
ATOM     18  C14 UNL A   1      23.530  31.615  45.927  1.00  0.00    +0.000 C 
ATOM     19  C15 UNL A   1      24.433  32.653  46.125  1.00  0.00    +0.000 C 
ATOM     20  C16 UNL A   1      24.513  33.716  45.209  1.00  0.00    +0.000 C 
ATOM    117  H20 UNL A   1      23.532  30.799  46.558  1.00  0.00    +0.000 H 
ATOM    118  H21 UNL A   1      25.052  32.644  46.952  1.00  0.00    +0.000 H 
BRANCH   17   15
ATOM     15  C12 UNL A   1      21.529  30.691  44.750  1.00  0.00    +0.000 C 
ATOM     16  O2  UNL A   1      21.736  29.517  45.038  1.00  0.00    +0.000 O 
BRANCH   15   14
ATOM    116  H19 UNL A   1      20.204  31.113  43.304  1.00  0.00    +0.000 H 
ATOM     14  N2  UNL A   1      20.297  31.088  44.284  1.00  0.00    +0.000 N 
BRANCH   14   13
ATOM    114  H17 UNL A   1      18.246  31.210  44.469  1.00  0.00    +0.000 H 
ATOM    115  H18 UNL A   1      19.143  30.961  45.974  1.00  0.00    +0.000 H 
ATOM     13  C11 UNL A   1      19.113  31.475  45.036  1.00  0.00    +0.000 C 
BRANCH   13   12
ATOM    113  H16 UNL A   1      19.893  33.176  45.977  1.00  0.00    +0.000 H 
ATOM     12  C10 UNL A   1      19.068  32.970  45.327  1.00  0.00    +0.000 C 
ATOM    112  H15 UNL A   1      18.119  33.194  45.768  1.00  0.00    +0.000 H 
BRANCH   12   11
ATOM     11  C9  UNL A   1      19.250  33.866  44.102  1.00  0.00    +0.000 C 
ATOM    110  H13 UNL A   1      19.642  33.265  43.307  1.00  0.00    +0.000 H 
ATOM    111  H14 UNL A   1      18.285  34.279  43.892  1.00  0.00    +0.000 H 
BRANCH   11   10
ATOM     10  C8  UNL A   1      20.189  35.063  44.299  1.00  0.00    +0.000 C 
ATOM    108  H11 UNL A   1      21.110  34.844  43.801  1.00  0.00    +0.000 H 
ATOM    109  H12 UNL A   1      19.672  35.910  43.899  1.00  0.00    +0.000 H 
BRANCH   10    9
ATOM      9  C7  UNL A   1      20.512  35.417  45.757  1.00  0.00    +0.000 C 
ATOM    106  H9  UNL A   1      19.906  34.807  46.393  1.00  0.00    +0.000 H 
ATOM    107  H10 UNL A   1      21.560  35.240  45.891  1.00  0.00    +0.000 H 
BRANCH    9    8
ATOM    105  H8  UNL A   1      20.918  37.488  45.525  1.00  0.00    +0.000 H 
ATOM    104  H7  UNL A   1      20.453  37.022  47.160  1.00  0.00    +0.000 H 
ATOM      8  C6  UNL A   1      20.264  36.882  46.117  1.00  0.00    +0.000 C 
BRANCH    8    7
ATOM    103  H6  UNL A   1      18.793  37.975  45.146  1.00  0.00    +0.000 H 
ATOM      7  N1  UNL A   1      18.900  37.277  45.830  1.00  0.00    +0.000 N 
BRANCH    7    5
ATOM      5  C5  UNL A   1      17.746  36.808  46.382  1.00  0.00    +0.000 C 
ATOM      6  O1  UNL A   1      16.675  37.175  45.892  1.00  0.00    +0.000 O 
BRANCH    5    4
ATOM      4  C4  UNL A   1      17.786  35.905  47.613  1.00  0.00    +0.000 C 
ATOM    101  H4  UNL A   1      16.871  35.351  47.652  1.00  0.00    +0.000 H 
ATOM    102  H5  UNL A   1      18.649  35.281  47.505  1.00  0.00    +0.000 H 
BRANCH    4    3
ATOM      2  C2  UNL A   1      17.067  37.430  49.562  1.00  0.00    +0.000 C 
ATOM      3  C3  UNL A   1      17.946  36.630  48.911  1.00  0.00    +0.000 C 
ATOM    131  H34 UNL A   1      20.442  35.239  48.665  1.00  0.00    +0.000 H 
ATOM    133  H36 UNL A   1      19.814  37.738  52.812  1.00  0.00    +0.000 H 
ATOM    132  H35 UNL A   1      21.875  36.500  52.419  1.00  0.00    +0.000 H 
ATOM     80  C57 UNL A   1      19.154  36.515  49.749  1.00  0.00    +0.000 C 
ATOM     81  C58 UNL A   1      20.315  35.784  49.531  1.00  0.00    +0.000 C 
ATOM     82  C59 UNL A   1      21.303  35.807  50.511  1.00  0.00    +0.000 C 
ATOM     83  F16 UNL A   1      22.438  35.123  50.317  1.00  0.00    +0.000 F 
ATOM     84  C60 UNL A   1      21.133  36.511  51.701  1.00  0.00    +0.000 C 
ATOM     85  C61 UNL A   1      19.959  37.233  51.923  1.00  0.00    +0.000 C 
ATOM     86  C62 UNL A   1      18.989  37.263  50.930  1.00  0.00    +0.000 C 
ATOM     87  C63 UNL A   1      17.679  37.932  50.804  1.00  0.00    +0.000 C 
BRANCH    2    1
ATOM      1  C1  UNL A   1      15.672  37.781  49.161  1.00  0.00    +0.000 C 
ATOM     98  H1  UNL A   1      15.015  36.975  49.413  1.00  0.00    +0.000 H 
ATOM     99  H2  UNL A   1      15.636  37.953  48.105  1.00  0.00    +0.000 H 
ATOM    100  H3  UNL A   1      15.365  38.667  49.677  1.00  0.00    +0.000 H 
ENDBRANCH    2    1
BRANCH   87   88
ATOM    134  H37 UNL A   1      16.429  38.548  52.294  1.00  0.00    +0.000 H 
ATOM     88  C64 UNL A   1      17.124  38.867  51.601  1.00  0.00    +0.000 C 
BRANCH   88   89
ATOM     97  C71 UNL A   1      18.480  40.753  50.765  1.00  0.00    +0.000 C 
ATOM    135  H38 UNL A   1      15.880  40.901  52.870  1.00  0.00    +0.000 H 
ATOM    136  H39 UNL A   1      16.121  43.272  52.411  1.00  0.00    +0.000 H 
ATOM    141  H44 UNL A   1      19.417  42.451  49.937  1.00  0.00    +0.000 H 
ATOM    142  H45 UNL A   1      19.140  40.078  50.349  1.00  0.00    +0.000 H 
ATOM     89  C65 UNL A   1      17.426  40.300  51.561  1.00  0.00    +0.000 C 
ATOM     90  C66 UNL A   1      16.602  41.226  52.209  1.00  0.00    +0.000 C 
ATOM     91  C67 UNL A   1      16.756  42.595  51.959  1.00  0.00    +0.000 C 
ATOM     92  C68 UNL A   1      17.762  43.052  51.100  1.00  0.00    +0.000 C 
ATOM     96  C70 UNL A   1      18.642  42.122  50.533  1.00  0.00    +0.000 C 
BRANCH   92   93
ATOM     93  S1  UNL A   1      17.765  44.781  50.555  1.00  0.00    +0.000 S 
BRANCH   93   94
ATOM    137  H40 UNL A   1      19.194  44.270  48.705  1.00  0.00    +0.000 H 
ATOM    138  H41 UNL A   1      17.954  45.417  48.257  1.00  0.00    +0.000 H 
ATOM    139  H42 UNL A   1      17.559  43.723  48.420  1.00  0.00    +0.000 H 
ATOM     94  C69 UNL A   1      18.158  44.521  48.806  1.00  0.00    +0.000 C 
ENDBRANCH   93   94
BRANCH   93   95
ATOM    140  H43 UNL A   1      15.722  45.070  51.115  1.00  0.00    +0.000 H 
ATOM     95  O3  UNL A   1      16.179  44.854  50.288  1.00  0.00    +0.000 O 
ENDBRANCH   93   95
ENDBRANCH   92   93
ENDBRANCH   88   89
ENDBRANCH   87   88
ENDBRANCH    4    3
ENDBRANCH    5    4
ENDBRANCH    7    5
ENDBRANCH    8    7
ENDBRANCH    9    8
ENDBRANCH   10    9
ENDBRANCH   11   10
ENDBRANCH   12   11
ENDBRANCH   13   12
ENDBRANCH   14   13
ENDBRANCH   15   14
ENDBRANCH   17   15
ENDBRANCH   21   20
BRANCH   25   26
ATOM     33  C25 UNL A   1      23.370  39.313  51.539  1.00  0.00    +0.000 C 
ATOM     34  F4  UNL A   1      23.282  38.824  52.783  1.00  0.00    +0.000 F 
ATOM     35  C26 UNL A   1      24.364  38.851  50.679  1.00  0.00    +0.000 C 
ATOM     36  F5  UNL A   1      25.224  37.922  51.126  1.00  0.00    +0.000 F 
ATOM     26  C21 UNL A   1      24.459  39.326  49.362  1.00  0.00    +0.000 C 
ATOM     27  C22 UNL A   1      23.532  40.291  48.944  1.00  0.00    +0.000 C 
ATOM     28  F1  UNL A   1      23.587  40.786  47.698  1.00  0.00    +0.000 F 
ATOM     29  C23 UNL A   1      22.554  40.769  49.813  1.00  0.00    +0.000 C 
ATOM     30  F2  UNL A   1      21.696  41.713  49.401  1.00  0.00    +0.000 F 
ATOM     31  C24 UNL A   1      22.469  40.273  51.106  1.00  0.00    +0.000 C 
ATOM     32  F3  UNL A   1      21.518  40.724  51.937  1.00  0.00    +0.000 F 
ENDBRANCH   25   26
BRANCH   42   43
ATOM     43  C32 UNL A   1      31.130  40.850  47.135  1.00  0.00    +0.000 C 
ATOM     44  C33 UNL A   1      31.053  42.106  46.517  1.00  0.00    +0.000 C 
ATOM     45  F6  UNL A   1      30.080  42.364  45.631  1.00  0.00    +0.000 F 
ATOM     46  C34 UNL A   1      31.996  43.094  46.789  1.00  0.00    +0.000 C 
ATOM     47  F7  UNL A   1      31.923  44.276  46.163  1.00  0.00    +0.000 F 
ATOM     48  C35 UNL A   1      33.013  42.853  47.701  1.00  0.00    +0.000 C 
ATOM     49  F8  UNL A   1      33.913  43.810  47.970  1.00  0.00    +0.000 F 
ATOM     50  C36 UNL A   1      33.102  41.622  48.329  1.00  0.00    +0.000 C 
ATOM     51  F9  UNL A   1      34.078  41.392  49.220  1.00  0.00    +0.000 F 
ATOM     52  C37 UNL A   1      32.175  40.623  48.043  1.00  0.00    +0.000 C 
ATOM     53  F10 UNL A   1      32.287  39.439  48.663  1.00  0.00    +0.000 F 
ENDBRANCH   42   43
BRANCH   57   58
ATOM     65  C45 UNL A   1      32.833  33.542  42.780  1.00  0.00    +0.000 C 
ATOM     66  F14 UNL A   1      33.630  32.578  43.260  1.00  0.00    +0.000 F 
ATOM     67  C46 UNL A   1      31.856  34.105  43.596  1.00  0.00    +0.000 C 
ATOM     68  F15 UNL A   1      31.728  33.660  44.855  1.00  0.00    +0.000 F 
ATOM     58  C41 UNL A   1      31.035  35.143  43.132  1.00  0.00    +0.000 C 
ATOM     59  C42 UNL A   1      31.209  35.574  41.810  1.00  0.00    +0.000 C 
ATOM     60  F11 UNL A   1      30.433  36.550  41.315  1.00  0.00    +0.000 F 
ATOM     61  C43 UNL A   1      32.170  34.991  40.986  1.00  0.00    +0.000 C 
ATOM     62  F12 UNL A   1      32.301  35.404  39.718  1.00  0.00    +0.000 F 
ATOM     63  C44 UNL A   1      32.987  33.982  41.474  1.00  0.00    +0.000 C 
ATOM     64  F13 UNL A   1      33.921  33.433  40.686  1.00  0.00    +0.000 F 
ENDBRANCH   57   58
TORSDOF 22
ENDMDL
MODEL 10
REMARK VINA RESULT:     -10.4     39.030     46.728
ROOT
ATOM     21  C17 UNL A   1      11.589  -0.382  24.247  1.00  0.00    +0.000 C 
ATOM     22  C18 UNL A   1      10.728  -1.588  24.508  1.00  0.00    +0.000 C 
ATOM     23  N3  UNL A   1       9.802  -2.121  23.749  1.00  0.00    +0.000 N 
ATOM     24  C19 UNL A   1       9.324  -3.222  24.447  1.00  0.00    +0.000 C 
ATOM     25  C20 UNL A   1       8.336  -4.080  24.095  1.00  0.00    +0.000 C 
ATOM     37  C27 UNL A   1       7.575  -3.988  22.876  1.00  0.00    +0.000 C 
ATOM     38  C28 UNL A   1       6.548  -4.808  22.437  1.00  0.00    +0.000 C 
ATOM     39  C29 UNL A   1       6.128  -4.352  21.184  1.00  0.00    +0.000 C 
ATOM     40  C30 UNL A   1       6.863  -3.223  20.861  1.00  0.00    +0.000 C 
ATOM     41  N4  UNL A   1       7.752  -3.015  21.905  1.00  0.00    +0.000 N 
ATOM     42  C31 UNL A   1       6.765  -2.397  19.685  1.00  0.00    +0.000 C 
ATOM     54  C38 UNL A   1       7.504  -1.287  19.450  1.00  0.00    +0.000 C 
ATOM     55  N5  UNL A   1       8.489  -0.714  20.242  1.00  0.00    +0.000 N 
ATOM     56  C39 UNL A   1       8.926   0.327  19.576  1.00  0.00    +0.000 C 
ATOM     57  C40 UNL A   1       9.988   1.317  19.959  1.00  0.00    +0.000 C 
ATOM     69  C47 UNL A   1      10.670   1.139  21.107  1.00  0.00    +0.000 C 
ATOM     70  C48 UNL A   1      11.729   2.013  21.602  1.00  0.00    +0.000 C 
ATOM     71  C49 UNL A   1      12.201   1.517  22.754  1.00  0.00    +0.000 C 
ATOM     72  C50 UNL A   1      11.436   0.322  23.109  1.00  0.00    +0.000 C 
ATOM     73  N6  UNL A   1      10.571   0.155  22.059  1.00  0.00    +0.000 N 
ATOM     74  C51 UNL A   1       8.272   0.528  18.276  1.00  0.00    +0.000 C 
ATOM     75  C52 UNL A   1       7.393  -0.466  18.262  1.00  0.00    +0.000 C 
ATOM     76  C53 UNL A   1      10.078  -3.301  25.679  1.00  0.00    +0.000 C 
ATOM     77  C54 UNL A   1      10.930  -2.291  25.785  1.00  0.00    +0.000 C 
ATOM    119  H22 UNL A   1       6.161  -5.618  22.947  1.00  0.00    +0.000 H 
ATOM    120  H23 UNL A   1       5.396  -4.783  20.599  1.00  0.00    +0.000 H 
ATOM    121  H24 UNL A   1       8.410  -2.285  21.949  1.00  0.00    +0.000 H 
ATOM    122  H25 UNL A   1      12.060   2.873  21.138  1.00  0.00    +0.000 H 
ATOM    123  H26 UNL A   1      12.980   1.915  23.302  1.00  0.00    +0.000 H 
ATOM    124  H27 UNL A   1       9.940  -0.599  21.993  1.00  0.00    +0.000 H 
ATOM    125  H28 UNL A   1       8.449   1.252  17.562  1.00  0.00    +0.000 H 
ATOM    126  H29 UNL A   1       6.716  -0.632  17.500  1.00  0.00    +0.000 H 
ATOM    127  H30 UNL A   1       9.967  -4.046  26.384  1.00  0.00    +0.000 H 
ATOM    128  H31 UNL A   1      11.569  -2.057  26.561  1.00  0.00    +0.000 H 
ENDROOT
BRANCH   21   20
ATOM    129  H32 UNL A   1      11.257   1.412  26.265  1.00  0.00    +0.000 H 
ATOM    130  H33 UNL A   1      12.945   2.285  27.778  1.00  0.00    +0.000 H 
ATOM     78  C55 UNL A   1      12.224   1.057  26.216  1.00  0.00    +0.000 C 
ATOM     79  C56 UNL A   1      13.191   1.547  27.099  1.00  0.00    +0.000 C 
ATOM     17  C13 UNL A   1      14.491   1.034  27.061  1.00  0.00    +0.000 C 
ATOM     18  C14 UNL A   1      14.804  -0.020  26.200  1.00  0.00    +0.000 C 
ATOM     19  C15 UNL A   1      13.865  -0.452  25.270  1.00  0.00    +0.000 C 
ATOM     20  C16 UNL A   1      12.566   0.086  25.262  1.00  0.00    +0.000 C 
ATOM    117  H20 UNL A   1      15.728  -0.476  26.253  1.00  0.00    +0.000 H 
ATOM    118  H21 UNL A   1      14.123  -1.174  24.578  1.00  0.00    +0.000 H 
BRANCH   17   15
ATOM     15  C12 UNL A   1      15.529   1.635  27.926  1.00  0.00    +0.000 C 
ATOM     16  O2  UNL A   1      16.696   1.275  27.821  1.00  0.00    +0.000 O 
BRANCH   15   14
ATOM    116  H19 UNL A   1      14.941   2.214  29.755  1.00  0.00    +0.000 H 
ATOM     14  N2  UNL A   1      15.170   2.572  28.866  1.00  0.00    +0.000 N 
BRANCH   14   13
ATOM    114  H17 UNL A   1      16.033   4.443  28.973  1.00  0.00    +0.000 H 
ATOM    115  H18 UNL A   1      14.797   4.234  27.724  1.00  0.00    +0.000 H 
ATOM     13  C11 UNL A   1      15.082   4.018  28.733  1.00  0.00    +0.000 C 
BRANCH   13   12
ATOM    113  H16 UNL A   1      13.672   5.508  29.159  1.00  0.00    +0.000 H 
ATOM     12  C10 UNL A   1      14.029   4.627  29.651  1.00  0.00    +0.000 C 
ATOM    112  H15 UNL A   1      14.488   4.829  30.596  1.00  0.00    +0.000 H 
BRANCH   12   11
ATOM     11  C9  UNL A   1      12.804   3.744  29.894  1.00  0.00    +0.000 C 
ATOM    110  H13 UNL A   1      12.813   2.959  29.166  1.00  0.00    +0.000 H 
ATOM    111  H14 UNL A   1      12.887   3.395  30.902  1.00  0.00    +0.000 H 
BRANCH   11   10
ATOM     10  C8  UNL A   1      11.451   4.460  29.803  1.00  0.00    +0.000 C 
ATOM    108  H11 UNL A   1      11.033   4.501  30.787  1.00  0.00    +0.000 H 
ATOM    109  H12 UNL A   1      11.655   5.420  29.378  1.00  0.00    +0.000 H 
BRANCH   10    9
ATOM      9  C7  UNL A   1      10.417   3.802  28.878  1.00  0.00    +0.000 C 
ATOM    106  H9  UNL A   1      10.899   3.010  28.344  1.00  0.00    +0.000 H 
ATOM    107  H10 UNL A   1       9.621   3.454  29.505  1.00  0.00    +0.000 H 
BRANCH    9    8
ATOM    105  H8  UNL A   1      10.565   5.115  27.216  1.00  0.00    +0.000 H 
ATOM    104  H7  UNL A   1       9.322   5.563  28.382  1.00  0.00    +0.000 H 
ATOM      8  C6  UNL A   1       9.789   4.756  27.860  1.00  0.00    +0.000 C 
BRANCH    8    7
ATOM    103  H6  UNL A   1       8.001   3.762  27.523  1.00  0.00    +0.000 H 
ATOM      7  N1  UNL A   1       8.798   4.086  27.045  1.00  0.00    +0.000 N 
BRANCH    7    5
ATOM      5  C5  UNL A   1       8.822   3.846  25.703  1.00  0.00    +0.000 C 
ATOM      6  O1  UNL A   1       8.329   4.691  24.952  1.00  0.00    +0.000 O 
BRANCH    5    4
ATOM      4  C4  UNL A   1       9.387   2.536  25.160  1.00  0.00    +0.000 C 
ATOM    101  H4  UNL A   1       9.572   2.660  24.113  1.00  0.00    +0.000 H 
ATOM    102  H5  UNL A   1      10.275   2.332  25.721  1.00  0.00    +0.000 H 
BRANCH    4    3
ATOM      2  C2  UNL A   1       8.330   0.552  26.419  1.00  0.00    +0.000 C 
ATOM      3  C3  UNL A   1       8.492   1.352  25.337  1.00  0.00    +0.000 C 
ATOM    131  H34 UNL A   1       7.861   2.214  22.676  1.00  0.00    +0.000 H 
ATOM    133  H36 UNL A   1       5.203  -1.512  24.378  1.00  0.00    +0.000 H 
ATOM    132  H35 UNL A   1       4.817  -0.646  22.133  1.00  0.00    +0.000 H 
ATOM     80  C57 UNL A   1       7.549   0.898  24.299  1.00  0.00    +0.000 C 
ATOM     81  C58 UNL A   1       7.315   1.414  23.031  1.00  0.00    +0.000 C 
ATOM     82  C59 UNL A   1       6.325   0.824  22.250  1.00  0.00    +0.000 C 
ATOM     83  F16 UNL A   1       6.092   1.294  21.017  1.00  0.00    +0.000 F 
ATOM     84  C60 UNL A   1       5.556  -0.235  22.727  1.00  0.00    +0.000 C 
ATOM     85  C61 UNL A   1       5.784  -0.743  24.007  1.00  0.00    +0.000 C 
ATOM     86  C62 UNL A   1       6.805  -0.198  24.775  1.00  0.00    +0.000 C 
ATOM     87  C63 UNL A   1       7.342  -0.498  26.117  1.00  0.00    +0.000 C 
BRANCH    2    1
ATOM      1  C1  UNL A   1       8.995   0.661  27.752  1.00  0.00    +0.000 C 
ATOM     98  H1  UNL A   1       9.148  -0.318  28.156  1.00  0.00    +0.000 H 
ATOM     99  H2  UNL A   1       8.374   1.226  28.416  1.00  0.00    +0.000 H 
ATOM    100  H3  UNL A   1       9.939   1.153  27.641  1.00  0.00    +0.000 H 
ENDBRANCH    2    1
BRANCH   87   88
ATOM    134  H37 UNL A   1       7.695  -2.357  26.880  1.00  0.00    +0.000 H 
ATOM     88  C64 UNL A   1       7.067  -1.540  26.928  1.00  0.00    +0.000 C 
BRANCH   88   89
ATOM     97  C71 UNL A   1       5.990  -2.529  28.917  1.00  0.00    +0.000 C 
ATOM    135  H38 UNL A   1       4.813  -0.054  26.993  1.00  0.00    +0.000 H 
ATOM    136  H39 UNL A   1       3.230   0.115  28.824  1.00  0.00    +0.000 H 
ATOM    141  H44 UNL A   1       5.093  -3.136  30.726  1.00  0.00    +0.000 H 
ATOM    142  H45 UNL A   1       6.712  -3.266  28.926  1.00  0.00    +0.000 H 
ATOM     89  C65 UNL A   1       5.948  -1.605  27.871  1.00  0.00    +0.000 C 
ATOM     90  C66 UNL A   1       4.902  -0.678  27.810  1.00  0.00    +0.000 C 
ATOM     91  C67 UNL A   1       3.978  -0.596  28.857  1.00  0.00    +0.000 C 
ATOM     92  C68 UNL A   1       4.059  -1.469  29.948  1.00  0.00    +0.000 C 
ATOM     96  C70 UNL A   1       5.053  -2.456  29.951  1.00  0.00    +0.000 C 
BRANCH   92   93
ATOM     93  S1  UNL A   1       3.051  -1.165  31.423  1.00  0.00    +0.000 S 
BRANCH   93   94
ATOM    137  H40 UNL A   1       3.631   1.138  31.142  1.00  0.00    +0.000 H 
ATOM    138  H41 UNL A   1       2.105   0.961  31.974  1.00  0.00    +0.000 H 
ATOM    139  H42 UNL A   1       2.189   0.729  30.245  1.00  0.00    +0.000 H 
ATOM     94  C69 UNL A   1       2.709   0.595  31.170  1.00  0.00    +0.000 C 
ENDBRANCH   93   94
BRANCH   93   95
ATOM    140  H43 UNL A   1       1.380  -0.965  30.104  1.00  0.00    +0.000 H 
ATOM     95  O3  UNL A   1       1.664  -1.630  30.751  1.00  0.00    +0.000 O 
ENDBRANCH   93   95
ENDBRANCH   92   93
ENDBRANCH   88   89
ENDBRANCH   87   88
ENDBRANCH    4    3
ENDBRANCH    5    4
ENDBRANCH    7    5
ENDBRANCH    8    7
ENDBRANCH    9    8
ENDBRANCH   10    9
ENDBRANCH   11   10
ENDBRANCH   12   11
ENDBRANCH   13   12
ENDBRANCH   14   13
ENDBRANCH   15   14
ENDBRANCH   17   15
ENDBRANCH   21   20
BRANCH   25   26
ATOM     33  C25 UNL A   1       6.669  -6.105  26.851  1.00  0.00    +0.000 C 
ATOM     34  F4  UNL A   1       5.637  -5.979  27.698  1.00  0.00    +0.000 F 
ATOM     35  C26 UNL A   1       6.926  -5.107  25.914  1.00  0.00    +0.000 C 
ATOM     36  F5  UNL A   1       6.119  -4.035  25.875  1.00  0.00    +0.000 F 
ATOM     26  C21 UNL A   1       8.017  -5.203  25.037  1.00  0.00    +0.000 C 
ATOM     27  C22 UNL A   1       8.831  -6.341  25.124  1.00  0.00    +0.000 C 
ATOM     28  F1  UNL A   1       9.880  -6.485  24.299  1.00  0.00    +0.000 F 
ATOM     29  C23 UNL A   1       8.558  -7.348  26.045  1.00  0.00    +0.000 C 
ATOM     30  F2  UNL A   1       9.333  -8.441  26.091  1.00  0.00    +0.000 F 
ATOM     31  C24 UNL A   1       7.483  -7.226  26.914  1.00  0.00    +0.000 C 
ATOM     32  F3  UNL A   1       7.230  -8.190  27.810  1.00  0.00    +0.000 F 
ENDBRANCH   25   26
BRANCH   42   43
ATOM     43  C32 UNL A   1       5.758  -2.786  18.645  1.00  0.00    +0.000 C 
ATOM     44  C33 UNL A   1       4.456  -2.266  18.660  1.00  0.00    +0.000 C 
ATOM     45  F6  UNL A   1       4.064  -1.456  19.654  1.00  0.00    +0.000 F 
ATOM     46  C34 UNL A   1       3.544  -2.598  17.662  1.00  0.00    +0.000 C 
ATOM     47  F7  UNL A   1       2.295  -2.115  17.712  1.00  0.00    +0.000 F 
ATOM     48  C35 UNL A   1       3.924  -3.433  16.621  1.00  0.00    +0.000 C 
ATOM     49  F8  UNL A   1       3.047  -3.742  15.655  1.00  0.00    +0.000 F 
ATOM     50  C36 UNL A   1       5.209  -3.951  16.584  1.00  0.00    +0.000 C 
ATOM     51  F9  UNL A   1       5.581  -4.749  15.573  1.00  0.00    +0.000 F 
ATOM     52  C37 UNL A   1       6.117  -3.641  17.592  1.00  0.00    +0.000 C 
ATOM     53  F10 UNL A   1       7.353  -4.159  17.533  1.00  0.00    +0.000 F 
ENDBRANCH   42   43
BRANCH   57   58
ATOM     65  C45 UNL A   1      11.713   3.620  17.483  1.00  0.00    +0.000 C 
ATOM     66  F14 UNL A   1      12.794   3.611  16.691  1.00  0.00    +0.000 F 
ATOM     67  C46 UNL A   1      11.394   2.493  18.235  1.00  0.00    +0.000 C 
ATOM     68  F15 UNL A   1      12.178   1.409  18.143  1.00  0.00    +0.000 F 
ATOM     58  C41 UNL A   1      10.292   2.490  19.103  1.00  0.00    +0.000 C 
ATOM     59  C42 UNL A   1       9.505   3.647  19.166  1.00  0.00    +0.000 C 
ATOM     60  F11 UNL A   1       8.428   3.683  19.965  1.00  0.00    +0.000 F 
ATOM     61  C43 UNL A   1       9.810   4.765  18.392  1.00  0.00    +0.000 C 
ATOM     62  F12 UNL A   1       9.027   5.852  18.451  1.00  0.00    +0.000 F 
ATOM     63  C44 UNL A   1      10.919   4.754  17.559  1.00  0.00    +0.000 C 
ATOM     64  F13 UNL A   1      11.220   5.836  16.828  1.00  0.00    +0.000 F 
ENDBRANCH   57   58
TORSDOF 22
ENDMDL
