MODEL 1
REMARK VINA RESULT:     -11.8      0.000      0.000
ROOT
ATOM    129  H36 UNL A   1      41.268  26.962  25.206  1.00  0.00    +0.000 H 
ATOM    130  H37 UNL A   1      39.670  28.673  26.213  1.00  0.00    +0.000 H 
ATOM    131  H38 UNL A   1      42.478  27.739  29.143  1.00  0.00    +0.000 H 
ATOM    132  H39 UNL A   1      44.341  25.087  29.573  1.00  0.00    +0.000 H 
ATOM    133  H40 UNL A   1      45.453  26.954  30.969  1.00  0.00    +0.000 H 
ATOM    134  H41 UNL A   1      39.497  28.003  33.508  1.00  0.00    +0.000 H 
ATOM    135  H42 UNL A   1      38.479  27.589  31.177  1.00  0.00    +0.000 H 
ATOM     32  C27 UNL A   1      39.953  28.928  29.084  1.00  0.00    +0.000 C 
ATOM     33  C28 UNL A   1      40.286  28.796  30.527  1.00  0.00    +0.000 C 
ATOM     34  N4  UNL A   1      41.256  29.382  31.148  1.00  0.00    +0.000 N 
ATOM     35  C29 UNL A   1      41.189  28.937  32.465  1.00  0.00    +0.000 C 
ATOM     36  C30 UNL A   1      42.315  28.913  33.230  1.00  0.00    +0.000 C 
ATOM     48  C37 UNL A   1      43.352  29.722  32.643  1.00  0.00    +0.000 C 
ATOM     49  C38 UNL A   1      43.707  31.051  32.610  1.00  0.00    +0.000 C 
ATOM     50  C39 UNL A   1      44.545  31.218  31.466  1.00  0.00    +0.000 C 
ATOM     51  C40 UNL A   1      44.709  29.982  30.849  1.00  0.00    +0.000 C 
ATOM     52  N5  UNL A   1      44.014  29.097  31.624  1.00  0.00    +0.000 N 
ATOM     53  C41 UNL A   1      45.187  29.560  29.556  1.00  0.00    +0.000 C 
ATOM     65  C48 UNL A   1      45.269  28.251  29.191  1.00  0.00    +0.000 C 
ATOM     66  N6  UNL A   1      45.030  27.873  27.889  1.00  0.00    +0.000 N 
ATOM     67  C49 UNL A   1      44.437  26.716  28.000  1.00  0.00    +0.000 C 
ATOM     68  C50 UNL A   1      43.431  26.232  27.030  1.00  0.00    +0.000 C 
ATOM     80  C57 UNL A   1      42.336  27.024  27.145  1.00  0.00    +0.000 C 
ATOM     81  C58 UNL A   1      41.315  27.336  26.165  1.00  0.00    +0.000 C 
ATOM     82  C59 UNL A   1      40.434  28.198  26.718  1.00  0.00    +0.000 C 
ATOM     83  C60 UNL A   1      40.730  28.354  28.141  1.00  0.00    +0.000 C 
ATOM     84  N7  UNL A   1      41.950  27.713  28.312  1.00  0.00    +0.000 N 
ATOM     85  C61 UNL A   1      44.590  26.047  29.287  1.00  0.00    +0.000 C 
ATOM     86  C62 UNL A   1      45.148  27.038  29.986  1.00  0.00    +0.000 C 
ATOM     87  C63 UNL A   1      39.914  28.285  32.608  1.00  0.00    +0.000 C 
ATOM     88  C64 UNL A   1      39.347  28.094  31.414  1.00  0.00    +0.000 C 
ATOM    126  H33 UNL A   1      43.423  31.783  33.281  1.00  0.00    +0.000 H 
ATOM    127  H34 UNL A   1      44.962  32.108  31.150  1.00  0.00    +0.000 H 
ATOM    128  H35 UNL A   1      43.993  28.125  31.468  1.00  0.00    +0.000 H 
ENDROOT
BRANCH   32   31
ATOM    136  H43 UNL A   1      39.403  31.552  29.623  1.00  0.00    +0.000 H 
ATOM    137  H44 UNL A   1      37.347  32.725  29.115  1.00  0.00    +0.000 H 
ATOM    124  H31 UNL A   1      35.864  29.322  27.168  1.00  0.00    +0.000 H 
ATOM    125  H32 UNL A   1      37.816  28.088  27.860  1.00  0.00    +0.000 H 
ATOM     89  C65 UNL A   1      38.624  31.057  29.161  1.00  0.00    +0.000 C 
ATOM     90  C66 UNL A   1      37.446  31.732  28.851  1.00  0.00    +0.000 C 
ATOM     28  C23 UNL A   1      36.385  31.091  28.183  1.00  0.00    +0.000 C 
ATOM     29  C24 UNL A   1      36.576  29.778  27.758  1.00  0.00    +0.000 C 
ATOM     30  C25 UNL A   1      37.719  29.081  28.122  1.00  0.00    +0.000 C 
ATOM     31  C26 UNL A   1      38.741  29.711  28.842  1.00  0.00    +0.000 C 
BRANCH   28   26
ATOM     26  C22 UNL A   1      35.120  31.866  28.040  1.00  0.00    +0.000 C 
ATOM     27  O2  UNL A   1      35.189  33.098  27.948  1.00  0.00    +0.000 O 
BRANCH   26   25
ATOM     25  N3  UNL A   1      33.864  31.323  28.071  1.00  0.00    +0.000 N 
ATOM    123  H30 UNL A   1      33.566  31.078  28.977  1.00  0.00    +0.000 H 
BRANCH   25   24
ATOM    121  H28 UNL A   1      31.947  31.460  27.343  1.00  0.00    +0.000 H 
ATOM    122  H29 UNL A   1      33.248  31.455  26.133  1.00  0.00    +0.000 H 
ATOM     24  C21 UNL A   1      32.883  31.034  27.046  1.00  0.00    +0.000 C 
BRANCH   24   23
ATOM    119  H26 UNL A   1      32.817  29.025  27.734  1.00  0.00    +0.000 H 
ATOM     23  C20 UNL A   1      32.677  29.535  26.803  1.00  0.00    +0.000 C 
ATOM    120  H27 UNL A   1      31.689  29.427  26.407  1.00  0.00    +0.000 H 
BRANCH   23   22
ATOM    118  H25 UNL A   1      33.739  27.887  26.050  1.00  0.00    +0.000 H 
ATOM    117  H24 UNL A   1      34.543  29.458  25.794  1.00  0.00    +0.000 H 
ATOM     22  C19 UNL A   1      33.622  28.914  25.775  1.00  0.00    +0.000 C 
BRANCH   22   21
ATOM    115  H22 UNL A   1      32.068  28.609  24.373  1.00  0.00    +0.000 H 
ATOM    116  H23 UNL A   1      33.212  29.925  23.989  1.00  0.00    +0.000 H 
ATOM     21  C18 UNL A   1      33.090  28.926  24.349  1.00  0.00    +0.000 C 
BRANCH   21   20
ATOM    113  H20 UNL A   1      34.522  28.628  22.807  1.00  0.00    +0.000 H 
ATOM    114  H21 UNL A   1      34.334  27.279  23.983  1.00  0.00    +0.000 H 
ATOM     20  C17 UNL A   1      33.853  28.013  23.371  1.00  0.00    +0.000 C 
BRANCH   20   19
ATOM     19  C16 UNL A   1      32.997  27.215  22.373  1.00  0.00    +0.000 C 
ATOM    111  H18 UNL A   1      31.999  27.170  22.757  1.00  0.00    +0.000 H 
ATOM    112  H19 UNL A   1      33.075  27.731  21.438  1.00  0.00    +0.000 H 
BRANCH   19   18
ATOM     18  N2  UNL A   1      33.443  25.852  22.118  1.00  0.00    +0.000 N 
ATOM    110  H17 UNL A   1      34.333  25.796  21.699  1.00  0.00    +0.000 H 
BRANCH   18   16
ATOM     17  O1  UNL A   1      33.183  23.699  21.615  1.00  0.00    +0.000 O 
ATOM     16  C15 UNL A   1      32.863  24.636  22.348  1.00  0.00    +0.000 C 
BRANCH   16   15
ATOM    108  H15 UNL A   1      31.425  25.440  23.633  1.00  0.00    +0.000 H 
ATOM    109  H16 UNL A   1      31.139  23.752  23.004  1.00  0.00    +0.000 H 
ATOM     15  C14 UNL A   1      31.816  24.467  23.424  1.00  0.00    +0.000 C 
BRANCH   15   12
ATOM      3  C3  UNL A   1      34.581  19.332  24.562  1.00  0.00    +0.000 C 
ATOM      4  C4  UNL A   1      35.938  18.992  24.782  1.00  0.00    +0.000 C 
ATOM      5  C5  UNL A   1      36.929  19.946  25.000  1.00  0.00    +0.000 C 
ATOM      6  C6  UNL A   1      36.600  21.290  25.047  1.00  0.00    +0.000 C 
ATOM      7  C7  UNL A   1      35.261  21.669  24.860  1.00  0.00    +0.000 C 
ATOM      8  C8  UNL A   1      34.602  22.905  24.980  1.00  0.00    +0.000 C 
ATOM      9  C9  UNL A   1      33.265  22.748  24.686  1.00  0.00    +0.000 C 
ATOM     10  N1  UNL A   1      33.085  21.404  24.437  1.00  0.00    +0.000 N 
ATOM     11  C10 UNL A   1      34.284  20.713  24.597  1.00  0.00    +0.000 C 
ATOM     12  C11 UNL A   1      32.211  23.838  24.781  1.00  0.00    +0.000 C 
ATOM    140  H47 UNL A   1      35.939  24.489  24.822  1.00  0.00    +0.000 H 
ATOM    141  H48 UNL A   1      35.573  23.988  26.462  1.00  0.00    +0.000 H 
ATOM    138  H45 UNL A   1      34.335  25.845  26.411  1.00  0.00    +0.000 H 
ATOM    139  H46 UNL A   1      34.112  25.698  24.618  1.00  0.00    +0.000 H 
ATOM     91  O3  UNL A   1      32.730  24.795  25.738  1.00  0.00    +0.000 O 
ATOM     92  C67 UNL A   1      34.094  25.221  25.576  1.00  0.00    +0.000 C 
ATOM     93  C68 UNL A   1      35.168  24.157  25.486  1.00  0.00    +0.000 C 
ATOM     99  H6  UNL A   1      36.204  17.996  24.779  1.00  0.00    +0.000 H 
ATOM    100  H7  UNL A   1      37.910  19.649  25.129  1.00  0.00    +0.000 H 
ATOM    101  H8  UNL A   1      37.328  22.003  25.214  1.00  0.00    +0.000 H 
ATOM    102  H9  UNL A   1      32.230  20.990  24.181  1.00  0.00    +0.000 H 
BRANCH    3    2
ATOM     97  H4  UNL A   1      33.388  17.766  25.295  1.00  0.00    +0.000 H 
ATOM      2  C2  UNL A   1      33.514  18.283  24.367  1.00  0.00    +0.000 C 
ATOM     98  H5  UNL A   1      32.645  18.815  24.039  1.00  0.00    +0.000 H 
BRANCH    2    1
ATOM      1  C1  UNL A   1      33.787  17.241  23.287  1.00  0.00    +0.000 C 
ATOM     94  H1  UNL A   1      34.647  16.665  23.556  1.00  0.00    +0.000 H 
ATOM     95  H2  UNL A   1      33.964  17.733  22.354  1.00  0.00    +0.000 H 
ATOM     96  H3  UNL A   1      32.939  16.594  23.195  1.00  0.00    +0.000 H 
ENDBRANCH    2    1
ENDBRANCH    3    2
BRANCH   12   13
ATOM     13  C12 UNL A   1      30.918  23.269  25.456  1.00  0.00    +0.000 C 
ATOM    103  H10 UNL A   1      30.662  22.357  24.960  1.00  0.00    +0.000 H 
ATOM    104  H11 UNL A   1      30.178  24.036  25.364  1.00  0.00    +0.000 H 
BRANCH   13   14
ATOM    105  H12 UNL A   1      30.371  22.173  27.214  1.00  0.00    +0.000 H 
ATOM    106  H13 UNL A   1      30.763  23.849  27.513  1.00  0.00    +0.000 H 
ATOM    107  H14 UNL A   1      32.038  22.698  27.191  1.00  0.00    +0.000 H 
ATOM     14  C13 UNL A   1      31.031  22.975  26.957  1.00  0.00    +0.000 C 
ENDBRANCH   13   14
ENDBRANCH   12   13
ENDBRANCH   15   12
ENDBRANCH   16   15
ENDBRANCH   18   16
ENDBRANCH   19   18
ENDBRANCH   20   19
ENDBRANCH   21   20
ENDBRANCH   22   21
ENDBRANCH   23   22
ENDBRANCH   24   23
ENDBRANCH   25   24
ENDBRANCH   26   25
ENDBRANCH   28   26
ENDBRANCH   32   31
BRANCH   36   37
ATOM     37  C31 UNL A   1      42.678  27.792  34.185  1.00  0.00    +0.000 C 
ATOM     38  C32 UNL A   1      43.170  26.578  33.658  1.00  0.00    +0.000 C 
ATOM     39  F1  UNL A   1      43.587  26.504  32.385  1.00  0.00    +0.000 F 
ATOM     40  C33 UNL A   1      43.162  25.391  34.398  1.00  0.00    +0.000 C 
ATOM     41  F2  UNL A   1      43.529  24.240  33.817  1.00  0.00    +0.000 F 
ATOM     42  C34 UNL A   1      42.714  25.382  35.705  1.00  0.00    +0.000 C 
ATOM     43  F3  UNL A   1      42.650  24.238  36.397  1.00  0.00    +0.000 F 
ATOM     44  C35 UNL A   1      42.286  26.561  36.277  1.00  0.00    +0.000 C 
ATOM     45  F4  UNL A   1      41.824  26.568  37.536  1.00  0.00    +0.000 F 
ATOM     46  C36 UNL A   1      42.251  27.737  35.529  1.00  0.00    +0.000 C 
ATOM     47  F5  UNL A   1      41.677  28.779  36.139  1.00  0.00    +0.000 F 
ENDBRANCH   36   37
BRANCH   53   54
ATOM     54  C42 UNL A   1      45.429  30.594  28.508  1.00  0.00    +0.000 C 
ATOM     55  C43 UNL A   1      44.444  31.093  27.642  1.00  0.00    +0.000 C 
ATOM     56  F6  UNL A   1      43.182  30.645  27.707  1.00  0.00    +0.000 F 
ATOM     57  C44 UNL A   1      44.745  32.098  26.724  1.00  0.00    +0.000 C 
ATOM     58  F7  UNL A   1      43.797  32.558  25.895  1.00  0.00    +0.000 F 
ATOM     59  C45 UNL A   1      46.018  32.648  26.684  1.00  0.00    +0.000 C 
ATOM     60  F8  UNL A   1      46.297  33.643  25.831  1.00  0.00    +0.000 F 
ATOM     61  C46 UNL A   1      46.998  32.182  27.545  1.00  0.00    +0.000 C 
ATOM     62  F9  UNL A   1      48.219  32.735  27.540  1.00  0.00    +0.000 F 
ATOM     63  C47 UNL A   1      46.711  31.156  28.436  1.00  0.00    +0.000 C 
ATOM     64  F10 UNL A   1      47.677  30.732  29.266  1.00  0.00    +0.000 F 
ENDBRANCH   53   54
BRANCH   68   69
ATOM     69  C51 UNL A   1      43.590  24.937  26.329  1.00  0.00    +0.000 C 
ATOM     70  C52 UNL A   1      44.580  24.768  25.344  1.00  0.00    +0.000 C 
ATOM     71  F11 UNL A   1      45.197  25.836  24.816  1.00  0.00    +0.000 F 
ATOM     72  C53 UNL A   1      45.017  23.499  24.952  1.00  0.00    +0.000 C 
ATOM     73  F12 UNL A   1      46.024  23.380  24.076  1.00  0.00    +0.000 F 
ATOM     74  C54 UNL A   1      44.464  22.364  25.522  1.00  0.00    +0.000 C 
ATOM     75  F13 UNL A   1      44.940  21.150  25.211  1.00  0.00    +0.000 F 
ATOM     76  C55 UNL A   1      43.447  22.496  26.451  1.00  0.00    +0.000 C 
ATOM     77  F14 UNL A   1      42.927  21.405  27.030  1.00  0.00    +0.000 F 
ATOM     78  C56 UNL A   1      43.013  23.762  26.845  1.00  0.00    +0.000 C 
ATOM     79  F15 UNL A   1      42.092  23.823  27.817  1.00  0.00    +0.000 F 
ENDBRANCH   68   69
TORSDOF 20
ENDMDL
MODEL 2
REMARK VINA RESULT:     -11.7      4.935     11.135
ROOT
ATOM    129  H36 UNL A   1      36.752  28.649  30.521  1.00  0.00    +0.000 H 
ATOM    130  H37 UNL A   1      38.297  26.864  29.563  1.00  0.00    +0.000 H 
ATOM    131  H38 UNL A   1      40.509  30.380  29.846  1.00  0.00    +0.000 H 
ATOM    132  H39 UNL A   1      39.576  33.513  29.893  1.00  0.00    +0.000 H 
ATOM    133  H40 UNL A   1      41.970  33.484  30.861  1.00  0.00    +0.000 H 
ATOM    134  H41 UNL A   1      43.600  29.967  25.570  1.00  0.00    +0.000 H 
ATOM    135  H42 UNL A   1      41.353  28.720  25.762  1.00  0.00    +0.000 H 
ATOM     32  C27 UNL A   1      40.752  27.956  28.483  1.00  0.00    +0.000 C 
ATOM     33  C28 UNL A   1      41.862  28.802  27.971  1.00  0.00    +0.000 C 
ATOM     34  N4  UNL A   1      42.861  29.256  28.655  1.00  0.00    +0.000 N 
ATOM     35  C29 UNL A   1      43.619  30.012  27.766  1.00  0.00    +0.000 C 
ATOM     36  C30 UNL A   1      44.392  31.030  28.232  1.00  0.00    +0.000 C 
ATOM     48  C37 UNL A   1      44.585  30.918  29.655  1.00  0.00    +0.000 C 
ATOM     49  C38 UNL A   1      45.411  30.233  30.517  1.00  0.00    +0.000 C 
ATOM     50  C39 UNL A   1      44.751  30.218  31.784  1.00  0.00    +0.000 C 
ATOM     51  C40 UNL A   1      43.557  30.922  31.673  1.00  0.00    +0.000 C 
ATOM     52  N5  UNL A   1      43.523  31.374  30.383  1.00  0.00    +0.000 N 
ATOM     53  C41 UNL A   1      42.369  31.021  32.483  1.00  0.00    +0.000 C 
ATOM     65  C48 UNL A   1      41.316  31.819  32.156  1.00  0.00    +0.000 C 
ATOM     66  N6  UNL A   1      40.028  31.430  32.448  1.00  0.00    +0.000 N 
ATOM     67  C49 UNL A   1      39.327  31.878  31.443  1.00  0.00    +0.000 C 
ATOM     68  C50 UNL A   1      38.109  31.201  30.946  1.00  0.00    +0.000 C 
ATOM     80  C57 UNL A   1      38.490  30.017  30.407  1.00  0.00    +0.000 C 
ATOM     81  C58 UNL A   1      37.737  28.789  30.250  1.00  0.00    +0.000 C 
ATOM     82  C59 UNL A   1      38.538  27.859  29.687  1.00  0.00    +0.000 C 
ATOM     83  C60 UNL A   1      39.798  28.479  29.282  1.00  0.00    +0.000 C 
ATOM     84  N7  UNL A   1      39.754  29.749  29.842  1.00  0.00    +0.000 N 
ATOM     85  C61 UNL A   1      39.965  32.914  30.638  1.00  0.00    +0.000 C 
ATOM     86  C62 UNL A   1      41.198  32.862  31.148  1.00  0.00    +0.000 C 
ATOM     87  C63 UNL A   1      43.130  29.700  26.449  1.00  0.00    +0.000 C 
ATOM     88  C64 UNL A   1      41.984  29.018  26.521  1.00  0.00    +0.000 C 
ATOM    126  H33 UNL A   1      46.327  29.813  30.292  1.00  0.00    +0.000 H 
ATOM    127  H34 UNL A   1      45.103  29.761  32.640  1.00  0.00    +0.000 H 
ATOM    128  H35 UNL A   1      42.818  31.958  30.022  1.00  0.00    +0.000 H 
ENDROOT
BRANCH   32   31
ATOM    136  H43 UNL A   1      41.970  25.783  29.610  1.00  0.00    +0.000 H 
ATOM    137  H44 UNL A   1      41.964  23.522  28.746  1.00  0.00    +0.000 H 
ATOM    124  H31 UNL A   1      39.392  24.690  25.649  1.00  0.00    +0.000 H 
ATOM    125  H32 UNL A   1      39.569  26.981  26.381  1.00  0.00    +0.000 H 
ATOM     89  C65 UNL A   1      41.476  25.565  28.730  1.00  0.00    +0.000 C 
ATOM     90  C66 UNL A   1      41.456  24.262  28.238  1.00  0.00    +0.000 C 
ATOM     28  C23 UNL A   1      40.755  23.931  27.062  1.00  0.00    +0.000 C 
ATOM     29  C24 UNL A   1      40.005  24.929  26.444  1.00  0.00    +0.000 C 
ATOM     30  C25 UNL A   1      40.075  26.240  26.890  1.00  0.00    +0.000 C 
ATOM     31  C26 UNL A   1      40.827  26.569  28.025  1.00  0.00    +0.000 C 
BRANCH   28   26
ATOM     26  C22 UNL A   1      40.929  22.543  26.550  1.00  0.00    +0.000 C 
ATOM     27  O2  UNL A   1      39.940  21.949  26.103  1.00  0.00    +0.000 O 
BRANCH   26   25
ATOM     25  N3  UNL A   1      42.100  21.835  26.596  1.00  0.00    +0.000 N 
ATOM    123  H30 UNL A   1      42.304  21.475  27.490  1.00  0.00    +0.000 H 
BRANCH   25   24
ATOM    121  H28 UNL A   1      43.480  20.527  25.815  1.00  0.00    +0.000 H 
ATOM    122  H29 UNL A   1      42.623  21.556  24.647  1.00  0.00    +0.000 H 
ATOM     24  C21 UNL A   1      43.101  21.505  25.603  1.00  0.00    +0.000 C 
BRANCH   24   23
ATOM    119  H26 UNL A   1      44.592  22.659  26.581  1.00  0.00    +0.000 H 
ATOM     23  C20 UNL A   1      44.277  22.486  25.573  1.00  0.00    +0.000 C 
ATOM    120  H27 UNL A   1      45.033  22.031  24.967  1.00  0.00    +0.000 H 
BRANCH   23   22
ATOM    118  H25 UNL A   1      42.978  23.775  24.542  1.00  0.00    +0.000 H 
ATOM    117  H24 UNL A   1      44.705  24.024  24.174  1.00  0.00    +0.000 H 
ATOM     22  C19 UNL A   1      43.972  23.839  24.931  1.00  0.00    +0.000 C 
BRANCH   22   21
ATOM    115  H22 UNL A   1      43.062  25.002  26.446  1.00  0.00    +0.000 H 
ATOM    116  H23 UNL A   1      44.842  24.874  26.528  1.00  0.00    +0.000 H 
ATOM     21  C18 UNL A   1      43.985  25.010  25.904  1.00  0.00    +0.000 C 
BRANCH   21   20
ATOM    113  H20 UNL A   1      43.664  26.352  24.286  1.00  0.00    +0.000 H 
ATOM    114  H21 UNL A   1      43.701  27.087  25.928  1.00  0.00    +0.000 H 
ATOM     20  C17 UNL A   1      44.141  26.392  25.243  1.00  0.00    +0.000 C 
BRANCH   20   19
ATOM     19  C16 UNL A   1      45.581  26.888  25.028  1.00  0.00    +0.000 C 
ATOM    111  H18 UNL A   1      46.238  26.049  25.135  1.00  0.00    +0.000 H 
ATOM    112  H19 UNL A   1      45.599  27.327  24.052  1.00  0.00    +0.000 H 
BRANCH   19   18
ATOM     18  N2  UNL A   1      46.027  27.928  25.946  1.00  0.00    +0.000 N 
ATOM    110  H17 UNL A   1      45.291  28.421  26.376  1.00  0.00    +0.000 H 
BRANCH   18   16
ATOM     17  O1  UNL A   1      48.116  28.507  25.440  1.00  0.00    +0.000 O 
ATOM     16  C15 UNL A   1      47.271  28.351  26.322  1.00  0.00    +0.000 C 
BRANCH   16   15
ATOM    108  H15 UNL A   1      48.399  29.280  27.816  1.00  0.00    +0.000 H 
ATOM    109  H16 UNL A   1      46.677  28.831  28.220  1.00  0.00    +0.000 H 
ATOM     15  C14 UNL A   1      47.613  28.555  27.780  1.00  0.00    +0.000 C 
BRANCH   15   12
ATOM      3  C3  UNL A   1      44.447  24.995  31.331  1.00  0.00    +0.000 C 
ATOM      4  C4  UNL A   1      43.814  23.745  31.132  1.00  0.00    +0.000 C 
ATOM      5  C5  UNL A   1      44.034  22.959  30.003  1.00  0.00    +0.000 C 
ATOM      6  C6  UNL A   1      44.932  23.373  29.034  1.00  0.00    +0.000 C 
ATOM      7  C7  UNL A   1      45.602  24.595  29.206  1.00  0.00    +0.000 C 
ATOM      8  C8  UNL A   1      46.644  25.212  28.491  1.00  0.00    +0.000 C 
ATOM      9  C9  UNL A   1      46.949  26.424  29.070  1.00  0.00    +0.000 C 
ATOM     10  N1  UNL A   1      46.134  26.534  30.177  1.00  0.00    +0.000 N 
ATOM     11  C10 UNL A   1      45.342  25.396  30.313  1.00  0.00    +0.000 C 
ATOM     12  C11 UNL A   1      48.072  27.348  28.631  1.00  0.00    +0.000 C 
ATOM    140  H47 UNL A   1      46.775  24.461  26.556  1.00  0.00    +0.000 H 
ATOM    141  H48 UNL A   1      47.847  23.706  27.720  1.00  0.00    +0.000 H 
ATOM    138  H45 UNL A   1      49.358  24.966  26.665  1.00  0.00    +0.000 H 
ATOM    139  H46 UNL A   1      48.095  26.192  26.231  1.00  0.00    +0.000 H 
ATOM     91  O3  UNL A   1      49.036  26.496  27.964  1.00  0.00    +0.000 O 
ATOM     92  C67 UNL A   1      48.534  25.571  26.983  1.00  0.00    +0.000 C 
ATOM     93  C68 UNL A   1      47.420  24.631  27.393  1.00  0.00    +0.000 C 
ATOM     99  H6  UNL A   1      43.161  23.401  31.852  1.00  0.00    +0.000 H 
ATOM    100  H7  UNL A   1      43.527  22.066  29.891  1.00  0.00    +0.000 H 
ATOM    101  H8  UNL A   1      45.106  22.793  28.197  1.00  0.00    +0.000 H 
ATOM    102  H9  UNL A   1      46.114  27.307  30.785  1.00  0.00    +0.000 H 
BRANCH    3    2
ATOM     97  H4  UNL A   1      45.078  26.450  32.709  1.00  0.00    +0.000 H 
ATOM      2  C2  UNL A   1      44.227  25.815  32.579  1.00  0.00    +0.000 C 
ATOM     98  H5  UNL A   1      43.307  26.339  32.420  1.00  0.00    +0.000 H 
BRANCH    2    1
ATOM      1  C1  UNL A   1      44.031  25.030  33.872  1.00  0.00    +0.000 C 
ATOM     94  H1  UNL A   1      44.979  24.875  34.342  1.00  0.00    +0.000 H 
ATOM     95  H2  UNL A   1      43.583  24.084  33.650  1.00  0.00    +0.000 H 
ATOM     96  H3  UNL A   1      43.392  25.582  34.530  1.00  0.00    +0.000 H 
ENDBRANCH    2    1
ENDBRANCH    3    2
BRANCH   12   13
ATOM     13  C12 UNL A   1      48.833  27.892  29.887  1.00  0.00    +0.000 C 
ATOM    103  H10 UNL A   1      48.104  28.230  30.593  1.00  0.00    +0.000 H 
ATOM    104  H11 UNL A   1      49.478  28.665  29.526  1.00  0.00    +0.000 H 
BRANCH   13   14
ATOM    105  H12 UNL A   1      49.753  25.963  30.048  1.00  0.00    +0.000 H 
ATOM    106  H13 UNL A   1      49.378  26.705  31.585  1.00  0.00    +0.000 H 
ATOM    107  H14 UNL A   1      50.738  27.275  30.648  1.00  0.00    +0.000 H 
ATOM     14  C13 UNL A   1      49.745  26.883  30.596  1.00  0.00    +0.000 C 
ENDBRANCH   13   14
ENDBRANCH   12   13
ENDBRANCH   15   12
ENDBRANCH   16   15
ENDBRANCH   18   16
ENDBRANCH   19   18
ENDBRANCH   20   19
ENDBRANCH   21   20
ENDBRANCH   22   21
ENDBRANCH   23   22
ENDBRANCH   24   23
ENDBRANCH   25   24
ENDBRANCH   26   25
ENDBRANCH   28   26
ENDBRANCH   32   31
BRANCH   36   37
ATOM     37  C31 UNL A   1      44.535  32.378  27.553  1.00  0.00    +0.000 C 
ATOM     38  C32 UNL A   1      45.680  32.628  26.766  1.00  0.00    +0.000 C 
ATOM     39  F1  UNL A   1      46.478  31.622  26.379  1.00  0.00    +0.000 F 
ATOM     40  C33 UNL A   1      46.082  33.927  26.431  1.00  0.00    +0.000 C 
ATOM     41  F2  UNL A   1      47.238  34.121  25.783  1.00  0.00    +0.000 F 
ATOM     42  C34 UNL A   1      45.328  35.017  26.823  1.00  0.00    +0.000 C 
ATOM     43  F3  UNL A   1      45.739  36.263  26.555  1.00  0.00    +0.000 F 
ATOM     44  C35 UNL A   1      44.168  34.810  27.538  1.00  0.00    +0.000 C 
ATOM     45  F4  UNL A   1      43.437  35.856  27.950  1.00  0.00    +0.000 F 
ATOM     46  C36 UNL A   1      43.788  33.521  27.911  1.00  0.00    +0.000 C 
ATOM     47  F5  UNL A   1      42.732  33.456  28.729  1.00  0.00    +0.000 F 
ENDBRANCH   36   37
BRANCH   53   54
ATOM     54  C42 UNL A   1      42.202  30.079  33.629  1.00  0.00    +0.000 C 
ATOM     55  C43 UNL A   1      41.739  28.760  33.511  1.00  0.00    +0.000 C 
ATOM     56  F6  UNL A   1      41.400  28.255  32.316  1.00  0.00    +0.000 F 
ATOM     57  C44 UNL A   1      41.662  27.930  34.628  1.00  0.00    +0.000 C 
ATOM     58  F7  UNL A   1      41.207  26.674  34.503  1.00  0.00    +0.000 F 
ATOM     59  C45 UNL A   1      42.083  28.387  35.868  1.00  0.00    +0.000 C 
ATOM     60  F8  UNL A   1      42.049  27.576  36.934  1.00  0.00    +0.000 F 
ATOM     61  C46 UNL A   1      42.563  29.680  36.000  1.00  0.00    +0.000 C 
ATOM     62  F9  UNL A   1      43.009  30.117  37.186  1.00  0.00    +0.000 F 
ATOM     63  C47 UNL A   1      42.607  30.521  34.895  1.00  0.00    +0.000 C 
ATOM     64  F10 UNL A   1      43.087  31.765  35.050  1.00  0.00    +0.000 F 
ENDBRANCH   53   54
BRANCH   68   69
ATOM     69  C51 UNL A   1      36.813  31.912  30.847  1.00  0.00    +0.000 C 
ATOM     70  C52 UNL A   1      35.943  31.979  31.950  1.00  0.00    +0.000 C 
ATOM     71  F11 UNL A   1      36.125  31.169  33.005  1.00  0.00    +0.000 F 
ATOM     72  C53 UNL A   1      34.929  32.939  32.028  1.00  0.00    +0.000 C 
ATOM     73  F12 UNL A   1      34.176  33.028  33.133  1.00  0.00    +0.000 F 
ATOM     74  C54 UNL A   1      34.747  33.846  30.998  1.00  0.00    +0.000 C 
ATOM     75  F13 UNL A   1      33.833  34.820  31.108  1.00  0.00    +0.000 F 
ATOM     76  C55 UNL A   1      35.550  33.768  29.874  1.00  0.00    +0.000 C 
ATOM     77  F14 UNL A   1      35.402  34.662  28.885  1.00  0.00    +0.000 F 
ATOM     78  C56 UNL A   1      36.564  32.813  29.796  1.00  0.00    +0.000 C 
ATOM     79  F15 UNL A   1      37.367  32.851  28.723  1.00  0.00    +0.000 F 
ENDBRANCH   68   69
TORSDOF 20
ENDMDL
MODEL 3
REMARK VINA RESULT:     -11.6      2.086      3.250
ROOT
ATOM    129  H36 UNL A   1      40.036  27.067  26.773  1.00  0.00    +0.000 H 
ATOM    130  H37 UNL A   1      39.193  28.876  28.358  1.00  0.00    +0.000 H 
ATOM    131  H38 UNL A   1      42.649  27.280  30.043  1.00  0.00    +0.000 H 
ATOM    132  H39 UNL A   1      44.082  24.366  29.664  1.00  0.00    +0.000 H 
ATOM    133  H40 UNL A   1      45.901  25.915  30.645  1.00  0.00    +0.000 H 
ATOM    134  H41 UNL A   1      41.460  27.527  35.194  1.00  0.00    +0.000 H 
ATOM    135  H42 UNL A   1      39.641  27.488  33.368  1.00  0.00    +0.000 H 
ATOM     32  C27 UNL A   1      40.494  28.808  30.943  1.00  0.00    +0.000 C 
ATOM     33  C28 UNL A   1      41.282  28.491  32.164  1.00  0.00    +0.000 C 
ATOM     34  N4  UNL A   1      42.490  28.872  32.420  1.00  0.00    +0.000 N 
ATOM     35  C29 UNL A   1      42.812  28.314  33.653  1.00  0.00    +0.000 C 
ATOM     36  C30 UNL A   1      44.113  28.060  33.961  1.00  0.00    +0.000 C 
ATOM     48  C37 UNL A   1      44.999  28.770  33.076  1.00  0.00    +0.000 C 
ATOM     49  C38 UNL A   1      45.535  30.034  32.974  1.00  0.00    +0.000 C 
ATOM     50  C39 UNL A   1      45.938  30.194  31.613  1.00  0.00    +0.000 C 
ATOM     51  C40 UNL A   1      45.671  29.014  30.927  1.00  0.00    +0.000 C 
ATOM     52  N5  UNL A   1      45.154  28.162  31.862  1.00  0.00    +0.000 N 
ATOM     53  C41 UNL A   1      45.593  28.658  29.532  1.00  0.00    +0.000 C 
ATOM     65  C48 UNL A   1      45.327  27.393  29.107  1.00  0.00    +0.000 C 
ATOM     66  N6  UNL A   1      44.591  27.180  27.963  1.00  0.00    +0.000 N 
ATOM     67  C49 UNL A   1      43.892  26.112  28.231  1.00  0.00    +0.000 C 
ATOM     68  C50 UNL A   1      42.546  25.869  27.667  1.00  0.00    +0.000 C 
ATOM     80  C57 UNL A   1      41.706  26.791  28.200  1.00  0.00    +0.000 C 
ATOM     81  C58 UNL A   1      40.474  27.336  27.667  1.00  0.00    +0.000 C 
ATOM     82  C59 UNL A   1      39.995  28.253  28.534  1.00  0.00    +0.000 C 
ATOM     83  C60 UNL A   1      40.789  28.226  29.761  1.00  0.00    +0.000 C 
ATOM     84  N7  UNL A   1      41.869  27.409  29.457  1.00  0.00    +0.000 N 
ATOM     85  C61 UNL A   1      44.371  25.305  29.348  1.00  0.00    +0.000 C 
ATOM     86  C62 UNL A   1      45.291  26.136  29.842  1.00  0.00    +0.000 C 
ATOM     87  C63 UNL A   1      41.578  27.835  34.216  1.00  0.00    +0.000 C 
ATOM     88  C64 UNL A   1      40.607  27.842  33.299  1.00  0.00    +0.000 C 
ATOM    126  H33 UNL A   1      45.627  30.729  33.731  1.00  0.00    +0.000 H 
ATOM    127  H34 UNL A   1      46.360  31.044  31.206  1.00  0.00    +0.000 H 
ATOM    128  H35 UNL A   1      44.920  27.223  31.683  1.00  0.00    +0.000 H 
ENDROOT
BRANCH   32   31
ATOM    136  H43 UNL A   1      40.459  31.529  30.665  1.00  0.00    +0.000 H 
ATOM    137  H44 UNL A   1      38.572  32.991  31.063  1.00  0.00    +0.000 H 
ATOM    124  H31 UNL A   1      36.131  29.669  31.819  1.00  0.00    +0.000 H 
ATOM    125  H32 UNL A   1      38.054  28.227  31.635  1.00  0.00    +0.000 H 
ATOM     89  C65 UNL A   1      39.556  31.137  30.976  1.00  0.00    +0.000 C 
ATOM     90  C66 UNL A   1      38.462  31.973  31.190  1.00  0.00    +0.000 C 
ATOM     28  C23 UNL A   1      37.209  31.460  31.575  1.00  0.00    +0.000 C 
ATOM     29  C24 UNL A   1      37.064  30.077  31.653  1.00  0.00    +0.000 C 
ATOM     30  C25 UNL A   1      38.163  29.245  31.506  1.00  0.00    +0.000 C 
ATOM     31  C26 UNL A   1      39.420  29.772  31.186  1.00  0.00    +0.000 C 
BRANCH   28   26
ATOM     26  C22 UNL A   1      36.158  32.457  31.922  1.00  0.00    +0.000 C 
ATOM     27  O2  UNL A   1      35.513  32.298  32.966  1.00  0.00    +0.000 O 
BRANCH   26   25
ATOM     25  N3  UNL A   1      35.796  33.516  31.134  1.00  0.00    +0.000 N 
ATOM    123  H30 UNL A   1      36.224  34.363  31.395  1.00  0.00    +0.000 H 
BRANCH   25   24
ATOM    121  H28 UNL A   1      33.968  34.017  30.337  1.00  0.00    +0.000 H 
ATOM    122  H29 UNL A   1      35.384  34.319  29.307  1.00  0.00    +0.000 H 
ATOM     24  C21 UNL A   1      34.912  33.648  29.994  1.00  0.00    +0.000 C 
BRANCH   24   23
ATOM    119  H26 UNL A   1      34.843  31.526  29.934  1.00  0.00    +0.000 H 
ATOM     23  C20 UNL A   1      34.675  32.330  29.249  1.00  0.00    +0.000 C 
ATOM    120  H27 UNL A   1      33.671  32.369  28.882  1.00  0.00    +0.000 H 
BRANCH   23   22
ATOM    118  H25 UNL A   1      36.175  32.986  27.933  1.00  0.00    +0.000 H 
ATOM    117  H24 UNL A   1      34.941  31.943  27.179  1.00  0.00    +0.000 H 
ATOM     22  C19 UNL A   1      35.569  32.110  28.029  1.00  0.00    +0.000 C 
BRANCH   22   21
ATOM    115  H22 UNL A   1      37.419  31.169  27.621  1.00  0.00    +0.000 H 
ATOM    116  H23 UNL A   1      36.687  30.787  29.204  1.00  0.00    +0.000 H 
ATOM     21  C18 UNL A   1      36.524  30.932  28.157  1.00  0.00    +0.000 C 
BRANCH   21   20
ATOM    113  H20 UNL A   1      36.669  29.238  26.881  1.00  0.00    +0.000 H 
ATOM    114  H21 UNL A   1      35.866  28.966  28.469  1.00  0.00    +0.000 H 
ATOM     20  C17 UNL A   1      35.977  29.599  27.613  1.00  0.00    +0.000 C 
BRANCH   20   19
ATOM     19  C16 UNL A   1      34.587  29.649  26.958  1.00  0.00    +0.000 C 
ATOM    111  H18 UNL A   1      34.136  30.587  27.209  1.00  0.00    +0.000 H 
ATOM    112  H19 UNL A   1      34.750  29.518  25.908  1.00  0.00    +0.000 H 
BRANCH   19   18
ATOM     18  N2  UNL A   1      33.670  28.589  27.357  1.00  0.00    +0.000 N 
ATOM    110  H17 UNL A   1      34.051  27.959  28.012  1.00  0.00    +0.000 H 
BRANCH   18   16
ATOM     17  O1  UNL A   1      31.602  27.954  27.883  1.00  0.00    +0.000 O 
ATOM     16  C15 UNL A   1      32.383  28.300  26.996  1.00  0.00    +0.000 C 
BRANCH   16   15
ATOM    108  H15 UNL A   1      30.965  28.745  25.528  1.00  0.00    +0.000 H 
ATOM    109  H16 UNL A   1      32.724  28.920  25.076  1.00  0.00    +0.000 H 
ATOM     15  C14 UNL A   1      31.956  28.342  25.548  1.00  0.00    +0.000 C 
BRANCH   15   12
ATOM      3  C3  UNL A   1      35.367  23.498  26.004  1.00  0.00    +0.000 C 
ATOM      4  C4  UNL A   1      35.213  22.268  26.689  1.00  0.00    +0.000 C 
ATOM      5  C5  UNL A   1      34.008  21.867  27.259  1.00  0.00    +0.000 C 
ATOM      6  C6  UNL A   1      32.882  22.665  27.136  1.00  0.00    +0.000 C 
ATOM      7  C7  UNL A   1      32.984  23.881  26.442  1.00  0.00    +0.000 C 
ATOM      8  C8  UNL A   1      32.023  24.824  26.039  1.00  0.00    +0.000 C 
ATOM      9  C9  UNL A   1      32.641  25.863  25.376  1.00  0.00    +0.000 C 
ATOM     10  N1  UNL A   1      33.979  25.536  25.321  1.00  0.00    +0.000 N 
ATOM     11  C10 UNL A   1      34.204  24.297  25.915  1.00  0.00    +0.000 C 
ATOM     12  C11 UNL A   1      31.928  27.034  24.722  1.00  0.00    +0.000 C 
ATOM    140  H47 UNL A   1      30.290  24.665  27.177  1.00  0.00    +0.000 H 
ATOM    141  H48 UNL A   1      30.262  23.794  25.655  1.00  0.00    +0.000 H 
ATOM    138  H45 UNL A   1      28.968  25.514  25.064  1.00  0.00    +0.000 H 
ATOM    139  H46 UNL A   1      29.793  26.601  26.256  1.00  0.00    +0.000 H 
ATOM     91  O3  UNL A   1      30.591  26.558  24.429  1.00  0.00    +0.000 O 
ATOM     92  C67 UNL A   1      29.887  25.872  25.478  1.00  0.00    +0.000 C 
ATOM     93  C68 UNL A   1      30.567  24.695  26.144  1.00  0.00    +0.000 C 
ATOM     99  H6  UNL A   1      36.029  21.643  26.770  1.00  0.00    +0.000 H 
ATOM    100  H7  UNL A   1      33.953  20.972  27.772  1.00  0.00    +0.000 H 
ATOM    101  H8  UNL A   1      31.983  22.372  27.551  1.00  0.00    +0.000 H 
ATOM    102  H9  UNL A   1      34.678  26.100  24.918  1.00  0.00    +0.000 H 
BRANCH    3    2
ATOM     97  H4  UNL A   1      36.835  23.252  24.522  1.00  0.00    +0.000 H 
ATOM      2  C2  UNL A   1      36.670  23.899  25.358  1.00  0.00    +0.000 C 
ATOM     98  H5  UNL A   1      36.557  24.931  25.100  1.00  0.00    +0.000 H 
BRANCH    2    1
ATOM      1  C1  UNL A   1      37.908  23.833  26.248  1.00  0.00    +0.000 C 
ATOM     94  H1  UNL A   1      37.650  23.387  27.185  1.00  0.00    +0.000 H 
ATOM     95  H2  UNL A   1      38.281  24.822  26.413  1.00  0.00    +0.000 H 
ATOM     96  H3  UNL A   1      38.661  23.243  25.767  1.00  0.00    +0.000 H 
ENDBRANCH    2    1
ENDBRANCH    3    2
BRANCH   12   13
ATOM     13  C12 UNL A   1      32.559  27.323  23.319  1.00  0.00    +0.000 C 
ATOM    103  H10 UNL A   1      31.770  27.611  22.656  1.00  0.00    +0.000 H 
ATOM    104  H11 UNL A   1      33.059  26.421  23.032  1.00  0.00    +0.000 H 
BRANCH   13   14
ATOM    105  H12 UNL A   1      34.160  28.376  22.360  1.00  0.00    +0.000 H 
ATOM    106  H13 UNL A   1      34.311  28.279  24.099  1.00  0.00    +0.000 H 
ATOM    107  H14 UNL A   1      33.158  29.379  23.382  1.00  0.00    +0.000 H 
ATOM     14  C13 UNL A   1      33.627  28.422  23.288  1.00  0.00    +0.000 C 
ENDBRANCH   13   14
ENDBRANCH   12   13
ENDBRANCH   15   12
ENDBRANCH   16   15
ENDBRANCH   18   16
ENDBRANCH   19   18
ENDBRANCH   20   19
ENDBRANCH   21   20
ENDBRANCH   22   21
ENDBRANCH   23   22
ENDBRANCH   24   23
ENDBRANCH   25   24
ENDBRANCH   26   25
ENDBRANCH   28   26
ENDBRANCH   32   31
BRANCH   36   37
ATOM     37  C31 UNL A   1      44.596  26.812  34.674  1.00  0.00    +0.000 C 
ATOM     38  C32 UNL A   1      44.321  25.550  34.104  1.00  0.00    +0.000 C 
ATOM     39  F1  UNL A   1      43.909  25.448  32.832  1.00  0.00    +0.000 F 
ATOM     40  C33 UNL A   1      44.377  24.369  34.854  1.00  0.00    +0.000 C 
ATOM     41  F2  UNL A   1      43.993  23.209  34.301  1.00  0.00    +0.000 F 
ATOM     42  C34 UNL A   1      44.760  24.398  36.181  1.00  0.00    +0.000 C 
ATOM     43  F3  UNL A   1      44.759  23.279  36.916  1.00  0.00    +0.000 F 
ATOM     44  C35 UNL A   1      45.100  25.603  36.757  1.00  0.00    +0.000 C 
ATOM     45  F4  UNL A   1      45.450  25.655  38.050  1.00  0.00    +0.000 F 
ATOM     46  C36 UNL A   1      45.003  26.787  36.026  1.00  0.00    +0.000 C 
ATOM     47  F5  UNL A   1      45.210  27.905  36.729  1.00  0.00    +0.000 F 
ENDBRANCH   36   37
BRANCH   53   54
ATOM     54  C42 UNL A   1      45.622  29.746  28.512  1.00  0.00    +0.000 C 
ATOM     55  C43 UNL A   1      44.490  30.437  28.054  1.00  0.00    +0.000 C 
ATOM     56  F6  UNL A   1      43.269  30.140  28.524  1.00  0.00    +0.000 F 
ATOM     57  C44 UNL A   1      44.613  31.477  27.135  1.00  0.00    +0.000 C 
ATOM     58  F7  UNL A   1      43.521  32.122  26.698  1.00  0.00    +0.000 F 
ATOM     59  C45 UNL A   1      45.866  31.870  26.689  1.00  0.00    +0.000 C 
ATOM     60  F8  UNL A   1      45.988  32.897  25.838  1.00  0.00    +0.000 F 
ATOM     61  C46 UNL A   1      46.998  31.213  27.145  1.00  0.00    +0.000 C 
ATOM     62  F9  UNL A   1      48.215  31.613  26.751  1.00  0.00    +0.000 F 
ATOM     63  C47 UNL A   1      46.875  30.153  28.034  1.00  0.00    +0.000 C 
ATOM     64  F10 UNL A   1      47.989  29.542  28.467  1.00  0.00    +0.000 F 
ENDBRANCH   53   54
BRANCH   68   69
ATOM     69  C51 UNL A   1      42.236  24.639  26.902  1.00  0.00    +0.000 C 
ATOM     70  C52 UNL A   1      42.968  24.305  25.749  1.00  0.00    +0.000 C 
ATOM     71  F11 UNL A   1      43.752  25.219  25.157  1.00  0.00    +0.000 F 
ATOM     72  C53 UNL A   1      42.979  23.003  25.238  1.00  0.00    +0.000 C 
ATOM     73  F12 UNL A   1      43.759  22.704  24.190  1.00  0.00    +0.000 F 
ATOM     74  C54 UNL A   1      42.247  22.005  25.856  1.00  0.00    +0.000 C 
ATOM     75  F13 UNL A   1      42.324  20.740  25.420  1.00  0.00    +0.000 F 
ATOM     76  C55 UNL A   1      41.469  22.315  26.958  1.00  0.00    +0.000 C 
ATOM     77  F14 UNL A   1      40.780  21.349  27.582  1.00  0.00    +0.000 F 
ATOM     78  C56 UNL A   1      41.459  23.613  27.471  1.00  0.00    +0.000 C 
ATOM     79  F15 UNL A   1      40.762  23.826  28.595  1.00  0.00    +0.000 F 
ENDBRANCH   68   69
TORSDOF 20
ENDMDL
MODEL 4
REMARK VINA RESULT:     -11.5      1.467      2.584
ROOT
ATOM    129  H36 UNL A   1      40.813  26.666  25.586  1.00  0.00    +0.000 H 
ATOM    130  H37 UNL A   1      39.497  28.533  26.716  1.00  0.00    +0.000 H 
ATOM    131  H38 UNL A   1      42.259  27.121  29.494  1.00  0.00    +0.000 H 
ATOM    132  H39 UNL A   1      43.763  24.230  29.757  1.00  0.00    +0.000 H 
ATOM    133  H40 UNL A   1      45.166  25.876  31.168  1.00  0.00    +0.000 H 
ATOM    134  H41 UNL A   1      39.502  27.609  33.986  1.00  0.00    +0.000 H 
ATOM    135  H42 UNL A   1      38.353  27.425  31.686  1.00  0.00    +0.000 H 
ATOM     32  C27 UNL A   1      39.917  28.637  29.580  1.00  0.00    +0.000 C 
ATOM     33  C28 UNL A   1      40.282  28.406  31.003  1.00  0.00    +0.000 C 
ATOM     34  N4  UNL A   1      41.344  28.832  31.603  1.00  0.00    +0.000 N 
ATOM     35  C29 UNL A   1      41.265  28.349  32.905  1.00  0.00    +0.000 C 
ATOM     36  C30 UNL A   1      42.405  28.146  33.622  1.00  0.00    +0.000 C 
ATOM     48  C37 UNL A   1      43.519  28.832  33.020  1.00  0.00    +0.000 C 
ATOM     49  C38 UNL A   1      44.048  30.102  33.017  1.00  0.00    +0.000 C 
ATOM     50  C39 UNL A   1      44.859  30.201  31.846  1.00  0.00    +0.000 C 
ATOM     51  C40 UNL A   1      44.832  28.979  31.181  1.00  0.00    +0.000 C 
ATOM     52  N5  UNL A   1      44.053  28.165  31.954  1.00  0.00    +0.000 N 
ATOM     53  C41 UNL A   1      45.201  28.548  29.856  1.00  0.00    +0.000 C 
ATOM     65  C48 UNL A   1      45.094  27.255  29.444  1.00  0.00    +0.000 C 
ATOM     66  N6  UNL A   1      44.758  26.963  28.140  1.00  0.00    +0.000 N 
ATOM     67  C49 UNL A   1      44.020  25.892  28.237  1.00  0.00    +0.000 C 
ATOM     68  C50 UNL A   1      42.922  25.584  27.294  1.00  0.00    +0.000 C 
ATOM     80  C57 UNL A   1      41.949  26.510  27.481  1.00  0.00    +0.000 C 
ATOM     81  C58 UNL A   1      40.945  26.993  26.556  1.00  0.00    +0.000 C 
ATOM     82  C59 UNL A   1      40.208  27.942  27.173  1.00  0.00    +0.000 C 
ATOM     83  C60 UNL A   1      40.574  28.001  28.587  1.00  0.00    +0.000 C 
ATOM     84  N7  UNL A   1      41.702  27.198  28.686  1.00  0.00    +0.000 N 
ATOM     85  C61 UNL A   1      44.128  25.159  29.493  1.00  0.00    +0.000 C 
ATOM     86  C62 UNL A   1      44.839  26.039  30.202  1.00  0.00    +0.000 C 
ATOM     87  C63 UNL A   1      39.920  27.867  33.079  1.00  0.00    +0.000 C 
ATOM     88  C64 UNL A   1      39.289  27.801  31.904  1.00  0.00    +0.000 C 
ATOM    126  H33 UNL A   1      43.890  30.838  33.723  1.00  0.00    +0.000 H 
ATOM    127  H34 UNL A   1      45.380  31.039  31.543  1.00  0.00    +0.000 H 
ATOM    128  H35 UNL A   1      43.896  27.211  31.766  1.00  0.00    +0.000 H 
ENDROOT
BRANCH   32   31
ATOM    136  H43 UNL A   1      39.913  31.372  29.585  1.00  0.00    +0.000 H 
ATOM    137  H44 UNL A   1      37.994  32.808  29.248  1.00  0.00    +0.000 H 
ATOM    124  H31 UNL A   1      35.588  29.455  28.512  1.00  0.00    +0.000 H 
ATOM    125  H32 UNL A   1      37.444  28.016  29.057  1.00  0.00    +0.000 H 
ATOM     89  C65 UNL A   1      38.980  30.961  29.423  1.00  0.00    +0.000 C 
ATOM     90  C66 UNL A   1      37.875  31.784  29.212  1.00  0.00    +0.000 C 
ATOM     28  C23 UNL A   1      36.599  31.248  28.949  1.00  0.00    +0.000 C 
ATOM     29  C24 UNL A   1      36.483  29.867  28.817  1.00  0.00    +0.000 C 
ATOM     30  C25 UNL A   1      37.563  29.041  29.091  1.00  0.00    +0.000 C 
ATOM     31  C26 UNL A   1      38.813  29.583  29.415  1.00  0.00    +0.000 C 
BRANCH   28   26
ATOM     26  C22 UNL A   1      35.469  32.217  28.891  1.00  0.00    +0.000 C 
ATOM     27  O2  UNL A   1      35.285  32.971  29.855  1.00  0.00    +0.000 O 
BRANCH   26   25
ATOM     25  N3  UNL A   1      34.561  32.296  27.870  1.00  0.00    +0.000 N 
ATOM    123  H30 UNL A   1      34.812  32.945  27.173  1.00  0.00    +0.000 H 
BRANCH   25   24
ATOM    121  H28 UNL A   1      32.768  31.531  28.523  1.00  0.00    +0.000 H 
ATOM    122  H29 UNL A   1      32.780  32.215  26.883  1.00  0.00    +0.000 H 
ATOM     24  C21 UNL A   1      33.306  31.624  27.602  1.00  0.00    +0.000 C 
BRANCH   24   23
ATOM    119  H26 UNL A   1      33.862  30.337  26.006  1.00  0.00    +0.000 H 
ATOM     23  C20 UNL A   1      33.479  30.226  26.999  1.00  0.00    +0.000 C 
ATOM    120  H27 UNL A   1      34.143  29.697  27.651  1.00  0.00    +0.000 H 
BRANCH   23   22
ATOM    118  H25 UNL A   1      31.676  29.718  26.050  1.00  0.00    +0.000 H 
ATOM    117  H24 UNL A   1      31.644  29.552  27.825  1.00  0.00    +0.000 H 
ATOM     22  C19 UNL A   1      32.200  29.394  26.924  1.00  0.00    +0.000 C 
BRANCH   22   21
ATOM    115  H22 UNL A   1      32.957  27.741  25.844  1.00  0.00    +0.000 H 
ATOM    116  H23 UNL A   1      32.988  27.586  27.622  1.00  0.00    +0.000 H 
ATOM     21  C18 UNL A   1      32.433  27.899  26.764  1.00  0.00    +0.000 C 
BRANCH   21   20
ATOM    113  H20 UNL A   1      31.129  26.464  27.635  1.00  0.00    +0.000 H 
ATOM    114  H21 UNL A   1      30.346  27.746  26.645  1.00  0.00    +0.000 H 
ATOM     20  C17 UNL A   1      31.151  27.047  26.738  1.00  0.00    +0.000 C 
BRANCH   20   19
ATOM     19  C16 UNL A   1      30.995  26.083  25.550  1.00  0.00    +0.000 C 
ATOM    111  H18 UNL A   1      30.363  26.553  24.825  1.00  0.00    +0.000 H 
ATOM    112  H19 UNL A   1      31.986  25.889  25.195  1.00  0.00    +0.000 H 
BRANCH   19   18
ATOM     18  N2  UNL A   1      30.421  24.783  25.872  1.00  0.00    +0.000 N 
ATOM    110  H17 UNL A   1      29.439  24.752  25.795  1.00  0.00    +0.000 H 
BRANCH   18   16
ATOM     17  O1  UNL A   1      30.283  22.587  26.209  1.00  0.00    +0.000 O 
ATOM     16  C15 UNL A   1      30.983  23.599  26.260  1.00  0.00    +0.000 C 
BRANCH   16   15
ATOM    108  H15 UNL A   1      32.684  24.560  27.003  1.00  0.00    +0.000 H 
ATOM    109  H16 UNL A   1      32.323  22.885  27.631  1.00  0.00    +0.000 H 
ATOM     15  C14 UNL A   1      32.395  23.550  26.796  1.00  0.00    +0.000 C 
BRANCH   15   12
ATOM      3  C3  UNL A   1      32.813  18.094  24.481  1.00  0.00    +0.000 C 
ATOM      4  C4  UNL A   1      32.474  17.550  23.219  1.00  0.00    +0.000 C 
ATOM      5  C5  UNL A   1      32.145  18.340  22.120  1.00  0.00    +0.000 C 
ATOM      6  C6  UNL A   1      32.178  19.721  22.224  1.00  0.00    +0.000 C 
ATOM      7  C7  UNL A   1      32.536  20.302  23.451  1.00  0.00    +0.000 C 
ATOM      8  C8  UNL A   1      32.787  21.632  23.832  1.00  0.00    +0.000 C 
ATOM      9  C9  UNL A   1      33.106  21.679  25.171  1.00  0.00    +0.000 C 
ATOM     10  N1  UNL A   1      33.106  20.372  25.609  1.00  0.00    +0.000 N 
ATOM     11  C10 UNL A   1      32.818  19.505  24.557  1.00  0.00    +0.000 C 
ATOM     12  C11 UNL A   1      33.517  22.928  25.932  1.00  0.00    +0.000 C 
ATOM    140  H47 UNL A   1      31.905  22.971  22.509  1.00  0.00    +0.000 H 
ATOM    141  H48 UNL A   1      33.589  22.610  22.185  1.00  0.00    +0.000 H 
ATOM    138  H45 UNL A   1      33.863  24.637  23.077  1.00  0.00    +0.000 H 
ATOM    139  H46 UNL A   1      32.361  24.449  24.074  1.00  0.00    +0.000 H 
ATOM     91  O3  UNL A   1      34.053  23.830  24.932  1.00  0.00    +0.000 O 
ATOM     92  C67 UNL A   1      33.283  24.023  23.733  1.00  0.00    +0.000 C 
ATOM     93  C68 UNL A   1      32.864  22.798  22.949  1.00  0.00    +0.000 C 
ATOM     99  H6  UNL A   1      32.468  16.525  23.108  1.00  0.00    +0.000 H 
ATOM    100  H7  UNL A   1      31.878  17.896  21.227  1.00  0.00    +0.000 H 
ATOM    101  H8  UNL A   1      31.942  20.314  21.413  1.00  0.00    +0.000 H 
ATOM    102  H9  UNL A   1      33.284  20.090  26.535  1.00  0.00    +0.000 H 
BRANCH    3    2
ATOM     97  H4  UNL A   1      34.271  17.246  25.733  1.00  0.00    +0.000 H 
ATOM      2  C2  UNL A   1      33.205  17.223  25.650  1.00  0.00    +0.000 C 
ATOM     98  H5  UNL A   1      32.689  17.628  26.495  1.00  0.00    +0.000 H 
BRANCH    2    1
ATOM      1  C1  UNL A   1      32.776  15.761  25.571  1.00  0.00    +0.000 C 
ATOM     94  H1  UNL A   1      33.239  15.210  26.363  1.00  0.00    +0.000 H 
ATOM     95  H2  UNL A   1      33.076  15.352  24.629  1.00  0.00    +0.000 H 
ATOM     96  H3  UNL A   1      31.712  15.697  25.666  1.00  0.00    +0.000 H 
ENDBRANCH    2    1
ENDBRANCH    3    2
BRANCH   12   13
ATOM     13  C12 UNL A   1      34.735  22.606  26.862  1.00  0.00    +0.000 C 
ATOM    103  H10 UNL A   1      34.465  21.776  27.482  1.00  0.00    +0.000 H 
ATOM    104  H11 UNL A   1      34.934  23.506  27.405  1.00  0.00    +0.000 H 
BRANCH   13   14
ATOM    105  H12 UNL A   1      36.843  22.830  26.554  1.00  0.00    +0.000 H 
ATOM    106  H13 UNL A   1      35.944  22.470  25.099  1.00  0.00    +0.000 H 
ATOM    107  H14 UNL A   1      36.249  21.210  26.271  1.00  0.00    +0.000 H 
ATOM     14  C13 UNL A   1      36.041  22.252  26.142  1.00  0.00    +0.000 C 
ENDBRANCH   13   14
ENDBRANCH   12   13
ENDBRANCH   15   12
ENDBRANCH   16   15
ENDBRANCH   18   16
ENDBRANCH   19   18
ENDBRANCH   20   19
ENDBRANCH   21   20
ENDBRANCH   22   21
ENDBRANCH   23   22
ENDBRANCH   24   23
ENDBRANCH   25   24
ENDBRANCH   26   25
ENDBRANCH   28   26
ENDBRANCH   32   31
BRANCH   36   37
ATOM     37  C31 UNL A   1      42.648  26.951  34.522  1.00  0.00    +0.000 C 
ATOM     38  C32 UNL A   1      42.472  27.098  35.915  1.00  0.00    +0.000 C 
ATOM     39  F1  UNL A   1      41.828  28.163  36.415  1.00  0.00    +0.000 F 
ATOM     40  C33 UNL A   1      43.031  26.201  36.833  1.00  0.00    +0.000 C 
ATOM     41  F2  UNL A   1      42.937  26.446  38.147  1.00  0.00    +0.000 F 
ATOM     42  C34 UNL A   1      43.738  25.098  36.394  1.00  0.00    +0.000 C 
ATOM     43  F3  UNL A   1      44.323  24.270  37.268  1.00  0.00    +0.000 F 
ATOM     44  C35 UNL A   1      43.877  24.883  35.039  1.00  0.00    +0.000 C 
ATOM     45  F4  UNL A   1      44.581  23.833  34.594  1.00  0.00    +0.000 F 
ATOM     46  C36 UNL A   1      43.360  25.799  34.123  1.00  0.00    +0.000 C 
ATOM     47  F5  UNL A   1      43.685  25.568  32.847  1.00  0.00    +0.000 F 
ENDBRANCH   36   37
BRANCH   53   54
ATOM     54  C42 UNL A   1      45.542  29.581  28.834  1.00  0.00    +0.000 C 
ATOM     55  C43 UNL A   1      46.846  29.894  28.426  1.00  0.00    +0.000 C 
ATOM     56  F6  UNL A   1      47.903  29.263  28.958  1.00  0.00    +0.000 F 
ATOM     57  C44 UNL A   1      47.073  30.839  27.426  1.00  0.00    +0.000 C 
ATOM     58  F7  UNL A   1      48.326  31.137  27.053  1.00  0.00    +0.000 F 
ATOM     59  C45 UNL A   1      46.003  31.453  26.791  1.00  0.00    +0.000 C 
ATOM     60  F8  UNL A   1      46.218  32.329  25.801  1.00  0.00    +0.000 F 
ATOM     61  C46 UNL A   1      44.706  31.140  27.166  1.00  0.00    +0.000 C 
ATOM     62  F9  UNL A   1      43.667  31.699  26.531  1.00  0.00    +0.000 F 
ATOM     63  C47 UNL A   1      44.479  30.226  28.188  1.00  0.00    +0.000 C 
ATOM     64  F10 UNL A   1      43.212  29.935  28.523  1.00  0.00    +0.000 F 
ENDBRANCH   53   54
BRANCH   68   69
ATOM     69  C51 UNL A   1      42.880  24.307  26.544  1.00  0.00    +0.000 C 
ATOM     70  C52 UNL A   1      43.614  24.147  25.354  1.00  0.00    +0.000 C 
ATOM     71  F11 UNL A   1      44.124  25.216  24.725  1.00  0.00    +0.000 F 
ATOM     72  C53 UNL A   1      43.913  22.880  24.842  1.00  0.00    +0.000 C 
ATOM     73  F12 UNL A   1      44.689  22.766  23.755  1.00  0.00    +0.000 F 
ATOM     74  C54 UNL A   1      43.473  21.742  25.495  1.00  0.00    +0.000 C 
ATOM     75  F13 UNL A   1      43.831  20.528  25.054  1.00  0.00    +0.000 F 
ATOM     76  C55 UNL A   1      42.700  21.868  26.635  1.00  0.00    +0.000 C 
ATOM     77  F14 UNL A   1      42.295  20.772  27.292  1.00  0.00    +0.000 F 
ATOM     78  C56 UNL A   1      42.403  23.131  27.150  1.00  0.00    +0.000 C 
ATOM     79  F15 UNL A   1      41.731  23.182  28.308  1.00  0.00    +0.000 F 
ENDBRANCH   68   69
TORSDOF 20
ENDMDL
MODEL 5
REMARK VINA RESULT:     -11.2     34.825     42.195
ROOT
ATOM    129  H36 UNL A   1       0.811   9.870  39.637  1.00  0.00    +0.000 H 
ATOM    130  H37 UNL A   1       2.887   8.420  39.918  1.00  0.00    +0.000 H 
ATOM    131  H38 UNL A   1       4.150  12.099  38.432  1.00  0.00    +0.000 H 
ATOM    132  H39 UNL A   1       2.569  14.382  36.708  1.00  0.00    +0.000 H 
ATOM    133  H40 UNL A   1       4.623  15.573  37.723  1.00  0.00    +0.000 H 
ATOM    134  H41 UNL A   1       8.155  10.599  35.314  1.00  0.00    +0.000 H 
ATOM    135  H42 UNL A   1       6.252   8.989  35.970  1.00  0.00    +0.000 H 
ATOM     32  C27 UNL A   1       5.224   9.529  38.616  1.00  0.00    +0.000 C 
ATOM     33  C28 UNL A   1       6.210  10.305  37.818  1.00  0.00    +0.000 C 
ATOM     34  N4  UNL A   1       6.900  11.319  38.225  1.00  0.00    +0.000 N 
ATOM     35  C29 UNL A   1       7.657  11.727  37.131  1.00  0.00    +0.000 C 
ATOM     36  C30 UNL A   1       8.061  13.023  37.034  1.00  0.00    +0.000 C 
ATOM     48  C37 UNL A   1       7.942  13.695  38.302  1.00  0.00    +0.000 C 
ATOM     49  C38 UNL A   1       8.677  13.818  39.459  1.00  0.00    +0.000 C 
ATOM     50  C39 UNL A   1       7.763  14.229  40.477  1.00  0.00    +0.000 C 
ATOM     51  C40 UNL A   1       6.502  14.380  39.910  1.00  0.00    +0.000 C 
ATOM     52  N5  UNL A   1       6.668  14.099  38.583  1.00  0.00    +0.000 N 
ATOM     53  C41 UNL A   1       5.168  14.496  40.444  1.00  0.00    +0.000 C 
ATOM     65  C48 UNL A   1       4.070  14.659  39.656  1.00  0.00    +0.000 C 
ATOM     66  N6  UNL A   1       2.866  14.091  40.009  1.00  0.00    +0.000 N 
ATOM     67  C49 UNL A   1       2.334  13.743  38.870  1.00  0.00    +0.000 C 
ATOM     68  C50 UNL A   1       1.442  12.572  38.723  1.00  0.00    +0.000 C 
ATOM     80  C57 UNL A   1       2.186  11.460  38.939  1.00  0.00    +0.000 C 
ATOM     81  C58 UNL A   1       1.776  10.153  39.411  1.00  0.00    +0.000 C 
ATOM     82  C59 UNL A   1       2.869   9.364  39.504  1.00  0.00    +0.000 C 
ATOM     83  C60 UNL A   1       4.021  10.056  38.929  1.00  0.00    +0.000 C 
ATOM     84  N7  UNL A   1       3.573  11.351  38.710  1.00  0.00    +0.000 N 
ATOM     85  C61 UNL A   1       2.897  14.383  37.686  1.00  0.00    +0.000 C 
ATOM     86  C62 UNL A   1       3.961  14.972  38.238  1.00  0.00    +0.000 C 
ATOM     87  C63 UNL A   1       7.565  10.672  36.157  1.00  0.00    +0.000 C 
ATOM     88  C64 UNL A   1       6.611   9.801  36.496  1.00  0.00    +0.000 C 
ATOM    126  H33 UNL A   1       9.689  13.647  39.570  1.00  0.00    +0.000 H 
ATOM    127  H34 UNL A   1       8.000  14.390  41.469  1.00  0.00    +0.000 H 
ATOM    128  H35 UNL A   1       5.954  14.178  37.910  1.00  0.00    +0.000 H 
ENDROOT
BRANCH   32   31
ATOM    136  H43 UNL A   1       3.940   7.472  39.881  1.00  0.00    +0.000 H 
ATOM    137  H44 UNL A   1       4.865   5.292  40.384  1.00  0.00    +0.000 H 
ATOM    124  H31 UNL A   1       8.395   6.300  38.361  1.00  0.00    +0.000 H 
ATOM    125  H32 UNL A   1       7.563   8.541  38.047  1.00  0.00    +0.000 H 
ATOM     89  C65 UNL A   1       4.912   7.247  39.616  1.00  0.00    +0.000 C 
ATOM     90  C66 UNL A   1       5.443   5.988  39.889  1.00  0.00    +0.000 C 
ATOM     28  C23 UNL A   1       6.752   5.643  39.501  1.00  0.00    +0.000 C 
ATOM     29  C24 UNL A   1       7.480   6.567  38.757  1.00  0.00    +0.000 C 
ATOM     30  C25 UNL A   1       6.984   7.844  38.540  1.00  0.00    +0.000 C 
ATOM     31  C26 UNL A   1       5.704   8.197  38.986  1.00  0.00    +0.000 C 
BRANCH   28   26
ATOM     26  C22 UNL A   1       7.264   4.327  39.978  1.00  0.00    +0.000 C 
ATOM     27  O2  UNL A   1       8.328   3.901  39.512  1.00  0.00    +0.000 O 
BRANCH   26   25
ATOM     25  N3  UNL A   1       6.608   3.506  40.855  1.00  0.00    +0.000 N 
ATOM    123  H30 UNL A   1       6.005   3.988  41.466  1.00  0.00    +0.000 H 
BRANCH   25   24
ATOM    121  H28 UNL A   1       7.390   1.645  40.468  1.00  0.00    +0.000 H 
ATOM    122  H29 UNL A   1       6.786   1.916  42.117  1.00  0.00    +0.000 H 
ATOM     24  C21 UNL A   1       6.618   2.074  41.072  1.00  0.00    +0.000 C 
BRANCH   24   23
ATOM    119  H26 UNL A   1       4.554   2.156  40.577  1.00  0.00    +0.000 H 
ATOM     23  C20 UNL A   1       5.291   1.394  40.718  1.00  0.00    +0.000 C 
ATOM    120  H27 UNL A   1       5.476   0.816  39.837  1.00  0.00    +0.000 H 
BRANCH   23   22
ATOM    118  H25 UNL A   1       5.625  -0.067  42.190  1.00  0.00    +0.000 H 
ATOM    117  H24 UNL A   1       4.098  -0.266  41.290  1.00  0.00    +0.000 H 
ATOM     22  C19 UNL A   1       4.768   0.416  41.770  1.00  0.00    +0.000 C 
BRANCH   22   21
ATOM    115  H22 UNL A   1       3.583   0.306  43.518  1.00  0.00    +0.000 H 
ATOM    116  H23 UNL A   1       4.757   1.650  43.460  1.00  0.00    +0.000 H 
ATOM     21  C18 UNL A   1       4.030   1.077  42.926  1.00  0.00    +0.000 C 
BRANCH   21   20
ATOM    113  H20 UNL A   1       2.809   1.985  41.442  1.00  0.00    +0.000 H 
ATOM    114  H21 UNL A   1       2.058   1.772  43.063  1.00  0.00    +0.000 H 
ATOM     20  C17 UNL A   1       2.923   2.060  42.503  1.00  0.00    +0.000 C 
BRANCH   20   19
ATOM     19  C16 UNL A   1       3.158   3.541  42.845  1.00  0.00    +0.000 C 
ATOM    111  H18 UNL A   1       2.475   3.812  43.623  1.00  0.00    +0.000 H 
ATOM    112  H19 UNL A   1       4.187   3.618  43.130  1.00  0.00    +0.000 H 
BRANCH   19   18
ATOM     18  N2  UNL A   1       2.975   4.473  41.741  1.00  0.00    +0.000 N 
ATOM    110  H17 UNL A   1       3.763   4.558  41.156  1.00  0.00    +0.000 H 
BRANCH   18   16
ATOM     17  O1  UNL A   1       2.013   6.470  41.532  1.00  0.00    +0.000 O 
ATOM     16  C15 UNL A   1       1.919   5.254  41.361  1.00  0.00    +0.000 C 
BRANCH   16   15
ATOM    108  H15 UNL A   1       0.518   3.704  41.320  1.00  0.00    +0.000 H 
ATOM    109  H16 UNL A   1      -0.086   5.391  40.975  1.00  0.00    +0.000 H 
ATOM     15  C14 UNL A   1       0.655   4.635  40.811  1.00  0.00    +0.000 C 
BRANCH   15   12
ATOM      3  C3  UNL A   1       2.985   7.577  36.204  1.00  0.00    +0.000 C 
ATOM      4  C4  UNL A   1       4.177   7.416  35.457  1.00  0.00    +0.000 C 
ATOM      5  C5  UNL A   1       4.985   6.286  35.558  1.00  0.00    +0.000 C 
ATOM      6  C6  UNL A   1       4.616   5.241  36.389  1.00  0.00    +0.000 C 
ATOM      7  C7  UNL A   1       3.426   5.348  37.128  1.00  0.00    +0.000 C 
ATOM      8  C8  UNL A   1       2.726   4.432  37.932  1.00  0.00    +0.000 C 
ATOM      9  C9  UNL A   1       1.597   5.033  38.445  1.00  0.00    +0.000 C 
ATOM     10  N1  UNL A   1       1.569   6.305  37.914  1.00  0.00    +0.000 N 
ATOM     11  C10 UNL A   1       2.649   6.500  37.056  1.00  0.00    +0.000 C 
ATOM     12  C11 UNL A   1       0.545   4.343  39.296  1.00  0.00    +0.000 C 
ATOM    140  H47 UNL A   1       3.972   2.902  38.587  1.00  0.00    +0.000 H 
ATOM    141  H48 UNL A   1       3.047   2.538  37.143  1.00  0.00    +0.000 H 
ATOM    138  H45 UNL A   1       1.850   1.342  38.600  1.00  0.00    +0.000 H 
ATOM    139  H46 UNL A   1       2.307   2.456  39.955  1.00  0.00    +0.000 H 
ATOM     91  O3  UNL A   1       0.643   2.935  38.965  1.00  0.00    +0.000 O 
ATOM     92  C67 UNL A   1       1.956   2.348  38.950  1.00  0.00    +0.000 C 
ATOM     93  C68 UNL A   1       3.023   3.008  38.105  1.00  0.00    +0.000 C 
ATOM     99  H6  UNL A   1       4.460   8.168  34.811  1.00  0.00    +0.000 H 
ATOM    100  H7  UNL A   1       5.860   6.228  35.012  1.00  0.00    +0.000 H 
ATOM    101  H8  UNL A   1       5.206   4.397  36.465  1.00  0.00    +0.000 H 
ATOM    102  H9  UNL A   1       0.882   6.981  38.113  1.00  0.00    +0.000 H 
BRANCH    3    2
ATOM     97  H4  UNL A   1       2.159   9.354  36.960  1.00  0.00    +0.000 H 
ATOM      2  C2  UNL A   1       2.101   8.790  36.052  1.00  0.00    +0.000 C 
ATOM     98  H5  UNL A   1       2.468   9.307  35.189  1.00  0.00    +0.000 H 
BRANCH    2    1
ATOM      1  C1  UNL A   1       0.628   8.516  35.768  1.00  0.00    +0.000 C 
ATOM     94  H1  UNL A   1       0.524   8.110  34.784  1.00  0.00    +0.000 H 
ATOM     95  H2  UNL A   1       0.075   9.429  35.838  1.00  0.00    +0.000 H 
ATOM     96  H3  UNL A   1       0.252   7.815  36.484  1.00  0.00    +0.000 H 
ENDBRANCH    2    1
ENDBRANCH    3    2
BRANCH   12   13
ATOM     13  C12 UNL A   1      -0.885   4.761  38.815  1.00  0.00    +0.000 C 
ATOM    103  H10 UNL A   1      -1.534   3.921  38.944  1.00  0.00    +0.000 H 
ATOM    104  H11 UNL A   1      -0.772   5.070  37.797  1.00  0.00    +0.000 H 
BRANCH   13   14
ATOM    105  H12 UNL A   1      -1.450   5.794  40.606  1.00  0.00    +0.000 H 
ATOM    106  H13 UNL A   1      -2.531   6.059  39.258  1.00  0.00    +0.000 H 
ATOM    107  H14 UNL A   1      -0.972   6.847  39.296  1.00  0.00    +0.000 H 
ATOM     14  C13 UNL A   1      -1.506   5.956  39.549  1.00  0.00    +0.000 C 
ENDBRANCH   13   14
ENDBRANCH   12   13
ENDBRANCH   15   12
ENDBRANCH   16   15
ENDBRANCH   18   16
ENDBRANCH   19   18
ENDBRANCH   20   19
ENDBRANCH   21   20
ENDBRANCH   22   21
ENDBRANCH   23   22
ENDBRANCH   24   23
ENDBRANCH   25   24
ENDBRANCH   26   25
ENDBRANCH   28   26
ENDBRANCH   32   31
BRANCH   36   37
ATOM     37  C31 UNL A   1       8.058  13.827  35.748  1.00  0.00    +0.000 C 
ATOM     38  C32 UNL A   1       8.979  14.887  35.603  1.00  0.00    +0.000 C 
ATOM     39  F1  UNL A   1      10.024  15.005  36.436  1.00  0.00    +0.000 F 
ATOM     40  C33 UNL A   1       8.801  15.901  34.654  1.00  0.00    +0.000 C 
ATOM     41  F2  UNL A   1       9.637  16.948  34.632  1.00  0.00    +0.000 F 
ATOM     42  C34 UNL A   1       7.729  15.866  33.784  1.00  0.00    +0.000 C 
ATOM     43  F3  UNL A   1       7.523  16.863  32.914  1.00  0.00    +0.000 F 
ATOM     44  C35 UNL A   1       6.842  14.813  33.851  1.00  0.00    +0.000 C 
ATOM     45  F4  UNL A   1       5.782  14.774  33.031  1.00  0.00    +0.000 F 
ATOM     46  C36 UNL A   1       6.991  13.824  34.823  1.00  0.00    +0.000 C 
ATOM     47  F5  UNL A   1       5.991  12.940  34.890  1.00  0.00    +0.000 F 
ENDBRANCH   36   37
BRANCH   53   54
ATOM     54  C42 UNL A   1       4.952  14.245  41.899  1.00  0.00    +0.000 C 
ATOM     55  C43 UNL A   1       4.668  15.242  42.843  1.00  0.00    +0.000 C 
ATOM     56  F6  UNL A   1       4.576  16.529  42.476  1.00  0.00    +0.000 F 
ATOM     57  C44 UNL A   1       4.429  14.913  44.177  1.00  0.00    +0.000 C 
ATOM     58  F7  UNL A   1       4.168  15.878  45.071  1.00  0.00    +0.000 F 
ATOM     59  C45 UNL A   1       4.431  13.585  44.579  1.00  0.00    +0.000 C 
ATOM     60  F8  UNL A   1       4.160  13.266  45.852  1.00  0.00    +0.000 F 
ATOM     61  C46 UNL A   1       4.690  12.585  43.657  1.00  0.00    +0.000 C 
ATOM     62  F9  UNL A   1       4.654  11.298  44.029  1.00  0.00    +0.000 F 
ATOM     63  C47 UNL A   1       4.963  12.913  42.334  1.00  0.00    +0.000 C 
ATOM     64  F10 UNL A   1       5.200  11.922  41.460  1.00  0.00    +0.000 F 
ENDBRANCH   53   54
BRANCH   68   69
ATOM     69  C51 UNL A   1       0.080  12.703  38.155  1.00  0.00    +0.000 C 
ATOM     70  C52 UNL A   1      -0.911  13.446  38.822  1.00  0.00    +0.000 C 
ATOM     71  F11 UNL A   1      -0.740  13.801  40.104  1.00  0.00    +0.000 F 
ATOM     72  C53 UNL A   1      -2.049  13.913  38.158  1.00  0.00    +0.000 C 
ATOM     73  F12 UNL A   1      -2.927  14.693  38.805  1.00  0.00    +0.000 F 
ATOM     74  C54 UNL A   1      -2.236  13.638  36.815  1.00  0.00    +0.000 C 
ATOM     75  F13 UNL A   1      -3.282  14.157  36.156  1.00  0.00    +0.000 F 
ATOM     76  C55 UNL A   1      -1.308  12.859  36.145  1.00  0.00    +0.000 C 
ATOM     77  F14 UNL A   1      -1.465  12.612  34.837  1.00  0.00    +0.000 F 
ATOM     78  C56 UNL A   1      -0.170  12.394  36.805  1.00  0.00    +0.000 C 
ATOM     79  F15 UNL A   1       0.736  11.727  36.077  1.00  0.00    +0.000 F 
ENDBRANCH   68   69
TORSDOF 20
ENDMDL
MODEL 6
REMARK VINA RESULT:     -11.1      3.243      9.202
ROOT
ATOM    129  H36 UNL A   1      37.351  28.798  29.829  1.00  0.00    +0.000 H 
ATOM    130  H37 UNL A   1      39.239  27.343  28.930  1.00  0.00    +0.000 H 
ATOM    131  H38 UNL A   1      40.905  31.016  29.963  1.00  0.00    +0.000 H 
ATOM    132  H39 UNL A   1      39.571  33.989  30.221  1.00  0.00    +0.000 H 
ATOM    133  H40 UNL A   1      41.784  34.101  31.547  1.00  0.00    +0.000 H 
ATOM    134  H41 UNL A   1      44.605  31.530  26.214  1.00  0.00    +0.000 H 
ATOM    135  H42 UNL A   1      42.537  30.023  25.901  1.00  0.00    +0.000 H 
ATOM     32  C27 UNL A   1      41.658  28.839  28.386  1.00  0.00    +0.000 C 
ATOM     33  C28 UNL A   1      42.709  29.866  28.158  1.00  0.00    +0.000 C 
ATOM     34  N4  UNL A   1      43.530  30.334  29.039  1.00  0.00    +0.000 N 
ATOM     35  C29 UNL A   1      44.302  31.282  28.375  1.00  0.00    +0.000 C 
ATOM     36  C30 UNL A   1      44.860  32.310  29.072  1.00  0.00    +0.000 C 
ATOM     48  C37 UNL A   1      44.860  32.031  30.485  1.00  0.00    +0.000 C 
ATOM     49  C38 UNL A   1      45.636  31.334  31.382  1.00  0.00    +0.000 C 
ATOM     50  C39 UNL A   1      44.810  31.076  32.518  1.00  0.00    +0.000 C 
ATOM     51  C40 UNL A   1      43.562  31.649  32.300  1.00  0.00    +0.000 C 
ATOM     52  N5  UNL A   1      43.654  32.262  31.082  1.00  0.00    +0.000 N 
ATOM     53  C41 UNL A   1      42.267  31.504  32.918  1.00  0.00    +0.000 C 
ATOM     65  C48 UNL A   1      41.176  32.215  32.521  1.00  0.00    +0.000 C 
ATOM     66  N6  UNL A   1      39.921  31.648  32.559  1.00  0.00    +0.000 N 
ATOM     67  C49 UNL A   1      39.319  32.144  31.513  1.00  0.00    +0.000 C 
ATOM     68  C50 UNL A   1      38.285  31.407  30.755  1.00  0.00    +0.000 C 
ATOM     80  C57 UNL A   1      38.892  30.356  30.150  1.00  0.00    +0.000 C 
ATOM     81  C58 UNL A   1      38.337  29.084  29.735  1.00  0.00    +0.000 C 
ATOM     82  C59 UNL A   1      39.326  28.333  29.204  1.00  0.00    +0.000 C 
ATOM     83  C60 UNL A   1      40.539  29.140  29.078  1.00  0.00    +0.000 C 
ATOM     84  N7  UNL A   1      40.248  30.310  29.766  1.00  0.00    +0.000 N 
ATOM     85  C61 UNL A   1      39.924  33.344  30.945  1.00  0.00    +0.000 C 
ATOM     86  C62 UNL A   1      41.067  33.364  31.634  1.00  0.00    +0.000 C 
ATOM     87  C63 UNL A   1      44.053  31.096  26.970  1.00  0.00    +0.000 C 
ATOM     88  C64 UNL A   1      43.008  30.285  26.780  1.00  0.00    +0.000 C 
ATOM    126  H33 UNL A   1      46.622  31.054  31.259  1.00  0.00    +0.000 H 
ATOM    127  H34 UNL A   1      45.092  30.551  33.361  1.00  0.00    +0.000 H 
ATOM    128  H35 UNL A   1      42.936  32.806  30.683  1.00  0.00    +0.000 H 
ENDROOT
BRANCH   32   31
ATOM    136  H43 UNL A   1      40.723  27.660  26.102  1.00  0.00    +0.000 H 
ATOM    137  H44 UNL A   1      41.395  25.511  25.214  1.00  0.00    +0.000 H 
ATOM    124  H31 UNL A   1      44.254  25.126  28.256  1.00  0.00    +0.000 H 
ATOM    125  H32 UNL A   1      43.440  27.159  29.264  1.00  0.00    +0.000 H 
ATOM     89  C65 UNL A   1      41.426  27.091  26.599  1.00  0.00    +0.000 C 
ATOM     90  C66 UNL A   1      41.829  25.861  26.082  1.00  0.00    +0.000 C 
ATOM     28  C23 UNL A   1      42.817  25.085  26.719  1.00  0.00    +0.000 C 
ATOM     29  C24 UNL A   1      43.450  25.619  27.838  1.00  0.00    +0.000 C 
ATOM     30  C25 UNL A   1      43.008  26.810  28.394  1.00  0.00    +0.000 C 
ATOM     31  C26 UNL A   1      41.980  27.543  27.789  1.00  0.00    +0.000 C 
BRANCH   28   26
ATOM     26  C22 UNL A   1      43.056  23.724  26.161  1.00  0.00    +0.000 C 
ATOM     27  O2  UNL A   1      42.893  23.544  24.948  1.00  0.00    +0.000 O 
BRANCH   26   25
ATOM     25  N3  UNL A   1      43.383  22.622  26.905  1.00  0.00    +0.000 N 
ATOM    123  H30 UNL A   1      44.312  22.322  26.772  1.00  0.00    +0.000 H 
BRANCH   25   24
ATOM    121  H28 UNL A   1      43.172  20.883  27.980  1.00  0.00    +0.000 H 
ATOM    122  H29 UNL A   1      42.572  22.364  28.756  1.00  0.00    +0.000 H 
ATOM     24  C21 UNL A   1      42.646  21.805  27.847  1.00  0.00    +0.000 C 
BRANCH   24   23
ATOM    119  H26 UNL A   1      40.654  21.191  28.252  1.00  0.00    +0.000 H 
ATOM     23  C20 UNL A   1      41.218  21.488  27.392  1.00  0.00    +0.000 C 
ATOM    120  H27 UNL A   1      40.845  22.378  26.929  1.00  0.00    +0.000 H 
BRANCH   23   22
ATOM    118  H25 UNL A   1      41.516  19.499  26.789  1.00  0.00    +0.000 H 
ATOM    117  H24 UNL A   1      41.638  20.693  25.470  1.00  0.00    +0.000 H 
ATOM     22  C19 UNL A   1      41.106  20.381  26.345  1.00  0.00    +0.000 C 
BRANCH   22   21
ATOM    115  H22 UNL A   1      39.719  19.399  25.087  1.00  0.00    +0.000 H 
ATOM    116  H23 UNL A   1      39.224  19.584  26.793  1.00  0.00    +0.000 H 
ATOM     21  C18 UNL A   1      39.679  20.043  25.941  1.00  0.00    +0.000 C 
BRANCH   21   20
ATOM    113  H20 UNL A   1      38.533  21.745  26.497  1.00  0.00    +0.000 H 
ATOM    114  H21 UNL A   1      39.406  21.857  24.927  1.00  0.00    +0.000 H 
ATOM     20  C17 UNL A   1      38.806  21.260  25.583  1.00  0.00    +0.000 C 
BRANCH   20   19
ATOM     19  C16 UNL A   1      37.513  20.969  24.803  1.00  0.00    +0.000 C 
ATOM    111  H18 UNL A   1      37.784  20.707  23.801  1.00  0.00    +0.000 H 
ATOM    112  H19 UNL A   1      37.019  20.182  25.335  1.00  0.00    +0.000 H 
BRANCH   19   18
ATOM     18  N2  UNL A   1      36.561  22.070  24.739  1.00  0.00    +0.000 N 
ATOM    110  H17 UNL A   1      36.295  22.313  23.823  1.00  0.00    +0.000 H 
BRANCH   18   16
ATOM     17  O1  UNL A   1      36.569  23.832  26.100  1.00  0.00    +0.000 O 
ATOM     16  C15 UNL A   1      35.968  22.830  25.708  1.00  0.00    +0.000 C 
BRANCH   16   15
ATOM    108  H15 UNL A   1      34.549  21.364  26.157  1.00  0.00    +0.000 H 
ATOM    109  H16 UNL A   1      34.731  22.746  27.335  1.00  0.00    +0.000 H 
ATOM     15  C14 UNL A   1      34.649  22.417  26.320  1.00  0.00    +0.000 C 
BRANCH   15   12
ATOM      3  C3  UNL A   1      33.556  28.087  24.918  1.00  0.00    +0.000 C 
ATOM      4  C4  UNL A   1      33.576  28.802  23.696  1.00  0.00    +0.000 C 
ATOM      5  C5  UNL A   1      33.658  28.175  22.455  1.00  0.00    +0.000 C 
ATOM      6  C6  UNL A   1      33.686  26.792  22.377  1.00  0.00    +0.000 C 
ATOM      7  C7  UNL A   1      33.642  26.044  23.564  1.00  0.00    +0.000 C 
ATOM      8  C8  UNL A   1      33.522  24.665  23.810  1.00  0.00    +0.000 C 
ATOM      9  C9  UNL A   1      33.528  24.433  25.168  1.00  0.00    +0.000 C 
ATOM     10  N1  UNL A   1      33.597  25.673  25.765  1.00  0.00    +0.000 N 
ATOM     11  C10 UNL A   1      33.607  26.679  24.802  1.00  0.00    +0.000 C 
ATOM     12  C11 UNL A   1      33.340  23.077  25.828  1.00  0.00    +0.000 C 
ATOM    140  H47 UNL A   1      34.105  23.553  22.152  1.00  0.00    +0.000 H 
ATOM    141  H48 UNL A   1      32.382  23.855  22.275  1.00  0.00    +0.000 H 
ATOM    138  H45 UNL A   1      32.379  21.720  22.925  1.00  0.00    +0.000 H 
ATOM    139  H46 UNL A   1      34.067  21.868  23.567  1.00  0.00    +0.000 H 
ATOM     91  O3  UNL A   1      32.609  22.277  24.865  1.00  0.00    +0.000 O 
ATOM     92  C67 UNL A   1      33.081  22.280  23.507  1.00  0.00    +0.000 C 
ATOM     93  C68 UNL A   1      33.271  23.615  22.820  1.00  0.00    +0.000 C 
ATOM     99  H6  UNL A   1      33.528  29.832  23.725  1.00  0.00    +0.000 H 
ATOM    100  H7  UNL A   1      33.696  28.742  21.592  1.00  0.00    +0.000 H 
ATOM    101  H8  UNL A   1      33.741  26.319  21.461  1.00  0.00    +0.000 H 
ATOM    102  H9  UNL A   1      33.634  25.827  26.737  1.00  0.00    +0.000 H 
BRANCH    3    2
ATOM     97  H4  UNL A   1      32.921  29.710  26.089  1.00  0.00    +0.000 H 
ATOM      2  C2  UNL A   1      33.427  28.782  26.251  1.00  0.00    +0.000 C 
ATOM     98  H5  UNL A   1      32.899  28.097  26.881  1.00  0.00    +0.000 H 
BRANCH    2    1
ATOM      1  C1  UNL A   1      34.733  29.084  26.980  1.00  0.00    +0.000 C 
ATOM     94  H1  UNL A   1      35.243  29.881  26.482  1.00  0.00    +0.000 H 
ATOM     95  H2  UNL A   1      35.350  28.210  26.981  1.00  0.00    +0.000 H 
ATOM     96  H3  UNL A   1      34.519  29.371  27.988  1.00  0.00    +0.000 H 
ENDBRANCH    2    1
ENDBRANCH    3    2
BRANCH   12   13
ATOM     13  C12 UNL A   1      32.367  23.211  27.047  1.00  0.00    +0.000 C 
ATOM    103  H10 UNL A   1      32.655  24.078  27.604  1.00  0.00    +0.000 H 
ATOM    104  H11 UNL A   1      32.455  22.296  27.593  1.00  0.00    +0.000 H 
BRANCH   13   14
ATOM    105  H12 UNL A   1      30.595  24.379  26.746  1.00  0.00    +0.000 H 
ATOM    106  H13 UNL A   1      30.296  22.781  27.389  1.00  0.00    +0.000 H 
ATOM    107  H14 UNL A   1      30.714  22.981  25.704  1.00  0.00    +0.000 H 
ATOM     14  C13 UNL A   1      30.881  23.348  26.695  1.00  0.00    +0.000 C 
ENDBRANCH   13   14
ENDBRANCH   12   13
ENDBRANCH   15   12
ENDBRANCH   16   15
ENDBRANCH   18   16
ENDBRANCH   19   18
ENDBRANCH   20   19
ENDBRANCH   21   20
ENDBRANCH   22   21
ENDBRANCH   23   22
ENDBRANCH   24   23
ENDBRANCH   25   24
ENDBRANCH   26   25
ENDBRANCH   28   26
ENDBRANCH   32   31
BRANCH   36   37
ATOM     37  C31 UNL A   1      44.920  33.744  28.583  1.00  0.00    +0.000 C 
ATOM     38  C32 UNL A   1      43.714  34.414  28.282  1.00  0.00    +0.000 C 
ATOM     39  F1  UNL A   1      42.536  33.918  28.687  1.00  0.00    +0.000 F 
ATOM     40  C33 UNL A   1      43.683  35.561  27.481  1.00  0.00    +0.000 C 
ATOM     41  F2  UNL A   1      42.506  36.094  27.125  1.00  0.00    +0.000 F 
ATOM     42  C34 UNL A   1      44.854  36.111  26.997  1.00  0.00    +0.000 C 
ATOM     43  F3  UNL A   1      44.825  37.174  26.183  1.00  0.00    +0.000 F 
ATOM     44  C35 UNL A   1      46.058  35.523  27.323  1.00  0.00    +0.000 C 
ATOM     45  F4  UNL A   1      47.204  36.027  26.843  1.00  0.00    +0.000 F 
ATOM     46  C36 UNL A   1      46.090  34.355  28.084  1.00  0.00    +0.000 C 
ATOM     47  F5  UNL A   1      47.297  33.794  28.209  1.00  0.00    +0.000 F 
ENDBRANCH   36   37
BRANCH   53   54
ATOM     54  C42 UNL A   1      42.063  30.405  33.906  1.00  0.00    +0.000 C 
ATOM     55  C43 UNL A   1      41.628  29.112  33.578  1.00  0.00    +0.000 C 
ATOM     56  F6  UNL A   1      41.354  28.782  32.307  1.00  0.00    +0.000 F 
ATOM     57  C44 UNL A   1      41.513  28.128  34.558  1.00  0.00    +0.000 C 
ATOM     58  F7  UNL A   1      41.086  26.900  34.232  1.00  0.00    +0.000 F 
ATOM     59  C45 UNL A   1      41.868  28.406  35.870  1.00  0.00    +0.000 C 
ATOM     60  F8  UNL A   1      41.799  27.449  36.805  1.00  0.00    +0.000 F 
ATOM     61  C46 UNL A   1      42.320  29.671  36.210  1.00  0.00    +0.000 C 
ATOM     62  F9  UNL A   1      42.702  29.936  37.467  1.00  0.00    +0.000 F 
ATOM     63  C47 UNL A   1      42.401  30.663  35.241  1.00  0.00    +0.000 C 
ATOM     64  F10 UNL A   1      42.852  31.877  35.597  1.00  0.00    +0.000 F 
ENDBRANCH   53   54
BRANCH   68   69
ATOM     69  C51 UNL A   1      36.935  31.974  30.534  1.00  0.00    +0.000 C 
ATOM     70  C52 UNL A   1      35.953  31.908  31.539  1.00  0.00    +0.000 C 
ATOM     71  F11 UNL A   1      36.115  31.090  32.589  1.00  0.00    +0.000 F 
ATOM     72  C53 UNL A   1      34.834  32.748  31.528  1.00  0.00    +0.000 C 
ATOM     73  F12 UNL A   1      33.967  32.718  32.549  1.00  0.00    +0.000 F 
ATOM     74  C54 UNL A   1      34.659  33.664  30.505  1.00  0.00    +0.000 C 
ATOM     75  F13 UNL A   1      33.635  34.528  30.538  1.00  0.00    +0.000 F 
ATOM     76  C55 UNL A   1      35.577  33.712  29.471  1.00  0.00    +0.000 C 
ATOM     77  F14 UNL A   1      35.433  34.615  28.492  1.00  0.00    +0.000 F 
ATOM     78  C56 UNL A   1      36.696  32.877  29.481  1.00  0.00    +0.000 C 
ATOM     79  F15 UNL A   1      37.595  33.038  28.501  1.00  0.00    +0.000 F 
ENDBRANCH   68   69
TORSDOF 20
ENDMDL
MODEL 7
REMARK VINA RESULT:     -10.8     36.822     41.626
ROOT
ATOM    129  H36 UNL A   1      10.699  46.530  13.069  1.00  0.00    +0.000 H 
ATOM    130  H37 UNL A   1      10.133  47.154  10.664  1.00  0.00    +0.000 H 
ATOM    131  H38 UNL A   1      10.976  50.695  12.687  1.00  0.00    +0.000 H 
ATOM    132  H39 UNL A   1      10.819  51.449  15.864  1.00  0.00    +0.000 H 
ATOM    133  H40 UNL A   1      12.343  53.241  14.797  1.00  0.00    +0.000 H 
ATOM    134  H41 UNL A   1       7.582  54.017  10.353  1.00  0.00    +0.000 H 
ATOM    135  H42 UNL A   1       7.208  51.467  10.373  1.00  0.00    +0.000 H 
ATOM     32  C27 UNL A   1       9.694  49.995  10.309  1.00  0.00    +0.000 C 
ATOM     33  C28 UNL A   1       9.476  51.459  10.451  1.00  0.00    +0.000 C 
ATOM     34  N4  UNL A   1      10.386  52.376  10.443  1.00  0.00    +0.000 N 
ATOM     35  C29 UNL A   1       9.716  53.580  10.633  1.00  0.00    +0.000 C 
ATOM     36  C30 UNL A   1      10.365  54.634  11.199  1.00  0.00    +0.000 C 
ATOM     48  C37 UNL A   1      11.791  54.434  11.171  1.00  0.00    +0.000 C 
ATOM     49  C38 UNL A   1      12.823  54.603  10.276  1.00  0.00    +0.000 C 
ATOM     50  C39 UNL A   1      13.890  53.767  10.725  1.00  0.00    +0.000 C 
ATOM     51  C40 UNL A   1      13.496  53.134  11.899  1.00  0.00    +0.000 C 
ATOM     52  N5  UNL A   1      12.241  53.607  12.161  1.00  0.00    +0.000 N 
ATOM     53  C41 UNL A   1      13.993  52.007  12.649  1.00  0.00    +0.000 C 
ATOM     65  C48 UNL A   1      13.425  51.587  13.812  1.00  0.00    +0.000 C 
ATOM     66  N6  UNL A   1      13.391  50.246  14.128  1.00  0.00    +0.000 N 
ATOM     67  C49 UNL A   1      12.248  50.096  14.740  1.00  0.00    +0.000 C 
ATOM     68  C50 UNL A   1      11.464  48.843  14.682  1.00  0.00    +0.000 C 
ATOM     80  C57 UNL A   1      11.024  48.694  13.408  1.00  0.00    +0.000 C 
ATOM     81  C58 UNL A   1      10.678  47.487  12.686  1.00  0.00    +0.000 C 
ATOM     82  C59 UNL A   1      10.320  47.823  11.427  1.00  0.00    +0.000 C 
ATOM     83  C60 UNL A   1      10.240  49.278  11.314  1.00  0.00    +0.000 C 
ATOM     84  N7  UNL A   1      10.783  49.747  12.502  1.00  0.00    +0.000 N 
ATOM     85  C61 UNL A   1      11.632  51.319  15.242  1.00  0.00    +0.000 C 
ATOM     86  C62 UNL A   1      12.427  52.221  14.661  1.00  0.00    +0.000 C 
ATOM     87  C63 UNL A   1       8.317  53.299  10.447  1.00  0.00    +0.000 C 
ATOM     88  C64 UNL A   1       8.101  51.981  10.414  1.00  0.00    +0.000 C 
ATOM    126  H33 UNL A   1      12.825  55.215   9.444  1.00  0.00    +0.000 H 
ATOM    127  H34 UNL A   1      14.803  53.652  10.257  1.00  0.00    +0.000 H 
ATOM    128  H35 UNL A   1      11.723  53.380  12.967  1.00  0.00    +0.000 H 
ENDROOT
BRANCH   32   31
ATOM    136  H43 UNL A   1       7.306  48.891   9.561  1.00  0.00    +0.000 H 
ATOM    137  H44 UNL A   1       6.714  48.108   7.348  1.00  0.00    +0.000 H 
ATOM    124  H31 UNL A   1      10.387  49.472   5.860  1.00  0.00    +0.000 H 
ATOM    125  H32 UNL A   1      11.066  50.056   8.099  1.00  0.00    +0.000 H 
ATOM     89  C65 UNL A   1       7.988  48.954   8.789  1.00  0.00    +0.000 C 
ATOM     90  C66 UNL A   1       7.646  48.520   7.509  1.00  0.00    +0.000 C 
ATOM     28  C23 UNL A   1       8.543  48.633   6.430  1.00  0.00    +0.000 C 
ATOM     29  C24 UNL A   1       9.760  49.273   6.654  1.00  0.00    +0.000 C 
ATOM     30  C25 UNL A   1      10.133  49.646   7.937  1.00  0.00    +0.000 C 
ATOM     31  C26 UNL A   1       9.257  49.471   9.015  1.00  0.00    +0.000 C 
BRANCH   28   26
ATOM     26  C22 UNL A   1       8.127  47.999   5.147  1.00  0.00    +0.000 C 
ATOM     27  O2  UNL A   1       7.171  48.486   4.531  1.00  0.00    +0.000 O 
BRANCH   26   25
ATOM     25  N3  UNL A   1       8.682  46.865   4.621  1.00  0.00    +0.000 N 
ATOM    123  H30 UNL A   1       8.352  46.650   3.719  1.00  0.00    +0.000 H 
BRANCH   25   24
ATOM    121  H28 UNL A   1       9.831  45.181   4.356  1.00  0.00    +0.000 H 
ATOM    122  H29 UNL A   1      10.538  46.465   5.361  1.00  0.00    +0.000 H 
ATOM     24  C21 UNL A   1       9.654  45.913   5.117  1.00  0.00    +0.000 C 
BRANCH   24   23
ATOM    119  H26 UNL A   1       8.170  45.405   6.549  1.00  0.00    +0.000 H 
ATOM     23  C20 UNL A   1       9.206  45.189   6.391  1.00  0.00    +0.000 C 
ATOM    120  H27 UNL A   1       9.402  44.150   6.231  1.00  0.00    +0.000 H 
BRANCH   23   22
ATOM    118  H25 UNL A   1       9.737  44.841   8.393  1.00  0.00    +0.000 H 
ATOM    117  H24 UNL A   1       9.664  46.565   7.941  1.00  0.00    +0.000 H 
ATOM     22  C19 UNL A   1       9.970  45.580   7.656  1.00  0.00    +0.000 C 
BRANCH   22   21
ATOM    115  H22 UNL A   1      11.829  44.573   7.631  1.00  0.00    +0.000 H 
ATOM    116  H23 UNL A   1      11.687  45.967   6.524  1.00  0.00    +0.000 H 
ATOM     21  C18 UNL A   1      11.484  45.577   7.499  1.00  0.00    +0.000 C 
BRANCH   21   20
ATOM    113  H20 UNL A   1      11.505  46.983   9.093  1.00  0.00    +0.000 H 
ATOM    114  H21 UNL A   1      12.879  45.822   9.044  1.00  0.00    +0.000 H 
ATOM     20  C17 UNL A   1      12.236  46.478   8.496  1.00  0.00    +0.000 C 
BRANCH   20   19
ATOM     19  C16 UNL A   1      13.161  47.545   7.888  1.00  0.00    +0.000 C 
ATOM    111  H18 UNL A   1      12.565  48.192   7.279  1.00  0.00    +0.000 H 
ATOM    112  H19 UNL A   1      13.625  48.040   8.716  1.00  0.00    +0.000 H 
BRANCH   19   18
ATOM     18  N2  UNL A   1      14.250  47.032   7.066  1.00  0.00    +0.000 N 
ATOM    110  H17 UNL A   1      14.930  46.532   7.573  1.00  0.00    +0.000 H 
BRANCH   18   16
ATOM     17  O1  UNL A   1      13.661  46.666   4.950  1.00  0.00    +0.000 O 
ATOM     16  C15 UNL A   1      14.508  47.113   5.726  1.00  0.00    +0.000 C 
BRANCH   16   15
ATOM    108  H15 UNL A   1      16.567  47.398   5.931  1.00  0.00    +0.000 H 
ATOM    109  H16 UNL A   1      15.904  47.257   4.237  1.00  0.00    +0.000 H 
ATOM     15  C14 UNL A   1      15.816  47.673   5.220  1.00  0.00    +0.000 C 
BRANCH   15   12
ATOM      3  C3  UNL A   1      11.602  51.838   4.779  1.00  0.00    +0.000 C 
ATOM      4  C4  UNL A   1      11.017  52.724   5.715  1.00  0.00    +0.000 C 
ATOM      5  C5  UNL A   1      11.541  52.933   6.988  1.00  0.00    +0.000 C 
ATOM      6  C6  UNL A   1      12.706  52.288   7.372  1.00  0.00    +0.000 C 
ATOM      7  C7  UNL A   1      13.333  51.420   6.464  1.00  0.00    +0.000 C 
ATOM      8  C8  UNL A   1      14.563  50.740   6.501  1.00  0.00    +0.000 C 
ATOM      9  C9  UNL A   1      14.720  50.003   5.348  1.00  0.00    +0.000 C 
ATOM     10  N1  UNL A   1      13.612  50.268   4.572  1.00  0.00    +0.000 N 
ATOM     11  C10 UNL A   1      12.777  51.182   5.211  1.00  0.00    +0.000 C 
ATOM     12  C11 UNL A   1      15.954  49.195   4.983  1.00  0.00    +0.000 C 
ATOM    140  H47 UNL A   1      15.250  50.534   8.453  1.00  0.00    +0.000 H 
ATOM    141  H48 UNL A   1      15.892  51.914   7.582  1.00  0.00    +0.000 H 
ATOM    138  H45 UNL A   1      17.693  50.600   7.472  1.00  0.00    +0.000 H 
ATOM    139  H46 UNL A   1      16.664  49.110   7.550  1.00  0.00    +0.000 H 
ATOM     91  O3  UNL A   1      17.045  49.804   5.719  1.00  0.00    +0.000 O 
ATOM     92  C67 UNL A   1      16.833  50.073   7.115  1.00  0.00    +0.000 C 
ATOM     93  C68 UNL A   1      15.616  50.882   7.509  1.00  0.00    +0.000 C 
ATOM     99  H6  UNL A   1      10.164  53.238   5.443  1.00  0.00    +0.000 H 
ATOM    100  H7  UNL A   1      11.062  53.570   7.645  1.00  0.00    +0.000 H 
ATOM    101  H8  UNL A   1      13.105  52.442   8.312  1.00  0.00    +0.000 H 
ATOM    102  H9  UNL A   1      13.435  49.868   3.690  1.00  0.00    +0.000 H 
BRANCH    3    2
ATOM     97  H4  UNL A   1      10.729  52.614   3.033  1.00  0.00    +0.000 H 
ATOM      2  C2  UNL A   1      11.041  51.654   3.389  1.00  0.00    +0.000 C 
ATOM     98  H5  UNL A   1      11.829  51.208   2.819  1.00  0.00    +0.000 H 
BRANCH    2    1
ATOM      1  C1  UNL A   1       9.856  50.702   3.264  1.00  0.00    +0.000 C 
ATOM     94  H1  UNL A   1      10.212  49.695   3.205  1.00  0.00    +0.000 H 
ATOM     95  H2  UNL A   1       9.302  50.938   2.380  1.00  0.00    +0.000 H 
ATOM     96  H3  UNL A   1       9.223  50.807   4.121  1.00  0.00    +0.000 H 
ENDBRANCH    2    1
ENDBRANCH    3    2
BRANCH   12   13
ATOM     13  C12 UNL A   1      16.317  49.430   3.479  1.00  0.00    +0.000 C 
ATOM    103  H10 UNL A   1      15.757  50.273   3.133  1.00  0.00    +0.000 H 
ATOM    104  H11 UNL A   1      16.080  48.516   2.975  1.00  0.00    +0.000 H 
BRANCH   13   14
ATOM    105  H12 UNL A   1      18.269  48.788   2.871  1.00  0.00    +0.000 H 
ATOM    106  H13 UNL A   1      18.277  50.053   4.078  1.00  0.00    +0.000 H 
ATOM    107  H14 UNL A   1      17.885  50.432   2.418  1.00  0.00    +0.000 H 
ATOM     14  C13 UNL A   1      17.799  49.696   3.189  1.00  0.00    +0.000 C 
ENDBRANCH   13   14
ENDBRANCH   12   13
ENDBRANCH   15   12
ENDBRANCH   16   15
ENDBRANCH   18   16
ENDBRANCH   19   18
ENDBRANCH   20   19
ENDBRANCH   21   20
ENDBRANCH   22   21
ENDBRANCH   23   22
ENDBRANCH   24   23
ENDBRANCH   25   24
ENDBRANCH   26   25
ENDBRANCH   28   26
ENDBRANCH   32   31
BRANCH   36   37
ATOM     37  C31 UNL A   1       9.752  55.568  12.224  1.00  0.00    +0.000 C 
ATOM     38  C32 UNL A   1       9.982  56.956  12.107  1.00  0.00    +0.000 C 
ATOM     39  F1  UNL A   1      10.474  57.475  10.973  1.00  0.00    +0.000 F 
ATOM     40  C33 UNL A   1       9.796  57.832  13.183  1.00  0.00    +0.000 C 
ATOM     41  F2  UNL A   1      10.139  59.122  13.060  1.00  0.00    +0.000 F 
ATOM     42  C34 UNL A   1       9.325  57.365  14.395  1.00  0.00    +0.000 C 
ATOM     43  F3  UNL A   1       9.201  58.189  15.442  1.00  0.00    +0.000 F 
ATOM     44  C35 UNL A   1       9.026  56.026  14.529  1.00  0.00    +0.000 C 
ATOM     45  F4  UNL A   1       8.592  55.549  15.704  1.00  0.00    +0.000 F 
ATOM     46  C36 UNL A   1       9.252  55.142  13.474  1.00  0.00    +0.000 C 
ATOM     47  F5  UNL A   1       9.071  53.851  13.768  1.00  0.00    +0.000 F 
ENDBRANCH   36   37
BRANCH   53   54
ATOM     54  C42 UNL A   1      15.055  51.153  12.041  1.00  0.00    +0.000 C 
ATOM     55  C43 UNL A   1      14.812  50.098  11.150  1.00  0.00    +0.000 C 
ATOM     56  F6  UNL A   1      13.561  49.782  10.785  1.00  0.00    +0.000 F 
ATOM     57  C44 UNL A   1      15.868  49.383  10.588  1.00  0.00    +0.000 C 
ATOM     58  F7  UNL A   1      15.621  48.369   9.745  1.00  0.00    +0.000 F 
ATOM     59  C45 UNL A   1      17.180  49.734  10.874  1.00  0.00    +0.000 C 
ATOM     60  F8  UNL A   1      18.195  49.074  10.301  1.00  0.00    +0.000 F 
ATOM     61  C46 UNL A   1      17.439  50.786  11.736  1.00  0.00    +0.000 C 
ATOM     62  F9  UNL A   1      18.703  51.157  11.987  1.00  0.00    +0.000 F 
ATOM     63  C47 UNL A   1      16.388  51.478  12.326  1.00  0.00    +0.000 C 
ATOM     64  F10 UNL A   1      16.670  52.500  13.149  1.00  0.00    +0.000 F 
ENDBRANCH   53   54
BRANCH   68   69
ATOM     69  C51 UNL A   1      11.057  48.125  15.912  1.00  0.00    +0.000 C 
ATOM     70  C52 UNL A   1       9.838  48.421  16.548  1.00  0.00    +0.000 C 
ATOM     71  F11 UNL A   1       9.166  49.538  16.234  1.00  0.00    +0.000 F 
ATOM     72  C53 UNL A   1       9.245  47.530  17.449  1.00  0.00    +0.000 C 
ATOM     73  F12 UNL A   1       8.041  47.807  17.967  1.00  0.00    +0.000 F 
ATOM     74  C54 UNL A   1       9.862  46.328  17.750  1.00  0.00    +0.000 C 
ATOM     75  F13 UNL A   1       9.256  45.436  18.545  1.00  0.00    +0.000 F 
ATOM     76  C55 UNL A   1      11.091  46.034  17.185  1.00  0.00    +0.000 C 
ATOM     77  F14 UNL A   1      11.682  44.860  17.446  1.00  0.00    +0.000 F 
ATOM     78  C56 UNL A   1      11.682  46.921  16.283  1.00  0.00    +0.000 C 
ATOM     79  F15 UNL A   1      12.825  46.535  15.699  1.00  0.00    +0.000 F 
ENDBRANCH   68   69
TORSDOF 20
ENDMDL
MODEL 8
REMARK VINA RESULT:     -10.7      2.964      5.036
ROOT
ATOM    129  H36 UNL A   1      39.932  26.131  26.676  1.00  0.00    +0.000 H 
ATOM    130  H37 UNL A   1      40.328  28.402  27.764  1.00  0.00    +0.000 H 
ATOM    131  H38 UNL A   1      42.731  25.648  29.759  1.00  0.00    +0.000 H 
ATOM    132  H39 UNL A   1      42.459  22.409  30.110  1.00  0.00    +0.000 H 
ATOM    133  H40 UNL A   1      44.922  22.964  30.650  1.00  0.00    +0.000 H 
ATOM    134  H41 UNL A   1      42.549  27.550  34.695  1.00  0.00    +0.000 H 
ATOM    135  H42 UNL A   1      40.718  28.071  32.957  1.00  0.00    +0.000 H 
ATOM     32  C27 UNL A   1      41.768  28.218  30.269  1.00  0.00    +0.000 C 
ATOM     33  C28 UNL A   1      42.455  27.805  31.522  1.00  0.00    +0.000 C 
ATOM     34  N4  UNL A   1      43.715  27.553  31.660  1.00  0.00    +0.000 N 
ATOM     35  C29 UNL A   1      43.885  27.183  32.991  1.00  0.00    +0.000 C 
ATOM     36  C30 UNL A   1      44.916  26.365  33.339  1.00  0.00    +0.000 C 
ATOM     48  C37 UNL A   1      45.905  26.312  32.294  1.00  0.00    +0.000 C 
ATOM     49  C38 UNL A   1      46.977  27.065  31.871  1.00  0.00    +0.000 C 
ATOM     50  C39 UNL A   1      47.214  26.703  30.510  1.00  0.00    +0.000 C 
ATOM     51  C40 UNL A   1      46.304  25.717  30.146  1.00  0.00    +0.000 C 
ATOM     52  N5  UNL A   1      45.567  25.473  31.271  1.00  0.00    +0.000 N 
ATOM     53  C41 UNL A   1      45.867  25.168  28.886  1.00  0.00    +0.000 C 
ATOM     65  C48 UNL A   1      44.951  24.165  28.796  1.00  0.00    +0.000 C 
ATOM     66  N6  UNL A   1      44.056  24.127  27.750  1.00  0.00    +0.000 N 
ATOM     67  C49 UNL A   1      42.964  23.656  28.286  1.00  0.00    +0.000 C 
ATOM     68  C50 UNL A   1      41.612  24.030  27.816  1.00  0.00    +0.000 C 
ATOM     80  C57 UNL A   1      41.424  25.341  28.109  1.00  0.00    +0.000 C 
ATOM     81  C58 UNL A   1      40.565  26.316  27.469  1.00  0.00    +0.000 C 
ATOM     82  C59 UNL A   1      40.731  27.507  28.083  1.00  0.00    +0.000 C 
ATOM     83  C60 UNL A   1      41.568  27.334  29.269  1.00  0.00    +0.000 C 
ATOM     84  N7  UNL A   1      42.045  26.035  29.168  1.00  0.00    +0.000 N 
ATOM     85  C61 UNL A   1      43.129  22.974  29.565  1.00  0.00    +0.000 C 
ATOM     86  C62 UNL A   1      44.399  23.294  29.824  1.00  0.00    +0.000 C 
ATOM     87  C63 UNL A   1      42.668  27.539  33.670  1.00  0.00    +0.000 C 
ATOM     88  C64 UNL A   1      41.712  27.853  32.790  1.00  0.00    +0.000 C 
ATOM    126  H33 UNL A   1      47.506  27.754  32.428  1.00  0.00    +0.000 H 
ATOM    127  H34 UNL A   1      47.941  27.107  29.897  1.00  0.00    +0.000 H 
ATOM    128  H35 UNL A   1      44.875  24.775  31.336  1.00  0.00    +0.000 H 
ENDROOT
BRANCH   32   31
ATOM    136  H43 UNL A   1      39.415  29.376  31.043  1.00  0.00    +0.000 H 
ATOM    137  H44 UNL A   1      38.905  31.742  31.034  1.00  0.00    +0.000 H 
ATOM    124  H31 UNL A   1      42.828  32.604  29.834  1.00  0.00    +0.000 H 
ATOM    125  H32 UNL A   1      43.273  30.243  29.633  1.00  0.00    +0.000 H 
ATOM     89  C65 UNL A   1      40.120  30.057  30.721  1.00  0.00    +0.000 C 
ATOM     90  C66 UNL A   1      39.837  31.422  30.730  1.00  0.00    +0.000 C 
ATOM     28  C23 UNL A   1      40.796  32.374  30.335  1.00  0.00    +0.000 C 
ATOM     29  C24 UNL A   1      42.074  31.923  30.015  1.00  0.00    +0.000 C 
ATOM     30  C25 UNL A   1      42.342  30.564  29.939  1.00  0.00    +0.000 C 
ATOM     31  C26 UNL A   1      41.360  29.623  30.273  1.00  0.00    +0.000 C 
BRANCH   28   26
ATOM     26  C22 UNL A   1      40.333  33.787  30.242  1.00  0.00    +0.000 C 
ATOM     27  O2  UNL A   1      40.872  34.635  30.964  1.00  0.00    +0.000 O 
BRANCH   26   25
ATOM     25  N3  UNL A   1      39.299  34.219  29.457  1.00  0.00    +0.000 N 
ATOM    123  H30 UNL A   1      39.594  34.639  28.617  1.00  0.00    +0.000 H 
BRANCH   25   24
ATOM    121  H28 UNL A   1      37.628  33.881  30.606  1.00  0.00    +0.000 H 
ATOM    122  H29 UNL A   1      37.498  35.171  29.391  1.00  0.00    +0.000 H 
ATOM     24  C21 UNL A   1      37.858  34.187  29.607  1.00  0.00    +0.000 C 
BRANCH   24   23
ATOM    119  H26 UNL A   1      36.459  33.791  28.058  1.00  0.00    +0.000 H 
ATOM     23  C20 UNL A   1      37.165  33.228  28.634  1.00  0.00    +0.000 C 
ATOM    120  H27 UNL A   1      37.939  32.790  28.040  1.00  0.00    +0.000 H 
BRANCH   23   22
ATOM    118  H25 UNL A   1      35.413  32.394  29.439  1.00  0.00    +0.000 H 
ATOM    117  H24 UNL A   1      36.919  31.830  30.211  1.00  0.00    +0.000 H 
ATOM     22  C19 UNL A   1      36.421  32.067  29.294  1.00  0.00    +0.000 C 
BRANCH   22   21
ATOM    115  H22 UNL A   1      37.192  30.805  27.782  1.00  0.00    +0.000 H 
ATOM    116  H23 UNL A   1      36.356  29.983  29.129  1.00  0.00    +0.000 H 
ATOM     21  C18 UNL A   1      36.353  30.805  28.446  1.00  0.00    +0.000 C 
BRANCH   21   20
ATOM    113  H20 UNL A   1      34.335  31.321  28.019  1.00  0.00    +0.000 H 
ATOM    114  H21 UNL A   1      35.364  30.908  26.601  1.00  0.00    +0.000 H 
ATOM     20  C17 UNL A   1      35.072  30.667  27.602  1.00  0.00    +0.000 C 
BRANCH   20   19
ATOM     19  C16 UNL A   1      34.457  29.260  27.521  1.00  0.00    +0.000 C 
ATOM    111  H18 UNL A   1      35.219  28.551  27.771  1.00  0.00    +0.000 H 
ATOM    112  H19 UNL A   1      33.630  29.260  28.200  1.00  0.00    +0.000 H 
BRANCH   19   18
ATOM     18  N2  UNL A   1      33.910  28.892  26.221  1.00  0.00    +0.000 N 
ATOM    110  H17 UNL A   1      34.502  28.309  25.691  1.00  0.00    +0.000 H 
BRANCH   18   16
ATOM     17  O1  UNL A   1      31.767  29.488  26.303  1.00  0.00    +0.000 O 
ATOM     16  C15 UNL A   1      32.734  29.201  25.597  1.00  0.00    +0.000 C 
BRANCH   16   15
ATOM    108  H15 UNL A   1      31.892  29.865  23.803  1.00  0.00    +0.000 H 
ATOM    109  H16 UNL A   1      33.617  29.271  23.752  1.00  0.00    +0.000 H 
ATOM     15  C14 UNL A   1      32.612  29.128  24.092  1.00  0.00    +0.000 C 
BRANCH   15   12
ATOM      3  C3  UNL A   1      32.519  23.625  26.332  1.00  0.00    +0.000 C 
ATOM      4  C4  UNL A   1      31.508  22.849  26.948  1.00  0.00    +0.000 C 
ATOM      5  C5  UNL A   1      30.164  23.213  26.938  1.00  0.00    +0.000 C 
ATOM      6  C6  UNL A   1      29.761  24.361  26.274  1.00  0.00    +0.000 C 
ATOM      7  C7  UNL A   1      30.729  25.145  25.626  1.00  0.00    +0.000 C 
ATOM      8  C8  UNL A   1      30.629  26.261  24.776  1.00  0.00    +0.000 C 
ATOM      9  C9  UNL A   1      31.889  26.673  24.400  1.00  0.00    +0.000 C 
ATOM     10  N1  UNL A   1      32.768  25.779  24.973  1.00  0.00    +0.000 N 
ATOM     11  C10 UNL A   1      32.076  24.798  25.680  1.00  0.00    +0.000 C 
ATOM     12  C11 UNL A   1      32.190  27.798  23.425  1.00  0.00    +0.000 C 
ATOM    140  H47 UNL A   1      28.805  27.230  25.020  1.00  0.00    +0.000 H 
ATOM    141  H48 UNL A   1      28.860  26.071  23.705  1.00  0.00    +0.000 H 
ATOM    138  H45 UNL A   1      28.981  27.940  22.490  1.00  0.00    +0.000 H 
ATOM    139  H46 UNL A   1      29.771  28.829  23.858  1.00  0.00    +0.000 H 
ATOM     91  O3  UNL A   1      31.010  27.912  22.591  1.00  0.00    +0.000 O 
ATOM     92  C67 UNL A   1      29.733  27.948  23.251  1.00  0.00    +0.000 C 
ATOM     93  C68 UNL A   1      29.400  26.836  24.223  1.00  0.00    +0.000 C 
ATOM     99  H6  UNL A   1      31.778  21.976  27.426  1.00  0.00    +0.000 H 
ATOM    100  H7  UNL A   1      29.467  22.627  27.426  1.00  0.00    +0.000 H 
ATOM    101  H8  UNL A   1      28.766  24.635  26.256  1.00  0.00    +0.000 H 
ATOM    102  H9  UNL A   1      33.748  25.826  24.894  1.00  0.00    +0.000 H 
BRANCH    3    2
ATOM     97  H4  UNL A   1      34.094  22.503  25.511  1.00  0.00    +0.000 H 
ATOM      2  C2  UNL A   1      33.965  23.193  26.318  1.00  0.00    +0.000 C 
ATOM     98  H5  UNL A   1      34.533  24.095  26.222  1.00  0.00    +0.000 H 
BRANCH    2    1
ATOM      1  C1  UNL A   1      34.477  22.523  27.589  1.00  0.00    +0.000 C 
ATOM     94  H1  UNL A   1      35.520  22.310  27.486  1.00  0.00    +0.000 H 
ATOM     95  H2  UNL A   1      33.941  21.611  27.752  1.00  0.00    +0.000 H 
ATOM     96  H3  UNL A   1      34.327  23.178  28.422  1.00  0.00    +0.000 H 
ENDBRANCH    2    1
ENDBRANCH    3    2
BRANCH   12   13
ATOM     13  C12 UNL A   1      33.325  27.357  22.441  1.00  0.00    +0.000 C 
ATOM    103  H10 UNL A   1      32.877  27.153  21.492  1.00  0.00    +0.000 H 
ATOM    104  H11 UNL A   1      33.790  26.507  22.893  1.00  0.00    +0.000 H 
BRANCH   13   14
ATOM    105  H12 UNL A   1      34.037  29.269  21.785  1.00  0.00    +0.000 H 
ATOM    106  H13 UNL A   1      35.184  27.969  21.568  1.00  0.00    +0.000 H 
ATOM    107  H14 UNL A   1      34.896  28.623  23.163  1.00  0.00    +0.000 H 
ATOM     14  C13 UNL A   1      34.445  28.382  22.223  1.00  0.00    +0.000 C 
ENDBRANCH   13   14
ENDBRANCH   12   13
ENDBRANCH   15   12
ENDBRANCH   16   15
ENDBRANCH   18   16
ENDBRANCH   19   18
ENDBRANCH   20   19
ENDBRANCH   21   20
ENDBRANCH   22   21
ENDBRANCH   23   22
ENDBRANCH   24   23
ENDBRANCH   25   24
ENDBRANCH   26   25
ENDBRANCH   28   26
ENDBRANCH   32   31
BRANCH   36   37
ATOM     37  C31 UNL A   1      44.809  25.230  34.338  1.00  0.00    +0.000 C 
ATOM     38  C32 UNL A   1      45.533  25.313  35.547  1.00  0.00    +0.000 C 
ATOM     39  F1  UNL A   1      46.066  26.477  35.947  1.00  0.00    +0.000 F 
ATOM     40  C33 UNL A   1      45.802  24.185  36.331  1.00  0.00    +0.000 C 
ATOM     41  F2  UNL A   1      46.593  24.293  37.407  1.00  0.00    +0.000 F 
ATOM     42  C34 UNL A   1      45.315  22.945  35.964  1.00  0.00    +0.000 C 
ATOM     43  F3  UNL A   1      45.619  21.854  36.679  1.00  0.00    +0.000 F 
ATOM     44  C35 UNL A   1      44.549  22.833  34.824  1.00  0.00    +0.000 C 
ATOM     45  F4  UNL A   1      44.088  21.634  34.439  1.00  0.00    +0.000 F 
ATOM     46  C36 UNL A   1      44.316  23.947  34.018  1.00  0.00    +0.000 C 
ATOM     47  F5  UNL A   1      43.691  23.689  32.864  1.00  0.00    +0.000 F 
ENDBRANCH   36   37
BRANCH   53   54
ATOM     54  C42 UNL A   1      46.290  25.842  27.624  1.00  0.00    +0.000 C 
ATOM     55  C43 UNL A   1      45.657  26.966  27.073  1.00  0.00    +0.000 C 
ATOM     56  F6  UNL A   1      44.588  27.514  27.670  1.00  0.00    +0.000 F 
ATOM     57  C44 UNL A   1      46.150  27.565  25.915  1.00  0.00    +0.000 C 
ATOM     58  F7  UNL A   1      45.528  28.633  25.393  1.00  0.00    +0.000 F 
ATOM     59  C45 UNL A   1      47.303  27.080  25.315  1.00  0.00    +0.000 C 
ATOM     60  F8  UNL A   1      47.801  27.682  24.226  1.00  0.00    +0.000 F 
ATOM     61  C46 UNL A   1      47.953  25.984  25.856  1.00  0.00    +0.000 C 
ATOM     62  F9  UNL A   1      49.089  25.533  25.305  1.00  0.00    +0.000 F 
ATOM     63  C47 UNL A   1      47.444  25.362  26.990  1.00  0.00    +0.000 C 
ATOM     64  F10 UNL A   1      48.101  24.308  27.499  1.00  0.00    +0.000 F 
ENDBRANCH   53   54
BRANCH   68   69
ATOM     69  C51 UNL A   1      40.629  23.007  27.389  1.00  0.00    +0.000 C 
ATOM     70  C52 UNL A   1      39.315  23.371  27.045  1.00  0.00    +0.000 C 
ATOM     71  F11 UNL A   1      38.842  24.583  27.371  1.00  0.00    +0.000 F 
ATOM     72  C53 UNL A   1      38.496  22.531  26.283  1.00  0.00    +0.000 C 
ATOM     73  F12 UNL A   1      37.282  22.950  25.901  1.00  0.00    +0.000 F 
ATOM     74  C54 UNL A   1      38.964  21.300  25.857  1.00  0.00    +0.000 C 
ATOM     75  F13 UNL A   1      38.214  20.531  25.055  1.00  0.00    +0.000 F 
ATOM     76  C55 UNL A   1      40.232  20.888  26.229  1.00  0.00    +0.000 C 
ATOM     77  F14 UNL A   1      40.705  19.711  25.797  1.00  0.00    +0.000 F 
ATOM     78  C56 UNL A   1      41.051  21.727  26.987  1.00  0.00    +0.000 C 
ATOM     79  F15 UNL A   1      42.301  21.309  27.233  1.00  0.00    +0.000 F 
ENDBRANCH   68   69
TORSDOF 20
ENDMDL
MODEL 9
REMARK VINA RESULT:     -10.7     35.805     41.989
ROOT
ATOM    129  H36 UNL A   1      12.524  30.657   2.788  1.00  0.00    +0.000 H 
ATOM    130  H37 UNL A   1      10.231  29.555   2.931  1.00  0.00    +0.000 H 
ATOM    131  H38 UNL A   1      10.478  31.402  -0.793  1.00  0.00    +0.000 H 
ATOM    132  H39 UNL A   1      12.294  33.912  -1.836  1.00  0.00    +0.000 H 
ATOM    133  H40 UNL A   1      11.525  32.675  -3.968  1.00  0.00    +0.000 H 
ATOM    134  H41 UNL A   1       5.477  33.003  -1.452  1.00  0.00    +0.000 H 
ATOM    135  H42 UNL A   1       6.469  32.535   0.880  1.00  0.00    +0.000 H 
ATOM     32  C27 UNL A   1       8.432  30.415   0.830  1.00  0.00    +0.000 C 
ATOM     33  C28 UNL A   1       7.740  31.078  -0.307  1.00  0.00    +0.000 C 
ATOM     34  N4  UNL A   1       7.797  30.728  -1.550  1.00  0.00    +0.000 N 
ATOM     35  C29 UNL A   1       7.017  31.651  -2.241  1.00  0.00    +0.000 C 
ATOM     36  C30 UNL A   1       7.278  31.910  -3.551  1.00  0.00    +0.000 C 
ATOM     48  C37 UNL A   1       8.112  30.884  -4.122  1.00  0.00    +0.000 C 
ATOM     49  C38 UNL A   1       7.952  29.629  -4.664  1.00  0.00    +0.000 C 
ATOM     50  C39 UNL A   1       9.226  28.989  -4.587  1.00  0.00    +0.000 C 
ATOM     51  C40 UNL A   1      10.139  29.880  -4.032  1.00  0.00    +0.000 C 
ATOM     52  N5  UNL A   1       9.435  31.031  -3.816  1.00  0.00    +0.000 N 
ATOM     53  C41 UNL A   1      11.456  29.743  -3.461  1.00  0.00    +0.000 C 
ATOM     65  C48 UNL A   1      12.170  30.803  -2.992  1.00  0.00    +0.000 C 
ATOM     66  N6  UNL A   1      12.995  30.660  -1.898  1.00  0.00    +0.000 N 
ATOM     67  C49 UNL A   1      12.887  31.799  -1.270  1.00  0.00    +0.000 C 
ATOM     68  C50 UNL A   1      13.005  31.922   0.199  1.00  0.00    +0.000 C 
ATOM     80  C57 UNL A   1      11.937  31.294   0.750  1.00  0.00    +0.000 C 
ATOM     81  C58 UNL A   1      11.799  30.681   2.055  1.00  0.00    +0.000 C 
ATOM     82  C59 UNL A   1      10.562  30.148   2.154  1.00  0.00    +0.000 C 
ATOM     83  C60 UNL A   1       9.767  30.539   0.992  1.00  0.00    +0.000 C 
ATOM     84  N7  UNL A   1      10.681  31.132   0.132  1.00  0.00    +0.000 N 
ATOM     85  C61 UNL A   1      12.348  32.905  -2.054  1.00  0.00    +0.000 C 
ATOM     86  C62 UNL A   1      11.945  32.234  -3.135  1.00  0.00    +0.000 C 
ATOM     87  C63 UNL A   1       6.268  32.373  -1.247  1.00  0.00    +0.000 C 
ATOM     88  C64 UNL A   1       6.738  32.116  -0.024  1.00  0.00    +0.000 C 
ATOM    126  H33 UNL A   1       7.082  29.229  -5.050  1.00  0.00    +0.000 H 
ATOM    127  H34 UNL A   1       9.436  28.026  -4.893  1.00  0.00    +0.000 H 
ATOM    128  H35 UNL A   1       9.834  31.866  -3.480  1.00  0.00    +0.000 H 
ENDROOT
BRANCH   32   31
ATOM    136  H43 UNL A   1       7.741  30.822   3.445  1.00  0.00    +0.000 H 
ATOM    137  H44 UNL A   1       6.174  29.508   4.739  1.00  0.00    +0.000 H 
ATOM    124  H31 UNL A   1       5.251  27.228   1.345  1.00  0.00    +0.000 H 
ATOM    125  H32 UNL A   1       6.965  28.391   0.111  1.00  0.00    +0.000 H 
ATOM     89  C65 UNL A   1       7.262  30.015   3.015  1.00  0.00    +0.000 C 
ATOM     90  C66 UNL A   1       6.346  29.266   3.752  1.00  0.00    +0.000 C 
ATOM     28  C23 UNL A   1       5.649  28.186   3.176  1.00  0.00    +0.000 C 
ATOM     29  C24 UNL A   1       5.833  27.936   1.819  1.00  0.00    +0.000 C 
ATOM     30  C25 UNL A   1       6.790  28.634   1.098  1.00  0.00    +0.000 C 
ATOM     31  C26 UNL A   1       7.525  29.665   1.698  1.00  0.00    +0.000 C 
BRANCH   28   26
ATOM     26  C22 UNL A   1       4.812  27.367   4.098  1.00  0.00    +0.000 C 
ATOM     27  O2  UNL A   1       4.512  27.838   5.202  1.00  0.00    +0.000 O 
BRANCH   26   25
ATOM     25  N3  UNL A   1       4.397  26.087   3.845  1.00  0.00    +0.000 N 
ATOM    123  H30 UNL A   1       3.643  26.038   3.214  1.00  0.00    +0.000 H 
BRANCH   25   24
ATOM    121  H28 UNL A   1       5.281  24.911   5.280  1.00  0.00    +0.000 H 
ATOM    122  H29 UNL A   1       3.976  24.156   4.339  1.00  0.00    +0.000 H 
ATOM     24  C21 UNL A   1       4.838  24.790   4.314  1.00  0.00    +0.000 C 
BRANCH   24   23
ATOM    119  H26 UNL A   1       5.589  23.094   3.278  1.00  0.00    +0.000 H 
ATOM     23  C20 UNL A   1       5.863  24.122   3.390  1.00  0.00    +0.000 C 
ATOM    120  H27 UNL A   1       5.839  24.668   2.470  1.00  0.00    +0.000 H 
BRANCH   23   22
ATOM    118  H25 UNL A   1       7.301  24.763   4.781  1.00  0.00    +0.000 H 
ATOM    117  H24 UNL A   1       7.910  24.608   3.111  1.00  0.00    +0.000 H 
ATOM     22  C19 UNL A   1       7.307  24.179   3.885  1.00  0.00    +0.000 C 
BRANCH   22   21
ATOM    115  H22 UNL A   1       8.542  22.960   5.095  1.00  0.00    +0.000 H 
ATOM    116  H23 UNL A   1       7.068  22.180   4.456  1.00  0.00    +0.000 H 
ATOM     21  C18 UNL A   1       7.897  22.824   4.252  1.00  0.00    +0.000 C 
BRANCH   21   20
ATOM    113  H20 UNL A   1       8.015  21.784   2.402  1.00  0.00    +0.000 H 
ATOM    114  H21 UNL A   1       9.373  22.906   2.767  1.00  0.00    +0.000 H 
ATOM     20  C17 UNL A   1       8.708  22.151   3.130  1.00  0.00    +0.000 C 
BRANCH   20   19
ATOM     19  C16 UNL A   1       9.610  20.978   3.549  1.00  0.00    +0.000 C 
ATOM    111  H18 UNL A   1      10.273  21.328   4.313  1.00  0.00    +0.000 H 
ATOM    112  H19 UNL A   1       8.951  20.200   3.875  1.00  0.00    +0.000 H 
BRANCH   19   18
ATOM     18  N2  UNL A   1      10.418  20.400   2.483  1.00  0.00    +0.000 N 
ATOM    110  H17 UNL A   1      10.156  19.482   2.238  1.00  0.00    +0.000 H 
BRANCH   18   16
ATOM     17  O1  UNL A   1      11.282  21.131   0.566  1.00  0.00    +0.000 O 
ATOM     16  C15 UNL A   1      11.470  20.886   1.758  1.00  0.00    +0.000 C 
BRANCH   16   15
ATOM    108  H15 UNL A   1      12.799  20.564   3.338  1.00  0.00    +0.000 H 
ATOM    109  H16 UNL A   1      13.499  20.646   1.655  1.00  0.00    +0.000 H 
ATOM     15  C14 UNL A   1      12.833  21.054   2.387  1.00  0.00    +0.000 C 
BRANCH   15   12
ATOM      3  C3  UNL A   1       9.968  26.251   2.675  1.00  0.00    +0.000 C 
ATOM      4  C4  UNL A   1       9.443  27.008   3.750  1.00  0.00    +0.000 C 
ATOM      5  C5  UNL A   1       9.733  26.727   5.084  1.00  0.00    +0.000 C 
ATOM      6  C6  UNL A   1      10.597  25.692   5.403  1.00  0.00    +0.000 C 
ATOM      7  C7  UNL A   1      11.160  24.933   4.365  1.00  0.00    +0.000 C 
ATOM      8  C8  UNL A   1      12.148  23.933   4.352  1.00  0.00    +0.000 C 
ATOM      9  C9  UNL A   1      12.348  23.495   3.062  1.00  0.00    +0.000 C 
ATOM     10  N1  UNL A   1      11.523  24.261   2.267  1.00  0.00    +0.000 N 
ATOM     11  C10 UNL A   1      10.829  25.191   3.038  1.00  0.00    +0.000 C 
ATOM     12  C11 UNL A   1      13.390  22.476   2.633  1.00  0.00    +0.000 C 
ATOM    140  H47 UNL A   1      12.349  23.052   6.225  1.00  0.00    +0.000 H 
ATOM    141  H48 UNL A   1      13.477  24.352   5.892  1.00  0.00    +0.000 H 
ATOM    138  H45 UNL A   1      14.879  22.635   5.625  1.00  0.00    +0.000 H 
ATOM    139  H46 UNL A   1      13.519  21.546   5.126  1.00  0.00    +0.000 H 
ATOM     91  O3  UNL A   1      14.425  22.531   3.647  1.00  0.00    +0.000 O 
ATOM     92  C67 UNL A   1      14.006  22.493   5.022  1.00  0.00    +0.000 C 
ATOM     93  C68 UNL A   1      12.975  23.501   5.482  1.00  0.00    +0.000 C 
ATOM     99  H6  UNL A   1       8.819  27.801   3.538  1.00  0.00    +0.000 H 
ATOM    100  H7  UNL A   1       9.304  27.292   5.834  1.00  0.00    +0.000 H 
ATOM    101  H8  UNL A   1      10.821  25.481   6.388  1.00  0.00    +0.000 H 
ATOM    102  H9  UNL A   1      11.436  24.165   1.291  1.00  0.00    +0.000 H 
BRANCH    3    2
ATOM     97  H4  UNL A   1       9.172  27.539   1.219  1.00  0.00    +0.000 H 
ATOM      2  C2  UNL A   1       9.675  26.595   1.235  1.00  0.00    +0.000 C 
ATOM     98  H5  UNL A   1      10.624  26.593   0.741  1.00  0.00    +0.000 H 
BRANCH    2    1
ATOM      1  C1  UNL A   1       8.813  25.596   0.469  1.00  0.00    +0.000 C 
ATOM     94  H1  UNL A   1       8.681  25.936  -0.537  1.00  0.00    +0.000 H 
ATOM     95  H2  UNL A   1       7.859  25.509   0.945  1.00  0.00    +0.000 H 
ATOM     96  H3  UNL A   1       9.297  24.641   0.462  1.00  0.00    +0.000 H 
ENDBRANCH    2    1
ENDBRANCH    3    2
BRANCH   12   13
ATOM     13  C12 UNL A   1      14.099  22.961   1.323  1.00  0.00    +0.000 C 
ATOM    103  H10 UNL A   1      13.898  24.005   1.208  1.00  0.00    +0.000 H 
ATOM    104  H11 UNL A   1      13.704  22.354   0.535  1.00  0.00    +0.000 H 
BRANCH   13   14
ATOM    105  H12 UNL A   1      16.102  23.720   1.286  1.00  0.00    +0.000 H 
ATOM    106  H13 UNL A   1      15.886  22.233   0.393  1.00  0.00    +0.000 H 
ATOM    107  H14 UNL A   1      15.929  22.205   2.140  1.00  0.00    +0.000 H 
ATOM     14  C13 UNL A   1      15.619  22.765   1.283  1.00  0.00    +0.000 C 
ENDBRANCH   13   14
ENDBRANCH   12   13
ENDBRANCH   15   12
ENDBRANCH   16   15
ENDBRANCH   18   16
ENDBRANCH   19   18
ENDBRANCH   20   19
ENDBRANCH   21   20
ENDBRANCH   22   21
ENDBRANCH   23   22
ENDBRANCH   24   23
ENDBRANCH   25   24
ENDBRANCH   26   25
ENDBRANCH   28   26
ENDBRANCH   32   31
BRANCH   36   37
ATOM     37  C31 UNL A   1       7.244  33.292  -4.175  1.00  0.00    +0.000 C 
ATOM     38  C32 UNL A   1       8.081  34.299  -3.647  1.00  0.00    +0.000 C 
ATOM     39  F1  UNL A   1       9.090  33.988  -2.820  1.00  0.00    +0.000 F 
ATOM     40  C33 UNL A   1       7.848  35.658  -3.886  1.00  0.00    +0.000 C 
ATOM     41  F2  UNL A   1       8.597  36.582  -3.269  1.00  0.00    +0.000 F 
ATOM     42  C34 UNL A   1       6.806  36.059  -4.700  1.00  0.00    +0.000 C 
ATOM     43  F3  UNL A   1       6.544  37.359  -4.884  1.00  0.00    +0.000 F 
ATOM     44  C35 UNL A   1       6.005  35.102  -5.287  1.00  0.00    +0.000 C 
ATOM     45  F4  UNL A   1       4.974  35.471  -6.060  1.00  0.00    +0.000 F 
ATOM     46  C36 UNL A   1       6.207  33.749  -5.016  1.00  0.00    +0.000 C 
ATOM     47  F5  UNL A   1       5.280  32.927  -5.517  1.00  0.00    +0.000 F 
ENDBRANCH   36   37
BRANCH   53   54
ATOM     54  C42 UNL A   1      11.988  28.373  -3.203  1.00  0.00    +0.000 C 
ATOM     55  C43 UNL A   1      11.781  27.650  -2.019  1.00  0.00    +0.000 C 
ATOM     56  F6  UNL A   1      11.071  28.175  -1.010  1.00  0.00    +0.000 F 
ATOM     57  C44 UNL A   1      12.271  26.353  -1.882  1.00  0.00    +0.000 C 
ATOM     58  F7  UNL A   1      12.075  25.677  -0.740  1.00  0.00    +0.000 F 
ATOM     59  C45 UNL A   1      12.938  25.743  -2.934  1.00  0.00    +0.000 C 
ATOM     60  F8  UNL A   1      13.373  24.481  -2.818  1.00  0.00    +0.000 F 
ATOM     61  C46 UNL A   1      13.135  26.434  -4.119  1.00  0.00    +0.000 C 
ATOM     62  F9  UNL A   1      13.743  25.839  -5.155  1.00  0.00    +0.000 F 
ATOM     63  C47 UNL A   1      12.678  27.740  -4.246  1.00  0.00    +0.000 C 
ATOM     64  F10 UNL A   1      12.873  28.381  -5.409  1.00  0.00    +0.000 F 
ENDBRANCH   53   54
BRANCH   68   69
ATOM     69  C51 UNL A   1      13.990  32.835   0.824  1.00  0.00    +0.000 C 
ATOM     70  C52 UNL A   1      13.573  33.860   1.691  1.00  0.00    +0.000 C 
ATOM     71  F11 UNL A   1      12.280  34.216   1.744  1.00  0.00    +0.000 F 
ATOM     72  C53 UNL A   1      14.458  34.472   2.585  1.00  0.00    +0.000 C 
ATOM     73  F12 UNL A   1      14.003  35.382   3.457  1.00  0.00    +0.000 F 
ATOM     74  C54 UNL A   1      15.787  34.088   2.623  1.00  0.00    +0.000 C 
ATOM     75  F13 UNL A   1      16.617  34.611   3.536  1.00  0.00    +0.000 F 
ATOM     76  C55 UNL A   1      16.242  33.123   1.741  1.00  0.00    +0.000 C 
ATOM     77  F14 UNL A   1      17.520  32.722   1.791  1.00  0.00    +0.000 F 
ATOM     78  C56 UNL A   1      15.359  32.509   0.851  1.00  0.00    +0.000 C 
ATOM     79  F15 UNL A   1      15.841  31.517   0.090  1.00  0.00    +0.000 F 
ENDBRANCH   68   69
TORSDOF 20
ENDMDL
MODEL 10
REMARK VINA RESULT:     -10.7     37.441     44.937
ROOT
ATOM    129  H36 UNL A   1      14.554  32.819  -2.589  1.00  0.00    +0.000 H 
ATOM    130  H37 UNL A   1      13.157  32.781  -4.720  1.00  0.00    +0.000 H 
ATOM    131  H38 UNL A   1      12.457  29.193  -2.727  1.00  0.00    +0.000 H 
ATOM    132  H39 UNL A   1      14.269  27.543  -0.563  1.00  0.00    +0.000 H 
ATOM    133  H40 UNL A   1      11.866  26.636  -0.295  1.00  0.00    +0.000 H 
ATOM    134  H41 UNL A   1      11.894  25.871  -6.809  1.00  0.00    +0.000 H 
ATOM    135  H42 UNL A   1      13.178  28.096  -7.020  1.00  0.00    +0.000 H 
ATOM     32  C27 UNL A   1      12.082  30.159  -5.318  1.00  0.00    +0.000 C 
ATOM     33  C28 UNL A   1      11.729  28.716  -5.387  1.00  0.00    +0.000 C 
ATOM     34  N4  UNL A   1      10.753  28.134  -4.773  1.00  0.00    +0.000 N 
ATOM     35  C29 UNL A   1      10.834  26.788  -5.118  1.00  0.00    +0.000 C 
ATOM     36  C30 UNL A   1      10.339  25.842  -4.274  1.00  0.00    +0.000 C 
ATOM     48  C37 UNL A   1       9.457  26.433  -3.300  1.00  0.00    +0.000 C 
ATOM     49  C38 UNL A   1       8.140  26.824  -3.228  1.00  0.00    +0.000 C 
ATOM     50  C39 UNL A   1       8.053  27.760  -2.153  1.00  0.00    +0.000 C 
ATOM     51  C40 UNL A   1       9.311  27.891  -1.574  1.00  0.00    +0.000 C 
ATOM     52  N5  UNL A   1      10.118  27.031  -2.265  1.00  0.00    +0.000 N 
ATOM     53  C41 UNL A   1       9.909  28.846  -0.675  1.00  0.00    +0.000 C 
ATOM     65  C48 UNL A   1      11.190  28.738  -0.228  1.00  0.00    +0.000 C 
ATOM     66  N6  UNL A   1      11.951  29.864  -0.007  1.00  0.00    +0.000 N 
ATOM     67  C49 UNL A   1      13.155  29.506  -0.359  1.00  0.00    +0.000 C 
ATOM     68  C50 UNL A   1      14.140  30.451  -0.930  1.00  0.00    +0.000 C 
ATOM     80  C57 UNL A   1      13.685  30.830  -2.149  1.00  0.00    +0.000 C 
ATOM     81  C58 UNL A   1      13.942  32.047  -2.892  1.00  0.00    +0.000 C 
ATOM     82  C59 UNL A   1      13.248  32.002  -4.050  1.00  0.00    +0.000 C 
ATOM     83  C60 UNL A   1      12.644  30.680  -4.207  1.00  0.00    +0.000 C 
ATOM     84  N7  UNL A   1      12.849  30.059  -2.982  1.00  0.00    +0.000 N 
ATOM     85  C61 UNL A   1      13.389  28.069  -0.443  1.00  0.00    +0.000 C 
ATOM     86  C62 UNL A   1      12.133  27.633  -0.320  1.00  0.00    +0.000 C 
ATOM     87  C63 UNL A   1      11.755  26.708  -6.220  1.00  0.00    +0.000 C 
ATOM     88  C64 UNL A   1      12.406  27.864  -6.376  1.00  0.00    +0.000 C 
ATOM    126  H33 UNL A   1       7.366  26.505  -3.833  1.00  0.00    +0.000 H 
ATOM    127  H34 UNL A   1       7.199  28.256  -1.854  1.00  0.00    +0.000 H 
ATOM    128  H35 UNL A   1      11.062  26.861  -2.042  1.00  0.00    +0.000 H 
ENDROOT
BRANCH   32   31
ATOM    136  H43 UNL A   1      13.526  30.469  -7.620  1.00  0.00    +0.000 H 
ATOM    137  H44 UNL A   1      12.834  31.678  -9.600  1.00  0.00    +0.000 H 
ATOM    124  H31 UNL A   1       9.080  32.392  -7.877  1.00  0.00    +0.000 H 
ATOM    125  H32 UNL A   1       9.840  31.377  -5.826  1.00  0.00    +0.000 H 
ATOM     89  C65 UNL A   1      12.605  30.935  -7.648  1.00  0.00    +0.000 C 
ATOM     90  C66 UNL A   1      12.196  31.618  -8.792  1.00  0.00    +0.000 C 
ATOM     28  C23 UNL A   1      10.929  32.227  -8.870  1.00  0.00    +0.000 C 
ATOM     29  C24 UNL A   1      10.053  32.056  -7.801  1.00  0.00    +0.000 C 
ATOM     30  C25 UNL A   1      10.477  31.436  -6.636  1.00  0.00    +0.000 C 
ATOM     31  C26 UNL A   1      11.763  30.889  -6.545  1.00  0.00    +0.000 C 
BRANCH   28   26
ATOM     26  C22 UNL A   1      10.661  33.056 -10.079  1.00  0.00    +0.000 C 
ATOM     27  O2  UNL A   1      11.350  32.868 -11.089  1.00  0.00    +0.000 O 
BRANCH   26   25
ATOM     25  N3  UNL A   1       9.743  34.069 -10.143  1.00  0.00    +0.000 N 
ATOM    123  H30 UNL A   1       8.965  33.858 -10.708  1.00  0.00    +0.000 H 
BRANCH   25   24
ATOM    121  H28 UNL A   1      10.673  35.784  -9.494  1.00  0.00    +0.000 H 
ATOM    122  H29 UNL A   1       9.044  35.983 -10.176  1.00  0.00    +0.000 H 
ATOM     24  C21 UNL A   1       9.680  35.390  -9.552  1.00  0.00    +0.000 C 
BRANCH   24   23
ATOM    119  H26 UNL A   1       9.587  34.673  -7.554  1.00  0.00    +0.000 H 
ATOM     23  C20 UNL A   1       9.071  35.400  -8.146  1.00  0.00    +0.000 C 
ATOM    120  H27 UNL A   1       9.181  36.399  -7.778  1.00  0.00    +0.000 H 
BRANCH   23   22
ATOM    118  H25 UNL A   1       7.339  34.920  -7.059  1.00  0.00    +0.000 H 
ATOM    117  H24 UNL A   1       7.392  34.228  -8.701  1.00  0.00    +0.000 H 
ATOM     22  C19 UNL A   1       7.577  35.085  -8.088  1.00  0.00    +0.000 C 
BRANCH   22   21
ATOM    115  H22 UNL A   1       5.808  36.236  -7.947  1.00  0.00    +0.000 H 
ATOM    116  H23 UNL A   1       7.261  37.112  -8.503  1.00  0.00    +0.000 H 
ATOM     21  C18 UNL A   1       6.679  36.217  -8.568  1.00  0.00    +0.000 C 
BRANCH   21   20
ATOM    113  H20 UNL A   1       6.839  36.749 -10.620  1.00  0.00    +0.000 H 
ATOM    114  H21 UNL A   1       6.315  35.061 -10.277  1.00  0.00    +0.000 H 
ATOM     20  C17 UNL A   1       6.223  36.099 -10.033  1.00  0.00    +0.000 C 
BRANCH   20   19
ATOM     19  C16 UNL A   1       4.756  36.458 -10.323  1.00  0.00    +0.000 C 
ATOM    111  H18 UNL A   1       4.738  37.417 -10.797  1.00  0.00    +0.000 H 
ATOM    112  H19 UNL A   1       4.374  35.668 -10.936  1.00  0.00    +0.000 H 
BRANCH   19   18
ATOM     18  N2  UNL A   1       3.885  36.517  -9.155  1.00  0.00    +0.000 N 
ATOM    110  H17 UNL A   1       3.843  37.407  -8.735  1.00  0.00    +0.000 H 
BRANCH   18   16
ATOM     17  O1  UNL A   1       3.334  34.390  -8.795  1.00  0.00    +0.000 O 
ATOM     16  C15 UNL A   1       3.117  35.574  -8.532  1.00  0.00    +0.000 C 
BRANCH   16   15
ATOM    108  H15 UNL A   1       1.552  36.858  -8.015  1.00  0.00    +0.000 H 
ATOM    109  H16 UNL A   1       1.383  35.101  -7.554  1.00  0.00    +0.000 H 
ATOM     15  C14 UNL A   1       1.997  35.977  -7.602  1.00  0.00    +0.000 C 
BRANCH   15   12
ATOM      3  C3  UNL A   1       6.655  34.343  -4.295  1.00  0.00    +0.000 C 
ATOM      4  C4  UNL A   1       7.883  34.971  -3.977  1.00  0.00    +0.000 C 
ATOM      5  C5  UNL A   1       8.137  36.313  -4.247  1.00  0.00    +0.000 C 
ATOM      6  C6  UNL A   1       7.153  37.104  -4.817  1.00  0.00    +0.000 C 
ATOM      7  C7  UNL A   1       5.910  36.527  -5.124  1.00  0.00    +0.000 C 
ATOM      8  C8  UNL A   1       4.696  37.077  -5.571  1.00  0.00    +0.000 C 
ATOM      9  C9  UNL A   1       3.762  36.075  -5.726  1.00  0.00    +0.000 C 
ATOM     10  N1  UNL A   1       4.382  34.912  -5.324  1.00  0.00    +0.000 N 
ATOM     11  C10 UNL A   1       5.681  35.174  -4.893  1.00  0.00    +0.000 C 
ATOM     12  C11 UNL A   1       2.309  36.283  -6.118  1.00  0.00    +0.000 C 
ATOM    140  H47 UNL A   1       4.995  38.926  -6.474  1.00  0.00    +0.000 H 
ATOM    141  H48 UNL A   1       4.550  38.991  -4.779  1.00  0.00    +0.000 H 
ATOM    138  H45 UNL A   1       2.582  39.584  -5.649  1.00  0.00    +0.000 H 
ATOM    139  H46 UNL A   1       2.924  38.654  -7.167  1.00  0.00    +0.000 H 
ATOM     91  O3  UNL A   1       1.992  37.641  -5.723  1.00  0.00    +0.000 O 
ATOM     92  C67 UNL A   1       2.921  38.673  -6.097  1.00  0.00    +0.000 C 
ATOM     93  C68 UNL A   1       4.375  38.499  -5.713  1.00  0.00    +0.000 C 
ATOM     99  H6  UNL A   1       8.622  34.411  -3.527  1.00  0.00    +0.000 H 
ATOM    100  H7  UNL A   1       9.059  36.719  -4.021  1.00  0.00    +0.000 H 
ATOM    101  H8  UNL A   1       7.330  38.102  -5.015  1.00  0.00    +0.000 H 
ATOM    102  H9  UNL A   1       3.966  34.020  -5.338  1.00  0.00    +0.000 H 
BRANCH    3    2
ATOM     97  H4  UNL A   1       6.333  32.812  -2.893  1.00  0.00    +0.000 H 
ATOM      2  C2  UNL A   1       6.383  32.897  -3.958  1.00  0.00    +0.000 C 
ATOM     98  H5  UNL A   1       5.472  32.651  -4.462  1.00  0.00    +0.000 H 
BRANCH    2    1
ATOM      1  C1  UNL A   1       7.412  31.887  -4.458  1.00  0.00    +0.000 C 
ATOM     94  H1  UNL A   1       8.106  32.377  -5.108  1.00  0.00    +0.000 H 
ATOM     95  H2  UNL A   1       6.913  31.106  -4.993  1.00  0.00    +0.000 H 
ATOM     96  H3  UNL A   1       7.936  31.471  -3.624  1.00  0.00    +0.000 H 
ENDBRANCH    2    1
ENDBRANCH    3    2
BRANCH   12   13
ATOM     13  C12 UNL A   1       1.386  35.388  -5.225  1.00  0.00    +0.000 C 
ATOM    103  H10 UNL A   1       0.589  36.001  -4.858  1.00  0.00    +0.000 H 
ATOM    104  H11 UNL A   1       2.017  34.992  -4.457  1.00  0.00    +0.000 H 
BRANCH   13   14
ATOM    105  H12 UNL A   1       0.566  34.415  -6.950  1.00  0.00    +0.000 H 
ATOM    106  H13 UNL A   1      -0.152  33.912  -5.438  1.00  0.00    +0.000 H 
ATOM    107  H14 UNL A   1       1.442  33.349  -5.877  1.00  0.00    +0.000 H 
ATOM     14  C13 UNL A   1       0.764  34.174  -5.925  1.00  0.00    +0.000 C 
ENDBRANCH   13   14
ENDBRANCH   12   13
ENDBRANCH   15   12
ENDBRANCH   16   15
ENDBRANCH   18   16
ENDBRANCH   19   18
ENDBRANCH   20   19
ENDBRANCH   21   20
ENDBRANCH   22   21
ENDBRANCH   23   22
ENDBRANCH   24   23
ENDBRANCH   25   24
ENDBRANCH   26   25
ENDBRANCH   28   26
ENDBRANCH   32   31
BRANCH   36   37
ATOM     37  C31 UNL A   1      11.018  24.520  -3.976  1.00  0.00    +0.000 C 
ATOM     38  C32 UNL A   1      12.338  24.528  -3.475  1.00  0.00    +0.000 C 
ATOM     39  F1  UNL A   1      12.881  25.657  -2.995  1.00  0.00    +0.000 F 
ATOM     40  C33 UNL A   1      13.163  23.399  -3.537  1.00  0.00    +0.000 C 
ATOM     41  F2  UNL A   1      14.445  23.488  -3.158  1.00  0.00    +0.000 F 
ATOM     42  C34 UNL A   1      12.685  22.209  -4.051  1.00  0.00    +0.000 C 
ATOM     43  F3  UNL A   1      13.487  21.144  -4.166  1.00  0.00    +0.000 F 
ATOM     44  C35 UNL A   1      11.380  22.142  -4.490  1.00  0.00    +0.000 C 
ATOM     45  F4  UNL A   1      10.905  21.004  -5.015  1.00  0.00    +0.000 F 
ATOM     46  C36 UNL A   1      10.569  23.277  -4.471  1.00  0.00    +0.000 C 
ATOM     47  F5  UNL A   1       9.378  23.132  -5.060  1.00  0.00    +0.000 F 
ENDBRANCH   36   37
BRANCH   53   54
ATOM     54  C42 UNL A   1       9.164  30.101  -0.362  1.00  0.00    +0.000 C 
ATOM     55  C43 UNL A   1       9.255  31.285  -1.107  1.00  0.00    +0.000 C 
ATOM     56  F6  UNL A   1      10.055  31.361  -2.181  1.00  0.00    +0.000 F 
ATOM     57  C44 UNL A   1       8.484  32.398  -0.775  1.00  0.00    +0.000 C 
ATOM     58  F7  UNL A   1       8.589  33.528  -1.490  1.00  0.00    +0.000 F 
ATOM     59  C45 UNL A   1       7.582  32.332   0.278  1.00  0.00    +0.000 C 
ATOM     60  F8  UNL A   1       6.810  33.387   0.571  1.00  0.00    +0.000 F 
ATOM     61  C46 UNL A   1       7.464  31.164   1.013  1.00  0.00    +0.000 C 
ATOM     62  F9  UNL A   1       6.567  31.080   2.006  1.00  0.00    +0.000 F 
ATOM     63  C47 UNL A   1       8.257  30.066   0.706  1.00  0.00    +0.000 C 
ATOM     64  F10 UNL A   1       8.113  28.944   1.429  1.00  0.00    +0.000 F 
ENDBRANCH   53   54
BRANCH   68   69
ATOM     69  C51 UNL A   1      15.476  30.640  -0.318  1.00  0.00    +0.000 C 
ATOM     70  C52 UNL A   1      16.634  30.159  -0.956  1.00  0.00    +0.000 C 
ATOM     71  F11 UNL A   1      16.534  29.278  -1.963  1.00  0.00    +0.000 F 
ATOM     72  C53 UNL A   1      17.906  30.643  -0.631  1.00  0.00    +0.000 C 
ATOM     73  F12 UNL A   1      18.975  30.224  -1.322  1.00  0.00    +0.000 F 
ATOM     74  C54 UNL A   1      18.055  31.608   0.350  1.00  0.00    +0.000 C 
ATOM     75  F13 UNL A   1      19.261  32.135   0.602  1.00  0.00    +0.000 F 
ATOM     76  C55 UNL A   1      16.941  32.059   1.036  1.00  0.00    +0.000 C 
ATOM     77  F14 UNL A   1      17.072  33.015   1.966  1.00  0.00    +0.000 F 
ATOM     78  C56 UNL A   1      15.671  31.579   0.711  1.00  0.00    +0.000 C 
ATOM     79  F15 UNL A   1      14.625  32.125   1.346  1.00  0.00    +0.000 F 
ENDBRANCH   68   69
TORSDOF 20
ENDMDL
