MODEL 1
REMARK VINA RESULT:      -8.4      0.000      0.000
ROOT
ATOM    131  H30 UNL A   1      46.849  29.451  31.065  1.00  0.00    +0.000 H 
ATOM    132  H31 UNL A   1      45.375  29.466  33.280  1.00  0.00    +0.000 H 
ATOM    133  H32 UNL A   1      44.284  32.569  30.942  1.00  0.00    +0.000 H 
ATOM    134  H33 UNL A   1      37.490  28.133  30.347  1.00  0.00    +0.000 H 
ATOM    135  H34 UNL A   1      39.204  26.375  29.670  1.00  0.00    +0.000 H 
ATOM    136  H35 UNL A   1      41.280  29.921  30.298  1.00  0.00    +0.000 H 
ATOM    137  H36 UNL A   1      40.100  32.993  29.688  1.00  0.00    +0.000 H 
ATOM    138  H37 UNL A   1      42.445  33.146  30.747  1.00  0.00    +0.000 H 
ATOM    139  H38 UNL A   1      44.730  29.774  26.271  1.00  0.00    +0.000 H 
ATOM    140  H39 UNL A   1      42.650  28.264  26.250  1.00  0.00    +0.000 H 
ATOM     41  C30 UNL A   1      41.732  27.549  28.877  1.00  0.00    +0.000 C 
ATOM     42  C31 UNL A   1      42.876  28.442  28.502  1.00  0.00    +0.000 C 
ATOM     43  N9  UNL A   1      43.725  29.036  29.280  1.00  0.00    +0.000 N 
ATOM     44  C32 UNL A   1      44.508  29.845  28.454  1.00  0.00    +0.000 C 
ATOM     45  C33 UNL A   1      45.180  30.928  28.937  1.00  0.00    +0.000 C 
ATOM     57  C40 UNL A   1      45.351  30.851  30.362  1.00  0.00    +0.000 C 
ATOM     58  C41 UNL A   1      45.987  29.992  31.235  1.00  0.00    +0.000 C 
ATOM     59  C42 UNL A   1      45.198  30.011  32.423  1.00  0.00    +0.000 C 
ATOM     60  C43 UNL A   1      44.144  30.904  32.218  1.00  0.00    +0.000 C 
ATOM     61  N10 UNL A   1      44.539  31.637  31.134  1.00  0.00    +0.000 N 
ATOM     62  C44 UNL A   1      42.831  31.011  32.808  1.00  0.00    +0.000 C 
ATOM     74  C51 UNL A   1      41.777  31.661  32.235  1.00  0.00    +0.000 C 
ATOM     75  N11 UNL A   1      40.479  31.248  32.485  1.00  0.00    +0.000 N 
ATOM     76  C52 UNL A   1      39.825  31.534  31.393  1.00  0.00    +0.000 C 
ATOM     77  C53 UNL A   1      38.698  30.727  30.874  1.00  0.00    +0.000 C 
ATOM     89  C60 UNL A   1      39.200  29.533  30.484  1.00  0.00    +0.000 C 
ATOM     90  C61 UNL A   1      38.503  28.291  30.230  1.00  0.00    +0.000 C 
ATOM     91  C62 UNL A   1      39.400  27.378  29.817  1.00  0.00    +0.000 C 
ATOM     92  C63 UNL A   1      40.699  28.024  29.610  1.00  0.00    +0.000 C 
ATOM     93  N12 UNL A   1      40.545  29.282  30.156  1.00  0.00    +0.000 N 
ATOM     94  C64 UNL A   1      40.469  32.496  30.513  1.00  0.00    +0.000 C 
ATOM     95  C65 UNL A   1      41.675  32.547  31.083  1.00  0.00    +0.000 C 
ATOM     96  C66 UNL A   1      44.204  29.462  27.102  1.00  0.00    +0.000 C 
ATOM     97  C67 UNL A   1      43.148  28.649  27.068  1.00  0.00    +0.000 C 
ENDROOT
BRANCH   41   40
ATOM    129  H28 UNL A   1      39.939  24.776  25.689  1.00  0.00    +0.000 H 
ATOM     98  C68 UNL A   1      42.286  25.143  28.687  1.00  0.00    +0.000 C 
ATOM     99  C69 UNL A   1      42.124  23.910  28.092  1.00  0.00    +0.000 C 
ATOM    130  H29 UNL A   1      40.369  26.981  26.626  1.00  0.00    +0.000 H 
ATOM     37  C26 UNL A   1      41.197  23.770  27.061  1.00  0.00    +0.000 C 
ATOM     38  C27 UNL A   1      40.571  24.885  26.498  1.00  0.00    +0.000 C 
ATOM     39  C28 UNL A   1      40.808  26.145  27.043  1.00  0.00    +0.000 C 
ATOM     40  C29 UNL A   1      41.648  26.271  28.156  1.00  0.00    +0.000 C 
ATOM    141  H40 UNL A   1      42.882  25.235  29.525  1.00  0.00    +0.000 H 
ATOM    142  H41 UNL A   1      42.680  23.100  28.407  1.00  0.00    +0.000 H 
BRANCH   37   35
ATOM     35  C25 UNL A   1      40.834  22.417  26.601  1.00  0.00    +0.000 C 
ATOM     36  O3  UNL A   1      39.815  21.884  26.994  1.00  0.00    +0.000 O 
BRANCH   35   34
ATOM     34  N8  UNL A   1      41.691  21.767  25.732  1.00  0.00    +0.000 N 
ATOM    128  H27 UNL A   1      41.443  21.772  24.780  1.00  0.00    +0.000 H 
BRANCH   34   33
ATOM     33  C24 UNL A   1      42.928  21.072  26.082  1.00  0.00    +0.000 C 
ATOM    126  H25 UNL A   1      43.149  21.253  27.112  1.00  0.00    +0.000 H 
ATOM    127  H26 UNL A   1      42.788  20.027  25.900  1.00  0.00    +0.000 H 
BRANCH   33   32
ATOM    124  H23 UNL A   1      44.881  20.828  25.294  1.00  0.00    +0.000 H 
ATOM    125  H24 UNL A   1      43.729  21.672  24.233  1.00  0.00    +0.000 H 
ATOM     32  C23 UNL A   1      44.096  21.553  25.231  1.00  0.00    +0.000 C 
BRANCH   32   31
ATOM    122  H21 UNL A   1      44.275  23.128  26.645  1.00  0.00    +0.000 H 
ATOM    123  H22 UNL A   1      45.722  22.815  25.631  1.00  0.00    +0.000 H 
ATOM     31  C22 UNL A   1      44.657  22.913  25.669  1.00  0.00    +0.000 C 
BRANCH   31   30
ATOM    121  H20 UNL A   1      43.337  23.904  24.371  1.00  0.00    +0.000 H 
ATOM     30  C21 UNL A   1      44.316  24.103  24.757  1.00  0.00    +0.000 C 
ATOM    120  H19 UNL A   1      45.073  24.168  24.003  1.00  0.00    +0.000 H 
BRANCH   30   29
ATOM     29  C20 UNL A   1      44.224  25.469  25.455  1.00  0.00    +0.000 C 
ATOM    118  H17 UNL A   1      43.269  25.898  25.232  1.00  0.00    +0.000 H 
ATOM    119  H18 UNL A   1      44.359  25.295  26.502  1.00  0.00    +0.000 H 
BRANCH   29   28
ATOM    116  H15 UNL A   1      45.168  26.708  23.990  1.00  0.00    +0.000 H 
ATOM     28  C19 UNL A   1      45.312  26.456  25.020  1.00  0.00    +0.000 C 
ATOM    117  H16 UNL A   1      45.244  27.337  25.623  1.00  0.00    +0.000 H 
BRANCH   28   27
ATOM     27  N7  UNL A   1      46.623  25.864  25.191  1.00  0.00    +0.000 N 
ATOM    115  H14 UNL A   1      47.018  25.552  24.345  1.00  0.00    +0.000 H 
BRANCH   27   25
ATOM     25  C18 UNL A   1      47.430  25.642  26.276  1.00  0.00    +0.000 C 
ATOM     26  O2  UNL A   1      48.569  25.231  26.046  1.00  0.00    +0.000 O 
BRANCH   25   24
ATOM    100  C70 UNL A   1      47.177  26.944  28.471  1.00  0.00    +0.000 C 
ATOM    101  C71 UNL A   1      46.612  27.038  29.749  1.00  0.00    +0.000 C 
ATOM    143  H42 UNL A   1      47.734  27.730  28.101  1.00  0.00    +0.000 H 
ATOM    144  H43 UNL A   1      46.684  27.917  30.284  1.00  0.00    +0.000 H 
ATOM    113  H12 UNL A   1      45.480  23.892  30.037  1.00  0.00    +0.000 H 
ATOM    114  H13 UNL A   1      46.278  23.809  27.747  1.00  0.00    +0.000 H 
ATOM     21  C14 UNL A   1      45.948  25.935  30.300  1.00  0.00    +0.000 C 
ATOM     22  C15 UNL A   1      45.884  24.733  29.597  1.00  0.00    +0.000 C 
ATOM     23  C16 UNL A   1      46.374  24.682  28.288  1.00  0.00    +0.000 C 
ATOM     24  C17 UNL A   1      46.995  25.797  27.695  1.00  0.00    +0.000 C 
BRANCH   21   20
ATOM      2  C2  UNL A   1      45.955  25.758  32.813  1.00  0.00    +0.000 C 
ATOM      3  C3  UNL A   1      44.878  25.779  33.676  1.00  0.00    +0.000 C 
ATOM     18  N4  UNL A   1      43.750  26.166  33.015  1.00  0.00    +0.000 N 
ATOM     19  N5  UNL A   1      44.084  26.393  31.749  1.00  0.00    +0.000 N 
ATOM     20  N6  UNL A   1      45.376  26.022  31.586  1.00  0.00    +0.000 N 
BRANCH    2    1
ATOM      1  C1  UNL A   1      47.407  25.654  33.084  1.00  0.00    +0.000 C 
ATOM    102  H1  UNL A   1      47.740  26.539  33.588  1.00  0.00    +0.000 H 
ATOM    103  H2  UNL A   1      47.937  25.549  32.161  1.00  0.00    +0.000 H 
ATOM    104  H3  UNL A   1      47.595  24.800  33.701  1.00  0.00    +0.000 H 
ENDBRANCH    2    1
BRANCH    3    4
ATOM      4  C4  UNL A   1      44.884  25.537  35.113  1.00  0.00    +0.000 C 
ATOM      5  N1  UNL A   1      45.280  26.469  35.989  1.00  0.00    +0.000 N 
ATOM      6  N2  UNL A   1      45.328  25.818  37.172  1.00  0.00    +0.000 N 
ATOM     13  C11 UNL A   1      44.928  24.507  37.054  1.00  0.00    +0.000 C 
ATOM     14  C12 UNL A   1      44.574  24.304  35.733  1.00  0.00    +0.000 C 
ATOM    110  H9  UNL A   1      44.896  23.807  37.811  1.00  0.00    +0.000 H 
BRANCH    6    7
ATOM      7  C5  UNL A   1      45.775  26.473  38.343  1.00  0.00    +0.000 C 
ATOM      8  C6  UNL A   1      45.295  27.755  38.634  1.00  0.00    +0.000 C 
ATOM      9  C7  UNL A   1      45.704  28.397  39.802  1.00  0.00    +0.000 C 
ATOM    105  H4  UNL A   1      44.641  28.223  37.988  1.00  0.00    +0.000 H 
ATOM     11  C9  UNL A   1      47.136  26.523  40.338  1.00  0.00    +0.000 C 
ATOM     12  C10 UNL A   1      46.691  25.848  39.199  1.00  0.00    +0.000 C 
ATOM    109  H8  UNL A   1      47.034  24.898  38.991  1.00  0.00    +0.000 H 
ATOM     10  C8  UNL A   1      46.632  27.787  40.647  1.00  0.00    +0.000 C 
ATOM    106  H5  UNL A   1      45.320  29.325  40.044  1.00  0.00    +0.000 H 
ATOM    108  H7  UNL A   1      47.839  26.085  40.953  1.00  0.00    +0.000 H 
ATOM    107  H6  UNL A   1      46.947  28.272  41.502  1.00  0.00    +0.000 H 
ENDBRANCH    6    7
BRANCH   14   15
ATOM    111  H10 UNL A   1      43.907  22.263  35.827  1.00  0.00    +0.000 H 
ATOM     15  C13 UNL A   1      44.027  23.079  35.209  1.00  0.00    +0.000 C 
BRANCH   15   16
ATOM     16  N3  UNL A   1      43.688  23.002  33.964  1.00  0.00    +0.000 N 
BRANCH   16   17
ATOM     17  O1  UNL A   1      44.762  22.489  33.225  1.00  0.00    +0.000 O 
ATOM    112  H11 UNL A   1      44.848  21.564  33.103  1.00  0.00    +0.000 H 
ENDBRANCH   16   17
ENDBRANCH   15   16
ENDBRANCH   14   15
ENDBRANCH    3    4
ENDBRANCH   21   20
ENDBRANCH   25   24
ENDBRANCH   27   25
ENDBRANCH   28   27
ENDBRANCH   29   28
ENDBRANCH   30   29
ENDBRANCH   31   30
ENDBRANCH   32   31
ENDBRANCH   33   32
ENDBRANCH   34   33
ENDBRANCH   35   34
ENDBRANCH   37   35
ENDBRANCH   41   40
BRANCH   45   46
ATOM     46  C34 UNL A   1      45.333  32.244  28.195  1.00  0.00    +0.000 C 
ATOM     47  C35 UNL A   1      44.177  32.981  27.857  1.00  0.00    +0.000 C 
ATOM     48  F1  UNL A   1      42.994  32.696  28.423  1.00  0.00    +0.000 F 
ATOM     49  C36 UNL A   1      44.184  33.955  26.854  1.00  0.00    +0.000 C 
ATOM     50  F2  UNL A   1      43.033  34.527  26.472  1.00  0.00    +0.000 F 
ATOM     51  C37 UNL A   1      45.356  34.278  26.199  1.00  0.00    +0.000 C 
ATOM     52  F3  UNL A   1      45.354  35.161  25.191  1.00  0.00    +0.000 F 
ATOM     53  C38 UNL A   1      46.525  33.644  26.561  1.00  0.00    +0.000 C 
ATOM     54  F4  UNL A   1      47.671  33.934  25.927  1.00  0.00    +0.000 F 
ATOM     55  C39 UNL A   1      46.512  32.633  27.523  1.00  0.00    +0.000 C 
ATOM     56  F5  UNL A   1      47.672  31.987  27.683  1.00  0.00    +0.000 F 
ENDBRANCH   45   46
BRANCH   62   63
ATOM     65  F6  UNL A   1      41.633  28.339  32.700  1.00  0.00    +0.000 F 
ATOM     66  C47 UNL A   1      41.786  28.056  35.021  1.00  0.00    +0.000 C 
ATOM     67  F7  UNL A   1      41.215  26.849  34.907  1.00  0.00    +0.000 F 
ATOM     68  C48 UNL A   1      42.221  28.499  36.260  1.00  0.00    +0.000 C 
ATOM     69  F8  UNL A   1      42.079  27.720  37.342  1.00  0.00    +0.000 F 
ATOM     70  C49 UNL A   1      42.828  29.740  36.373  1.00  0.00    +0.000 C 
ATOM     71  F9  UNL A   1      43.297  30.151  37.559  1.00  0.00    +0.000 F 
ATOM     72  C50 UNL A   1      42.975  30.552  35.253  1.00  0.00    +0.000 C 
ATOM     73  F10 UNL A   1      43.584  31.741  35.393  1.00  0.00    +0.000 F 
ATOM     63  C45 UNL A   1      42.543  30.130  33.988  1.00  0.00    +0.000 C 
ATOM     64  C46 UNL A   1      41.971  28.851  33.892  1.00  0.00    +0.000 C 
ENDBRANCH   62   63
BRANCH   77   78
ATOM     78  C54 UNL A   1      37.353  31.284  30.623  1.00  0.00    +0.000 C 
ATOM     79  C55 UNL A   1      36.459  31.534  31.675  1.00  0.00    +0.000 C 
ATOM     80  F11 UNL A   1      36.737  31.098  32.912  1.00  0.00    +0.000 F 
ATOM     81  C56 UNL A   1      35.299  32.289  31.485  1.00  0.00    +0.000 C 
ATOM     82  F12 UNL A   1      34.498  32.557  32.525  1.00  0.00    +0.000 F 
ATOM     83  C57 UNL A   1      34.997  32.808  30.235  1.00  0.00    +0.000 C 
ATOM     84  F13 UNL A   1      33.912  33.578  30.066  1.00  0.00    +0.000 F 
ATOM     85  C58 UNL A   1      35.845  32.560  29.173  1.00  0.00    +0.000 C 
ATOM     86  F14 UNL A   1      35.582  33.085  27.967  1.00  0.00    +0.000 F 
ATOM     87  C59 UNL A   1      37.008  31.815  29.365  1.00  0.00    +0.000 C 
ATOM     88  F15 UNL A   1      37.838  31.697  28.318  1.00  0.00    +0.000 F 
ENDBRANCH   77   78
TORSDOF 22
ENDMDL
MODEL 2
REMARK VINA RESULT:      -8.2     30.597     36.373
ROOT
ATOM    131  H30 UNL A   1      28.300  16.030   6.484  1.00  0.00    +0.000 H 
ATOM    132  H31 UNL A   1      26.478  14.111   6.763  1.00  0.00    +0.000 H 
ATOM    133  H32 UNL A   1      25.476  17.239   9.107  1.00  0.00    +0.000 H 
ATOM    134  H33 UNL A   1      19.392  17.734   3.729  1.00  0.00    +0.000 H 
ATOM    135  H34 UNL A   1      21.373  17.732   2.128  1.00  0.00    +0.000 H 
ATOM    136  H35 UNL A   1      22.923  17.664   5.984  1.00  0.00    +0.000 H 
ATOM    137  H36 UNL A   1      21.545  19.135   8.655  1.00  0.00    +0.000 H 
ATOM    138  H37 UNL A   1      23.646  17.821   9.362  1.00  0.00    +0.000 H 
ATOM    139  H38 UNL A   1      27.002  21.017   5.469  1.00  0.00    +0.000 H 
ATOM    140  H39 UNL A   1      25.128  20.977   3.710  1.00  0.00    +0.000 H 
ATOM     41  C30 UNL A   1      23.859  18.413   3.452  1.00  0.00    +0.000 C 
ATOM     42  C31 UNL A   1      24.948  18.820   4.396  1.00  0.00    +0.000 C 
ATOM     43  N9  UNL A   1      25.586  18.091   5.258  1.00  0.00    +0.000 N 
ATOM     44  C32 UNL A   1      26.407  18.964   5.974  1.00  0.00    +0.000 C 
ATOM     45  C33 UNL A   1      26.868  18.658   7.219  1.00  0.00    +0.000 C 
ATOM     57  C40 UNL A   1      26.803  17.245   7.473  1.00  0.00    +0.000 C 
ATOM     58  C41 UNL A   1      27.369  16.115   6.921  1.00  0.00    +0.000 C 
ATOM     59  C42 UNL A   1      26.392  15.088   7.082  1.00  0.00    +0.000 C 
ATOM     60  C43 UNL A   1      25.300  15.643   7.751  1.00  0.00    +0.000 C 
ATOM     61  N10 UNL A   1      25.792  16.801   8.284  1.00  0.00    +0.000 N 
ATOM     62  C44 UNL A   1      23.902  15.285   7.794  1.00  0.00    +0.000 C 
ATOM     74  C51 UNL A   1      22.897  16.137   8.150  1.00  0.00    +0.000 C 
ATOM     75  N11 UNL A   1      21.627  15.984   7.621  1.00  0.00    +0.000 N 
ATOM     76  C52 UNL A   1      21.141  17.193   7.571  1.00  0.00    +0.000 C 
ATOM     77  C53 UNL A   1      20.211  17.662   6.520  1.00  0.00    +0.000 C 
ATOM     89  C60 UNL A   1      20.895  17.687   5.354  1.00  0.00    +0.000 C 
ATOM     90  C61 UNL A   1      20.387  17.740   4.001  1.00  0.00    +0.000 C 
ATOM     91  C62 UNL A   1      21.433  17.797   3.157  1.00  0.00    +0.000 C 
ATOM     92  C63 UNL A   1      22.672  17.965   3.921  1.00  0.00    +0.000 C 
ATOM     93  N12 UNL A   1      22.295  17.755   5.232  1.00  0.00    +0.000 N 
ATOM     94  C64 UNL A   1      21.818  18.173   8.403  1.00  0.00    +0.000 C 
ATOM     95  C65 UNL A   1      22.898  17.467   8.746  1.00  0.00    +0.000 C 
ATOM     96  C66 UNL A   1      26.379  20.219   5.271  1.00  0.00    +0.000 C 
ATOM     97  C67 UNL A   1      25.436  20.211   4.329  1.00  0.00    +0.000 C 
ENDROOT
BRANCH   41   40
ATOM    129  H28 UNL A   1      22.932  21.079  -0.167  1.00  0.00    +0.000 H 
ATOM     98  C68 UNL A   1      24.694  17.957   1.165  1.00  0.00    +0.000 C 
ATOM     99  C69 UNL A   1      24.766  18.263  -0.177  1.00  0.00    +0.000 C 
ATOM    130  H29 UNL A   1      22.959  20.634   2.226  1.00  0.00    +0.000 H 
ATOM     37  C26 UNL A   1      24.045  19.351  -0.665  1.00  0.00    +0.000 C 
ATOM     38  C27 UNL A   1      23.405  20.239   0.202  1.00  0.00    +0.000 C 
ATOM     39  C28 UNL A   1      23.411  19.977   1.570  1.00  0.00    +0.000 C 
ATOM     40  C29 UNL A   1      24.034  18.819   2.050  1.00  0.00    +0.000 C 
ATOM    141  H40 UNL A   1      25.128  17.089   1.519  1.00  0.00    +0.000 H 
ATOM    142  H41 UNL A   1      25.347  17.694  -0.813  1.00  0.00    +0.000 H 
BRANCH   37   35
ATOM     35  C25 UNL A   1      23.912  19.527  -2.123  1.00  0.00    +0.000 C 
ATOM     36  O3  UNL A   1      23.916  18.564  -2.864  1.00  0.00    +0.000 O 
BRANCH   35   34
ATOM     34  N8  UNL A   1      23.805  20.812  -2.623  1.00  0.00    +0.000 N 
ATOM    128  H27 UNL A   1      23.221  21.430  -2.128  1.00  0.00    +0.000 H 
BRANCH   34   33
ATOM     33  C24 UNL A   1      24.468  21.346  -3.809  1.00  0.00    +0.000 C 
ATOM    126  H25 UNL A   1      24.111  20.824  -4.672  1.00  0.00    +0.000 H 
ATOM    127  H26 UNL A   1      24.245  22.390  -3.877  1.00  0.00    +0.000 H 
BRANCH   33   32
ATOM    124  H23 UNL A   1      26.318  21.640  -2.814  1.00  0.00    +0.000 H 
ATOM    125  H24 UNL A   1      26.186  20.135  -3.753  1.00  0.00    +0.000 H 
ATOM     32  C23 UNL A   1      25.980  21.185  -3.722  1.00  0.00    +0.000 C 
BRANCH   32   31
ATOM    122  H21 UNL A   1      27.026  21.042  -5.565  1.00  0.00    +0.000 H 
ATOM    123  H22 UNL A   1      26.062  22.537  -5.322  1.00  0.00    +0.000 H 
ATOM     31  C22 UNL A   1      26.737  21.825  -4.894  1.00  0.00    +0.000 C 
BRANCH   31   30
ATOM    121  H20 UNL A   1      28.810  21.921  -4.574  1.00  0.00    +0.000 H 
ATOM     30  C21 UNL A   1      28.000  22.619  -4.522  1.00  0.00    +0.000 C 
ATOM    120  H19 UNL A   1      27.851  23.037  -3.549  1.00  0.00    +0.000 H 
BRANCH   30   29
ATOM     29  C20 UNL A   1      28.369  23.764  -5.479  1.00  0.00    +0.000 C 
ATOM    118  H17 UNL A   1      27.955  24.672  -5.093  1.00  0.00    +0.000 H 
ATOM    119  H18 UNL A   1      29.437  23.794  -5.534  1.00  0.00    +0.000 H 
BRANCH   29   28
ATOM    116  H15 UNL A   1      28.682  23.436  -7.568  1.00  0.00    +0.000 H 
ATOM     28  C19 UNL A   1      27.851  23.563  -6.907  1.00  0.00    +0.000 C 
ATOM    117  H16 UNL A   1      27.227  22.695  -6.933  1.00  0.00    +0.000 H 
BRANCH   28   27
ATOM     27  N7  UNL A   1      27.078  24.715  -7.325  1.00  0.00    +0.000 N 
ATOM    115  H14 UNL A   1      27.636  25.499  -7.533  1.00  0.00    +0.000 H 
BRANCH   27   25
ATOM     25  C18 UNL A   1      25.738  24.949  -7.492  1.00  0.00    +0.000 C 
ATOM     26  O2  UNL A   1      25.258  24.670  -8.593  1.00  0.00    +0.000 O 
BRANCH   25   24
ATOM    100  C70 UNL A   1      24.184  26.791  -6.616  1.00  0.00    +0.000 C 
ATOM    101  C71 UNL A   1      23.274  27.230  -5.645  1.00  0.00    +0.000 C 
ATOM    143  H42 UNL A   1      24.356  27.371  -7.452  1.00  0.00    +0.000 H 
ATOM    144  H43 UNL A   1      22.722  28.086  -5.802  1.00  0.00    +0.000 H 
ATOM    113  H12 UNL A   1      23.850  24.883  -3.315  1.00  0.00    +0.000 H 
ATOM    114  H13 UNL A   1      25.263  24.022  -5.090  1.00  0.00    +0.000 H 
ATOM     21  C14 UNL A   1      23.118  26.502  -4.459  1.00  0.00    +0.000 C 
ATOM     22  C15 UNL A   1      23.893  25.367  -4.225  1.00  0.00    +0.000 C 
ATOM     23  C16 UNL A   1      24.729  24.893  -5.241  1.00  0.00    +0.000 C 
ATOM     24  C17 UNL A   1      24.859  25.578  -6.463  1.00  0.00    +0.000 C 
BRANCH   21   20
ATOM      2  C2  UNL A   1      22.391  27.864  -2.468  1.00  0.00    +0.000 C 
ATOM      3  C3  UNL A   1      21.263  27.706  -1.689  1.00  0.00    +0.000 C 
ATOM     18  N4  UNL A   1      20.400  26.831  -2.277  1.00  0.00    +0.000 N 
ATOM     19  N5  UNL A   1      20.952  26.427  -3.416  1.00  0.00    +0.000 N 
ATOM     20  N6  UNL A   1      22.205  26.937  -3.476  1.00  0.00    +0.000 N 
BRANCH    2    1
ATOM      1  C1  UNL A   1      23.480  28.866  -2.399  1.00  0.00    +0.000 C 
ATOM    102  H1  UNL A   1      23.068  29.848  -2.509  1.00  0.00    +0.000 H 
ATOM    103  H2  UNL A   1      24.183  28.684  -3.185  1.00  0.00    +0.000 H 
ATOM    104  H3  UNL A   1      23.975  28.790  -1.453  1.00  0.00    +0.000 H 
ENDBRANCH    2    1
BRANCH    3    4
ATOM      4  C4  UNL A   1      20.925  28.412  -0.459  1.00  0.00    +0.000 C 
ATOM      5  N1  UNL A   1      19.921  29.295  -0.398  1.00  0.00    +0.000 N 
ATOM      6  N2  UNL A   1      20.046  29.864   0.820  1.00  0.00    +0.000 N 
ATOM     13  C11 UNL A   1      21.087  29.319   1.537  1.00  0.00    +0.000 C 
ATOM     14  C12 UNL A   1      21.647  28.326   0.755  1.00  0.00    +0.000 C 
ATOM    110  H9  UNL A   1      21.391  29.598   2.483  1.00  0.00    +0.000 H 
BRANCH    6    7
ATOM      7  C5  UNL A   1      19.186  30.909   1.225  1.00  0.00    +0.000 C 
ATOM      8  C6  UNL A   1      18.504  30.800   2.443  1.00  0.00    +0.000 C 
ATOM      9  C7  UNL A   1      17.678  31.840   2.868  1.00  0.00    +0.000 C 
ATOM    105  H4  UNL A   1      18.613  29.954   3.024  1.00  0.00    +0.000 H 
ATOM     11  C9  UNL A   1      18.141  33.051   0.827  1.00  0.00    +0.000 C 
ATOM     12  C10 UNL A   1      19.014  32.040   0.417  1.00  0.00    +0.000 C 
ATOM    109  H8  UNL A   1      19.527  32.126  -0.475  1.00  0.00    +0.000 H 
ATOM     10  C8  UNL A   1      17.487  32.958   2.056  1.00  0.00    +0.000 C 
ATOM    106  H5  UNL A   1      17.206  31.783   3.785  1.00  0.00    +0.000 H 
ATOM    108  H7  UNL A   1      17.980  33.869   0.218  1.00  0.00    +0.000 H 
ATOM    107  H6  UNL A   1      16.861  33.719   2.364  1.00  0.00    +0.000 H 
ENDBRANCH    6    7
BRANCH   14   15
ATOM    111  H10 UNL A   1      23.697  27.712   0.959  1.00  0.00    +0.000 H 
ATOM     15  C13 UNL A   1      22.720  27.460   1.171  1.00  0.00    +0.000 C 
BRANCH   15   16
ATOM     16  N3  UNL A   1      22.459  26.367   1.811  1.00  0.00    +0.000 N 
BRANCH   16   17
ATOM     17  O1  UNL A   1      21.127  26.005   1.580  1.00  0.00    +0.000 O 
ATOM    112  H11 UNL A   1      20.820  25.879   0.703  1.00  0.00    +0.000 H 
ENDBRANCH   16   17
ENDBRANCH   15   16
ENDBRANCH   14   15
ENDBRANCH    3    4
ENDBRANCH   21   20
ENDBRANCH   25   24
ENDBRANCH   27   25
ENDBRANCH   28   27
ENDBRANCH   29   28
ENDBRANCH   30   29
ENDBRANCH   31   30
ENDBRANCH   32   31
ENDBRANCH   33   32
ENDBRANCH   34   33
ENDBRANCH   35   34
ENDBRANCH   37   35
ENDBRANCH   41   40
BRANCH   45   46
ATOM     46  C34 UNL A   1      27.004  19.658   8.354  1.00  0.00    +0.000 C 
ATOM     47  C35 UNL A   1      28.121  19.573   9.214  1.00  0.00    +0.000 C 
ATOM     48  F1  UNL A   1      29.188  18.832   8.878  1.00  0.00    +0.000 F 
ATOM     49  C36 UNL A   1      28.128  20.159  10.484  1.00  0.00    +0.000 C 
ATOM     50  F2  UNL A   1      29.152  19.932  11.318  1.00  0.00    +0.000 F 
ATOM     51  C37 UNL A   1      27.049  20.906  10.915  1.00  0.00    +0.000 C 
ATOM     52  F3  UNL A   1      27.021  21.411  12.157  1.00  0.00    +0.000 F 
ATOM     53  C38 UNL A   1      25.975  21.087  10.071  1.00  0.00    +0.000 C 
ATOM     54  F4  UNL A   1      24.913  21.798  10.478  1.00  0.00    +0.000 F 
ATOM     55  C39 UNL A   1      25.942  20.460   8.825  1.00  0.00    +0.000 C 
ATOM     56  F5  UNL A   1      24.790  20.583   8.157  1.00  0.00    +0.000 F 
ENDBRANCH   45   46
BRANCH   62   63
ATOM     65  F6  UNL A   1      23.891  14.726   4.918  1.00  0.00    +0.000 F 
ATOM     66  C47 UNL A   1      23.214  12.506   5.241  1.00  0.00    +0.000 C 
ATOM     67  F7  UNL A   1      23.210  12.319   3.913  1.00  0.00    +0.000 F 
ATOM     68  C48 UNL A   1      22.938  11.444   6.087  1.00  0.00    +0.000 C 
ATOM     69  F8  UNL A   1      22.675  10.231   5.582  1.00  0.00    +0.000 F 
ATOM     70  C49 UNL A   1      22.961  11.635   7.460  1.00  0.00    +0.000 C 
ATOM     71  F9  UNL A   1      22.745  10.600   8.284  1.00  0.00    +0.000 F 
ATOM     72  C50 UNL A   1      23.231  12.893   7.987  1.00  0.00    +0.000 C 
ATOM     73  F10 UNL A   1      23.264  13.040   9.322  1.00  0.00    +0.000 F 
ATOM     63  C45 UNL A   1      23.513  13.985   7.155  1.00  0.00    +0.000 C 
ATOM     64  C46 UNL A   1      23.527  13.756   5.769  1.00  0.00    +0.000 C 
ENDBRANCH   62   63
BRANCH   77   78
ATOM     78  C54 UNL A   1      18.876  18.224   6.814  1.00  0.00    +0.000 C 
ATOM     79  C55 UNL A   1      18.441  19.419   6.221  1.00  0.00    +0.000 C 
ATOM     80  F11 UNL A   1      19.299  20.174   5.521  1.00  0.00    +0.000 F 
ATOM     81  C56 UNL A   1      17.105  19.823   6.286  1.00  0.00    +0.000 C 
ATOM     82  F12 UNL A   1      16.714  20.941   5.659  1.00  0.00    +0.000 F 
ATOM     83  C57 UNL A   1      16.169  19.047   6.952  1.00  0.00    +0.000 C 
ATOM     84  F13 UNL A   1      14.878  19.408   6.967  1.00  0.00    +0.000 F 
ATOM     85  C58 UNL A   1      16.570  17.876   7.567  1.00  0.00    +0.000 C 
ATOM     86  F14 UNL A   1      15.668  17.100   8.185  1.00  0.00    +0.000 F 
ATOM     87  C59 UNL A   1      17.901  17.468   7.494  1.00  0.00    +0.000 C 
ATOM     88  F15 UNL A   1      18.204  16.273   8.023  1.00  0.00    +0.000 F 
ENDBRANCH   77   78
TORSDOF 22
ENDMDL
MODEL 3
REMARK VINA RESULT:      -8.0      1.539      2.512
ROOT
ATOM    131  H30 UNL A   1      46.600  30.030  30.932  1.00  0.00    +0.000 H 
ATOM    132  H31 UNL A   1      45.135  29.972  33.154  1.00  0.00    +0.000 H 
ATOM    133  H32 UNL A   1      43.926  33.057  30.850  1.00  0.00    +0.000 H 
ATOM    134  H33 UNL A   1      37.290  28.392  30.238  1.00  0.00    +0.000 H 
ATOM    135  H34 UNL A   1      39.061  26.701  29.538  1.00  0.00    +0.000 H 
ATOM    136  H35 UNL A   1      41.015  30.312  30.192  1.00  0.00    +0.000 H 
ATOM    137  H36 UNL A   1      39.726  33.345  29.615  1.00  0.00    +0.000 H 
ATOM    138  H37 UNL A   1      42.068  33.571  30.667  1.00  0.00    +0.000 H 
ATOM    139  H38 UNL A   1      44.451  30.323  26.150  1.00  0.00    +0.000 H 
ATOM    140  H39 UNL A   1      42.425  28.741  26.123  1.00  0.00    +0.000 H 
ATOM     41  C30 UNL A   1      41.543  27.970  28.746  1.00  0.00    +0.000 C 
ATOM     42  C31 UNL A   1      42.653  28.906  28.376  1.00  0.00    +0.000 C 
ATOM     43  N9  UNL A   1      43.485  29.522  29.156  1.00  0.00    +0.000 N 
ATOM     44  C32 UNL A   1      44.236  30.366  28.335  1.00  0.00    +0.000 C 
ATOM     45  C33 UNL A   1      44.871  31.467  28.825  1.00  0.00    +0.000 C 
ATOM     57  C40 UNL A   1      45.051  31.382  30.249  1.00  0.00    +0.000 C 
ATOM     58  C41 UNL A   1      45.720  30.538  31.111  1.00  0.00    +0.000 C 
ATOM     59  C42 UNL A   1      44.936  30.519  32.303  1.00  0.00    +0.000 C 
ATOM     60  C43 UNL A   1      43.851  31.376  32.110  1.00  0.00    +0.000 C 
ATOM     61  N10 UNL A   1      44.215  32.132  31.031  1.00  0.00    +0.000 N 
ATOM     62  C44 UNL A   1      42.537  31.431  32.706  1.00  0.00    +0.000 C 
ATOM     74  C51 UNL A   1      41.459  32.049  32.143  1.00  0.00    +0.000 C 
ATOM     75  N11 UNL A   1      40.176  31.589  32.394  1.00  0.00    +0.000 N 
ATOM     76  C52 UNL A   1      39.509  31.862  31.308  1.00  0.00    +0.000 C 
ATOM     77  C53 UNL A   1      38.409  31.021  30.786  1.00  0.00    +0.000 C 
ATOM     89  C60 UNL A   1      38.950  29.849  30.383  1.00  0.00    +0.000 C 
ATOM     90  C61 UNL A   1      38.296  28.586  30.120  1.00  0.00    +0.000 C 
ATOM     91  C62 UNL A   1      39.223  27.708  29.695  1.00  0.00    +0.000 C 
ATOM     92  C63 UNL A   1      40.497  28.402  29.488  1.00  0.00    +0.000 C 
ATOM     93  N12 UNL A   1      40.301  29.649  30.046  1.00  0.00    +0.000 N 
ATOM     94  C64 UNL A   1      40.114  32.854  30.435  1.00  0.00    +0.000 C 
ATOM     95  C65 UNL A   1      41.321  32.942  31.000  1.00  0.00    +0.000 C 
ATOM     96  C66 UNL A   1      43.940  29.985  26.980  1.00  0.00    +0.000 C 
ATOM     97  C67 UNL A   1      42.912  29.136  26.942  1.00  0.00    +0.000 C 
ENDROOT
BRANCH   41   40
ATOM    129  H28 UNL A   1      39.859  25.179  25.516  1.00  0.00    +0.000 H 
ATOM     98  C68 UNL A   1      42.164  25.581  28.542  1.00  0.00    +0.000 C 
ATOM     99  C69 UNL A   1      42.040  24.349  27.935  1.00  0.00    +0.000 C 
ATOM    130  H29 UNL A   1      40.220  27.386  26.476  1.00  0.00    +0.000 H 
ATOM     37  C26 UNL A   1      41.129  24.195  26.893  1.00  0.00    +0.000 C 
ATOM     38  C27 UNL A   1      40.479  25.298  26.333  1.00  0.00    +0.000 C 
ATOM     39  C28 UNL A   1      40.677  26.558  26.890  1.00  0.00    +0.000 C 
ATOM     40  C29 UNL A   1      41.501  26.696  28.014  1.00  0.00    +0.000 C 
ATOM    141  H40 UNL A   1      42.747  25.682  29.388  1.00  0.00    +0.000 H 
ATOM    142  H41 UNL A   1      42.614  23.552  28.249  1.00  0.00    +0.000 H 
BRANCH   37   35
ATOM     35  C25 UNL A   1      40.807  22.836  26.417  1.00  0.00    +0.000 C 
ATOM     36  O3  UNL A   1      39.785  22.284  26.774  1.00  0.00    +0.000 O 
BRANCH   35   34
ATOM     34  N8  UNL A   1      41.704  22.205  25.577  1.00  0.00    +0.000 N 
ATOM    128  H27 UNL A   1      41.352  21.884  24.716  1.00  0.00    +0.000 H 
BRANCH   34   33
ATOM     33  C24 UNL A   1      43.122  21.964  25.834  1.00  0.00    +0.000 C 
ATOM    126  H25 UNL A   1      43.360  22.310  26.818  1.00  0.00    +0.000 H 
ATOM    127  H26 UNL A   1      43.306  20.914  25.745  1.00  0.00    +0.000 H 
BRANCH   33   32
ATOM    124  H23 UNL A   1      44.745  22.009  24.470  1.00  0.00    +0.000 H 
ATOM    125  H24 UNL A   1      43.361  23.043  24.046  1.00  0.00    +0.000 H 
ATOM     32  C23 UNL A   1      44.002  22.692  24.827  1.00  0.00    +0.000 C 
BRANCH   32   31
ATOM    122  H21 UNL A   1      44.674  23.852  26.474  1.00  0.00    +0.000 H 
ATOM    123  H22 UNL A   1      45.709  23.897  25.009  1.00  0.00    +0.000 H 
ATOM     31  C22 UNL A   1      44.716  23.921  25.407  1.00  0.00    +0.000 C 
BRANCH   31   30
ATOM    121  H20 UNL A   1      43.108  25.266  25.290  1.00  0.00    +0.000 H 
ATOM     30  C21 UNL A   1      44.137  25.286  24.999  1.00  0.00    +0.000 C 
ATOM    120  H19 UNL A   1      44.287  25.406  23.946  1.00  0.00    +0.000 H 
BRANCH   30   29
ATOM     29  C20 UNL A   1      44.752  26.505  25.706  1.00  0.00    +0.000 C 
ATOM    118  H17 UNL A   1      43.960  27.075  26.145  1.00  0.00    +0.000 H 
ATOM    119  H18 UNL A   1      45.438  26.130  26.436  1.00  0.00    +0.000 H 
BRANCH   29   28
ATOM    116  H15 UNL A   1      45.326  27.166  23.755  1.00  0.00    +0.000 H 
ATOM     28  C19 UNL A   1      45.547  27.421  24.771  1.00  0.00    +0.000 C 
ATOM    117  H16 UNL A   1      45.271  28.437  24.960  1.00  0.00    +0.000 H 
BRANCH   28   27
ATOM     27  N7  UNL A   1      46.968  27.265  25.006  1.00  0.00    +0.000 N 
ATOM    115  H14 UNL A   1      47.463  26.980  24.203  1.00  0.00    +0.000 H 
BRANCH   27   25
ATOM     25  C18 UNL A   1      47.772  27.426  26.104  1.00  0.00    +0.000 C 
ATOM     26  O2  UNL A   1      48.915  27.842  25.899  1.00  0.00    +0.000 O 
BRANCH   25   24
ATOM    100  C70 UNL A   1      46.855  27.955  28.440  1.00  0.00    +0.000 C 
ATOM    101  C71 UNL A   1      46.388  27.491  29.676  1.00  0.00    +0.000 C 
ATOM    143  H42 UNL A   1      46.814  28.963  28.225  1.00  0.00    +0.000 H 
ATOM    144  H43 UNL A   1      45.933  28.141  30.335  1.00  0.00    +0.000 H 
ATOM    113  H12 UNL A   1      47.391  24.297  29.432  1.00  0.00    +0.000 H 
ATOM    114  H13 UNL A   1      48.005  25.067  27.214  1.00  0.00    +0.000 H 
ATOM     21  C14 UNL A   1      46.541  26.141  30.016  1.00  0.00    +0.000 C 
ATOM     22  C15 UNL A   1      47.193  25.268  29.146  1.00  0.00    +0.000 C 
ATOM     23  C16 UNL A   1      47.572  25.726  27.880  1.00  0.00    +0.000 C 
ATOM     24  C17 UNL A   1      47.377  27.066  27.497  1.00  0.00    +0.000 C 
BRANCH   21   20
ATOM      2  C2  UNL A   1      46.792  25.377  32.404  1.00  0.00    +0.000 C 
ATOM      3  C3  UNL A   1      45.864  24.737  33.200  1.00  0.00    +0.000 C 
ATOM     18  N4  UNL A   1      44.635  24.767  32.611  1.00  0.00    +0.000 N 
ATOM     19  N5  UNL A   1      44.758  25.413  31.456  1.00  0.00    +0.000 N 
ATOM     20  N6  UNL A   1      46.073  25.666  31.259  1.00  0.00    +0.000 N 
BRANCH    2    1
ATOM      1  C1  UNL A   1      48.172  25.825  32.700  1.00  0.00    +0.000 C 
ATOM    102  H1  UNL A   1      48.870  25.128  32.283  1.00  0.00    +0.000 H 
ATOM    103  H2  UNL A   1      48.311  25.877  33.759  1.00  0.00    +0.000 H 
ATOM    104  H3  UNL A   1      48.334  26.792  32.271  1.00  0.00    +0.000 H 
ENDBRANCH    2    1
BRANCH    3    4
ATOM      4  C4  UNL A   1      46.067  24.178  34.531  1.00  0.00    +0.000 C 
ATOM      5  N1  UNL A   1      46.141  22.859  34.744  1.00  0.00    +0.000 N 
ATOM      6  N2  UNL A   1      46.136  22.736  36.089  1.00  0.00    +0.000 N 
ATOM     13  C11 UNL A   1      46.104  23.959  36.717  1.00  0.00    +0.000 C 
ATOM     14  C12 UNL A   1      46.117  24.926  35.730  1.00  0.00    +0.000 C 
ATOM    110  H9  UNL A   1      46.076  24.124  37.736  1.00  0.00    +0.000 H 
BRANCH    6    7
ATOM      7  C5  UNL A   1      46.138  21.461  36.701  1.00  0.00    +0.000 C 
ATOM      8  C6  UNL A   1      45.727  20.347  35.960  1.00  0.00    +0.000 C 
ATOM      9  C7  UNL A   1      45.756  19.080  36.543  1.00  0.00    +0.000 C 
ATOM    105  H4  UNL A   1      45.405  20.462  34.986  1.00  0.00    +0.000 H 
ATOM     11  C9  UNL A   1      46.515  20.049  38.624  1.00  0.00    +0.000 C 
ATOM     12  C10 UNL A   1      46.542  21.314  38.034  1.00  0.00    +0.000 C 
ATOM    109  H8  UNL A   1      46.858  22.134  38.576  1.00  0.00    +0.000 H 
ATOM     10  C8  UNL A   1      46.138  18.933  37.876  1.00  0.00    +0.000 C 
ATOM    106  H5  UNL A   1      45.495  18.250  35.987  1.00  0.00    +0.000 H 
ATOM    108  H7  UNL A   1      46.775  19.940  39.617  1.00  0.00    +0.000 H 
ATOM    107  H6  UNL A   1      46.141  17.997  38.311  1.00  0.00    +0.000 H 
ENDBRANCH    6    7
BRANCH   14   15
ATOM    111  H10 UNL A   1      47.073  26.806  36.151  1.00  0.00    +0.000 H 
ATOM     15  C13 UNL A   1      46.168  26.346  35.971  1.00  0.00    +0.000 C 
BRANCH   15   16
ATOM     16  N3  UNL A   1      45.080  27.044  35.963  1.00  0.00    +0.000 N 
BRANCH   16   17
ATOM     17  O1  UNL A   1      45.270  28.182  35.169  1.00  0.00    +0.000 O 
ATOM    112  H11 UNL A   1      44.603  28.452  34.569  1.00  0.00    +0.000 H 
ENDBRANCH   16   17
ENDBRANCH   15   16
ENDBRANCH   14   15
ENDBRANCH    3    4
ENDBRANCH   21   20
ENDBRANCH   25   24
ENDBRANCH   27   25
ENDBRANCH   28   27
ENDBRANCH   29   28
ENDBRANCH   30   29
ENDBRANCH   31   30
ENDBRANCH   32   31
ENDBRANCH   33   32
ENDBRANCH   34   33
ENDBRANCH   35   34
ENDBRANCH   37   35
ENDBRANCH   41   40
BRANCH   45   46
ATOM     46  C34 UNL A   1      44.975  32.795  28.095  1.00  0.00    +0.000 C 
ATOM     47  C35 UNL A   1      46.252  33.291  27.751  1.00  0.00    +0.000 C 
ATOM     48  F1  UNL A   1      47.330  32.493  27.792  1.00  0.00    +0.000 F 
ATOM     49  C36 UNL A   1      46.470  34.641  27.460  1.00  0.00    +0.000 C 
ATOM     50  F2  UNL A   1      47.719  35.092  27.279  1.00  0.00    +0.000 F 
ATOM     51  C37 UNL A   1      45.414  35.532  27.436  1.00  0.00    +0.000 C 
ATOM     52  F3  UNL A   1      45.627  36.838  27.227  1.00  0.00    +0.000 F 
ATOM     53  C38 UNL A   1      44.138  35.070  27.680  1.00  0.00    +0.000 C 
ATOM     54  F4  UNL A   1      43.103  35.922  27.674  1.00  0.00    +0.000 F 
ATOM     55  C39 UNL A   1      43.924  33.735  28.023  1.00  0.00    +0.000 C 
ATOM     56  F5  UNL A   1      42.672  33.435  28.384  1.00  0.00    +0.000 F 
ENDBRANCH   45   46
BRANCH   62   63
ATOM     65  F6  UNL A   1      41.716  28.622  32.563  1.00  0.00    +0.000 F 
ATOM     66  C47 UNL A   1      41.738  28.382  34.894  1.00  0.00    +0.000 C 
ATOM     67  F7  UNL A   1      41.343  27.108  34.762  1.00  0.00    +0.000 F 
ATOM     68  C48 UNL A   1      42.021  28.890  36.152  1.00  0.00    +0.000 C 
ATOM     69  F8  UNL A   1      41.907  28.108  37.235  1.00  0.00    +0.000 F 
ATOM     70  C49 UNL A   1      42.448  30.202  36.285  1.00  0.00    +0.000 C 
ATOM     71  F9  UNL A   1      42.772  30.683  37.493  1.00  0.00    +0.000 F 
ATOM     72  C50 UNL A   1      42.565  31.016  35.163  1.00  0.00    +0.000 C 
ATOM     73  F10 UNL A   1      42.999  32.277  35.323  1.00  0.00    +0.000 F 
ATOM     63  C45 UNL A   1      42.285  30.529  33.879  1.00  0.00    +0.000 C 
ATOM     64  C46 UNL A   1      41.897  29.185  33.766  1.00  0.00    +0.000 C 
ENDBRANCH   62   63
BRANCH   77   78
ATOM     78  C54 UNL A   1      37.044  31.533  30.545  1.00  0.00    +0.000 C 
ATOM     79  C55 UNL A   1      36.162  31.784  31.607  1.00  0.00    +0.000 C 
ATOM     80  F11 UNL A   1      36.474  31.389  32.849  1.00  0.00    +0.000 F 
ATOM     81  C56 UNL A   1      34.977  32.501  31.419  1.00  0.00    +0.000 C 
ATOM     82  F12 UNL A   1      34.187  32.773  32.466  1.00  0.00    +0.000 F 
ATOM     83  C57 UNL A   1      34.638  32.979  30.162  1.00  0.00    +0.000 C 
ATOM     84  F13 UNL A   1      33.529  33.713  29.993  1.00  0.00    +0.000 F 
ATOM     85  C58 UNL A   1      35.474  32.727  29.091  1.00  0.00    +0.000 C 
ATOM     86  F14 UNL A   1      35.175  33.213  27.877  1.00  0.00    +0.000 F 
ATOM     87  C59 UNL A   1      36.661  32.021  29.280  1.00  0.00    +0.000 C 
ATOM     88  F15 UNL A   1      37.476  31.899  28.222  1.00  0.00    +0.000 F 
ENDBRANCH   77   78
TORSDOF 22
ENDMDL
MODEL 4
REMARK VINA RESULT:      -7.7     37.043     42.694
ROOT
ATOM    131  H30 UNL A   1      33.538 -14.501  27.767  1.00  0.00    +0.000 H 
ATOM    132  H31 UNL A   1      32.914 -12.050  28.593  1.00  0.00    +0.000 H 
ATOM    133  H32 UNL A   1      35.718 -11.800  25.701  1.00  0.00    +0.000 H 
ATOM    134  H33 UNL A   1      29.479  -8.505  21.651  1.00  0.00    +0.000 H 
ATOM    135  H34 UNL A   1      28.395 -10.685  22.397  1.00  0.00    +0.000 H 
ATOM    136  H35 UNL A   1      32.341 -10.779  23.701  1.00  0.00    +0.000 H 
ATOM    137  H36 UNL A   1      34.942  -9.403  22.108  1.00  0.00    +0.000 H 
ATOM    138  H37 UNL A   1      35.718 -10.412  24.350  1.00  0.00    +0.000 H 
ATOM    139  H38 UNL A   1      33.598 -15.832  22.687  1.00  0.00    +0.000 H 
ATOM    140  H39 UNL A   1      31.530 -14.767  21.593  1.00  0.00    +0.000 H 
ATOM     41  C30 UNL A   1      30.350 -12.678  23.173  1.00  0.00    +0.000 C 
ATOM     42  C31 UNL A   1      31.578 -13.485  23.466  1.00  0.00    +0.000 C 
ATOM     43  N9  UNL A   1      32.337 -13.450  24.516  1.00  0.00    +0.000 N 
ATOM     44  C32 UNL A   1      33.414 -14.297  24.247  1.00  0.00    +0.000 C 
ATOM     45  C33 UNL A   1      34.605 -14.173  24.895  1.00  0.00    +0.000 C 
ATOM     57  C40 UNL A   1      34.465 -13.438  26.122  1.00  0.00    +0.000 C 
ATOM     58  C41 UNL A   1      33.772 -13.610  27.303  1.00  0.00    +0.000 C 
ATOM     59  C42 UNL A   1      33.449 -12.293  27.745  1.00  0.00    +0.000 C 
ATOM     60  C43 UNL A   1      33.989 -11.393  26.825  1.00  0.00    +0.000 C 
ATOM     61  N10 UNL A   1      34.896 -12.138  26.126  1.00  0.00    +0.000 N 
ATOM     62  C44 UNL A   1      33.638 -10.039  26.469  1.00  0.00    +0.000 C 
ATOM     74  C51 UNL A   1      33.979  -9.436  25.293  1.00  0.00    +0.000 C 
ATOM     75  N11 UNL A   1      33.169  -8.454  24.747  1.00  0.00    +0.000 N 
ATOM     76  C52 UNL A   1      33.332  -8.570  23.458  1.00  0.00    +0.000 C 
ATOM     77  C53 UNL A   1      32.264  -8.305  22.468  1.00  0.00    +0.000 C 
ATOM     89  C60 UNL A   1      31.319  -9.260  22.624  1.00  0.00    +0.000 C 
ATOM     90  C61 UNL A   1      29.950  -9.270  22.159  1.00  0.00    +0.000 C 
ATOM     91  C62 UNL A   1      29.393 -10.445  22.503  1.00  0.00    +0.000 C 
ATOM     92  C63 UNL A   1      30.422 -11.333  23.053  1.00  0.00    +0.000 C 
ATOM     93  N12 UNL A   1      31.521 -10.517  23.222  1.00  0.00    +0.000 N 
ATOM     94  C64 UNL A   1      34.514  -9.305  23.042  1.00  0.00    +0.000 C 
ATOM     95  C65 UNL A   1      34.885  -9.817  24.218  1.00  0.00    +0.000 C 
ATOM     96  C66 UNL A   1      33.071 -15.025  23.054  1.00  0.00    +0.000 C 
ATOM     97  C67 UNL A   1      31.979 -14.511  22.486  1.00  0.00    +0.000 C 
ENDROOT
BRANCH   41   40
ATOM    129  H28 UNL A   1      26.700 -15.360  23.916  1.00  0.00    +0.000 H 
ATOM     98  C68 UNL A   1      29.010 -13.701  21.359  1.00  0.00    +0.000 C 
ATOM     99  C69 UNL A   1      27.979 -14.508  20.927  1.00  0.00    +0.000 C 
ATOM    130  H29 UNL A   1      28.406 -13.793  24.664  1.00  0.00    +0.000 H 
ATOM     37  C26 UNL A   1      27.202 -15.179  21.869  1.00  0.00    +0.000 C 
ATOM     38  C27 UNL A   1      27.328 -14.907  23.233  1.00  0.00    +0.000 C 
ATOM     39  C28 UNL A   1      28.312 -14.020  23.662  1.00  0.00    +0.000 C 
ATOM     40  C29 UNL A   1      29.173 -13.435  22.724  1.00  0.00    +0.000 C 
ATOM    141  H40 UNL A   1      29.664 -13.291  20.672  1.00  0.00    +0.000 H 
ATOM    142  H41 UNL A   1      27.785 -14.614  19.919  1.00  0.00    +0.000 H 
BRANCH   37   35
ATOM     35  C25 UNL A   1      26.276 -16.233  21.415  1.00  0.00    +0.000 C 
ATOM     36  O3  UNL A   1      25.650 -16.893  22.221  1.00  0.00    +0.000 O 
BRANCH   35   34
ATOM     34  N8  UNL A   1      26.156 -16.462  20.057  1.00  0.00    +0.000 N 
ATOM    128  H27 UNL A   1      26.915 -16.189  19.494  1.00  0.00    +0.000 H 
BRANCH   34   33
ATOM     33  C24 UNL A   1      25.018 -17.068  19.370  1.00  0.00    +0.000 C 
ATOM    126  H25 UNL A   1      25.371 -17.861  18.746  1.00  0.00    +0.000 H 
ATOM    127  H26 UNL A   1      24.338 -17.438  20.109  1.00  0.00    +0.000 H 
BRANCH   33   32
ATOM    124  H23 UNL A   1      24.829 -15.915  17.600  1.00  0.00    +0.000 H 
ATOM    125  H24 UNL A   1      23.297 -16.436  18.340  1.00  0.00    +0.000 H 
ATOM     32  C23 UNL A   1      24.281 -16.050  18.509  1.00  0.00    +0.000 C 
BRANCH   32   31
ATOM    122  H21 UNL A   1      25.035 -14.441  19.673  1.00  0.00    +0.000 H 
ATOM    123  H22 UNL A   1      23.851 -14.001  18.397  1.00  0.00    +0.000 H 
ATOM     31  C22 UNL A   1      24.114 -14.680  19.181  1.00  0.00    +0.000 C 
BRANCH   31   30
ATOM    121  H20 UNL A   1      22.694 -15.582  20.436  1.00  0.00    +0.000 H 
ATOM     30  C21 UNL A   1      22.985 -14.576  20.219  1.00  0.00    +0.000 C 
ATOM    120  H19 UNL A   1      22.202 -13.981  19.795  1.00  0.00    +0.000 H 
BRANCH   30   29
ATOM     29  C20 UNL A   1      23.378 -13.950  21.566  1.00  0.00    +0.000 C 
ATOM    118  H17 UNL A   1      23.014 -14.581  22.350  1.00  0.00    +0.000 H 
ATOM    119  H18 UNL A   1      24.444 -13.865  21.573  1.00  0.00    +0.000 H 
BRANCH   29   28
ATOM    116  H15 UNL A   1      22.120 -12.318  20.995  1.00  0.00    +0.000 H 
ATOM     28  C19 UNL A   1      22.814 -12.542  21.779  1.00  0.00    +0.000 C 
ATOM    117  H16 UNL A   1      22.318 -12.503  22.726  1.00  0.00    +0.000 H 
BRANCH   28   27
ATOM     27  N7  UNL A   1      23.885 -11.566  21.764  1.00  0.00    +0.000 N 
ATOM    115  H14 UNL A   1      23.756 -10.862  21.088  1.00  0.00    +0.000 H 
BRANCH   27   25
ATOM     25  C18 UNL A   1      25.038 -11.413  22.488  1.00  0.00    +0.000 C 
ATOM     26  O2  UNL A   1      26.084 -11.788  21.952  1.00  0.00    +0.000 O 
BRANCH   25   24
ATOM    100  C70 UNL A   1      24.029 -10.297  24.565  1.00  0.00    +0.000 C 
ATOM    101  C71 UNL A   1      24.141  -9.970  25.922  1.00  0.00    +0.000 C 
ATOM    143  H42 UNL A   1      23.151 -10.093  24.062  1.00  0.00    +0.000 H 
ATOM    144  H43 UNL A   1      23.325  -9.601  26.434  1.00  0.00    +0.000 H 
ATOM    113  H12 UNL A   1      27.402 -10.645  26.340  1.00  0.00    +0.000 H 
ATOM    114  H13 UNL A   1      27.139 -11.404  24.050  1.00  0.00    +0.000 H 
ATOM     21  C14 UNL A   1      25.363 -10.145  26.582  1.00  0.00    +0.000 C 
ATOM     22  C15 UNL A   1      26.478 -10.605  25.882  1.00  0.00    +0.000 C 
ATOM     23  C16 UNL A   1      26.327 -11.012  24.553  1.00  0.00    +0.000 C 
ATOM     24  C17 UNL A   1      25.093 -10.897  23.887  1.00  0.00    +0.000 C 
BRANCH   21   20
ATOM      2  C2  UNL A   1      25.073 -10.540  29.053  1.00  0.00    +0.000 C 
ATOM      3  C3  UNL A   1      25.230  -9.640  30.088  1.00  0.00    +0.000 C 
ATOM     18  N4  UNL A   1      25.825  -8.500  29.637  1.00  0.00    +0.000 N 
ATOM     19  N5  UNL A   1      26.052  -8.652  28.337  1.00  0.00    +0.000 N 
ATOM     20  N6  UNL A   1      25.484  -9.818  27.948  1.00  0.00    +0.000 N 
BRANCH    2    1
ATOM      1  C1  UNL A   1      24.722 -11.979  29.069  1.00  0.00    +0.000 C 
ATOM    102  H1  UNL A   1      25.159 -12.462  28.219  1.00  0.00    +0.000 H 
ATOM    103  H2  UNL A   1      23.658 -12.087  29.032  1.00  0.00    +0.000 H 
ATOM    104  H3  UNL A   1      25.095 -12.427  29.966  1.00  0.00    +0.000 H 
ENDBRANCH    2    1
BRANCH    3    4
ATOM      4  C4  UNL A   1      24.925  -9.845  31.499  1.00  0.00    +0.000 C 
ATOM      5  N1  UNL A   1      23.667  -9.932  31.949  1.00  0.00    +0.000 N 
ATOM      6  N2  UNL A   1      23.791  -9.923  33.294  1.00  0.00    +0.000 N 
ATOM     13  C11 UNL A   1      25.108  -9.876  33.689  1.00  0.00    +0.000 C 
ATOM     14  C12 UNL A   1      25.879  -9.883  32.542  1.00  0.00    +0.000 C 
ATOM    110  H9  UNL A   1      25.455  -9.842  34.660  1.00  0.00    +0.000 H 
BRANCH    6    7
ATOM      7  C5  UNL A   1      22.649  -9.936  34.128  1.00  0.00    +0.000 C 
ATOM      8  C6  UNL A   1      21.511 -10.639  33.716  1.00  0.00    +0.000 C 
ATOM      9  C7  UNL A   1      20.391 -10.686  34.545  1.00  0.00    +0.000 C 
ATOM    105  H4  UNL A   1      21.501 -11.121  32.803  1.00  0.00    +0.000 H 
ATOM     11  C9  UNL A   1      21.508  -9.260  36.147  1.00  0.00    +0.000 C 
ATOM     12  C10 UNL A   1      22.655  -9.252  35.349  1.00  0.00    +0.000 C 
ATOM    109  H8  UNL A   1      23.500  -8.745  35.659  1.00  0.00    +0.000 H 
ATOM     10  C8  UNL A   1      20.385  -9.988  35.753  1.00  0.00    +0.000 C 
ATOM    106  H5  UNL A   1      19.564 -11.238  34.265  1.00  0.00    +0.000 H 
ATOM    108  H7  UNL A   1      21.493  -8.726  37.030  1.00  0.00    +0.000 H 
ATOM    107  H6  UNL A   1      19.548 -10.010  36.357  1.00  0.00    +0.000 H 
ENDBRANCH    6    7
BRANCH   14   15
ATOM    111  H10 UNL A   1      27.857  -9.418  33.246  1.00  0.00    +0.000 H 
ATOM     15  C13 UNL A   1      27.319  -9.917  32.521  1.00  0.00    +0.000 C 
BRANCH   15   16
ATOM     16  N3  UNL A   1      27.939 -10.573  31.595  1.00  0.00    +0.000 N 
BRANCH   16   17
ATOM     17  O1  UNL A   1      29.162  -9.946  31.327  1.00  0.00    +0.000 O 
ATOM    112  H11 UNL A   1      29.424  -9.787  30.441  1.00  0.00    +0.000 H 
ENDBRANCH   16   17
ENDBRANCH   15   16
ENDBRANCH   14   15
ENDBRANCH    3    4
ENDBRANCH   21   20
ENDBRANCH   25   24
ENDBRANCH   27   25
ENDBRANCH   28   27
ENDBRANCH   29   28
ENDBRANCH   30   29
ENDBRANCH   31   30
ENDBRANCH   32   31
ENDBRANCH   33   32
ENDBRANCH   34   33
ENDBRANCH   35   34
ENDBRANCH   37   35
ENDBRANCH   41   40
BRANCH   45   46
ATOM     46  C34 UNL A   1      35.963 -14.362  24.240  1.00  0.00    +0.000 C 
ATOM     47  C35 UNL A   1      36.903 -15.225  24.845  1.00  0.00    +0.000 C 
ATOM     48  F1  UNL A   1      36.524 -16.088  25.799  1.00  0.00    +0.000 F 
ATOM     49  C36 UNL A   1      38.270 -15.151  24.560  1.00  0.00    +0.000 C 
ATOM     50  F2  UNL A   1      39.139 -15.893  25.262  1.00  0.00    +0.000 F 
ATOM     51  C37 UNL A   1      38.741 -14.260  23.616  1.00  0.00    +0.000 C 
ATOM     52  F3  UNL A   1      40.056 -14.137  23.390  1.00  0.00    +0.000 F 
ATOM     53  C38 UNL A   1      37.846 -13.460  22.939  1.00  0.00    +0.000 C 
ATOM     54  F4  UNL A   1      38.286 -12.580  22.028  1.00  0.00    +0.000 F 
ATOM     55  C39 UNL A   1      36.487 -13.493  23.258  1.00  0.00    +0.000 C 
ATOM     56  F5  UNL A   1      35.738 -12.571  22.647  1.00  0.00    +0.000 F 
ENDBRANCH   45   46
BRANCH   62   63
ATOM     65  F6  UNL A   1      34.169  -7.876  28.373  1.00  0.00    +0.000 F 
ATOM     66  C47 UNL A   1      31.907  -7.678  28.949  1.00  0.00    +0.000 C 
ATOM     67  F7  UNL A   1      32.218  -6.707  29.819  1.00  0.00    +0.000 F 
ATOM     68  C48 UNL A   1      30.580  -8.024  28.747  1.00  0.00    +0.000 C 
ATOM     69  F8  UNL A   1      29.608  -7.385  29.413  1.00  0.00    +0.000 F 
ATOM     70  C49 UNL A   1      30.259  -9.016  27.834  1.00  0.00    +0.000 C 
ATOM     71  F9  UNL A   1      28.975  -9.319  27.597  1.00  0.00    +0.000 F 
ATOM     72  C50 UNL A   1      31.265  -9.683  27.142  1.00  0.00    +0.000 C 
ATOM     73  F10 UNL A   1      30.920 -10.626  26.251  1.00  0.00    +0.000 F 
ATOM     63  C45 UNL A   1      32.615  -9.354  27.327  1.00  0.00    +0.000 C 
ATOM     64  C46 UNL A   1      32.912  -8.316  28.225  1.00  0.00    +0.000 C 
ENDBRANCH   62   63
BRANCH   77   78
ATOM     78  C54 UNL A   1      32.401  -7.318  21.377  1.00  0.00    +0.000 C 
ATOM     79  C55 UNL A   1      32.340  -5.939  21.630  1.00  0.00    +0.000 C 
ATOM     80  F11 UNL A   1      31.969  -5.492  22.839  1.00  0.00    +0.000 F 
ATOM     81  C56 UNL A   1      32.718  -5.001  20.666  1.00  0.00    +0.000 C 
ATOM     82  F12 UNL A   1      32.702  -3.695  20.961  1.00  0.00    +0.000 F 
ATOM     83  C57 UNL A   1      33.162  -5.417  19.419  1.00  0.00    +0.000 C 
ATOM     84  F13 UNL A   1      33.577  -4.519  18.514  1.00  0.00    +0.000 F 
ATOM     85  C58 UNL A   1      33.211  -6.768  19.131  1.00  0.00    +0.000 C 
ATOM     86  F14 UNL A   1      33.670  -7.184  17.942  1.00  0.00    +0.000 F 
ATOM     87  C59 UNL A   1      32.843  -7.704  20.097  1.00  0.00    +0.000 C 
ATOM     88  F15 UNL A   1      33.011  -8.998  19.789  1.00  0.00    +0.000 F 
ENDBRANCH   77   78
TORSDOF 22
ENDMDL
MODEL 5
REMARK VINA RESULT:      -7.6     24.008     30.419
ROOT
ATOM    131  H30 UNL A   1      19.089  37.484  44.109  1.00  0.00    +0.000 H 
ATOM    132  H31 UNL A   1      18.199  38.504  46.400  1.00  0.00    +0.000 H 
ATOM    133  H32 UNL A   1      19.142  34.619  46.957  1.00  0.00    +0.000 H 
ATOM    134  H33 UNL A   1      24.998  37.969  51.504  1.00  0.00    +0.000 H 
ATOM    135  H34 UNL A   1      25.382  39.229  49.324  1.00  0.00    +0.000 H 
ATOM    136  H35 UNL A   1      22.312  36.513  48.636  1.00  0.00    +0.000 H 
ATOM    137  H36 UNL A   1      22.035  33.497  50.060  1.00  0.00    +0.000 H 
ATOM    138  H37 UNL A   1      19.980  33.960  48.574  1.00  0.00    +0.000 H 
ATOM    139  H38 UNL A   1      23.584  34.790  43.782  1.00  0.00    +0.000 H 
ATOM    140  H39 UNL A   1      25.323  36.026  45.215  1.00  0.00    +0.000 H 
ATOM     41  C30 UNL A   1      24.161  37.902  47.055  1.00  0.00    +0.000 C 
ATOM     42  C31 UNL A   1      23.464  36.979  46.103  1.00  0.00    +0.000 C 
ATOM     43  N9  UNL A   1      22.193  36.869  45.869  1.00  0.00    +0.000 N 
ATOM     44  C32 UNL A   1      22.051  35.786  44.998  1.00  0.00    +0.000 C 
ATOM     45  C33 UNL A   1      20.879  35.101  44.890  1.00  0.00    +0.000 C 
ATOM     57  C40 UNL A   1      19.770  35.870  45.384  1.00  0.00    +0.000 C 
ATOM     58  C41 UNL A   1      19.170  37.066  45.049  1.00  0.00    +0.000 C 
ATOM     59  C42 UNL A   1      18.687  37.603  46.279  1.00  0.00    +0.000 C 
ATOM     60  C43 UNL A   1      18.993  36.690  47.289  1.00  0.00    +0.000 C 
ATOM     61  N10 UNL A   1      19.274  35.534  46.616  1.00  0.00    +0.000 N 
ATOM     62  C44 UNL A   1      19.184  36.841  48.712  1.00  0.00    +0.000 C 
ATOM     74  C51 UNL A   1      19.867  35.959  49.498  1.00  0.00    +0.000 C 
ATOM     75  N11 UNL A   1      20.528  36.398  50.634  1.00  0.00    +0.000 N 
ATOM     76  C52 UNL A   1      21.547  35.593  50.754  1.00  0.00    +0.000 C 
ATOM     77  C53 UNL A   1      22.860  36.006  51.298  1.00  0.00    +0.000 C 
ATOM     89  C60 UNL A   1      23.410  36.873  50.418  1.00  0.00    +0.000 C 
ATOM     90  C61 UNL A   1      24.495  37.808  50.617  1.00  0.00    +0.000 C 
ATOM     91  C62 UNL A   1      24.737  38.433  49.451  1.00  0.00    +0.000 C 
ATOM     92  C63 UNL A   1      23.943  37.811  48.387  1.00  0.00    +0.000 C 
ATOM     93  N12 UNL A   1      23.072  36.976  49.056  1.00  0.00    +0.000 N 
ATOM     94  C64 UNL A   1      21.450  34.346  50.013  1.00  0.00    +0.000 C 
ATOM     95  C65 UNL A   1      20.387  34.620  49.253  1.00  0.00    +0.000 C 
ATOM     96  C66 UNL A   1      23.375  35.449  44.547  1.00  0.00    +0.000 C 
ATOM     97  C67 UNL A   1      24.295  36.106  45.254  1.00  0.00    +0.000 C 
ENDROOT
BRANCH   41   40
ATOM    129  H28 UNL A   1      28.615  38.465  46.102  1.00  0.00    +0.000 H 
ATOM     98  C68 UNL A   1      25.120  40.015  46.191  1.00  0.00    +0.000 C 
ATOM     99  C69 UNL A   1      26.196  40.777  45.786  1.00  0.00    +0.000 C 
ATOM    130  H29 UNL A   1      26.690  37.076  46.640  1.00  0.00    +0.000 H 
ATOM     37  C26 UNL A   1      27.476  40.229  45.846  1.00  0.00    +0.000 C 
ATOM     38  C27 UNL A   1      27.668  38.874  46.128  1.00  0.00    +0.000 C 
ATOM     39  C28 UNL A   1      26.567  38.083  46.448  1.00  0.00    +0.000 C 
ATOM     40  C29 UNL A   1      25.293  38.662  46.505  1.00  0.00    +0.000 C 
ATOM    141  H40 UNL A   1      24.184  40.446  46.262  1.00  0.00    +0.000 H 
ATOM    142  H41 UNL A   1      26.056  41.740  45.444  1.00  0.00    +0.000 H 
BRANCH   37   35
ATOM     35  C25 UNL A   1      28.643  41.111  45.663  1.00  0.00    +0.000 C 
ATOM     36  O3  UNL A   1      28.538  42.154  45.048  1.00  0.00    +0.000 O 
BRANCH   35   34
ATOM     34  N8  UNL A   1      29.857  40.712  46.190  1.00  0.00    +0.000 N 
ATOM    128  H27 UNL A   1      29.940  40.730  47.170  1.00  0.00    +0.000 H 
BRANCH   34   33
ATOM     33  C24 UNL A   1      31.030  40.267  45.442  1.00  0.00    +0.000 C 
ATOM    126  H25 UNL A   1      31.233  39.246  45.690  1.00  0.00    +0.000 H 
ATOM    127  H26 UNL A   1      30.820  40.369  44.397  1.00  0.00    +0.000 H 
BRANCH   33   32
ATOM    124  H23 UNL A   1      32.809  40.619  46.541  1.00  0.00    +0.000 H 
ATOM    125  H24 UNL A   1      32.816  41.214  44.865  1.00  0.00    +0.000 H 
ATOM     32  C23 UNL A   1      32.254  41.111  45.770  1.00  0.00    +0.000 C 
BRANCH   32   31
ATOM    122  H21 UNL A   1      31.087  42.883  45.668  1.00  0.00    +0.000 H 
ATOM    123  H22 UNL A   1      31.703  42.441  47.295  1.00  0.00    +0.000 H 
ATOM     31  C22 UNL A   1      31.914  42.529  46.249  1.00  0.00    +0.000 C 
BRANCH   31   30
ATOM    121  H20 UNL A   1      33.304  43.605  45.100  1.00  0.00    +0.000 H 
ATOM     30  C21 UNL A   1      33.046  43.563  46.138  1.00  0.00    +0.000 C 
ATOM    120  H19 UNL A   1      33.848  43.243  46.770  1.00  0.00    +0.000 H 
BRANCH   30   29
ATOM     29  C20 UNL A   1      32.674  45.000  46.538  1.00  0.00    +0.000 C 
ATOM    118  H17 UNL A   1      33.328  45.673  46.024  1.00  0.00    +0.000 H 
ATOM    119  H18 UNL A   1      31.648  45.144  46.270  1.00  0.00    +0.000 H 
BRANCH   29   28
ATOM    116  H15 UNL A   1      33.437  44.542  48.482  1.00  0.00    +0.000 H 
ATOM     28  C19 UNL A   1      32.786  45.269  48.042  1.00  0.00    +0.000 C 
ATOM    117  H16 UNL A   1      33.182  46.251  48.192  1.00  0.00    +0.000 H 
BRANCH   28   27
ATOM     27  N7  UNL A   1      31.481  45.183  48.665  1.00  0.00    +0.000 N 
ATOM    115  H14 UNL A   1      30.994  46.039  48.660  1.00  0.00    +0.000 H 
BRANCH   27   25
ATOM     25  C18 UNL A   1      30.779  44.168  49.261  1.00  0.00    +0.000 C 
ATOM     26  O2  UNL A   1      31.435  43.325  49.876  1.00  0.00    +0.000 O 
BRANCH   25   24
ATOM    100  C70 UNL A   1      28.462  43.573  50.185  1.00  0.00    +0.000 C 
ATOM    101  C71 UNL A   1      27.071  43.565  50.017  1.00  0.00    +0.000 C 
ATOM    143  H42 UNL A   1      28.868  43.269  51.083  1.00  0.00    +0.000 H 
ATOM    144  H43 UNL A   1      26.455  43.334  50.811  1.00  0.00    +0.000 H 
ATOM    113  H12 UNL A   1      26.952  44.278  46.739  1.00  0.00    +0.000 H 
ATOM    114  H13 UNL A   1      29.343  44.492  47.096  1.00  0.00    +0.000 H 
ATOM     21  C14 UNL A   1      26.519  43.872  48.767  1.00  0.00    +0.000 C 
ATOM     22  C15 UNL A   1      27.351  44.144  47.681  1.00  0.00    +0.000 C 
ATOM     23  C16 UNL A   1      28.730  44.237  47.887  1.00  0.00    +0.000 C 
ATOM     24  C17 UNL A   1      29.302  43.987  49.149  1.00  0.00    +0.000 C 
BRANCH   21   20
ATOM      2  C2  UNL A   1      24.218  44.897  48.772  1.00  0.00    +0.000 C 
ATOM      3  C3  UNL A   1      22.997  44.260  48.688  1.00  0.00    +0.000 C 
ATOM     18  N4  UNL A   1      23.168  42.953  48.342  1.00  0.00    +0.000 N 
ATOM     19  N5  UNL A   1      24.472  42.741  48.203  1.00  0.00    +0.000 N 
ATOM     20  N6  UNL A   1      25.120  43.866  48.589  1.00  0.00    +0.000 N 
BRANCH    2    1
ATOM      1  C1  UNL A   1      24.552  46.338  48.863  1.00  0.00    +0.000 C 
ATOM    102  H1  UNL A   1      24.521  46.773  47.886  1.00  0.00    +0.000 H 
ATOM    103  H2  UNL A   1      25.533  46.452  49.274  1.00  0.00    +0.000 H 
ATOM    104  H3  UNL A   1      23.842  46.829  49.495  1.00  0.00    +0.000 H 
ENDBRANCH    2    1
BRANCH    3    4
ATOM      4  C4  UNL A   1      21.673  44.852  48.831  1.00  0.00    +0.000 C 
ATOM      5  N1  UNL A   1      20.883  44.583  49.878  1.00  0.00    +0.000 N 
ATOM      6  N2  UNL A   1      19.699  45.150  49.559  1.00  0.00    +0.000 N 
ATOM     13  C11 UNL A   1      19.751  45.805  48.350  1.00  0.00    +0.000 C 
ATOM     14  C12 UNL A   1      21.042  45.681  47.873  1.00  0.00    +0.000 C 
ATOM    110  H9  UNL A   1      18.971  46.297  47.887  1.00  0.00    +0.000 H 
BRANCH    6    7
ATOM      7  C5  UNL A   1      18.578  45.016  50.411  1.00  0.00    +0.000 C 
ATOM      8  C6  UNL A   1      18.781  44.832  51.783  1.00  0.00    +0.000 C 
ATOM      9  C7  UNL A   1      17.683  44.732  52.637  1.00  0.00    +0.000 C 
ATOM    105  H4  UNL A   1      19.739  44.771  52.162  1.00  0.00    +0.000 H 
ATOM     11  C9  UNL A   1      16.188  44.908  50.745  1.00  0.00    +0.000 C 
ATOM     12  C10 UNL A   1      17.280  45.064  49.888  1.00  0.00    +0.000 C 
ATOM    109  H8  UNL A   1      17.130  45.214  48.877  1.00  0.00    +0.000 H 
ATOM     10  C8  UNL A   1      16.389  44.758  52.118  1.00  0.00    +0.000 C 
ATOM    106  H5  UNL A   1      17.827  44.639  53.656  1.00  0.00    +0.000 H 
ATOM    108  H7  UNL A   1      15.230  44.904  50.361  1.00  0.00    +0.000 H 
ATOM    107  H6  UNL A   1      15.578  44.666  52.749  1.00  0.00    +0.000 H 
ENDBRANCH    6    7
BRANCH   14   15
ATOM    111  H10 UNL A   1      21.377  47.297  46.496  1.00  0.00    +0.000 H 
ATOM     15  C13 UNL A   1      21.533  46.292  46.665  1.00  0.00    +0.000 C 
BRANCH   15   16
ATOM     16  N3  UNL A   1      22.169  45.582  45.792  1.00  0.00    +0.000 N 
BRANCH   16   17
ATOM     17  O1  UNL A   1      21.274  45.163  44.800  1.00  0.00    +0.000 O 
ATOM    112  H11 UNL A   1      21.567  44.599  44.112  1.00  0.00    +0.000 H 
ENDBRANCH   16   17
ENDBRANCH   15   16
ENDBRANCH   14   15
ENDBRANCH    3    4
ENDBRANCH   21   20
ENDBRANCH   25   24
ENDBRANCH   27   25
ENDBRANCH   28   27
ENDBRANCH   29   28
ENDBRANCH   30   29
ENDBRANCH   31   30
ENDBRANCH   32   31
ENDBRANCH   33   32
ENDBRANCH   34   33
ENDBRANCH   35   34
ENDBRANCH   37   35
ENDBRANCH   41   40
BRANCH   45   46
ATOM     46  C34 UNL A   1      20.778  33.596  44.713  1.00  0.00    +0.000 C 
ATOM     47  C35 UNL A   1      19.735  33.066  43.921  1.00  0.00    +0.000 C 
ATOM     48  F1  UNL A   1      19.028  33.859  43.102  1.00  0.00    +0.000 F 
ATOM     49  C36 UNL A   1      19.325  31.734  44.029  1.00  0.00    +0.000 C 
ATOM     50  F2  UNL A   1      18.241  31.314  43.361  1.00  0.00    +0.000 F 
ATOM     51  C37 UNL A   1      19.980  30.865  44.879  1.00  0.00    +0.000 C 
ATOM     52  F3  UNL A   1      19.547  29.607  45.038  1.00  0.00    +0.000 F 
ATOM     53  C38 UNL A   1      21.060  31.321  45.606  1.00  0.00    +0.000 C 
ATOM     54  F4  UNL A   1      21.700  30.496  46.447  1.00  0.00    +0.000 F 
ATOM     55  C39 UNL A   1      21.439  32.662  45.541  1.00  0.00    +0.000 C 
ATOM     56  F5  UNL A   1      22.399  33.023  46.399  1.00  0.00    +0.000 F 
ENDBRANCH   45   46
BRANCH   62   63
ATOM     65  F6  UNL A   1      20.814  39.269  48.525  1.00  0.00    +0.000 F 
ATOM     66  C47 UNL A   1      19.245  40.545  49.709  1.00  0.00    +0.000 C 
ATOM     67  F7  UNL A   1      20.045  41.616  49.606  1.00  0.00    +0.000 F 
ATOM     68  C48 UNL A   1      18.001  40.669  50.306  1.00  0.00    +0.000 C 
ATOM     69  F8  UNL A   1      17.593  41.858  50.774  1.00  0.00    +0.000 F 
ATOM     70  C49 UNL A   1      17.167  39.565  50.396  1.00  0.00    +0.000 C 
ATOM     71  F9  UNL A   1      15.943  39.692  50.925  1.00  0.00    +0.000 F 
ATOM     72  C50 UNL A   1      17.588  38.330  49.914  1.00  0.00    +0.000 C 
ATOM     73  F10 UNL A   1      16.749  37.285  49.998  1.00  0.00    +0.000 F 
ATOM     63  C45 UNL A   1      18.841  38.176  49.305  1.00  0.00    +0.000 C 
ATOM     64  C46 UNL A   1      19.650  39.318  49.188  1.00  0.00    +0.000 C 
ENDBRANCH   62   63
BRANCH   77   78
ATOM     78  C54 UNL A   1      23.495  35.352  52.462  1.00  0.00    +0.000 C 
ATOM     79  C55 UNL A   1      22.806  35.192  53.673  1.00  0.00    +0.000 C 
ATOM     80  F11 UNL A   1      21.624  35.795  53.860  1.00  0.00    +0.000 F 
ATOM     81  C56 UNL A   1      23.292  34.360  54.686  1.00  0.00    +0.000 C 
ATOM     82  F12 UNL A   1      22.579  34.185  55.807  1.00  0.00    +0.000 F 
ATOM     83  C57 UNL A   1      24.483  33.671  54.517  1.00  0.00    +0.000 C 
ATOM     84  F13 UNL A   1      24.920  32.831  55.465  1.00  0.00    +0.000 F 
ATOM     85  C58 UNL A   1      25.198  33.826  53.344  1.00  0.00    +0.000 C 
ATOM     86  F14 UNL A   1      26.334  33.139  53.154  1.00  0.00    +0.000 F 
ATOM     87  C59 UNL A   1      24.708  34.649  52.329  1.00  0.00    +0.000 C 
ATOM     88  F15 UNL A   1      25.397  34.676  51.179  1.00  0.00    +0.000 F 
ENDBRANCH   77   78
TORSDOF 22
ENDMDL
MODEL 6
REMARK VINA RESULT:      -7.5     30.787     37.304
ROOT
ATOM    131  H30 UNL A   1      24.566  20.709   8.920  1.00  0.00    +0.000 H 
ATOM    132  H31 UNL A   1      26.305  19.686   7.185  1.00  0.00    +0.000 H 
ATOM    133  H32 UNL A   1      25.118  16.791   9.734  1.00  0.00    +0.000 H 
ATOM    134  H33 UNL A   1      21.640  13.955   2.949  1.00  0.00    +0.000 H 
ATOM    135  H34 UNL A   1      20.701  16.323   2.947  1.00  0.00    +0.000 H 
ATOM    136  H35 UNL A   1      22.980  15.918   6.401  1.00  0.00    +0.000 H 
ATOM    137  H36 UNL A   1      23.336  13.100   8.170  1.00  0.00    +0.000 H 
ATOM    138  H37 UNL A   1      24.803  14.963   9.180  1.00  0.00    +0.000 H 
ATOM    139  H38 UNL A   1      19.921  18.466   9.907  1.00  0.00    +0.000 H 
ATOM    140  H39 UNL A   1      18.948  17.700   7.655  1.00  0.00    +0.000 H 
ATOM     41  C30 UNL A   1      20.897  17.586   5.548  1.00  0.00    +0.000 C 
ATOM     42  C31 UNL A   1      21.104  17.942   6.989  1.00  0.00    +0.000 C 
ATOM     43  N9  UNL A   1      22.194  18.325   7.578  1.00  0.00    +0.000 N 
ATOM     44  C32 UNL A   1      21.891  18.409   8.938  1.00  0.00    +0.000 C 
ATOM     45  C33 UNL A   1      22.858  18.337   9.895  1.00  0.00    +0.000 C 
ATOM     57  C40 UNL A   1      24.158  18.626   9.354  1.00  0.00    +0.000 C 
ATOM     58  C41 UNL A   1      24.756  19.711   8.746  1.00  0.00    +0.000 C 
ATOM     59  C42 UNL A   1      25.694  19.156   7.825  1.00  0.00    +0.000 C 
ATOM     60  C43 UNL A   1      25.635  17.766   7.945  1.00  0.00    +0.000 C 
ATOM     61  N10 UNL A   1      24.996  17.565   9.136  1.00  0.00    +0.000 N 
ATOM     62  C44 UNL A   1      25.961  16.696   7.033  1.00  0.00    +0.000 C 
ATOM     74  C51 UNL A   1      25.479  15.424   7.131  1.00  0.00    +0.000 C 
ATOM     75  N11 UNL A   1      25.306  14.649   5.996  1.00  0.00    +0.000 N 
ATOM     76  C52 UNL A   1      24.295  13.875   6.275  1.00  0.00    +0.000 C 
ATOM     77  C53 UNL A   1      23.309  13.416   5.270  1.00  0.00    +0.000 C 
ATOM     89  C60 UNL A   1      22.609  14.499   4.864  1.00  0.00    +0.000 C 
ATOM     90  C61 UNL A   1      21.786  14.662   3.686  1.00  0.00    +0.000 C 
ATOM     91  C62 UNL A   1      21.244  15.893   3.714  1.00  0.00    +0.000 C 
ATOM     92  C63 UNL A   1      21.542  16.532   4.999  1.00  0.00    +0.000 C 
ATOM     93  N12 UNL A   1      22.474  15.700   5.585  1.00  0.00    +0.000 N 
ATOM     94  C64 UNL A   1      23.973  13.752   7.687  1.00  0.00    +0.000 C 
ATOM     95  C65 UNL A   1      24.740  14.728   8.177  1.00  0.00    +0.000 C 
ATOM     96  C66 UNL A   1      20.462  18.293   9.046  1.00  0.00    +0.000 C 
ATOM     97  C67 UNL A   1      19.929  17.929   7.879  1.00  0.00    +0.000 C 
ENDROOT
BRANCH   41   40
ATOM    129  H28 UNL A   1      18.590  21.256   4.038  1.00  0.00    +0.000 H 
ATOM     98  C68 UNL A   1      18.592  17.480   4.647  1.00  0.00    +0.000 C 
ATOM     99  C69 UNL A   1      17.467  18.090   4.133  1.00  0.00    +0.000 C 
ATOM    130  H29 UNL A   1      20.631  20.150   4.772  1.00  0.00    +0.000 H 
ATOM     37  C26 UNL A   1      17.447  19.476   4.002  1.00  0.00    +0.000 C 
ATOM     38  C27 UNL A   1      18.601  20.237   4.205  1.00  0.00    +0.000 C 
ATOM     39  C28 UNL A   1      19.765  19.605   4.636  1.00  0.00    +0.000 C 
ATOM     40  C29 UNL A   1      19.753  18.227   4.883  1.00  0.00    +0.000 C 
ATOM    141  H40 UNL A   1      18.579  16.469   4.857  1.00  0.00    +0.000 H 
ATOM    142  H41 UNL A   1      16.651  17.526   3.850  1.00  0.00    +0.000 H 
BRANCH   37   35
ATOM     35  C25 UNL A   1      16.169  20.149   3.702  1.00  0.00    +0.000 C 
ATOM     36  O3  UNL A   1      15.945  20.576   2.587  1.00  0.00    +0.000 O 
BRANCH   35   34
ATOM     34  N8  UNL A   1      15.250  20.298   4.723  1.00  0.00    +0.000 N 
ATOM    128  H27 UNL A   1      15.368  21.075   5.314  1.00  0.00    +0.000 H 
BRANCH   34   33
ATOM     33  C24 UNL A   1      14.118  19.421   5.014  1.00  0.00    +0.000 C 
ATOM    126  H25 UNL A   1      13.215  19.991   4.964  1.00  0.00    +0.000 H 
ATOM    127  H26 UNL A   1      14.111  18.632   4.292  1.00  0.00    +0.000 H 
BRANCH   33   32
ATOM    124  H23 UNL A   1      15.038  19.283   6.920  1.00  0.00    +0.000 H 
ATOM    125  H24 UNL A   1      13.294  18.936   6.886  1.00  0.00    +0.000 H 
ATOM     32  C23 UNL A   1      14.237  18.800   6.400  1.00  0.00    +0.000 C 
BRANCH   32   31
ATOM    122  H21 UNL A   1      13.647  16.790   6.748  1.00  0.00    +0.000 H 
ATOM    123  H22 UNL A   1      14.754  17.054   5.360  1.00  0.00    +0.000 H 
ATOM     31  C22 UNL A   1      14.517  17.291   6.377  1.00  0.00    +0.000 C 
BRANCH   31   30
ATOM    121  H20 UNL A   1      16.452  16.485   6.499  1.00  0.00    +0.000 H 
ATOM     30  C21 UNL A   1      15.723  16.821   7.207  1.00  0.00    +0.000 C 
ATOM    120  H19 UNL A   1      15.385  16.057   7.875  1.00  0.00    +0.000 H 
BRANCH   30   29
ATOM     29  C20 UNL A   1      16.416  17.908   8.043  1.00  0.00    +0.000 C 
ATOM    118  H17 UNL A   1      17.452  17.931   7.774  1.00  0.00    +0.000 H 
ATOM    119  H18 UNL A   1      15.919  18.831   7.831  1.00  0.00    +0.000 H 
BRANCH   29   28
ATOM    116  H15 UNL A   1      15.584  16.923   9.748  1.00  0.00    +0.000 H 
ATOM     28  C19 UNL A   1      16.315  17.680   9.554  1.00  0.00    +0.000 C 
ATOM    117  H16 UNL A   1      17.269  17.369   9.925  1.00  0.00    +0.000 H 
BRANCH   28   27
ATOM     27  N7  UNL A   1      15.924  18.905  10.221  1.00  0.00    +0.000 N 
ATOM    115  H14 UNL A   1      15.300  18.756  10.968  1.00  0.00    +0.000 H 
BRANCH   27   25
ATOM     25  C18 UNL A   1      16.234  20.227  10.034  1.00  0.00    +0.000 C 
ATOM     26  O2  UNL A   1      17.126  20.694  10.746  1.00  0.00    +0.000 O 
BRANCH   25   24
ATOM    100  C70 UNL A   1      16.135  22.006   8.190  1.00  0.00    +0.000 C 
ATOM    101  C71 UNL A   1      15.376  22.718   7.252  1.00  0.00    +0.000 C 
ATOM    143  H42 UNL A   1      17.159  22.129   8.216  1.00  0.00    +0.000 H 
ATOM    144  H43 UNL A   1      15.845  23.298   6.540  1.00  0.00    +0.000 H 
ATOM    113  H12 UNL A   1      12.312  21.905   8.354  1.00  0.00    +0.000 H 
ATOM    114  H13 UNL A   1      13.639  20.516   9.838  1.00  0.00    +0.000 H 
ATOM     21  C14 UNL A   1      13.979  22.640   7.283  1.00  0.00    +0.000 C 
ATOM     22  C15 UNL A   1      13.341  21.889   8.270  1.00  0.00    +0.000 C 
ATOM     23  C16 UNL A   1      14.112  21.115   9.142  1.00  0.00    +0.000 C 
ATOM     24  C17 UNL A   1      15.518  21.135   9.091  1.00  0.00    +0.000 C 
BRANCH   21   20
ATOM      2  C2  UNL A   1      12.350  24.416   6.550  1.00  0.00    +0.000 C 
ATOM      3  C3  UNL A   1      11.709  24.540   5.334  1.00  0.00    +0.000 C 
ATOM     18  N4  UNL A   1      12.254  23.686   4.422  1.00  0.00    +0.000 N 
ATOM     19  N5  UNL A   1      13.230  23.020   5.029  1.00  0.00    +0.000 N 
ATOM     20  N6  UNL A   1      13.208  23.353   6.342  1.00  0.00    +0.000 N 
BRANCH    2    1
ATOM      1  C1  UNL A   1      12.303  25.272   7.758  1.00  0.00    +0.000 C 
ATOM    102  H1  UNL A   1      11.326  25.223   8.192  1.00  0.00    +0.000 H 
ATOM    103  H2  UNL A   1      12.522  26.284   7.487  1.00  0.00    +0.000 H 
ATOM    104  H3  UNL A   1      13.027  24.929   8.467  1.00  0.00    +0.000 H 
ENDBRANCH    2    1
BRANCH    3    4
ATOM      4  C4  UNL A   1      10.666  25.492   4.971  1.00  0.00    +0.000 C 
ATOM      5  N1  UNL A   1      10.823  26.374   3.977  1.00  0.00    +0.000 N 
ATOM      6  N2  UNL A   1       9.748  27.186   4.076  1.00  0.00    +0.000 N 
ATOM     13  C11 UNL A   1       8.901  26.797   5.088  1.00  0.00    +0.000 C 
ATOM     14  C12 UNL A   1       9.440  25.658   5.656  1.00  0.00    +0.000 C 
ATOM    110  H9  UNL A   1       8.026  27.267   5.369  1.00  0.00    +0.000 H 
BRANCH    6    7
ATOM      7  C5  UNL A   1       9.598  28.300   3.218  1.00  0.00    +0.000 C 
ATOM      8  C6  UNL A   1      10.733  29.026   2.837  1.00  0.00    +0.000 C 
ATOM      9  C7  UNL A   1      10.601  30.106   1.965  1.00  0.00    +0.000 C 
ATOM    105  H4  UNL A   1      11.662  28.762   3.199  1.00  0.00    +0.000 H 
ATOM     11  C9  UNL A   1       8.204  29.793   1.929  1.00  0.00    +0.000 C 
ATOM     12  C10 UNL A   1       8.330  28.676   2.757  1.00  0.00    +0.000 C 
ATOM    109  H8  UNL A   1       7.495  28.132   3.028  1.00  0.00    +0.000 H 
ATOM     10  C8  UNL A   1       9.338  30.497   1.521  1.00  0.00    +0.000 C 
ATOM    106  H5  UNL A   1      11.440  30.618   1.647  1.00  0.00    +0.000 H 
ATOM    108  H7  UNL A   1       7.268  30.098   1.617  1.00  0.00    +0.000 H 
ATOM    107  H6  UNL A   1       9.241  31.308   0.890  1.00  0.00    +0.000 H 
ENDBRANCH    6    7
BRANCH   14   15
ATOM    111  H10 UNL A   1       8.457  25.365   7.546  1.00  0.00    +0.000 H 
ATOM     15  C13 UNL A   1       8.818  24.890   6.705  1.00  0.00    +0.000 C 
BRANCH   15   16
ATOM     16  N3  UNL A   1       8.710  23.607   6.593  1.00  0.00    +0.000 N 
BRANCH   16   17
ATOM     17  O1  UNL A   1       9.315  22.996   7.698  1.00  0.00    +0.000 O 
ATOM    112  H11 UNL A   1       9.002  22.168   8.005  1.00  0.00    +0.000 H 
ENDBRANCH   16   17
ENDBRANCH   15   16
ENDBRANCH   14   15
ENDBRANCH    3    4
ENDBRANCH   21   20
ENDBRANCH   25   24
ENDBRANCH   27   25
ENDBRANCH   28   27
ENDBRANCH   29   28
ENDBRANCH   30   29
ENDBRANCH   31   30
ENDBRANCH   32   31
ENDBRANCH   33   32
ENDBRANCH   34   33
ENDBRANCH   35   34
ENDBRANCH   37   35
ENDBRANCH   41   40
BRANCH   45   46
ATOM     46  C34 UNL A   1      22.700  17.620  11.225  1.00  0.00    +0.000 C 
ATOM     47  C35 UNL A   1      22.435  18.379  12.386  1.00  0.00    +0.000 C 
ATOM     48  F1  UNL A   1      22.038  19.657  12.293  1.00  0.00    +0.000 F 
ATOM     49  C36 UNL A   1      22.674  17.878  13.670  1.00  0.00    +0.000 C 
ATOM     50  F2  UNL A   1      22.543  18.683  14.735  1.00  0.00    +0.000 F 
ATOM     51  C37 UNL A   1      23.120  16.583  13.845  1.00  0.00    +0.000 C 
ATOM     52  F3  UNL A   1      23.415  16.122  15.068  1.00  0.00    +0.000 F 
ATOM     53  C38 UNL A   1      23.306  15.780  12.740  1.00  0.00    +0.000 C 
ATOM     54  F4  UNL A   1      23.751  14.524  12.890  1.00  0.00    +0.000 F 
ATOM     55  C39 UNL A   1      23.121  16.293  11.455  1.00  0.00    +0.000 C 
ATOM     56  F5  UNL A   1      23.475  15.473  10.461  1.00  0.00    +0.000 F 
ENDBRANCH   45   46
BRANCH   62   63
ATOM     65  F6  UNL A   1      24.687  17.899   4.684  1.00  0.00    +0.000 F 
ATOM     66  C47 UNL A   1      26.716  18.048   3.522  1.00  0.00    +0.000 C 
ATOM     67  F7  UNL A   1      26.071  18.576   2.473  1.00  0.00    +0.000 F 
ATOM     68  C48 UNL A   1      28.095  17.919   3.491  1.00  0.00    +0.000 C 
ATOM     69  F8  UNL A   1      28.786  18.329   2.417  1.00  0.00    +0.000 F 
ATOM     70  C49 UNL A   1      28.763  17.389   4.584  1.00  0.00    +0.000 C 
ATOM     71  F9  UNL A   1      30.100  17.310   4.579  1.00  0.00    +0.000 F 
ATOM     72  C50 UNL A   1      28.049  16.961   5.699  1.00  0.00    +0.000 C 
ATOM     73  F10 UNL A   1      28.727  16.470   6.749  1.00  0.00    +0.000 F 
ATOM     63  C45 UNL A   1      26.653  17.078   5.757  1.00  0.00    +0.000 C 
ATOM     64  C46 UNL A   1      26.005  17.658   4.655  1.00  0.00    +0.000 C 
ENDBRANCH   62   63
BRANCH   77   78
ATOM     78  C54 UNL A   1      23.030  11.989   5.005  1.00  0.00    +0.000 C 
ATOM     79  C55 UNL A   1      22.072  11.283   5.748  1.00  0.00    +0.000 C 
ATOM     80  F11 UNL A   1      21.523  11.838   6.838  1.00  0.00    +0.000 F 
ATOM     81  C56 UNL A   1      21.618  10.024   5.347  1.00  0.00    +0.000 C 
ATOM     82  F12 UNL A   1      20.660   9.404   6.049  1.00  0.00    +0.000 F 
ATOM     83  C57 UNL A   1      22.115   9.433   4.195  1.00  0.00    +0.000 C 
ATOM     84  F13 UNL A   1      21.640   8.251   3.780  1.00  0.00    +0.000 F 
ATOM     85  C58 UNL A   1      23.078  10.093   3.453  1.00  0.00    +0.000 C 
ATOM     86  F14 UNL A   1      23.542   9.548   2.320  1.00  0.00    +0.000 F 
ATOM     87  C59 UNL A   1      23.523  11.354   3.849  1.00  0.00    +0.000 C 
ATOM     88  F15 UNL A   1      24.381  11.982   3.032  1.00  0.00    +0.000 F 
ENDBRANCH   77   78
TORSDOF 22
ENDMDL
MODEL 7
REMARK VINA RESULT:      -7.5     24.364     30.343
ROOT
ATOM    131  H30 UNL A   1      19.082  37.473  44.174  1.00  0.00    +0.000 H 
ATOM    132  H31 UNL A   1      18.103  38.464  46.442  1.00  0.00    +0.000 H 
ATOM    133  H32 UNL A   1      19.152  34.610  47.024  1.00  0.00    +0.000 H 
ATOM    134  H33 UNL A   1      24.782  38.137  51.719  1.00  0.00    +0.000 H 
ATOM    135  H34 UNL A   1      25.183  39.410  49.549  1.00  0.00    +0.000 H 
ATOM    136  H35 UNL A   1      22.216  36.600  48.783  1.00  0.00    +0.000 H 
ATOM    137  H36 UNL A   1      21.997  33.577  50.200  1.00  0.00    +0.000 H 
ATOM    138  H37 UNL A   1      19.967  33.976  48.661  1.00  0.00    +0.000 H 
ATOM    139  H38 UNL A   1      23.667  34.920  43.964  1.00  0.00    +0.000 H 
ATOM    140  H39 UNL A   1      25.329  36.209  45.441  1.00  0.00    +0.000 H 
ATOM     41  C30 UNL A   1      24.062  38.047  47.250  1.00  0.00    +0.000 C 
ATOM     42  C31 UNL A   1      23.418  37.103  46.280  1.00  0.00    +0.000 C 
ATOM     43  N9  UNL A   1      22.158  36.954  46.014  1.00  0.00    +0.000 N 
ATOM     44  C32 UNL A   1      22.073  35.868  45.140  1.00  0.00    +0.000 C 
ATOM     45  C33 UNL A   1      20.925  35.146  45.002  1.00  0.00    +0.000 C 
ATOM     57  C40 UNL A   1      19.781  35.880  45.467  1.00  0.00    +0.000 C 
ATOM     58  C41 UNL A   1      19.153  37.058  45.116  1.00  0.00    +0.000 C 
ATOM     59  C42 UNL A   1      18.622  37.579  46.333  1.00  0.00    +0.000 C 
ATOM     60  C43 UNL A   1      18.930  36.675  47.352  1.00  0.00    +0.000 C 
ATOM     61  N10 UNL A   1      19.264  35.529  46.686  1.00  0.00    +0.000 N 
ATOM     62  C44 UNL A   1      19.080  36.831  48.779  1.00  0.00    +0.000 C 
ATOM     74  C51 UNL A   1      19.769  35.970  49.582  1.00  0.00    +0.000 C 
ATOM     75  N11 UNL A   1      20.387  36.429  50.734  1.00  0.00    +0.000 N 
ATOM     76  C52 UNL A   1      21.427  35.655  50.881  1.00  0.00    +0.000 C 
ATOM     77  C53 UNL A   1      22.712  36.109  51.458  1.00  0.00    +0.000 C 
ATOM     89  C60 UNL A   1      23.257  36.993  50.592  1.00  0.00    +0.000 C 
ATOM     90  C61 UNL A   1      24.307  37.961  50.820  1.00  0.00    +0.000 C 
ATOM     91  C62 UNL A   1      24.559  38.594  49.660  1.00  0.00    +0.000 C 
ATOM     92  C63 UNL A   1      23.813  37.949  48.576  1.00  0.00    +0.000 C 
ATOM     93  N12 UNL A   1      22.951  37.086  49.223  1.00  0.00    +0.000 N 
ATOM     94  C64 UNL A   1      21.388  34.407  50.138  1.00  0.00    +0.000 C 
ATOM     95  C65 UNL A   1      20.337  34.648  49.351  1.00  0.00    +0.000 C 
ATOM     96  C66 UNL A   1      23.417  35.572  44.723  1.00  0.00    +0.000 C 
ATOM     97  C67 UNL A   1      24.298  36.257  45.453  1.00  0.00    +0.000 C 
ENDROOT
BRANCH   41   40
ATOM    129  H28 UNL A   1      28.504  38.692  46.293  1.00  0.00    +0.000 H 
ATOM     98  C68 UNL A   1      24.998  40.207  46.482  1.00  0.00    +0.000 C 
ATOM     99  C69 UNL A   1      26.064  40.996  46.106  1.00  0.00    +0.000 C 
ATOM    130  H29 UNL A   1      26.594  37.264  46.778  1.00  0.00    +0.000 H 
ATOM     37  C26 UNL A   1      27.349  40.457  46.130  1.00  0.00    +0.000 C 
ATOM     38  C27 UNL A   1      27.554  39.092  46.346  1.00  0.00    +0.000 C 
ATOM     39  C28 UNL A   1      26.462  38.277  46.635  1.00  0.00    +0.000 C 
ATOM     40  C29 UNL A   1      25.184  38.842  46.729  1.00  0.00    +0.000 C 
ATOM    141  H40 UNL A   1      24.058  40.626  46.580  1.00  0.00    +0.000 H 
ATOM    142  H41 UNL A   1      25.914  41.973  45.811  1.00  0.00    +0.000 H 
BRANCH   37   35
ATOM     35  C25 UNL A   1      28.507  41.357  45.981  1.00  0.00    +0.000 C 
ATOM     36  O3  UNL A   1      28.370  42.464  45.499  1.00  0.00    +0.000 O 
BRANCH   35   34
ATOM     34  N8  UNL A   1      29.749  40.902  46.384  1.00  0.00    +0.000 N 
ATOM    128  H27 UNL A   1      29.830  40.612  47.321  1.00  0.00    +0.000 H 
BRANCH   34   33
ATOM     33  C24 UNL A   1      30.953  40.806  45.563  1.00  0.00    +0.000 C 
ATOM    126  H25 UNL A   1      31.274  39.786  45.535  1.00  0.00    +0.000 H 
ATOM    127  H26 UNL A   1      30.717  41.158  44.580  1.00  0.00    +0.000 H 
BRANCH   33   32
ATOM    124  H23 UNL A   1      32.388  41.252  47.060  1.00  0.00    +0.000 H 
ATOM    125  H24 UNL A   1      32.865  41.665  45.397  1.00  0.00    +0.000 H 
ATOM     32  C23 UNL A   1      32.079  41.666  46.122  1.00  0.00    +0.000 C 
BRANCH   32   31
ATOM    122  H21 UNL A   1      31.311  43.518  45.422  1.00  0.00    +0.000 H 
ATOM    123  H22 UNL A   1      30.953  43.118  47.135  1.00  0.00    +0.000 H 
ATOM     31  C22 UNL A   1      31.680  43.131  46.349  1.00  0.00    +0.000 C 
BRANCH   31   30
ATOM    121  H20 UNL A   1      32.797  44.900  46.170  1.00  0.00    +0.000 H 
ATOM     30  C21 UNL A   1      32.802  44.063  46.836  1.00  0.00    +0.000 C 
ATOM    120  H19 UNL A   1      33.718  43.508  46.826  1.00  0.00    +0.000 H 
BRANCH   30   29
ATOM     29  C20 UNL A   1      32.617  44.644  48.246  1.00  0.00    +0.000 C 
ATOM    118  H17 UNL A   1      33.320  45.439  48.379  1.00  0.00    +0.000 H 
ATOM    119  H18 UNL A   1      31.603  44.981  48.315  1.00  0.00    +0.000 H 
BRANCH   29   28
ATOM    116  H15 UNL A   1      33.367  42.781  48.980  1.00  0.00    +0.000 H 
ATOM     28  C19 UNL A   1      32.826  43.620  49.366  1.00  0.00    +0.000 C 
ATOM    117  H16 UNL A   1      33.380  44.078  50.158  1.00  0.00    +0.000 H 
BRANCH   28   27
ATOM     27  N7  UNL A   1      31.548  43.171  49.880  1.00  0.00    +0.000 N 
ATOM    115  H14 UNL A   1      31.104  43.841  50.449  1.00  0.00    +0.000 H 
BRANCH   27   25
ATOM     25  C18 UNL A   1      30.824  42.015  49.745  1.00  0.00    +0.000 C 
ATOM     26  O2  UNL A   1      31.453  40.997  49.448  1.00  0.00    +0.000 O 
BRANCH   25   24
ATOM    100  C70 UNL A   1      28.580  40.775  49.676  1.00  0.00    +0.000 C 
ATOM    101  C71 UNL A   1      27.205  40.772  49.942  1.00  0.00    +0.000 C 
ATOM    143  H42 UNL A   1      29.036  39.913  49.339  1.00  0.00    +0.000 H 
ATOM    144  H43 UNL A   1      26.667  39.895  49.879  1.00  0.00    +0.000 H 
ATOM    113  H12 UNL A   1      26.790  44.054  50.509  1.00  0.00    +0.000 H 
ATOM    114  H13 UNL A   1      29.203  44.007  50.251  1.00  0.00    +0.000 H 
ATOM     21  C14 UNL A   1      26.562  41.965  50.295  1.00  0.00    +0.000 C 
ATOM     22  C15 UNL A   1      27.277  43.160  50.342  1.00  0.00    +0.000 C 
ATOM     23  C16 UNL A   1      28.664  43.131  50.162  1.00  0.00    +0.000 C 
ATOM     24  C17 UNL A   1      29.339  41.933  49.862  1.00  0.00    +0.000 C 
BRANCH   21   20
ATOM      2  C2  UNL A   1      24.529  41.810  51.774  1.00  0.00    +0.000 C 
ATOM      3  C3  UNL A   1      23.207  41.666  51.401  1.00  0.00    +0.000 C 
ATOM     18  N4  UNL A   1      23.070  41.864  50.060  1.00  0.00    +0.000 N 
ATOM     19  N5  UNL A   1      24.275  42.132  49.568  1.00  0.00    +0.000 N 
ATOM     20  N6  UNL A   1      25.178  41.970  50.564  1.00  0.00    +0.000 N 
BRANCH    2    1
ATOM      1  C1  UNL A   1      25.145  41.939  53.115  1.00  0.00    +0.000 C 
ATOM    102  H1  UNL A   1      24.841  41.115  53.728  1.00  0.00    +0.000 H 
ATOM    103  H2  UNL A   1      24.826  42.855  53.567  1.00  0.00    +0.000 H 
ATOM    104  H3  UNL A   1      26.210  41.940  53.020  1.00  0.00    +0.000 H 
ENDBRANCH    2    1
BRANCH    3    4
ATOM      4  C4  UNL A   1      22.058  41.439  52.268  1.00  0.00    +0.000 C 
ATOM      5  N1  UNL A   1      21.752  40.224  52.740  1.00  0.00    +0.000 N 
ATOM      6  N2  UNL A   1      20.545  40.385  53.325  1.00  0.00    +0.000 N 
ATOM     13  C11 UNL A   1      20.114  41.690  53.263  1.00  0.00    +0.000 C 
ATOM     14  C12 UNL A   1      21.104  42.419  52.631  1.00  0.00    +0.000 C 
ATOM    110  H9  UNL A   1      19.219  42.057  53.623  1.00  0.00    +0.000 H 
BRANCH    6    7
ATOM      7  C5  UNL A   1      19.859  39.284  53.887  1.00  0.00    +0.000 C 
ATOM      8  C6  UNL A   1      20.005  39.015  55.253  1.00  0.00    +0.000 C 
ATOM      9  C7  UNL A   1      19.306  37.952  55.826  1.00  0.00    +0.000 C 
ATOM    105  H4  UNL A   1      20.625  39.600  55.834  1.00  0.00    +0.000 H 
ATOM     11  C9  UNL A   1      18.394  37.377  53.662  1.00  0.00    +0.000 C 
ATOM     12  C10 UNL A   1      19.045  38.472  53.089  1.00  0.00    +0.000 C 
ATOM    109  H8  UNL A   1      18.927  38.679  52.084  1.00  0.00    +0.000 H 
ATOM     10  C8  UNL A   1      18.512  37.127  55.029  1.00  0.00    +0.000 C 
ATOM    106  H5  UNL A   1      19.377  37.774  56.841  1.00  0.00    +0.000 H 
ATOM    108  H7  UNL A   1      17.824  36.751  53.071  1.00  0.00    +0.000 H 
ATOM    107  H6  UNL A   1      18.011  36.330  55.452  1.00  0.00    +0.000 H 
ENDBRANCH    6    7
BRANCH   14   15
ATOM    111  H10 UNL A   1      21.625  44.461  53.052  1.00  0.00    +0.000 H 
ATOM     15  C13 UNL A   1      21.075  43.845  52.434  1.00  0.00    +0.000 C 
BRANCH   15   16
ATOM     16  N3  UNL A   1      20.361  44.354  51.485  1.00  0.00    +0.000 N 
BRANCH   16   17
ATOM     17  O1  UNL A   1      21.198  45.047  50.601  1.00  0.00    +0.000 O 
ATOM    112  H11 UNL A   1      20.828  45.564  49.913  1.00  0.00    +0.000 H 
ENDBRANCH   16   17
ENDBRANCH   15   16
ENDBRANCH   14   15
ENDBRANCH    3    4
ENDBRANCH   21   20
ENDBRANCH   25   24
ENDBRANCH   27   25
ENDBRANCH   28   27
ENDBRANCH   29   28
ENDBRANCH   30   29
ENDBRANCH   31   30
ENDBRANCH   32   31
ENDBRANCH   33   32
ENDBRANCH   34   33
ENDBRANCH   35   34
ENDBRANCH   37   35
ENDBRANCH   41   40
BRANCH   45   46
ATOM     46  C34 UNL A   1      20.875  33.639  44.823  1.00  0.00    +0.000 C 
ATOM     47  C35 UNL A   1      19.868  33.077  44.008  1.00  0.00    +0.000 C 
ATOM     48  F1  UNL A   1      19.155  33.848  43.172  1.00  0.00    +0.000 F 
ATOM     49  C36 UNL A   1      19.497  31.732  44.106  1.00  0.00    +0.000 C 
ATOM     50  F2  UNL A   1      18.442  31.279  43.414  1.00  0.00    +0.000 F 
ATOM     51  C37 UNL A   1      20.160  30.884  44.971  1.00  0.00    +0.000 C 
ATOM     52  F3  UNL A   1      19.763  29.613  45.120  1.00  0.00    +0.000 F 
ATOM     53  C38 UNL A   1      21.208  31.373  45.722  1.00  0.00    +0.000 C 
ATOM     54  F4  UNL A   1      21.855  30.568  46.577  1.00  0.00    +0.000 F 
ATOM     55  C39 UNL A   1      21.546  32.726  45.666  1.00  0.00    +0.000 C 
ATOM     56  F5  UNL A   1      22.475  33.116  46.545  1.00  0.00    +0.000 F 
ENDBRANCH   45   46
BRANCH   62   63
ATOM     65  F6  UNL A   1      20.693  39.277  48.743  1.00  0.00    +0.000 F 
ATOM     66  C47 UNL A   1      19.029  40.522  49.825  1.00  0.00    +0.000 C 
ATOM     67  F7  UNL A   1      19.823  41.601  49.795  1.00  0.00    +0.000 F 
ATOM     68  C48 UNL A   1      17.743  40.626  50.332  1.00  0.00    +0.000 C 
ATOM     69  F8  UNL A   1      17.290  41.804  50.783  1.00  0.00    +0.000 F 
ATOM     70  C49 UNL A   1      16.916  39.513  50.345  1.00  0.00    +0.000 C 
ATOM     71  F9  UNL A   1      15.655  39.620  50.786  1.00  0.00    +0.000 F 
ATOM     72  C50 UNL A   1      17.384  38.289  49.879  1.00  0.00    +0.000 C 
ATOM     73  F10 UNL A   1      16.553  37.234  49.889  1.00  0.00    +0.000 F 
ATOM     63  C45 UNL A   1      18.680  38.154  49.363  1.00  0.00    +0.000 C 
ATOM     64  C46 UNL A   1      19.483  39.306  49.319  1.00  0.00    +0.000 C 
ENDBRANCH   62   63
BRANCH   77   78
ATOM     78  C54 UNL A   1      23.337  35.475  52.638  1.00  0.00    +0.000 C 
ATOM     79  C55 UNL A   1      22.673  35.419  53.873  1.00  0.00    +0.000 C 
ATOM     80  F11 UNL A   1      21.535  36.104  54.057  1.00  0.00    +0.000 F 
ATOM     81  C56 UNL A   1      23.133  34.608  54.914  1.00  0.00    +0.000 C 
ATOM     82  F12 UNL A   1      22.442  34.534  56.059  1.00  0.00    +0.000 F 
ATOM     83  C57 UNL A   1      24.275  33.838  54.752  1.00  0.00    +0.000 C 
ATOM     84  F13 UNL A   1      24.685  33.020  55.731  1.00  0.00    +0.000 F 
ATOM     85  C58 UNL A   1      24.965  33.889  53.555  1.00  0.00    +0.000 C 
ATOM     86  F14 UNL A   1      26.051  33.124  53.374  1.00  0.00    +0.000 F 
ATOM     87  C59 UNL A   1      24.500  34.690  52.513  1.00  0.00    +0.000 C 
ATOM     88  F15 UNL A   1      25.157  34.617  51.346  1.00  0.00    +0.000 F 
ENDBRANCH   77   78
TORSDOF 22
ENDMDL
MODEL 8
REMARK VINA RESULT:      -7.4     22.914     29.121
ROOT
ATOM    131  H30 UNL A   1      17.415  35.700  49.542  1.00  0.00    +0.000 H 
ATOM    132  H31 UNL A   1      18.385  34.227  47.549  1.00  0.00    +0.000 H 
ATOM    133  H32 UNL A   1      19.461  38.077  46.995  1.00  0.00    +0.000 H 
ATOM    134  H33 UNL A   1      26.812  34.957  48.549  1.00  0.00    +0.000 H 
ATOM    135  H34 UNL A   1      25.553  34.111  50.595  1.00  0.00    +0.000 H 
ATOM    136  H35 UNL A   1      22.891  36.428  48.398  1.00  0.00    +0.000 H 
ATOM    137  H36 UNL A   1      23.703  39.121  46.585  1.00  0.00    +0.000 H 
ATOM    138  H37 UNL A   1      21.194  38.598  46.306  1.00  0.00    +0.000 H 
ATOM    139  H38 UNL A   1      20.401  39.033  52.291  1.00  0.00    +0.000 H 
ATOM    140  H39 UNL A   1      22.640  37.857  52.745  1.00  0.00    +0.000 H 
ATOM     41  C30 UNL A   1      23.096  35.576  51.059  1.00  0.00    +0.000 C 
ATOM     42  C31 UNL A   1      21.934  36.523  51.050  1.00  0.00    +0.000 C 
ATOM     43  N9  UNL A   1      20.865  36.482  50.318  1.00  0.00    +0.000 N 
ATOM     44  C32 UNL A   1      20.157  37.653  50.601  1.00  0.00    +0.000 C 
ATOM     45  C33 UNL A   1      19.248  38.170  49.728  1.00  0.00    +0.000 C 
ATOM     57  C40 UNL A   1      18.801  37.183  48.783  1.00  0.00    +0.000 C 
ATOM     58  C41 UNL A   1      18.134  35.978  48.856  1.00  0.00    +0.000 C 
ATOM     59  C42 UNL A   1      18.651  35.196  47.780  1.00  0.00    +0.000 C 
ATOM     60  C43 UNL A   1      19.581  35.980  47.095  1.00  0.00    +0.000 C 
ATOM     61  N10 UNL A   1      19.313  37.253  47.515  1.00  0.00    +0.000 N 
ATOM     62  C44 UNL A   1      20.714  35.644  46.267  1.00  0.00    +0.000 C 
ATOM     74  C51 UNL A   1      21.756  36.486  46.004  1.00  0.00    +0.000 C 
ATOM     75  N11 UNL A   1      23.022  35.980  45.758  1.00  0.00    +0.000 N 
ATOM     76  C52 UNL A   1      23.835  36.896  46.205  1.00  0.00    +0.000 C 
ATOM     77  C53 UNL A   1      25.151  36.600  46.814  1.00  0.00    +0.000 C 
ATOM     89  C60 UNL A   1      24.922  35.964  47.986  1.00  0.00    +0.000 C 
ATOM     90  C61 UNL A   1      25.833  35.176  48.787  1.00  0.00    +0.000 C 
ATOM     91  C62 UNL A   1      25.185  34.777  49.897  1.00  0.00    +0.000 C 
ATOM     92  C63 UNL A   1      23.875  35.431  49.963  1.00  0.00    +0.000 C 
ATOM     93  N12 UNL A   1      23.726  36.021  48.724  1.00  0.00    +0.000 N 
ATOM     94  C64 UNL A   1      23.251  38.214  46.394  1.00  0.00    +0.000 C 
ATOM     95  C65 UNL A   1      21.959  37.908  46.251  1.00  0.00    +0.000 C 
ATOM     96  C66 UNL A   1      20.785  38.241  51.753  1.00  0.00    +0.000 C 
ATOM     97  C67 UNL A   1      21.935  37.625  52.030  1.00  0.00    +0.000 C 
ENDROOT
BRANCH   41   40
ATOM    129  H28 UNL A   1      26.249  34.733  54.286  1.00  0.00    +0.000 H 
ATOM     98  C68 UNL A   1      22.635  34.280  53.118  1.00  0.00    +0.000 C 
ATOM     99  C69 UNL A   1      23.049  33.707  54.302  1.00  0.00    +0.000 C 
ATOM    130  H29 UNL A   1      25.468  35.892  52.293  1.00  0.00    +0.000 H 
ATOM     37  C26 UNL A   1      24.389  33.801  54.670  1.00  0.00    +0.000 C 
ATOM     38  C27 UNL A   1      25.275  34.617  53.963  1.00  0.00    +0.000 C 
ATOM     39  C28 UNL A   1      24.831  35.270  52.816  1.00  0.00    +0.000 C 
ATOM     40  C29 UNL A   1      23.514  35.080  52.378  1.00  0.00    +0.000 C 
ATOM    141  H40 UNL A   1      21.674  34.118  52.777  1.00  0.00    +0.000 H 
ATOM    142  H41 UNL A   1      22.374  33.213  54.907  1.00  0.00    +0.000 H 
BRANCH   37   35
ATOM     35  C25 UNL A   1      24.885  32.980  55.790  1.00  0.00    +0.000 C 
ATOM     36  O3  UNL A   1      25.908  33.282  56.371  1.00  0.00    +0.000 O 
BRANCH   35   34
ATOM     34  N8  UNL A   1      24.169  31.852  56.144  1.00  0.00    +0.000 N 
ATOM    128  H27 UNL A   1      23.427  31.981  56.778  1.00  0.00    +0.000 H 
BRANCH   34   33
ATOM     33  C24 UNL A   1      24.399  30.488  55.676  1.00  0.00    +0.000 C 
ATOM    126  H25 UNL A   1      23.839  30.329  54.779  1.00  0.00    +0.000 H 
ATOM    127  H26 UNL A   1      25.447  30.368  55.496  1.00  0.00    +0.000 H 
BRANCH   33   32
ATOM    124  H23 UNL A   1      24.842  28.940  57.057  1.00  0.00    +0.000 H 
ATOM    125  H24 UNL A   1      23.483  29.997  57.503  1.00  0.00    +0.000 H 
ATOM     32  C23 UNL A   1      23.971  29.461  56.716  1.00  0.00    +0.000 C 
BRANCH   32   31
ATOM    122  H21 UNL A   1      22.474  28.855  55.337  1.00  0.00    +0.000 H 
ATOM    123  H22 UNL A   1      23.540  27.553  55.962  1.00  0.00    +0.000 H 
ATOM     31  C22 UNL A   1      22.967  28.428  56.186  1.00  0.00    +0.000 C 
BRANCH   31   30
ATOM    121  H20 UNL A   1      21.059  28.639  57.037  1.00  0.00    +0.000 H 
ATOM     30  C21 UNL A   1      21.886  27.975  57.181  1.00  0.00    +0.000 C 
ATOM    120  H19 UNL A   1      22.306  28.013  58.164  1.00  0.00    +0.000 H 
BRANCH   30   29
ATOM     29  C20 UNL A   1      21.332  26.559  56.957  1.00  0.00    +0.000 C 
ATOM    118  H17 UNL A   1      20.301  26.639  56.682  1.00  0.00    +0.000 H 
ATOM    119  H18 UNL A   1      21.925  26.107  56.190  1.00  0.00    +0.000 H 
BRANCH   29   28
ATOM    116  H15 UNL A   1      20.933  26.125  59.013  1.00  0.00    +0.000 H 
ATOM     28  C19 UNL A   1      21.434  25.657  58.191  1.00  0.00    +0.000 C 
ATOM    117  H16 UNL A   1      20.976  24.715  57.974  1.00  0.00    +0.000 H 
BRANCH   28   27
ATOM     27  N7  UNL A   1      22.824  25.439  58.539  1.00  0.00    +0.000 N 
ATOM    115  H14 UNL A   1      23.081  25.868  59.387  1.00  0.00    +0.000 H 
BRANCH   27   25
ATOM     25  C18 UNL A   1      23.857  24.766  57.941  1.00  0.00    +0.000 C 
ATOM     26  O2  UNL A   1      24.144  23.662  58.408  1.00  0.00    +0.000 O 
BRANCH   25   24
ATOM    100  C70 UNL A   1      25.769  26.182  56.984  1.00  0.00    +0.000 C 
ATOM    101  C71 UNL A   1      26.568  26.531  55.887  1.00  0.00    +0.000 C 
ATOM    143  H42 UNL A   1      25.984  26.571  57.915  1.00  0.00    +0.000 H 
ATOM    144  H43 UNL A   1      27.411  27.108  56.024  1.00  0.00    +0.000 H 
ATOM    113  H12 UNL A   1      24.744  25.105  53.456  1.00  0.00    +0.000 H 
ATOM    114  H13 UNL A   1      23.489  24.334  55.386  1.00  0.00    +0.000 H 
ATOM     21  C14 UNL A   1      26.217  26.094  54.603  1.00  0.00    +0.000 C 
ATOM     22  C15 UNL A   1      25.056  25.348  54.410  1.00  0.00    +0.000 C 
ATOM     23  C16 UNL A   1      24.320  24.932  55.523  1.00  0.00    +0.000 C 
ATOM     24  C17 UNL A   1      24.686  25.313  56.828  1.00  0.00    +0.000 C 
BRANCH   21   20
ATOM      2  C2  UNL A   1      26.942  27.561  52.688  1.00  0.00    +0.000 C 
ATOM      3  C3  UNL A   1      27.793  27.252  51.647  1.00  0.00    +0.000 C 
ATOM     18  N4  UNL A   1      28.434  26.075  51.894  1.00  0.00    +0.000 N 
ATOM     19  N5  UNL A   1      28.011  25.626  53.071  1.00  0.00    +0.000 N 
ATOM     20  N6  UNL A   1      27.016  26.441  53.495  1.00  0.00    +0.000 N 
BRANCH    2    1
ATOM      1  C1  UNL A   1      26.229  28.819  53.011  1.00  0.00    +0.000 C 
ATOM    102  H1  UNL A   1      26.268  29.478  52.168  1.00  0.00    +0.000 H 
ATOM    103  H2  UNL A   1      26.696  29.288  53.851  1.00  0.00    +0.000 H 
ATOM    104  H3  UNL A   1      25.209  28.601  53.247  1.00  0.00    +0.000 H 
ENDBRANCH    2    1
BRANCH    3    4
ATOM      4  C4  UNL A   1      28.095  28.062  50.473  1.00  0.00    +0.000 C 
ATOM      5  N1  UNL A   1      27.163  28.805  49.864  1.00  0.00    +0.000 N 
ATOM      6  N2  UNL A   1      27.765  29.240  48.736  1.00  0.00    +0.000 N 
ATOM     13  C11 UNL A   1      29.071  28.814  48.653  1.00  0.00    +0.000 C 
ATOM     14  C12 UNL A   1      29.338  28.090  49.800  1.00  0.00    +0.000 C 
ATOM    110  H9  UNL A   1      29.728  29.001  47.880  1.00  0.00    +0.000 H 
BRANCH    6    7
ATOM      7  C5  UNL A   1      27.058  30.015  47.788  1.00  0.00    +0.000 C 
ATOM      8  C6  UNL A   1      26.093  29.397  46.984  1.00  0.00    +0.000 C 
ATOM      9  C7  UNL A   1      25.366  30.157  46.069  1.00  0.00    +0.000 C 
ATOM    105  H4  UNL A   1      25.921  28.383  47.068  1.00  0.00    +0.000 H 
ATOM     11  C9  UNL A   1      26.626  32.125  46.695  1.00  0.00    +0.000 C 
ATOM     12  C10 UNL A   1      27.321  31.383  47.653  1.00  0.00    +0.000 C 
ATOM    109  H8  UNL A   1      28.023  31.841  48.255  1.00  0.00    +0.000 H 
ATOM     10  C8  UNL A   1      25.640  31.517  45.916  1.00  0.00    +0.000 C 
ATOM    106  H5  UNL A   1      24.624  29.715  45.503  1.00  0.00    +0.000 H 
ATOM    108  H7  UNL A   1      26.842  33.126  46.563  1.00  0.00    +0.000 H 
ATOM    107  H6  UNL A   1      25.113  32.074  45.225  1.00  0.00    +0.000 H 
ENDBRANCH    6    7
BRANCH   14   15
ATOM    111  H10 UNL A   1      30.998  26.739  49.596  1.00  0.00    +0.000 H 
ATOM     15  C13 UNL A   1      30.623  27.532  50.138  1.00  0.00    +0.000 C 
BRANCH   15   16
ATOM     16  N3  UNL A   1      31.305  28.023  51.119  1.00  0.00    +0.000 N 
BRANCH   16   17
ATOM     17  O1  UNL A   1      32.657  27.703  50.945  1.00  0.00    +0.000 O 
ATOM    112  H11 UNL A   1      33.286  28.384  50.808  1.00  0.00    +0.000 H 
ENDBRANCH   16   17
ENDBRANCH   15   16
ENDBRANCH   14   15
ENDBRANCH    3    4
ENDBRANCH   21   20
ENDBRANCH   25   24
ENDBRANCH   27   25
ENDBRANCH   28   27
ENDBRANCH   29   28
ENDBRANCH   30   29
ENDBRANCH   31   30
ENDBRANCH   32   31
ENDBRANCH   33   32
ENDBRANCH   34   33
ENDBRANCH   35   34
ENDBRANCH   37   35
ENDBRANCH   41   40
BRANCH   45   46
ATOM     46  C34 UNL A   1      19.057  39.654  49.466  1.00  0.00    +0.000 C 
ATOM     47  C35 UNL A   1      20.152  40.416  49.000  1.00  0.00    +0.000 C 
ATOM     48  F1  UNL A   1      21.247  39.813  48.515  1.00  0.00    +0.000 F 
ATOM     49  C36 UNL A   1      20.191  41.809  49.119  1.00  0.00    +0.000 C 
ATOM     50  F2  UNL A   1      21.308  42.474  48.794  1.00  0.00    +0.000 F 
ATOM     51  C37 UNL A   1      19.116  42.498  49.645  1.00  0.00    +0.000 C 
ATOM     52  F3  UNL A   1      19.176  43.824  49.825  1.00  0.00    +0.000 F 
ATOM     53  C38 UNL A   1      17.992  41.799  50.030  1.00  0.00    +0.000 C 
ATOM     54  F4  UNL A   1      16.943  42.449  50.555  1.00  0.00    +0.000 F 
ATOM     55  C39 UNL A   1      17.969  40.405  49.963  1.00  0.00    +0.000 C 
ATOM     56  F5  UNL A   1      16.891  39.828  50.502  1.00  0.00    +0.000 F 
ENDBRANCH   45   46
BRANCH   62   63
ATOM     65  F6  UNL A   1      19.931  34.425  43.720  1.00  0.00    +0.000 F 
ATOM     66  C47 UNL A   1      20.735  32.318  44.356  1.00  0.00    +0.000 C 
ATOM     67  F7  UNL A   1      20.335  31.815  43.180  1.00  0.00    +0.000 F 
ATOM     68  C48 UNL A   1      21.415  31.511  45.255  1.00  0.00    +0.000 C 
ATOM     69  F8  UNL A   1      21.681  30.234  44.947  1.00  0.00    +0.000 F 
ATOM     70  C49 UNL A   1      21.844  32.037  46.464  1.00  0.00    +0.000 C 
ATOM     71  F9  UNL A   1      22.547  31.277  47.314  1.00  0.00    +0.000 F 
ATOM     72  C50 UNL A   1      21.568  33.362  46.787  1.00  0.00    +0.000 C 
ATOM     73  F10 UNL A   1      22.013  33.846  47.958  1.00  0.00    +0.000 F 
ATOM     63  C45 UNL A   1      20.881  34.200  45.898  1.00  0.00    +0.000 C 
ATOM     64  C46 UNL A   1      20.496  33.656  44.662  1.00  0.00    +0.000 C 
ENDBRANCH   62   63
BRANCH   77   78
ATOM     78  C54 UNL A   1      26.422  37.154  46.303  1.00  0.00    +0.000 C 
ATOM     79  C55 UNL A   1      27.176  36.474  45.334  1.00  0.00    +0.000 C 
ATOM     80  F11 UNL A   1      26.854  35.220  44.988  1.00  0.00    +0.000 F 
ATOM     81  C56 UNL A   1      28.231  37.096  44.661  1.00  0.00    +0.000 C 
ATOM     82  F12 UNL A   1      28.893  36.436  43.700  1.00  0.00    +0.000 F 
ATOM     83  C57 UNL A   1      28.566  38.411  44.944  1.00  0.00    +0.000 C 
ATOM     84  F13 UNL A   1      29.543  39.024  44.259  1.00  0.00    +0.000 F 
ATOM     85  C58 UNL A   1      27.858  39.100  45.910  1.00  0.00    +0.000 C 
ATOM     86  F14 UNL A   1      28.150  40.383  46.169  1.00  0.00    +0.000 F 
ATOM     87  C59 UNL A   1      26.799  38.484  46.575  1.00  0.00    +0.000 C 
ATOM     88  F15 UNL A   1      26.089  39.238  47.426  1.00  0.00    +0.000 F 
ENDBRANCH   77   78
TORSDOF 22
ENDMDL
MODEL 9
REMARK VINA RESULT:      -7.4     20.133     27.279
ROOT
ATOM    131  H30 UNL A   1      48.099  12.559  52.904  1.00  0.00    +0.000 H 
ATOM    132  H31 UNL A   1      48.741  14.368  51.061  1.00  0.00    +0.000 H 
ATOM    133  H32 UNL A   1      48.126  10.806  49.265  1.00  0.00    +0.000 H 
ATOM    134  H33 UNL A   1      41.706  14.811  46.279  1.00  0.00    +0.000 H 
ATOM    135  H34 UNL A   1      41.348  15.233  48.766  1.00  0.00    +0.000 H 
ATOM    136  H35 UNL A   1      44.694  12.791  48.413  1.00  0.00    +0.000 H 
ATOM    137  H36 UNL A   1      45.155  10.463  46.054  1.00  0.00    +0.000 H 
ATOM    138  H37 UNL A   1      47.250  10.629  47.547  1.00  0.00    +0.000 H 
ATOM    139  H38 UNL A   1      43.901   9.437  52.446  1.00  0.00    +0.000 H 
ATOM    140  H39 UNL A   1      41.967  10.881  51.563  1.00  0.00    +0.000 H 
ATOM     41  C30 UNL A   1      42.830  13.373  50.422  1.00  0.00    +0.000 C 
ATOM     42  C31 UNL A   1      43.670  12.269  50.989  1.00  0.00    +0.000 C 
ATOM     43  N9  UNL A   1      44.957  12.226  51.135  1.00  0.00    +0.000 N 
ATOM     44  C32 UNL A   1      45.254  10.939  51.588  1.00  0.00    +0.000 C 
ATOM     45  C33 UNL A   1      46.489  10.388  51.425  1.00  0.00    +0.000 C 
ATOM     57  C40 UNL A   1      47.488  11.392  51.184  1.00  0.00    +0.000 C 
ATOM     58  C41 UNL A   1      47.996  12.469  51.882  1.00  0.00    +0.000 C 
ATOM     59  C42 UNL A   1      48.347  13.430  50.888  1.00  0.00    +0.000 C 
ATOM     60  C43 UNL A   1      48.062  12.873  49.640  1.00  0.00    +0.000 C 
ATOM     61  N10 UNL A   1      47.933  11.537  49.896  1.00  0.00    +0.000 N 
ATOM     62  C44 UNL A   1      47.766  13.463  48.356  1.00  0.00    +0.000 C 
ATOM     74  C51 UNL A   1      47.118  12.821  47.342  1.00  0.00    +0.000 C 
ATOM     75  N11 UNL A   1      46.348  13.535  46.439  1.00  0.00    +0.000 N 
ATOM     76  C52 UNL A   1      45.402  12.710  46.086  1.00  0.00    +0.000 C 
ATOM     77  C53 UNL A   1      44.024  13.134  45.752  1.00  0.00    +0.000 C 
ATOM     89  C60 UNL A   1      43.454  13.598  46.888  1.00  0.00    +0.000 C 
ATOM     90  C61 UNL A   1      42.277  14.423  47.046  1.00  0.00    +0.000 C 
ATOM     91  C62 UNL A   1      42.054  14.598  48.361  1.00  0.00    +0.000 C 
ATOM     92  C63 UNL A   1      42.969  13.751  49.131  1.00  0.00    +0.000 C 
ATOM     93  N12 UNL A   1      43.869  13.282  48.195  1.00  0.00    +0.000 N 
ATOM     94  C64 UNL A   1      45.661  11.307  46.365  1.00  0.00    +0.000 C 
ATOM     95  C65 UNL A   1      46.741  11.429  47.140  1.00  0.00    +0.000 C 
ATOM     96  C66 UNL A   1      43.999  10.331  51.940  1.00  0.00    +0.000 C 
ATOM     97  C67 UNL A   1      42.979  11.080  51.522  1.00  0.00    +0.000 C 
ENDROOT
BRANCH   41   40
ATOM    129  H28 UNL A   1      40.724  16.125  53.431  1.00  0.00    +0.000 H 
ATOM     98  C68 UNL A   1      40.603  12.891  51.393  1.00  0.00    +0.000 C 
ATOM     99  C69 UNL A   1      39.561  13.205  52.239  1.00  0.00    +0.000 C 
ATOM    130  H29 UNL A   1      42.471  15.655  51.803  1.00  0.00    +0.000 H 
ATOM     37  C26 UNL A   1      39.659  14.338  53.044  1.00  0.00    +0.000 C 
ATOM     38  C27 UNL A   1      40.700  15.255  52.876  1.00  0.00    +0.000 C 
ATOM     39  C28 UNL A   1      41.706  14.979  51.953  1.00  0.00    +0.000 C 
ATOM     40  C29 UNL A   1      41.671  13.782  51.228  1.00  0.00    +0.000 C 
ATOM    141  H40 UNL A   1      40.595  11.995  50.878  1.00  0.00    +0.000 H 
ATOM    142  H41 UNL A   1      38.720  12.609  52.277  1.00  0.00    +0.000 H 
BRANCH   37   35
ATOM     35  C25 UNL A   1      38.676  14.536  54.126  1.00  0.00    +0.000 C 
ATOM     36  O3  UNL A   1      38.216  13.583  54.723  1.00  0.00    +0.000 O 
BRANCH   35   34
ATOM     34  N8  UNL A   1      38.280  15.826  54.425  1.00  0.00    +0.000 N 
ATOM    128  H27 UNL A   1      38.673  16.234  55.229  1.00  0.00    +0.000 H 
BRANCH   34   33
ATOM     33  C24 UNL A   1      37.338  16.648  53.669  1.00  0.00    +0.000 C 
ATOM    126  H25 UNL A   1      36.818  16.027  52.970  1.00  0.00    +0.000 H 
ATOM    127  H26 UNL A   1      36.655  17.097  54.360  1.00  0.00    +0.000 H 
BRANCH   33   32
ATOM    124  H23 UNL A   1      38.692  17.313  52.179  1.00  0.00    +0.000 H 
ATOM    125  H24 UNL A   1      37.295  18.374  52.470  1.00  0.00    +0.000 H 
ATOM     32  C23 UNL A   1      38.051  17.760  52.911  1.00  0.00    +0.000 C 
BRANCH   32   31
ATOM    122  H21 UNL A   1      38.586  19.679  53.646  1.00  0.00    +0.000 H 
ATOM    123  H22 UNL A   1      38.748  18.320  54.808  1.00  0.00    +0.000 H 
ATOM     31  C22 UNL A   1      38.902  18.670  53.808  1.00  0.00    +0.000 C 
BRANCH   31   30
ATOM    121  H20 UNL A   1      40.560  17.990  52.713  1.00  0.00    +0.000 H 
ATOM     30  C21 UNL A   1      40.421  18.608  53.575  1.00  0.00    +0.000 C 
ATOM    120  H19 UNL A   1      40.875  18.220  54.463  1.00  0.00    +0.000 H 
BRANCH   30   29
ATOM     29  C20 UNL A   1      41.096  19.949  53.246  1.00  0.00    +0.000 C 
ATOM    118  H17 UNL A   1      41.025  20.112  52.191  1.00  0.00    +0.000 H 
ATOM    119  H18 UNL A   1      40.587  20.703  53.810  1.00  0.00    +0.000 H 
BRANCH   29   28
ATOM    116  H15 UNL A   1      43.084  20.699  53.009  1.00  0.00    +0.000 H 
ATOM     28  C19 UNL A   1      42.573  20.009  53.647  1.00  0.00    +0.000 C 
ATOM    117  H16 UNL A   1      42.645  20.332  54.665  1.00  0.00    +0.000 H 
BRANCH   28   27
ATOM     27  N7  UNL A   1      43.180  18.700  53.521  1.00  0.00    +0.000 N 
ATOM    115  H14 UNL A   1      42.905  18.224  52.703  1.00  0.00    +0.000 H 
BRANCH   27   25
ATOM     25  C18 UNL A   1      44.052  17.979  54.294  1.00  0.00    +0.000 C 
ATOM     26  O2  UNL A   1      44.908  18.620  54.910  1.00  0.00    +0.000 O 
BRANCH   25   24
ATOM    100  C70 UNL A   1      44.861  15.653  53.579  1.00  0.00    +0.000 C 
ATOM    101  C71 UNL A   1      44.910  14.274  53.825  1.00  0.00    +0.000 C 
ATOM    143  H42 UNL A   1      45.411  16.052  52.803  1.00  0.00    +0.000 H 
ATOM    144  H43 UNL A   1      45.553  13.676  53.285  1.00  0.00    +0.000 H 
ATOM    113  H12 UNL A   1      42.508  14.088  56.161  1.00  0.00    +0.000 H 
ATOM    114  H13 UNL A   1      42.583  16.497  55.873  1.00  0.00    +0.000 H 
ATOM     21  C14 UNL A   1      44.083  13.712  54.805  1.00  0.00    +0.000 C 
ATOM     22  C15 UNL A   1      43.184  14.512  55.507  1.00  0.00    +0.000 C 
ATOM     23  C16 UNL A   1      43.210  15.897  55.315  1.00  0.00    +0.000 C 
ATOM     24  C17 UNL A   1      44.074  16.490  54.374  1.00  0.00    +0.000 C 
BRANCH   21   20
ATOM      2  C2  UNL A   1      43.080  11.433  55.186  1.00  0.00    +0.000 C 
ATOM      3  C3  UNL A   1      43.699  10.293  55.657  1.00  0.00    +0.000 C 
ATOM     18  N4  UNL A   1      45.052  10.462  55.677  1.00  0.00    +0.000 N 
ATOM     19  N5  UNL A   1      45.309  11.686  55.229  1.00  0.00    +0.000 N 
ATOM     20  N6  UNL A   1      44.128  12.325  55.058  1.00  0.00    +0.000 N 
BRANCH    2    1
ATOM      1  C1  UNL A   1      41.684  11.662  54.747  1.00  0.00    +0.000 C 
ATOM    102  H1  UNL A   1      41.104  12.017  55.574  1.00  0.00    +0.000 H 
ATOM    103  H2  UNL A   1      41.268  10.744  54.388  1.00  0.00    +0.000 H 
ATOM    104  H3  UNL A   1      41.671  12.390  53.963  1.00  0.00    +0.000 H 
ENDBRANCH    2    1
BRANCH    3    4
ATOM      4  C4  UNL A   1      43.077   9.020  56.003  1.00  0.00    +0.000 C 
ATOM      5  N1  UNL A   1      42.231   8.900  57.033  1.00  0.00    +0.000 N 
ATOM      6  N2  UNL A   1      42.029   7.569  57.148  1.00  0.00    +0.000 N 
ATOM     13  C11 UNL A   1      42.702   6.862  56.178  1.00  0.00    +0.000 C 
ATOM     14  C12 UNL A   1      43.351   7.782  55.376  1.00  0.00    +0.000 C 
ATOM    110  H9  UNL A   1      42.718   5.836  56.069  1.00  0.00    +0.000 H 
BRANCH    6    7
ATOM      7  C5  UNL A   1      41.227   7.044  58.187  1.00  0.00    +0.000 C 
ATOM      8  C6  UNL A   1      40.217   6.127  57.873  1.00  0.00    +0.000 C 
ATOM      9  C7  UNL A   1      39.442   5.577  58.893  1.00  0.00    +0.000 C 
ATOM    105  H4  UNL A   1      40.047   5.859  56.891  1.00  0.00    +0.000 H 
ATOM     11  C9  UNL A   1      40.619   6.922  60.521  1.00  0.00    +0.000 C 
ATOM     12  C10 UNL A   1      41.438   7.437  59.514  1.00  0.00    +0.000 C 
ATOM    109  H8  UNL A   1      42.192   8.103  59.746  1.00  0.00    +0.000 H 
ATOM     10  C8  UNL A   1      39.634   5.983  60.214  1.00  0.00    +0.000 C 
ATOM    106  H5  UNL A   1      38.724   4.868  58.672  1.00  0.00    +0.000 H 
ATOM    108  H7  UNL A   1      40.744   7.237  61.496  1.00  0.00    +0.000 H 
ATOM    107  H6  UNL A   1      39.047   5.588  60.966  1.00  0.00    +0.000 H 
ENDBRANCH    6    7
BRANCH   14   15
ATOM    111  H10 UNL A   1      44.918   8.032  53.927  1.00  0.00    +0.000 H 
ATOM     15  C13 UNL A   1      44.109   7.453  54.197  1.00  0.00    +0.000 C 
BRANCH   15   16
ATOM     16  N3  UNL A   1      43.776   6.433  53.476  1.00  0.00    +0.000 N 
BRANCH   16   17
ATOM     17  O1  UNL A   1      43.402   6.874  52.200  1.00  0.00    +0.000 O 
ATOM    112  H11 UNL A   1      43.933   6.664  51.457  1.00  0.00    +0.000 H 
ENDBRANCH   16   17
ENDBRANCH   15   16
ENDBRANCH   14   15
ENDBRANCH    3    4
ENDBRANCH   21   20
ENDBRANCH   25   24
ENDBRANCH   27   25
ENDBRANCH   28   27
ENDBRANCH   29   28
ENDBRANCH   30   29
ENDBRANCH   31   30
ENDBRANCH   32   31
ENDBRANCH   33   32
ENDBRANCH   34   33
ENDBRANCH   35   34
ENDBRANCH   37   35
ENDBRANCH   41   40
BRANCH   45   46
ATOM     46  C34 UNL A   1      46.740   8.929  51.085  1.00  0.00    +0.000 C 
ATOM     47  C35 UNL A   1      46.062   8.353  49.988  1.00  0.00    +0.000 C 
ATOM     48  F1  UNL A   1      45.443   9.127  49.083  1.00  0.00    +0.000 F 
ATOM     49  C36 UNL A   1      45.914   6.969  49.850  1.00  0.00    +0.000 C 
ATOM     50  F2  UNL A   1      45.143   6.476  48.871  1.00  0.00    +0.000 F 
ATOM     51  C37 UNL A   1      46.491   6.108  50.763  1.00  0.00    +0.000 C 
ATOM     52  F3  UNL A   1      46.293   4.786  50.674  1.00  0.00    +0.000 F 
ATOM     53  C38 UNL A   1      47.235   6.628  51.800  1.00  0.00    +0.000 C 
ATOM     54  F4  UNL A   1      47.792   5.809  52.704  1.00  0.00    +0.000 F 
ATOM     55  C39 UNL A   1      47.341   8.009  51.971  1.00  0.00    +0.000 C 
ATOM     56  F5  UNL A   1      47.958   8.396  53.092  1.00  0.00    +0.000 F 
ENDBRANCH   45   46
BRANCH   62   63
ATOM     65  F6  UNL A   1      49.984  14.816  47.001  1.00  0.00    +0.000 F 
ATOM     66  C47 UNL A   1      49.100  16.941  47.437  1.00  0.00    +0.000 C 
ATOM     67  F7  UNL A   1      50.151  17.500  46.821  1.00  0.00    +0.000 F 
ATOM     68  C48 UNL A   1      48.074  17.742  47.913  1.00  0.00    +0.000 C 
ATOM     69  F8  UNL A   1      48.127  19.072  47.752  1.00  0.00    +0.000 F 
ATOM     70  C49 UNL A   1      46.979  17.161  48.534  1.00  0.00    +0.000 C 
ATOM     71  F9  UNL A   1      45.961  17.927  48.950  1.00  0.00    +0.000 F 
ATOM     72  C50 UNL A   1      46.922  15.782  48.705  1.00  0.00    +0.000 C 
ATOM     73  F10 UNL A   1      45.839  15.249  49.294  1.00  0.00    +0.000 F 
ATOM     63  C45 UNL A   1      47.946  14.948  48.234  1.00  0.00    +0.000 C 
ATOM     64  C46 UNL A   1      49.023  15.557  47.570  1.00  0.00    +0.000 C 
ENDBRANCH   62   63
BRANCH   77   78
ATOM     78  C54 UNL A   1      43.378  12.836  44.457  1.00  0.00    +0.000 C 
ATOM     79  C55 UNL A   1      42.715  11.619  44.235  1.00  0.00    +0.000 C 
ATOM     80  F11 UNL A   1      42.814  10.626  45.131  1.00  0.00    +0.000 F 
ATOM     81  C56 UNL A   1      41.890  11.428  43.123  1.00  0.00    +0.000 C 
ATOM     82  F12 UNL A   1      41.227  10.274  42.974  1.00  0.00    +0.000 F 
ATOM     83  C57 UNL A   1      41.712  12.446  42.199  1.00  0.00    +0.000 C 
ATOM     84  F13 UNL A   1      40.879  12.281  41.162  1.00  0.00    +0.000 F 
ATOM     85  C58 UNL A   1      42.371  13.648  42.376  1.00  0.00    +0.000 C 
ATOM     86  F14 UNL A   1      42.181  14.652  41.507  1.00  0.00    +0.000 F 
ATOM     87  C59 UNL A   1      43.186  13.843  43.490  1.00  0.00    +0.000 C 
ATOM     88  F15 UNL A   1      43.713  15.064  43.656  1.00  0.00    +0.000 F 
ENDBRANCH   77   78
TORSDOF 22
ENDMDL
MODEL 10
REMARK VINA RESULT:      -7.4     41.446     47.156
ROOT
ATOM    131  H30 UNL A   1       3.986  30.224  -4.858  1.00  0.00    +0.000 H 
ATOM    132  H31 UNL A   1       5.422  32.367  -5.515  1.00  0.00    +0.000 H 
ATOM    133  H32 UNL A   1       5.161  32.128  -1.494  1.00  0.00    +0.000 H 
ATOM    134  H33 UNL A   1      13.107  30.583  -2.305  1.00  0.00    +0.000 H 
ATOM    135  H34 UNL A   1      12.171  28.831  -3.899  1.00  0.00    +0.000 H 
ATOM    136  H35 UNL A   1       8.923  30.778  -2.185  1.00  0.00    +0.000 H 
ATOM    137  H36 UNL A   1       8.818  32.004   0.927  1.00  0.00    +0.000 H 
ATOM    138  H37 UNL A   1       6.632  32.571  -0.315  1.00  0.00    +0.000 H 
ATOM    139  H38 UNL A   1       5.648  26.689  -1.348  1.00  0.00    +0.000 H 
ATOM    140  H39 UNL A   1       8.144  26.278  -1.800  1.00  0.00    +0.000 H 
ATOM     41  C30 UNL A   1       9.360  28.307  -3.430  1.00  0.00    +0.000 C 
ATOM     42  C31 UNL A   1       7.949  28.237  -2.930  1.00  0.00    +0.000 C 
ATOM     43  N9  UNL A   1       6.965  29.047  -3.169  1.00  0.00    +0.000 N 
ATOM     44  C32 UNL A   1       5.904  28.615  -2.372  1.00  0.00    +0.000 C 
ATOM     45  C33 UNL A   1       4.888  29.449  -2.015  1.00  0.00    +0.000 C 
ATOM     57  C40 UNL A   1       4.810  30.589  -2.887  1.00  0.00    +0.000 C 
ATOM     58  C41 UNL A   1       4.582  30.789  -4.233  1.00  0.00    +0.000 C 
ATOM     59  C42 UNL A   1       5.346  31.944  -4.577  1.00  0.00    +0.000 C 
ATOM     60  C43 UNL A   1       5.971  32.400  -3.415  1.00  0.00    +0.000 C 
ATOM     61  N10 UNL A   1       5.288  31.779  -2.407  1.00  0.00    +0.000 N 
ATOM     62  C44 UNL A   1       7.164  33.182  -3.196  1.00  0.00    +0.000 C 
ATOM     74  C51 UNL A   1       7.869  33.205  -2.027  1.00  0.00    +0.000 C 
ATOM     75  N11 UNL A   1       9.235  33.436  -2.037  1.00  0.00    +0.000 N 
ATOM     76  C52 UNL A   1       9.690  32.767  -1.014  1.00  0.00    +0.000 C 
ATOM     77  C53 UNL A   1      11.020  32.119  -0.982  1.00  0.00    +0.000 C 
ATOM     89  C60 UNL A   1      10.999  31.103  -1.875  1.00  0.00    +0.000 C 
ATOM     90  C61 UNL A   1      12.107  30.388  -2.467  1.00  0.00    +0.000 C 
ATOM     91  C62 UNL A   1      11.613  29.424  -3.265  1.00  0.00    +0.000 C 
ATOM     92  C63 UNL A   1      10.158  29.345  -3.096  1.00  0.00    +0.000 C 
ATOM     93  N12 UNL A   1       9.841  30.465  -2.355  1.00  0.00    +0.000 N 
ATOM     94  C64 UNL A   1       8.697  32.391  -0.021  1.00  0.00    +0.000 C 
ATOM     95  C65 UNL A   1       7.584  32.689  -0.695  1.00  0.00    +0.000 C 
ATOM     96  C66 UNL A   1       6.282  27.329  -1.850  1.00  0.00    +0.000 C 
ATOM     97  C67 UNL A   1       7.567  27.077  -2.103  1.00  0.00    +0.000 C 
ENDROOT
BRANCH   41   40
ATOM    129  H28 UNL A   1       9.432  24.987  -6.599  1.00  0.00    +0.000 H 
ATOM     98  C68 UNL A   1      10.762  26.273  -3.251  1.00  0.00    +0.000 C 
ATOM     99  C69 UNL A   1      11.185  25.052  -3.733  1.00  0.00    +0.000 C 
ATOM    130  H29 UNL A   1       8.828  27.218  -5.834  1.00  0.00    +0.000 H 
ATOM     37  C26 UNL A   1      10.625  24.554  -4.906  1.00  0.00    +0.000 C 
ATOM     38  C27 UNL A   1       9.786  25.343  -5.697  1.00  0.00    +0.000 C 
ATOM     39  C28 UNL A   1       9.431  26.615  -5.253  1.00  0.00    +0.000 C 
ATOM     40  C29 UNL A   1       9.899  27.070  -4.014  1.00  0.00    +0.000 C 
ATOM    141  H40 UNL A   1      11.082  26.600  -2.326  1.00  0.00    +0.000 H 
ATOM    142  H41 UNL A   1      11.908  24.515  -3.229  1.00  0.00    +0.000 H 
BRANCH   37   35
ATOM     35  C25 UNL A   1      10.880  23.151  -5.283  1.00  0.00    +0.000 C 
ATOM     36  O3  UNL A   1      11.967  22.815  -5.709  1.00  0.00    +0.000 O 
BRANCH   35   34
ATOM     34  N8  UNL A   1       9.848  22.240  -5.160  1.00  0.00    +0.000 N 
ATOM    128  H27 UNL A   1       9.040  22.411  -5.695  1.00  0.00    +0.000 H 
BRANCH   34   33
ATOM     33  C24 UNL A   1       9.832  21.047  -4.316  1.00  0.00    +0.000 C 
ATOM    126  H25 UNL A   1      10.575  21.151  -3.554  1.00  0.00    +0.000 H 
ATOM    127  H26 UNL A   1       8.856  20.953  -3.887  1.00  0.00    +0.000 H 
BRANCH   33   32
ATOM    124  H23 UNL A   1       9.193  19.314  -5.358  1.00  0.00    +0.000 H 
ATOM    125  H24 UNL A   1      10.656  20.095  -5.999  1.00  0.00    +0.000 H 
ATOM     32  C23 UNL A   1      10.123  19.789  -5.124  1.00  0.00    +0.000 C 
BRANCH   32   31
ATOM    122  H21 UNL A   1      11.884  19.293  -4.046  1.00  0.00    +0.000 H 
ATOM    123  H22 UNL A   1      10.407  18.376  -3.601  1.00  0.00    +0.000 H 
ATOM     31  C22 UNL A   1      11.012  18.777  -4.388  1.00  0.00    +0.000 C 
BRANCH   31   30
ATOM    121  H20 UNL A   1      12.543  17.614  -5.231  1.00  0.00    +0.000 H 
ATOM     30  C21 UNL A   1      11.474  17.566  -5.216  1.00  0.00    +0.000 C 
ATOM    120  H19 UNL A   1      11.025  17.639  -6.184  1.00  0.00    +0.000 H 
BRANCH   30   29
ATOM     29  C20 UNL A   1      11.121  16.190  -4.632  1.00  0.00    +0.000 C 
ATOM    118  H17 UNL A   1      10.075  16.177  -4.406  1.00  0.00    +0.000 H 
ATOM    119  H18 UNL A   1      11.388  15.459  -5.367  1.00  0.00    +0.000 H 
BRANCH   29   28
ATOM    116  H15 UNL A   1      11.914  16.701  -2.713  1.00  0.00    +0.000 H 
ATOM     28  C19 UNL A   1      11.895  15.846  -3.356  1.00  0.00    +0.000 C 
ATOM    117  H16 UNL A   1      11.410  15.030  -2.862  1.00  0.00    +0.000 H 
BRANCH   28   27
ATOM     27  N7  UNL A   1      13.254  15.462  -3.683  1.00  0.00    +0.000 N 
ATOM    115  H14 UNL A   1      13.317  14.555  -4.063  1.00  0.00    +0.000 H 
BRANCH   27   25
ATOM     25  C18 UNL A   1      14.468  16.086  -3.575  1.00  0.00    +0.000 C 
ATOM     26  O2  UNL A   1      15.466  15.411  -3.838  1.00  0.00    +0.000 O 
BRANCH   25   24
ATOM    100  C70 UNL A   1      14.743  18.613  -3.919  1.00  0.00    +0.000 C 
ATOM    101  C71 UNL A   1      14.782  19.900  -3.367  1.00  0.00    +0.000 C 
ATOM    143  H42 UNL A   1      14.782  18.496  -4.944  1.00  0.00    +0.000 H 
ATOM    144  H43 UNL A   1      14.767  20.727  -3.982  1.00  0.00    +0.000 H 
ATOM    113  H12 UNL A   1      15.040  19.055  -0.129  1.00  0.00    +0.000 H 
ATOM    114  H13 UNL A   1      14.762  16.842  -1.086  1.00  0.00    +0.000 H 
ATOM     21  C14 UNL A   1      14.841  20.059  -1.977  1.00  0.00    +0.000 C 
ATOM     22  C15 UNL A   1      14.902  18.942  -1.145  1.00  0.00    +0.000 C 
ATOM     23  C16 UNL A   1      14.772  17.668  -1.706  1.00  0.00    +0.000 C 
ATOM     24  C17 UNL A   1      14.655  17.487  -3.097  1.00  0.00    +0.000 C 
BRANCH   21   20
ATOM      2  C2  UNL A   1      13.899  22.325  -1.408  1.00  0.00    +0.000 C 
ATOM      3  C3  UNL A   1      14.569  23.437  -0.939  1.00  0.00    +0.000 C 
ATOM     18  N4  UNL A   1      15.835  23.104  -0.563  1.00  0.00    +0.000 N 
ATOM     19  N5  UNL A   1      15.990  21.802  -0.782  1.00  0.00    +0.000 N 
ATOM     20  N6  UNL A   1      14.880  21.351  -1.414  1.00  0.00    +0.000 N 
BRANCH    2    1
ATOM      1  C1  UNL A   1      12.461  22.112  -1.692  1.00  0.00    +0.000 C 
ATOM    102  H1  UNL A   1      11.965  23.060  -1.749  1.00  0.00    +0.000 H 
ATOM    103  H2  UNL A   1      12.025  21.529  -0.908  1.00  0.00    +0.000 H 
ATOM    104  H3  UNL A   1      12.353  21.596  -2.623  1.00  0.00    +0.000 H 
ENDBRANCH    2    1
BRANCH    3    4
ATOM      4  C4  UNL A   1      14.036  24.781  -0.746  1.00  0.00    +0.000 C 
ATOM      5  N1  UNL A   1      13.090  25.047   0.163  1.00  0.00    +0.000 N 
ATOM      6  N2  UNL A   1      12.731  26.324  -0.090  1.00  0.00    +0.000 N 
ATOM     13  C11 UNL A   1      13.469  26.872  -1.114  1.00  0.00    +0.000 C 
ATOM     14  C12 UNL A   1      14.372  25.911  -1.527  1.00  0.00    +0.000 C 
ATOM    110  H9  UNL A   1      13.368  27.824  -1.500  1.00  0.00    +0.000 H 
BRANCH    6    7
ATOM      7  C5  UNL A   1      11.691  26.944   0.639  1.00  0.00    +0.000 C 
ATOM      8  C6  UNL A   1      10.823  27.822  -0.021  1.00  0.00    +0.000 C 
ATOM      9  C7  UNL A   1       9.773  28.413   0.680  1.00  0.00    +0.000 C 
ATOM    105  H4  UNL A   1      10.959  28.030  -1.023  1.00  0.00    +0.000 H 
ATOM     11  C9  UNL A   1      10.509  27.326   2.711  1.00  0.00    +0.000 C 
ATOM     12  C10 UNL A   1      11.531  26.686   2.006  1.00  0.00    +0.000 C 
ATOM    109  H8  UNL A   1      12.163  26.028   2.489  1.00  0.00    +0.000 H 
ATOM     10  C8  UNL A   1       9.623  28.175   2.047  1.00  0.00    +0.000 C 
ATOM    106  H5  UNL A   1       9.104  29.028   0.189  1.00  0.00    +0.000 H 
ATOM    108  H7  UNL A   1      10.410  27.170   3.726  1.00  0.00    +0.000 H 
ATOM    107  H6  UNL A   1       8.856  28.628   2.568  1.00  0.00    +0.000 H 
ENDBRANCH    6    7
BRANCH   14   15
ATOM    111  H10 UNL A   1      15.950  26.973  -2.529  1.00  0.00    +0.000 H 
ATOM     15  C13 UNL A   1      15.383  26.112  -2.534  1.00  0.00    +0.000 C 
BRANCH   15   16
ATOM     16  N3  UNL A   1      15.580  25.215  -3.443  1.00  0.00    +0.000 N 
BRANCH   16   17
ATOM     17  O1  UNL A   1      14.384  24.991  -4.135  1.00  0.00    +0.000 O 
ATOM    112  H11 UNL A   1      13.563  25.179  -3.726  1.00  0.00    +0.000 H 
ENDBRANCH   16   17
ENDBRANCH   15   16
ENDBRANCH   14   15
ENDBRANCH    3    4
ENDBRANCH   21   20
ENDBRANCH   25   24
ENDBRANCH   27   25
ENDBRANCH   28   27
ENDBRANCH   29   28
ENDBRANCH   30   29
ENDBRANCH   31   30
ENDBRANCH   32   31
ENDBRANCH   33   32
ENDBRANCH   34   33
ENDBRANCH   35   34
ENDBRANCH   37   35
ENDBRANCH   41   40
BRANCH   45   46
ATOM     46  C34 UNL A   1       4.217  29.453  -0.652  1.00  0.00    +0.000 C 
ATOM     47  C35 UNL A   1       5.021  29.485   0.509  1.00  0.00    +0.000 C 
ATOM     48  F1  UNL A   1       6.322  29.804   0.431  1.00  0.00    +0.000 F 
ATOM     49  C36 UNL A   1       4.535  29.089   1.759  1.00  0.00    +0.000 C 
ATOM     50  F2  UNL A   1       5.373  29.002   2.802  1.00  0.00    +0.000 F 
ATOM     51  C37 UNL A   1       3.216  28.712   1.911  1.00  0.00    +0.000 C 
ATOM     52  F3  UNL A   1       2.764  28.266   3.091  1.00  0.00    +0.000 F 
ATOM     53  C38 UNL A   1       2.375  28.750   0.819  1.00  0.00    +0.000 C 
ATOM     54  F4  UNL A   1       1.094  28.374   0.943  1.00  0.00    +0.000 F 
ATOM     55  C39 UNL A   1       2.868  29.093  -0.441  1.00  0.00    +0.000 C 
ATOM     56  F5  UNL A   1       2.001  28.951  -1.448  1.00  0.00    +0.000 F 
ENDBRANCH   45   46
BRANCH   62   63
ATOM     65  F6  UNL A   1       9.114  31.868  -4.945  1.00  0.00    +0.000 F 
ATOM     66  C47 UNL A   1       9.253  33.724  -6.368  1.00  0.00    +0.000 C 
ATOM     67  F7  UNL A   1      10.156  33.076  -7.117  1.00  0.00    +0.000 F 
ATOM     68  C48 UNL A   1       8.809  34.979  -6.754  1.00  0.00    +0.000 C 
ATOM     69  F8  UNL A   1       9.276  35.542  -7.878  1.00  0.00    +0.000 F 
ATOM     70  C49 UNL A   1       7.862  35.640  -5.988  1.00  0.00    +0.000 C 
ATOM     71  F9  UNL A   1       7.392  36.830  -6.384  1.00  0.00    +0.000 F 
ATOM     72  C50 UNL A   1       7.378  35.059  -4.820  1.00  0.00    +0.000 C 
ATOM     73  F10 UNL A   1       6.446  35.717  -4.111  1.00  0.00    +0.000 F 
ATOM     63  C45 UNL A   1       7.809  33.792  -4.406  1.00  0.00    +0.000 C 
ATOM     64  C46 UNL A   1       8.737  33.124  -5.221  1.00  0.00    +0.000 C 
ENDBRANCH   62   63
BRANCH   77   78
ATOM     78  C54 UNL A   1      12.041  32.419   0.044  1.00  0.00    +0.000 C 
ATOM     79  C55 UNL A   1      12.001  31.818   1.310  1.00  0.00    +0.000 C 
ATOM     80  F11 UNL A   1      10.930  31.101   1.682  1.00  0.00    +0.000 F 
ATOM     81  C56 UNL A   1      13.086  31.891   2.189  1.00  0.00    +0.000 C 
ATOM     82  F12 UNL A   1      13.035  31.255   3.368  1.00  0.00    +0.000 F 
ATOM     83  C57 UNL A   1      14.237  32.573   1.827  1.00  0.00    +0.000 C 
ATOM     84  F13 UNL A   1      15.297  32.596   2.648  1.00  0.00    +0.000 F 
ATOM     85  C58 UNL A   1      14.299  33.197   0.595  1.00  0.00    +0.000 C 
ATOM     86  F14 UNL A   1      15.419  33.831   0.220  1.00  0.00    +0.000 F 
ATOM     87  C59 UNL A   1      13.221  33.116  -0.285  1.00  0.00    +0.000 C 
ATOM     88  F15 UNL A   1      13.384  33.655  -1.502  1.00  0.00    +0.000 F 
ENDBRANCH   77   78
TORSDOF 22
ENDMDL
