MODEL 1
REMARK VINA RESULT:     -10.4      0.000      0.000
ROOT
ATOM     28  C20 UNL A   1      38.344  30.062  29.660  1.00  0.00    +0.000 C 
ATOM     29  C21 UNL A   1      38.589  30.575  31.056  1.00  0.00    +0.000 C 
ATOM     30  N4  UNL A   1      39.596  30.336  31.858  1.00  0.00    +0.000 N 
ATOM     31  C22 UNL A   1      39.342  31.061  33.015  1.00  0.00    +0.000 C 
ATOM     32  C23 UNL A   1      40.072  31.119  34.154  1.00  0.00    +0.000 C 
ATOM     44  C30 UNL A   1      41.295  30.393  34.377  1.00  0.00    +0.000 C 
ATOM     45  C31 UNL A   1      42.092  30.374  35.510  1.00  0.00    +0.000 C 
ATOM     46  C32 UNL A   1      43.191  29.546  35.258  1.00  0.00    +0.000 C 
ATOM     47  C33 UNL A   1      43.059  29.022  33.983  1.00  0.00    +0.000 C 
ATOM     48  N5  UNL A   1      41.894  29.552  33.453  1.00  0.00    +0.000 N 
ATOM     49  C34 UNL A   1      43.934  28.109  33.294  1.00  0.00    +0.000 C 
ATOM     61  C41 UNL A   1      43.714  27.606  32.056  1.00  0.00    +0.000 C 
ATOM     62  N6  UNL A   1      42.654  27.850  31.195  1.00  0.00    +0.000 N 
ATOM     63  C42 UNL A   1      42.906  27.159  30.111  1.00  0.00    +0.000 C 
ATOM     64  C43 UNL A   1      42.097  27.047  28.851  1.00  0.00    +0.000 C 
ATOM     76  C50 UNL A   1      40.977  27.782  28.717  1.00  0.00    +0.000 C 
ATOM     77  C51 UNL A   1      40.101  27.779  27.549  1.00  0.00    +0.000 C 
ATOM     78  C52 UNL A   1      39.093  28.641  27.754  1.00  0.00    +0.000 C 
ATOM     79  C53 UNL A   1      39.226  29.219  29.092  1.00  0.00    +0.000 C 
ATOM     80  N7  UNL A   1      40.391  28.678  29.576  1.00  0.00    +0.000 N 
ATOM     81  C54 UNL A   1      44.162  26.395  30.161  1.00  0.00    +0.000 C 
ATOM     82  C55 UNL A   1      44.601  26.682  31.380  1.00  0.00    +0.000 C 
ATOM     83  C56 UNL A   1      38.099  31.770  32.805  1.00  0.00    +0.000 C 
ATOM     84  C57 UNL A   1      37.570  31.471  31.625  1.00  0.00    +0.000 C 
ATOM    109  H23 UNL A   1      41.907  30.883  36.388  1.00  0.00    +0.000 H 
ATOM    110  H24 UNL A   1      43.968  29.360  35.911  1.00  0.00    +0.000 H 
ATOM    111  H25 UNL A   1      41.543  29.360  32.553  1.00  0.00    +0.000 H 
ATOM    112  H26 UNL A   1      40.234  27.205  26.701  1.00  0.00    +0.000 H 
ATOM    113  H27 UNL A   1      38.345  28.861  27.078  1.00  0.00    +0.000 H 
ATOM    114  H28 UNL A   1      40.771  28.911  30.454  1.00  0.00    +0.000 H 
ATOM    115  H29 UNL A   1      44.589  25.794  29.439  1.00  0.00    +0.000 H 
ATOM    116  H30 UNL A   1      45.465  26.297  31.792  1.00  0.00    +0.000 H 
ATOM    117  H31 UNL A   1      37.679  32.424  33.483  1.00  0.00    +0.000 H 
ATOM    118  H32 UNL A   1      36.677  31.785  31.215  1.00  0.00    +0.000 H 
ENDROOT
BRANCH   28   27
ATOM     27  C19 UNL A   1      37.099  30.420  28.931  1.00  0.00    +0.000 C 
ATOM    107  H21 UNL A   1      34.250  29.013  27.835  1.00  0.00    +0.000 H 
ATOM    108  H22 UNL A   1      36.312  28.457  28.979  1.00  0.00    +0.000 H 
ATOM     85  C58 UNL A   1      36.854  31.734  28.502  1.00  0.00    +0.000 C 
ATOM     86  C59 UNL A   1      35.617  32.073  27.948  1.00  0.00    +0.000 C 
ATOM    120  H34 UNL A   1      35.426  33.047  27.663  1.00  0.00    +0.000 H 
ATOM     24  C16 UNL A   1      34.637  31.089  27.782  1.00  0.00    +0.000 C 
ATOM     25  C17 UNL A   1      34.926  29.755  28.075  1.00  0.00    +0.000 C 
ATOM     26  C18 UNL A   1      36.130  29.431  28.693  1.00  0.00    +0.000 C 
ATOM    119  H33 UNL A   1      37.590  32.451  28.596  1.00  0.00    +0.000 H 
BRANCH   24   22
ATOM     22  C15 UNL A   1      33.285  31.491  27.337  1.00  0.00    +0.000 C 
ATOM     23  O3  UNL A   1      32.973  32.679  27.323  1.00  0.00    +0.000 O 
BRANCH   22   21
ATOM    106  H20 UNL A   1      31.761  30.236  27.705  1.00  0.00    +0.000 H 
ATOM     21  N3  UNL A   1      32.368  30.525  26.987  1.00  0.00    +0.000 N 
BRANCH   21   20
ATOM    105  H19 UNL A   1      32.948  30.221  25.049  1.00  0.00    +0.000 H 
ATOM     20  C14 UNL A   1      32.173  29.874  25.700  1.00  0.00    +0.000 C 
ATOM    104  H18 UNL A   1      31.198  30.125  25.337  1.00  0.00    +0.000 H 
BRANCH   20   19
ATOM     19  C13 UNL A   1      32.289  28.355  25.768  1.00  0.00    +0.000 C 
ATOM    102  H16 UNL A   1      32.421  28.080  26.793  1.00  0.00    +0.000 H 
ATOM    103  H17 UNL A   1      31.391  27.972  25.331  1.00  0.00    +0.000 H 
BRANCH   19   18
ATOM     18  C12 UNL A   1      33.440  27.747  24.966  1.00  0.00    +0.000 C 
ATOM    100  H14 UNL A   1      33.057  27.453  24.012  1.00  0.00    +0.000 H 
ATOM    101  H15 UNL A   1      34.193  28.506  24.913  1.00  0.00    +0.000 H 
BRANCH   18   17
ATOM     17  C11 UNL A   1      34.116  26.529  25.599  1.00  0.00    +0.000 C 
ATOM     98  H12 UNL A   1      34.792  26.116  24.880  1.00  0.00    +0.000 H 
ATOM     99  H13 UNL A   1      34.592  26.889  26.488  1.00  0.00    +0.000 H 
BRANCH   17   16
ATOM     97  H11 UNL A   1      32.426  25.315  25.300  1.00  0.00    +0.000 H 
ATOM     96  H10 UNL A   1      32.782  25.673  27.017  1.00  0.00    +0.000 H 
ATOM     16  C10 UNL A   1      33.175  25.406  26.058  1.00  0.00    +0.000 C 
BRANCH   16   15
ATOM     95  H9  UNL A   1      33.789  23.728  27.208  1.00  0.00    +0.000 H 
ATOM     94  H8  UNL A   1      34.834  24.085  25.837  1.00  0.00    +0.000 H 
ATOM     15  C9  UNL A   1      33.823  24.027  26.181  1.00  0.00    +0.000 C 
BRANCH   15   14
ATOM     93  H7  UNL A   1      32.333  22.594  25.795  1.00  0.00    +0.000 H 
ATOM     14  N2  UNL A   1      33.113  23.041  25.394  1.00  0.00    +0.000 N 
BRANCH   14    2
ATOM      1  O1  UNL A   1      34.622  22.401  23.781  1.00  0.00    +0.000 O 
ATOM      2  C1  UNL A   1      33.478  22.700  24.110  1.00  0.00    +0.000 C 
BRANCH    2    3
ATOM      3  C2  UNL A   1      32.336  22.757  23.101  1.00  0.00    +0.000 C 
ATOM     87  H1  UNL A   1      31.517  22.173  23.467  1.00  0.00    +0.000 H 
ATOM     88  H2  UNL A   1      32.687  22.368  22.168  1.00  0.00    +0.000 H 
BRANCH    3    4
ATOM      4  C3  UNL A   1      31.874  24.173  22.887  1.00  0.00    +0.000 C 
ATOM      5  C4  UNL A   1      32.588  24.999  21.932  1.00  0.00    +0.000 C 
ATOM      6  C5  UNL A   1      32.241  26.278  21.740  1.00  0.00    +0.000 C 
ATOM      7  C6  UNL A   1      31.103  26.874  22.491  1.00  0.00    +0.000 C 
ATOM      8  O2  UNL A   1      30.838  28.057  22.308  1.00  0.00    +0.000 O 
ATOM      9  N1  UNL A   1      30.433  26.012  23.346  1.00  0.00    +0.000 N 
ATOM     13  C8  UNL A   1      30.823  24.697  23.540  1.00  0.00    +0.000 C 
ATOM     89  H3  UNL A   1      33.371  24.596  21.395  1.00  0.00    +0.000 H 
ATOM     90  H4  UNL A   1      32.767  26.854  21.065  1.00  0.00    +0.000 H 
ATOM     92  H6  UNL A   1      30.295  24.107  24.201  1.00  0.00    +0.000 H 
BRANCH    9   10
ATOM     10  C7  UNL A   1      29.325  26.560  24.085  1.00  0.00    +0.000 C 
ATOM     11  F1  UNL A   1      28.147  26.083  23.613  1.00  0.00    +0.000 F 
ATOM     12  F2  UNL A   1      29.409  26.244  25.400  1.00  0.00    +0.000 F 
ATOM     91  H5  UNL A   1      29.366  27.623  23.965  1.00  0.00    +0.000 H 
ENDBRANCH    9   10
ENDBRANCH    3    4
ENDBRANCH    2    3
ENDBRANCH   14    2
ENDBRANCH   15   14
ENDBRANCH   16   15
ENDBRANCH   17   16
ENDBRANCH   18   17
ENDBRANCH   19   18
ENDBRANCH   20   19
ENDBRANCH   21   20
ENDBRANCH   22   21
ENDBRANCH   24   22
ENDBRANCH   28   27
BRANCH   32   33
ATOM     33  C24 UNL A   1      39.573  32.000  35.261  1.00  0.00    +0.000 C 
ATOM     34  C25 UNL A   1      39.925  33.356  35.331  1.00  0.00    +0.000 C 
ATOM     35  F3  UNL A   1      40.784  33.877  34.443  1.00  0.00    +0.000 F 
ATOM     36  C26 UNL A   1      39.407  34.177  36.330  1.00  0.00    +0.000 C 
ATOM     37  F4  UNL A   1      39.776  35.464  36.394  1.00  0.00    +0.000 F 
ATOM     38  C27 UNL A   1      38.514  33.666  37.259  1.00  0.00    +0.000 C 
ATOM     39  F5  UNL A   1      38.006  34.462  38.211  1.00  0.00    +0.000 F 
ATOM     40  C28 UNL A   1      38.148  32.330  37.204  1.00  0.00    +0.000 C 
ATOM     41  F6  UNL A   1      37.277  31.837  38.095  1.00  0.00    +0.000 F 
ATOM     42  C29 UNL A   1      38.681  31.500  36.221  1.00  0.00    +0.000 C 
ATOM     43  F7  UNL A   1      38.309  30.211  36.192  1.00  0.00    +0.000 F 
ENDBRANCH   32   33
BRANCH   49   50
ATOM     50  C35 UNL A   1      45.180  27.673  34.004  1.00  0.00    +0.000 C 
ATOM     51  C36 UNL A   1      46.368  28.411  33.905  1.00  0.00    +0.000 C 
ATOM     52  F8  UNL A   1      46.429  29.489  33.108  1.00  0.00    +0.000 F 
ATOM     53  C37 UNL A   1      47.507  28.028  34.607  1.00  0.00    +0.000 C 
ATOM     54  F9  UNL A   1      48.641  28.730  34.477  1.00  0.00    +0.000 F 
ATOM     55  C38 UNL A   1      47.472  26.918  35.439  1.00  0.00    +0.000 C 
ATOM     56  F10 UNL A   1      48.567  26.557  36.122  1.00  0.00    +0.000 F 
ATOM     57  C39 UNL A   1      46.305  26.178  35.556  1.00  0.00    +0.000 C 
ATOM     58  F11 UNL A   1      46.268  25.111  36.366  1.00  0.00    +0.000 F 
ATOM     59  C40 UNL A   1      45.170  26.546  34.839  1.00  0.00    +0.000 C 
ATOM     60  F12 UNL A   1      44.055  25.811  34.970  1.00  0.00    +0.000 F 
ENDBRANCH   49   50
BRANCH   64   65
ATOM     65  C44 UNL A   1      42.510  26.136  27.755  1.00  0.00    +0.000 C 
ATOM     66  C45 UNL A   1      41.946  24.859  27.633  1.00  0.00    +0.000 C 
ATOM     67  F13 UNL A   1      41.060  24.428  28.543  1.00  0.00    +0.000 F 
ATOM     68  C46 UNL A   1      42.309  24.012  26.589  1.00  0.00    +0.000 C 
ATOM     69  F14 UNL A   1      41.775  22.785  26.507  1.00  0.00    +0.000 F 
ATOM     70  C47 UNL A   1      43.224  24.433  25.636  1.00  0.00    +0.000 C 
ATOM     71  F15 UNL A   1      43.561  23.624  24.623  1.00  0.00    +0.000 F 
ATOM     72  C48 UNL A   1      43.792  25.695  25.734  1.00  0.00    +0.000 C 
ATOM     73  F16 UNL A   1      44.666  26.112  24.809  1.00  0.00    +0.000 F 
ATOM     74  C49 UNL A   1      43.449  26.534  26.792  1.00  0.00    +0.000 C 
ATOM     75  F17 UNL A   1      44.013  27.748  26.867  1.00  0.00    +0.000 F 
ENDBRANCH   64   65
TORSDOF 17
ENDMDL
MODEL 2
REMARK VINA RESULT:     -10.4     34.434     42.763
ROOT
ATOM     28  C20 UNL A   1       2.306  11.106  37.666  1.00  0.00    +0.000 C 
ATOM     29  C21 UNL A   1       3.337  10.023  37.844  1.00  0.00    +0.000 C 
ATOM     30  N4  UNL A   1       3.271   8.756  37.515  1.00  0.00    +0.000 N 
ATOM     31  C22 UNL A   1       4.490   8.203  37.882  1.00  0.00    +0.000 C 
ATOM     32  C23 UNL A   1       4.899   6.916  37.779  1.00  0.00    +0.000 C 
ATOM     44  C30 UNL A   1       4.095   5.843  37.255  1.00  0.00    +0.000 C 
ATOM     45  C31 UNL A   1       4.420   4.502  37.132  1.00  0.00    +0.000 C 
ATOM     46  C32 UNL A   1       3.336   3.842  36.545  1.00  0.00    +0.000 C 
ATOM     47  C33 UNL A   1       2.324   4.763  36.335  1.00  0.00    +0.000 C 
ATOM     48  N5  UNL A   1       2.804   5.987  36.772  1.00  0.00    +0.000 N 
ATOM     49  C34 UNL A   1       1.016   4.546  35.773  1.00  0.00    +0.000 C 
ATOM     61  C41 UNL A   1       0.061   5.496  35.639  1.00  0.00    +0.000 C 
ATOM     62  N6  UNL A   1       0.117   6.840  35.981  1.00  0.00    +0.000 N 
ATOM     63  C42 UNL A   1      -1.039   7.348  35.632  1.00  0.00    +0.000 C 
ATOM     64  C43 UNL A   1      -1.532   8.761  35.769  1.00  0.00    +0.000 C 
ATOM     76  C50 UNL A   1      -0.703   9.707  36.247  1.00  0.00    +0.000 C 
ATOM     77  C51 UNL A   1      -1.044  11.115  36.427  1.00  0.00    +0.000 C 
ATOM     78  C52 UNL A   1       0.025  11.768  36.907  1.00  0.00    +0.000 C 
ATOM     79  C53 UNL A   1       1.112  10.811  37.118  1.00  0.00    +0.000 C 
ATOM     80  N7  UNL A   1       0.602   9.619  36.666  1.00  0.00    +0.000 N 
ATOM     81  C54 UNL A   1      -1.964   6.380  35.024  1.00  0.00    +0.000 C 
ATOM     82  C55 UNL A   1      -1.253   5.261  35.077  1.00  0.00    +0.000 C 
ATOM     83  C56 UNL A   1       5.291   9.272  38.436  1.00  0.00    +0.000 C 
ATOM     84  C57 UNL A   1       4.609  10.410  38.475  1.00  0.00    +0.000 C 
ATOM    109  H23 UNL A   1       5.309   4.067  37.423  1.00  0.00    +0.000 H 
ATOM    110  H24 UNL A   1       3.298   2.838  36.307  1.00  0.00    +0.000 H 
ATOM    111  H25 UNL A   1       2.302   6.834  36.744  1.00  0.00    +0.000 H 
ATOM    112  H26 UNL A   1      -1.961  11.540  36.218  1.00  0.00    +0.000 H 
ATOM    113  H27 UNL A   1       0.074  12.781  37.097  1.00  0.00    +0.000 H 
ATOM    114  H28 UNL A   1       1.121   8.783  36.644  1.00  0.00    +0.000 H 
ATOM    115  H29 UNL A   1      -2.915   6.532  34.653  1.00  0.00    +0.000 H 
ATOM    116  H30 UNL A   1      -1.593   4.341  34.758  1.00  0.00    +0.000 H 
ATOM    117  H31 UNL A   1       6.265   9.165  38.758  1.00  0.00    +0.000 H 
ATOM    118  H32 UNL A   1       4.897  11.327  38.849  1.00  0.00    +0.000 H 
ENDROOT
BRANCH   28   27
ATOM     27  C19 UNL A   1       2.565  12.485  38.157  1.00  0.00    +0.000 C 
ATOM    107  H21 UNL A   1       2.080  14.392  40.881  1.00  0.00    +0.000 H 
ATOM    108  H22 UNL A   1       1.633  12.169  40.029  1.00  0.00    +0.000 H 
ATOM     85  C58 UNL A   1       3.241  13.428  37.367  1.00  0.00    +0.000 C 
ATOM     86  C59 UNL A   1       3.598  14.668  37.904  1.00  0.00    +0.000 C 
ATOM    120  H34 UNL A   1       4.123  15.348  37.333  1.00  0.00    +0.000 H 
ATOM     24  C16 UNL A   1       3.242  14.983  39.220  1.00  0.00    +0.000 C 
ATOM     25  C17 UNL A   1       2.448  14.107  39.961  1.00  0.00    +0.000 C 
ATOM     26  C18 UNL A   1       2.155  12.845  39.451  1.00  0.00    +0.000 C 
ATOM    119  H33 UNL A   1       3.474  13.205  36.387  1.00  0.00    +0.000 H 
BRANCH   24   22
ATOM     22  C15 UNL A   1       3.756  16.233  39.822  1.00  0.00    +0.000 C 
ATOM     23  O3  UNL A   1       2.970  17.097  40.202  1.00  0.00    +0.000 O 
BRANCH   22   21
ATOM    106  H20 UNL A   1       5.486  17.090  39.270  1.00  0.00    +0.000 H 
ATOM     21  N3  UNL A   1       5.114  16.439  39.907  1.00  0.00    +0.000 N 
BRANCH   21   20
ATOM    105  H19 UNL A   1       5.928  14.767  40.760  1.00  0.00    +0.000 H 
ATOM     20  C14 UNL A   1       6.077  15.825  40.810  1.00  0.00    +0.000 C 
ATOM    104  H18 UNL A   1       5.912  16.210  41.794  1.00  0.00    +0.000 H 
BRANCH   20   19
ATOM     19  C13 UNL A   1       7.526  16.095  40.421  1.00  0.00    +0.000 C 
ATOM    102  H16 UNL A   1       7.545  16.968  39.802  1.00  0.00    +0.000 H 
ATOM    103  H17 UNL A   1       8.062  16.207  41.340  1.00  0.00    +0.000 H 
BRANCH   19   18
ATOM     18  C12 UNL A   1       8.224  14.965  39.663  1.00  0.00    +0.000 C 
ATOM    100  H14 UNL A   1       7.741  14.858  38.714  1.00  0.00    +0.000 H 
ATOM    101  H15 UNL A   1       9.254  15.251  39.594  1.00  0.00    +0.000 H 
BRANCH   18   17
ATOM     17  C11 UNL A   1       8.214  13.600  40.354  1.00  0.00    +0.000 C 
ATOM     98  H12 UNL A   1       9.224  13.255  40.418  1.00  0.00    +0.000 H 
ATOM     99  H13 UNL A   1       7.747  13.758  41.304  1.00  0.00    +0.000 H 
BRANCH   17   16
ATOM     97  H11 UNL A   1       6.472  12.431  40.212  1.00  0.00    +0.000 H 
ATOM     96  H10 UNL A   1       7.962  11.604  39.665  1.00  0.00    +0.000 H 
ATOM     16  C10 UNL A   1       7.387  12.506  39.662  1.00  0.00    +0.000 C 
BRANCH   16   15
ATOM     95  H9  UNL A   1       7.210  13.837  38.016  1.00  0.00    +0.000 H 
ATOM     94  H8  UNL A   1       5.947  12.614  38.094  1.00  0.00    +0.000 H 
ATOM     15  C9  UNL A   1       6.991  12.810  38.218  1.00  0.00    +0.000 C 
BRANCH   15   14
ATOM     93  H7  UNL A   1       8.532  11.511  37.614  1.00  0.00    +0.000 H 
ATOM     14  N2  UNL A   1       7.738  11.992  37.285  1.00  0.00    +0.000 N 
BRANCH   14    2
ATOM      1  O1  UNL A   1       7.905  11.045  35.197  1.00  0.00    +0.000 O 
ATOM      2  C1  UNL A   1       7.388  11.854  35.960  1.00  0.00    +0.000 C 
BRANCH    2    3
ATOM      3  C2  UNL A   1       6.310  12.828  35.495  1.00  0.00    +0.000 C 
ATOM     87  H1  UNL A   1       5.792  13.209  36.350  1.00  0.00    +0.000 H 
ATOM     88  H2  UNL A   1       5.636  12.305  34.849  1.00  0.00    +0.000 H 
BRANCH    3    4
ATOM      4  C3  UNL A   1       6.913  13.976  34.731  1.00  0.00    +0.000 C 
ATOM      5  C4  UNL A   1       6.342  14.330  33.446  1.00  0.00    +0.000 C 
ATOM      6  C5  UNL A   1       6.871  15.316  32.710  1.00  0.00    +0.000 C 
ATOM      7  C6  UNL A   1       8.048  16.081  33.205  1.00  0.00    +0.000 C 
ATOM      8  O2  UNL A   1       8.520  16.955  32.487  1.00  0.00    +0.000 O 
ATOM      9  N1  UNL A   1       8.507  15.724  34.464  1.00  0.00    +0.000 N 
ATOM     13  C8  UNL A   1       7.952  14.688  35.197  1.00  0.00    +0.000 C 
ATOM     89  H3  UNL A   1       5.518  13.817  33.095  1.00  0.00    +0.000 H 
ATOM     90  H4  UNL A   1       6.458  15.547  31.794  1.00  0.00    +0.000 H 
ATOM     92  H6  UNL A   1       8.346  14.458  36.123  1.00  0.00    +0.000 H 
BRANCH    9   10
ATOM     10  C7  UNL A   1       9.643  16.449  34.971  1.00  0.00    +0.000 C 
ATOM     11  F1  UNL A   1       9.742  16.314  36.316  1.00  0.00    +0.000 F 
ATOM     12  F2  UNL A   1      10.796  16.000  34.419  1.00  0.00    +0.000 F 
ATOM     91  H5  UNL A   1       9.496  17.478  34.715  1.00  0.00    +0.000 H 
ENDBRANCH    9   10
ENDBRANCH    3    4
ENDBRANCH    2    3
ENDBRANCH   14    2
ENDBRANCH   15   14
ENDBRANCH   16   15
ENDBRANCH   17   16
ENDBRANCH   18   17
ENDBRANCH   19   18
ENDBRANCH   20   19
ENDBRANCH   21   20
ENDBRANCH   22   21
ENDBRANCH   24   22
ENDBRANCH   28   27
BRANCH   32   33
ATOM     33  C24 UNL A   1       6.286   6.583  38.244  1.00  0.00    +0.000 C 
ATOM     34  C25 UNL A   1       6.509   5.886  39.441  1.00  0.00    +0.000 C 
ATOM     35  F3  UNL A   1       5.478   5.568  40.238  1.00  0.00    +0.000 F 
ATOM     36  C26 UNL A   1       7.797   5.530  39.831  1.00  0.00    +0.000 C 
ATOM     37  F4  UNL A   1       7.990   4.886  40.991  1.00  0.00    +0.000 F 
ATOM     38  C27 UNL A   1       8.881   5.843  39.024  1.00  0.00    +0.000 C 
ATOM     39  F5  UNL A   1      10.119   5.487  39.396  1.00  0.00    +0.000 F 
ATOM     40  C28 UNL A   1       8.683   6.526  37.834  1.00  0.00    +0.000 C 
ATOM     41  F6  UNL A   1       9.728   6.820  37.049  1.00  0.00    +0.000 F 
ATOM     42  C29 UNL A   1       7.398   6.903  37.452  1.00  0.00    +0.000 C 
ATOM     43  F7  UNL A   1       7.236   7.564  36.295  1.00  0.00    +0.000 F 
ENDBRANCH   32   33
BRANCH   49   50
ATOM     50  C35 UNL A   1       0.681   3.162  35.308  1.00  0.00    +0.000 C 
ATOM     51  C36 UNL A   1       1.112   2.691  34.059  1.00  0.00    +0.000 C 
ATOM     52  F8  UNL A   1       1.774   3.505  33.223  1.00  0.00    +0.000 F 
ATOM     53  C37 UNL A   1       0.841   1.387  33.656  1.00  0.00    +0.000 C 
ATOM     54  F9  UNL A   1       1.235   0.965  32.447  1.00  0.00    +0.000 F 
ATOM     55  C38 UNL A   1       0.157   0.524  34.501  1.00  0.00    +0.000 C 
ATOM     56  F10 UNL A   1      -0.094  -0.734  34.115  1.00  0.00    +0.000 F 
ATOM     57  C39 UNL A   1      -0.271   0.968  35.743  1.00  0.00    +0.000 C 
ATOM     58  F11 UNL A   1      -0.923   0.133  36.564  1.00  0.00    +0.000 F 
ATOM     59  C40 UNL A   1      -0.020   2.278  36.141  1.00  0.00    +0.000 C 
ATOM     60  F12 UNL A   1      -0.447   2.681  37.348  1.00  0.00    +0.000 F 
ENDBRANCH   49   50
BRANCH   64   65
ATOM     65  C44 UNL A   1      -2.919   9.127  35.389  1.00  0.00    +0.000 C 
ATOM     66  C45 UNL A   1      -3.203   9.635  34.116  1.00  0.00    +0.000 C 
ATOM     67  F13 UNL A   1      -2.209   9.845  33.240  1.00  0.00    +0.000 F 
ATOM     68  C46 UNL A   1      -4.508   9.952  33.745  1.00  0.00    +0.000 C 
ATOM     69  F14 UNL A   1      -4.753  10.460  32.529  1.00  0.00    +0.000 F 
ATOM     70  C47 UNL A   1      -5.554   9.746  34.633  1.00  0.00    +0.000 C 
ATOM     71  F15 UNL A   1      -6.810  10.036  34.270  1.00  0.00    +0.000 F 
ATOM     72  C48 UNL A   1      -5.295   9.239  35.898  1.00  0.00    +0.000 C 
ATOM     73  F16 UNL A   1      -6.304   9.027  36.754  1.00  0.00    +0.000 F 
ATOM     74  C49 UNL A   1      -3.989   8.946  36.278  1.00  0.00    +0.000 C 
ATOM     75  F17 UNL A   1      -3.764   8.460  37.508  1.00  0.00    +0.000 F 
ENDBRANCH   64   65
TORSDOF 17
ENDMDL
MODEL 3
REMARK VINA RESULT:     -10.3     19.848     24.782
ROOT
ATOM     28  C20 UNL A   1      53.450  19.727  11.731  1.00  0.00    +0.000 C 
ATOM     29  C21 UNL A   1      53.191  20.414  13.046  1.00  0.00    +0.000 C 
ATOM     30  N4  UNL A   1      54.013  20.627  14.043  1.00  0.00    +0.000 N 
ATOM     31  C22 UNL A   1      53.279  21.311  15.003  1.00  0.00    +0.000 C 
ATOM     32  C23 UNL A   1      53.673  21.728  16.230  1.00  0.00    +0.000 C 
ATOM     44  C30 UNL A   1      54.985  21.514  16.782  1.00  0.00    +0.000 C 
ATOM     45  C31 UNL A   1      55.468  21.884  18.026  1.00  0.00    +0.000 C 
ATOM     46  C32 UNL A   1      56.807  21.490  18.111  1.00  0.00    +0.000 C 
ATOM     47  C33 UNL A   1      57.147  20.843  16.935  1.00  0.00    +0.000 C 
ATOM     48  N5  UNL A   1      56.022  20.868  16.127  1.00  0.00    +0.000 N 
ATOM     49  C34 UNL A   1      58.407  20.249  16.570  1.00  0.00    +0.000 C 
ATOM     61  C41 UNL A   1      58.651  19.594  15.411  1.00  0.00    +0.000 C 
ATOM     62  N6  UNL A   1      57.792  19.362  14.346  1.00  0.00    +0.000 N 
ATOM     63  C42 UNL A   1      58.496  18.716  13.451  1.00  0.00    +0.000 C 
ATOM     64  C43 UNL A   1      58.075  18.209  12.101  1.00  0.00    +0.000 C 
ATOM     76  C50 UNL A   1      56.834  18.476  11.653  1.00  0.00    +0.000 C 
ATOM     77  C51 UNL A   1      56.295  18.054  10.363  1.00  0.00    +0.000 C 
ATOM     78  C52 UNL A   1      55.038  18.509  10.244  1.00  0.00    +0.000 C 
ATOM     79  C53 UNL A   1      54.667  19.212  11.472  1.00  0.00    +0.000 C 
ATOM     80  N7  UNL A   1      55.806  19.173  12.238  1.00  0.00    +0.000 N 
ATOM     81  C54 UNL A   1      59.890  18.464  13.847  1.00  0.00    +0.000 C 
ATOM     82  C55 UNL A   1      59.923  18.996  15.061  1.00  0.00    +0.000 C 
ATOM     83  C56 UNL A   1      51.951  21.502  14.463  1.00  0.00    +0.000 C 
ATOM     84  C57 UNL A   1      51.831  20.929  13.272  1.00  0.00    +0.000 C 
ATOM    109  H23 UNL A   1      54.931  22.368  18.763  1.00  0.00    +0.000 H 
ATOM    110  H24 UNL A   1      57.435  21.654  18.914  1.00  0.00    +0.000 H 
ATOM    111  H25 UNL A   1      55.966  20.484  15.222  1.00  0.00    +0.000 H 
ATOM    112  H26 UNL A   1      56.798  17.495   9.657  1.00  0.00    +0.000 H 
ATOM    113  H27 UNL A   1      54.431  18.384   9.419  1.00  0.00    +0.000 H 
ATOM    114  H28 UNL A   1      55.879  19.604  13.120  1.00  0.00    +0.000 H 
ATOM    115  H29 UNL A   1      60.643  17.997  13.319  1.00  0.00    +0.000 H 
ATOM    116  H30 UNL A   1      60.751  18.987  15.678  1.00  0.00    +0.000 H 
ATOM    117  H31 UNL A   1      51.196  22.018  14.941  1.00  0.00    +0.000 H 
ATOM    118  H32 UNL A   1      51.000  20.863  12.664  1.00  0.00    +0.000 H 
ENDROOT
BRANCH   28   27
ATOM     27  C19 UNL A   1      52.354  19.546  10.743  1.00  0.00    +0.000 C 
ATOM    107  H21 UNL A   1      50.762  21.233   8.310  1.00  0.00    +0.000 H 
ATOM    108  H22 UNL A   1      52.510  21.507   9.965  1.00  0.00    +0.000 H 
ATOM     85  C58 UNL A   1      51.660  18.331  10.634  1.00  0.00    +0.000 C 
ATOM     86  C59 UNL A   1      50.735  18.139   9.604  1.00  0.00    +0.000 C 
ATOM    120  H34 UNL A   1      50.250  17.234   9.506  1.00  0.00    +0.000 H 
ATOM     24  C16 UNL A   1      50.471  19.178   8.706  1.00  0.00    +0.000 C 
ATOM     25  C17 UNL A   1      51.052  20.433   8.895  1.00  0.00    +0.000 C 
ATOM     26  C18 UNL A   1      52.025  20.601   9.875  1.00  0.00    +0.000 C 
ATOM    119  H33 UNL A   1      51.834  17.577  11.318  1.00  0.00    +0.000 H 
BRANCH   24   22
ATOM     22  C15 UNL A   1      49.607  18.912   7.535  1.00  0.00    +0.000 C 
ATOM     23  O3  UNL A   1      48.835  19.779   7.134  1.00  0.00    +0.000 O 
BRANCH   22   21
ATOM    106  H20 UNL A   1      49.882  16.923   7.520  1.00  0.00    +0.000 H 
ATOM     21  N3  UNL A   1      49.639  17.675   6.933  1.00  0.00    +0.000 N 
BRANCH   21   20
ATOM    105  H19 UNL A   1      50.256  16.896   5.146  1.00  0.00    +0.000 H 
ATOM     20  C14 UNL A   1      49.363  17.325   5.548  1.00  0.00    +0.000 C 
ATOM    104  H18 UNL A   1      49.071  18.212   5.026  1.00  0.00    +0.000 H 
BRANCH   20   19
ATOM     19  C13 UNL A   1      48.256  16.287   5.396  1.00  0.00    +0.000 C 
ATOM    102  H16 UNL A   1      48.117  16.105   4.350  1.00  0.00    +0.000 H 
ATOM    103  H17 UNL A   1      48.581  15.428   5.944  1.00  0.00    +0.000 H 
BRANCH   19   18
ATOM     18  C12 UNL A   1      46.903  16.678   5.989  1.00  0.00    +0.000 C 
ATOM    100  H14 UNL A   1      46.214  15.885   5.789  1.00  0.00    +0.000 H 
ATOM    101  H15 UNL A   1      47.077  16.845   7.033  1.00  0.00    +0.000 H 
BRANCH   18   17
ATOM     17  C11 UNL A   1      46.296  17.977   5.453  1.00  0.00    +0.000 C 
ATOM     98  H12 UNL A   1      45.632  18.363   6.198  1.00  0.00    +0.000 H 
ATOM     99  H13 UNL A   1      47.125  18.618   5.236  1.00  0.00    +0.000 H 
BRANCH   17   16
ATOM     97  H11 UNL A   1      44.477  17.967   4.399  1.00  0.00    +0.000 H 
ATOM     96  H10 UNL A   1      45.740  16.907   3.702  1.00  0.00    +0.000 H 
ATOM     16  C10 UNL A   1      45.510  17.856   4.140  1.00  0.00    +0.000 C 
BRANCH   16   15
ATOM     95  H9  UNL A   1      45.570  18.553   2.134  1.00  0.00    +0.000 H 
ATOM     94  H8  UNL A   1      46.840  19.206   3.164  1.00  0.00    +0.000 H 
ATOM     15  C9  UNL A   1      45.806  18.939   3.104  1.00  0.00    +0.000 C 
BRANCH   15   14
ATOM     93  H7  UNL A   1      45.002  20.522   4.232  1.00  0.00    +0.000 H 
ATOM     14  N2  UNL A   1      45.000  20.120   3.334  1.00  0.00    +0.000 N 
BRANCH   14    2
ATOM      1  O1  UNL A   1      44.142  21.921   2.189  1.00  0.00    +0.000 O 
ATOM      2  C1  UNL A   1      44.233  20.708   2.352  1.00  0.00    +0.000 C 
BRANCH    2    3
ATOM      3  C2  UNL A   1      43.461  19.717   1.487  1.00  0.00    +0.000 C 
ATOM     87  H1  UNL A   1      43.992  18.789   1.461  1.00  0.00    +0.000 H 
ATOM     88  H2  UNL A   1      43.370  20.125   0.502  1.00  0.00    +0.000 H 
BRANCH    3    4
ATOM      4  C3  UNL A   1      42.080  19.481   2.037  1.00  0.00    +0.000 C 
ATOM      5  C4  UNL A   1      41.928  18.585   3.167  1.00  0.00    +0.000 C 
ATOM      6  C5  UNL A   1      40.715  18.310   3.663  1.00  0.00    +0.000 C 
ATOM      7  C6  UNL A   1      39.498  18.933   3.075  1.00  0.00    +0.000 C 
ATOM      8  O2  UNL A   1      38.404  18.631   3.539  1.00  0.00    +0.000 O 
ATOM      9  N1  UNL A   1      39.724  19.820   2.033  1.00  0.00    +0.000 N 
ATOM     13  C8  UNL A   1      40.987  20.074   1.527  1.00  0.00    +0.000 C 
ATOM     89  H3  UNL A   1      42.763  18.156   3.594  1.00  0.00    +0.000 H 
ATOM     90  H4  UNL A   1      40.624  17.662   4.460  1.00  0.00    +0.000 H 
ATOM     92  H6  UNL A   1      41.092  20.733   0.740  1.00  0.00    +0.000 H 
BRANCH    9   10
ATOM     10  C7  UNL A   1      38.565  20.442   1.446  1.00  0.00    +0.000 C 
ATOM     11  F1  UNL A   1      38.596  21.785   1.620  1.00  0.00    +0.000 F 
ATOM     12  F2  UNL A   1      38.497  20.193   0.115  1.00  0.00    +0.000 F 
ATOM     91  H5  UNL A   1      37.707  20.027   1.934  1.00  0.00    +0.000 H 
ENDBRANCH    9   10
ENDBRANCH    3    4
ENDBRANCH    2    3
ENDBRANCH   14    2
ENDBRANCH   15   14
ENDBRANCH   16   15
ENDBRANCH   17   16
ENDBRANCH   18   17
ENDBRANCH   19   18
ENDBRANCH   20   19
ENDBRANCH   21   20
ENDBRANCH   22   21
ENDBRANCH   24   22
ENDBRANCH   28   27
BRANCH   32   33
ATOM     33  C24 UNL A   1      52.674  22.463  17.073  1.00  0.00    +0.000 C 
ATOM     34  C25 UNL A   1      52.454  23.839  16.913  1.00  0.00    +0.000 C 
ATOM     35  F3  UNL A   1      53.196  24.545  16.046  1.00  0.00    +0.000 F 
ATOM     36  C26 UNL A   1      51.482  24.500  17.660  1.00  0.00    +0.000 C 
ATOM     37  F4  UNL A   1      51.306  25.820  17.510  1.00  0.00    +0.000 F 
ATOM     38  C27 UNL A   1      50.698  23.794  18.562  1.00  0.00    +0.000 C 
ATOM     39  F5  UNL A   1      49.753  24.430  19.269  1.00  0.00    +0.000 F 
ATOM     40  C28 UNL A   1      50.894  22.432  18.731  1.00  0.00    +0.000 C 
ATOM     41  F6  UNL A   1      50.131  21.748  19.593  1.00  0.00    +0.000 F 
ATOM     42  C29 UNL A   1      51.881  21.773  18.001  1.00  0.00    +0.000 C 
ATOM     43  F7  UNL A   1      52.049  20.455  18.186  1.00  0.00    +0.000 F 
ENDBRANCH   32   33
BRANCH   49   50
ATOM     50  C35 UNL A   1      59.535  20.356  17.552  1.00  0.00    +0.000 C 
ATOM     51  C36 UNL A   1      60.345  21.500  17.605  1.00  0.00    +0.000 C 
ATOM     52  F8  UNL A   1      60.168  22.494  16.722  1.00  0.00    +0.000 F 
ATOM     53  C37 UNL A   1      61.358  21.614  18.553  1.00  0.00    +0.000 C 
ATOM     54  F9  UNL A   1      62.140  22.702  18.569  1.00  0.00    +0.000 F 
ATOM     55  C38 UNL A   1      61.563  20.600  19.478  1.00  0.00    +0.000 C 
ATOM     56  F10 UNL A   1      62.532  20.716  20.396  1.00  0.00    +0.000 F 
ATOM     57  C39 UNL A   1      60.768  19.464  19.447  1.00  0.00    +0.000 C 
ATOM     58  F11 UNL A   1      60.959  18.489  20.346  1.00  0.00    +0.000 F 
ATOM     59  C40 UNL A   1      59.768  19.338  18.487  1.00  0.00    +0.000 C 
ATOM     60  F12 UNL A   1      59.015  18.227  18.479  1.00  0.00    +0.000 F 
ENDBRANCH   49   50
BRANCH   64   65
ATOM     65  C44 UNL A   1      59.003  17.415  11.258  1.00  0.00    +0.000 C 
ATOM     66  C45 UNL A   1      59.063  16.021  11.375  1.00  0.00    +0.000 C 
ATOM     67  F13 UNL A   1      58.314  15.393  12.294  1.00  0.00    +0.000 F 
ATOM     68  C46 UNL A   1      59.911  15.269  10.566  1.00  0.00    +0.000 C 
ATOM     69  F14 UNL A   1      59.970  13.938  10.713  1.00  0.00    +0.000 F 
ATOM     70  C47 UNL A   1      60.697  15.895   9.609  1.00  0.00    +0.000 C 
ATOM     71  F15 UNL A   1      61.501  15.170   8.820  1.00  0.00    +0.000 F 
ATOM     72  C48 UNL A   1      60.650  17.275   9.473  1.00  0.00    +0.000 C 
ATOM     73  F16 UNL A   1      61.397  17.882   8.542  1.00  0.00    +0.000 F 
ATOM     74  C49 UNL A   1      59.821  18.030  10.299  1.00  0.00    +0.000 C 
ATOM     75  F17 UNL A   1      59.796  19.362  10.150  1.00  0.00    +0.000 F 
ENDBRANCH   64   65
TORSDOF 17
ENDMDL
MODEL 4
REMARK VINA RESULT:     -10.3      4.218      9.295
ROOT
ATOM     28  C20 UNL A   1      41.236  26.376  28.000  1.00  0.00    +0.000 C 
ATOM     29  C21 UNL A   1      42.675  26.668  27.665  1.00  0.00    +0.000 C 
ATOM     30  N4  UNL A   1      43.379  27.745  27.911  1.00  0.00    +0.000 N 
ATOM     31  C22 UNL A   1      44.649  27.494  27.410  1.00  0.00    +0.000 C 
ATOM     32  C23 UNL A   1      45.727  28.312  27.391  1.00  0.00    +0.000 C 
ATOM     44  C30 UNL A   1      45.740  29.657  27.905  1.00  0.00    +0.000 C 
ATOM     45  C31 UNL A   1      46.783  30.568  27.909  1.00  0.00    +0.000 C 
ATOM     46  C32 UNL A   1      46.340  31.738  28.535  1.00  0.00    +0.000 C 
ATOM     47  C33 UNL A   1      45.012  31.568  28.888  1.00  0.00    +0.000 C 
ATOM     48  N5  UNL A   1      44.657  30.286  28.499  1.00  0.00    +0.000 N 
ATOM     49  C34 UNL A   1      44.130  32.502  29.538  1.00  0.00    +0.000 C 
ATOM     61  C41 UNL A   1      42.824  32.275  29.814  1.00  0.00    +0.000 C 
ATOM     62  N6  UNL A   1      42.066  31.141  29.562  1.00  0.00    +0.000 N 
ATOM     63  C42 UNL A   1      40.872  31.393  30.037  1.00  0.00    +0.000 C 
ATOM     64  C43 UNL A   1      39.650  30.519  30.037  1.00  0.00    +0.000 C 
ATOM     76  C50 UNL A   1      39.735  29.264  29.559  1.00  0.00    +0.000 C 
ATOM     77  C51 UNL A   1      38.633  28.307  29.505  1.00  0.00    +0.000 C 
ATOM     78  C52 UNL A   1      39.081  27.153  28.985  1.00  0.00    +0.000 C 
ATOM     79  C53 UNL A   1      40.490  27.309  28.622  1.00  0.00    +0.000 C 
ATOM     80  N7  UNL A   1      40.803  28.581  29.031  1.00  0.00    +0.000 N 
ATOM     81  C54 UNL A   1      40.736  32.722  30.650  1.00  0.00    +0.000 C 
ATOM     82  C55 UNL A   1      41.947  33.228  30.463  1.00  0.00    +0.000 C 
ATOM     83  C56 UNL A   1      44.631  26.153  26.868  1.00  0.00    +0.000 C 
ATOM     84  C57 UNL A   1      43.423  25.614  26.962  1.00  0.00    +0.000 C 
ATOM    109  H23 UNL A   1      47.725  30.411  27.517  1.00  0.00    +0.000 H 
ATOM    110  H24 UNL A   1      46.907  32.583  28.706  1.00  0.00    +0.000 H 
ATOM    111  H25 UNL A   1      43.769  29.882  28.625  1.00  0.00    +0.000 H 
ATOM    112  H26 UNL A   1      37.666  28.487  29.815  1.00  0.00    +0.000 H 
ATOM    113  H27 UNL A   1      38.522  26.295  28.861  1.00  0.00    +0.000 H 
ATOM    114  H28 UNL A   1      41.705  28.967  28.954  1.00  0.00    +0.000 H 
ATOM    115  H29 UNL A   1      39.914  33.149  31.106  1.00  0.00    +0.000 H 
ATOM    116  H30 UNL A   1      42.230  34.180  30.745  1.00  0.00    +0.000 H 
ATOM    117  H31 UNL A   1      45.452  25.678  26.461  1.00  0.00    +0.000 H 
ATOM    118  H32 UNL A   1      43.094  24.694  26.629  1.00  0.00    +0.000 H 
ENDROOT
BRANCH   28   27
ATOM     27  C19 UNL A   1      40.608  25.095  27.585  1.00  0.00    +0.000 C 
ATOM    107  H21 UNL A   1      38.265  23.928  25.476  1.00  0.00    +0.000 H 
ATOM    108  H22 UNL A   1      39.279  26.001  26.212  1.00  0.00    +0.000 H 
ATOM     85  C58 UNL A   1      41.016  23.868  28.133  1.00  0.00    +0.000 C 
ATOM     86  C59 UNL A   1      40.512  22.668  27.623  1.00  0.00    +0.000 C 
ATOM    120  H34 UNL A   1      40.838  21.766  28.005  1.00  0.00    +0.000 H 
ATOM     24  C16 UNL A   1      39.566  22.694  26.593  1.00  0.00    +0.000 C 
ATOM     25  C17 UNL A   1      39.052  23.911  26.143  1.00  0.00    +0.000 C 
ATOM     26  C18 UNL A   1      39.606  25.103  26.600  1.00  0.00    +0.000 C 
ATOM    119  H33 UNL A   1      41.690  23.853  28.914  1.00  0.00    +0.000 H 
BRANCH   24   22
ATOM     22  C15 UNL A   1      39.156  21.420  25.963  1.00  0.00    +0.000 C 
ATOM     23  O3  UNL A   1      39.816  20.402  26.157  1.00  0.00    +0.000 O 
BRANCH   22   21
ATOM    106  H20 UNL A   1      38.019  22.124  24.465  1.00  0.00    +0.000 H 
ATOM     21  N3  UNL A   1      38.066  21.395  25.124  1.00  0.00    +0.000 N 
BRANCH   21   20
ATOM    105  H19 UNL A   1      37.213  19.647  25.755  1.00  0.00    +0.000 H 
ATOM     20  C14 UNL A   1      36.971  20.437  25.076  1.00  0.00    +0.000 C 
ATOM    104  H18 UNL A   1      36.869  20.088  24.070  1.00  0.00    +0.000 H 
BRANCH   20   19
ATOM     19  C13 UNL A   1      35.636  21.023  25.524  1.00  0.00    +0.000 C 
ATOM    102  H16 UNL A   1      35.041  20.225  25.916  1.00  0.00    +0.000 H 
ATOM    103  H17 UNL A   1      35.872  21.778  26.243  1.00  0.00    +0.000 H 
BRANCH   19   18
ATOM     18  C12 UNL A   1      34.826  21.721  24.431  1.00  0.00    +0.000 C 
ATOM    100  H14 UNL A   1      34.798  22.765  24.658  1.00  0.00    +0.000 H 
ATOM    101  H15 UNL A   1      35.319  21.491  23.508  1.00  0.00    +0.000 H 
BRANCH   18   17
ATOM     17  C11 UNL A   1      33.383  21.236  24.266  1.00  0.00    +0.000 C 
ATOM     98  H12 UNL A   1      33.408  20.180  24.094  1.00  0.00    +0.000 H 
ATOM     99  H13 UNL A   1      32.876  21.518  25.166  1.00  0.00    +0.000 H 
BRANCH   17   16
ATOM     97  H11 UNL A   1      31.722  22.320  23.570  1.00  0.00    +0.000 H 
ATOM     96  H10 UNL A   1      32.357  21.117  22.408  1.00  0.00    +0.000 H 
ATOM     16  C10 UNL A   1      32.588  21.879  23.121  1.00  0.00    +0.000 C 
BRANCH   16   15
ATOM     95  H9  UNL A   1      33.169  22.873  21.336  1.00  0.00    +0.000 H 
ATOM     94  H8  UNL A   1      34.347  22.984  22.640  1.00  0.00    +0.000 H 
ATOM     15  C9  UNL A   1      33.308  23.011  22.388  1.00  0.00    +0.000 C 
BRANCH   15   14
ATOM     93  H7  UNL A   1      31.788  24.410  22.785  1.00  0.00    +0.000 H 
ATOM     14  N2  UNL A   1      32.766  24.303  22.754  1.00  0.00    +0.000 N 
BRANCH   14    2
ATOM      1  O1  UNL A   1      33.771  26.319  22.294  1.00  0.00    +0.000 O 
ATOM      2  C1  UNL A   1      33.557  25.388  23.063  1.00  0.00    +0.000 C 
BRANCH    2    3
ATOM      3  C2  UNL A   1      34.187  25.326  24.450  1.00  0.00    +0.000 C 
ATOM     87  H1  UNL A   1      35.211  25.631  24.383  1.00  0.00    +0.000 H 
ATOM     88  H2  UNL A   1      34.118  24.321  24.811  1.00  0.00    +0.000 H 
BRANCH    3    4
ATOM      4  C3  UNL A   1      33.466  26.231  25.413  1.00  0.00    +0.000 C 
ATOM      5  C4  UNL A   1      32.098  25.912  25.771  1.00  0.00    +0.000 C 
ATOM      6  C5  UNL A   1      31.401  26.711  26.590  1.00  0.00    +0.000 C 
ATOM      7  C6  UNL A   1      32.025  27.936  27.162  1.00  0.00    +0.000 C 
ATOM      8  O2  UNL A   1      31.343  28.657  27.883  1.00  0.00    +0.000 O 
ATOM      9  N1  UNL A   1      33.352  28.148  26.819  1.00  0.00    +0.000 N 
ATOM     13  C8  UNL A   1      34.044  27.315  25.957  1.00  0.00    +0.000 C 
ATOM     89  H3  UNL A   1      31.657  25.060  25.393  1.00  0.00    +0.000 H 
ATOM     90  H4  UNL A   1      30.426  26.476  26.826  1.00  0.00    +0.000 H 
ATOM     92  H6  UNL A   1      35.026  27.532  25.726  1.00  0.00    +0.000 H 
BRANCH    9   10
ATOM     10  C7  UNL A   1      33.983  29.324  27.361  1.00  0.00    +0.000 C 
ATOM     11  F1  UNL A   1      35.316  29.130  27.514  1.00  0.00    +0.000 F 
ATOM     12  F2  UNL A   1      33.806  30.393  26.547  1.00  0.00    +0.000 F 
ATOM     91  H5  UNL A   1      33.527  29.513  28.310  1.00  0.00    +0.000 H 
ENDBRANCH    9   10
ENDBRANCH    3    4
ENDBRANCH    2    3
ENDBRANCH   14    2
ENDBRANCH   15   14
ENDBRANCH   16   15
ENDBRANCH   17   16
ENDBRANCH   18   17
ENDBRANCH   19   18
ENDBRANCH   20   19
ENDBRANCH   21   20
ENDBRANCH   22   21
ENDBRANCH   24   22
ENDBRANCH   28   27
BRANCH   32   33
ATOM     33  C24 UNL A   1      46.997  27.783  26.794  1.00  0.00    +0.000 C 
ATOM     34  C25 UNL A   1      47.906  27.032  27.554  1.00  0.00    +0.000 C 
ATOM     35  F3  UNL A   1      47.689  26.837  28.863  1.00  0.00    +0.000 F 
ATOM     36  C26 UNL A   1      49.052  26.495  26.973  1.00  0.00    +0.000 C 
ATOM     37  F4  UNL A   1      49.920  25.802  27.723  1.00  0.00    +0.000 F 
ATOM     38  C27 UNL A   1      49.299  26.679  25.620  1.00  0.00    +0.000 C 
ATOM     39  F5  UNL A   1      50.396  26.150  25.060  1.00  0.00    +0.000 F 
ATOM     40  C28 UNL A   1      48.411  27.413  24.849  1.00  0.00    +0.000 C 
ATOM     41  F6  UNL A   1      48.642  27.582  23.540  1.00  0.00    +0.000 F 
ATOM     42  C29 UNL A   1      47.275  27.970  25.431  1.00  0.00    +0.000 C 
ATOM     43  F7  UNL A   1      46.434  28.675  24.661  1.00  0.00    +0.000 F 
ENDBRANCH   32   33
BRANCH   49   50
ATOM     50  C35 UNL A   1      44.697  33.832  29.933  1.00  0.00    +0.000 C 
ATOM     51  C36 UNL A   1      44.625  34.937  29.071  1.00  0.00    +0.000 C 
ATOM     52  F8  UNL A   1      44.107  34.800  27.841  1.00  0.00    +0.000 F 
ATOM     53  C37 UNL A   1      45.107  36.181  29.465  1.00  0.00    +0.000 C 
ATOM     54  F9  UNL A   1      45.056  37.217  28.617  1.00  0.00    +0.000 F 
ATOM     55  C38 UNL A   1      45.647  36.350  30.732  1.00  0.00    +0.000 C 
ATOM     56  F10 UNL A   1      46.102  37.552  31.113  1.00  0.00    +0.000 F 
ATOM     57  C39 UNL A   1      45.721  35.272  31.601  1.00  0.00    +0.000 C 
ATOM     58  F11 UNL A   1      46.234  35.437  32.829  1.00  0.00    +0.000 F 
ATOM     59  C40 UNL A   1      45.259  34.021  31.203  1.00  0.00    +0.000 C 
ATOM     60  F12 UNL A   1      45.344  32.995  32.065  1.00  0.00    +0.000 F 
ENDBRANCH   49   50
BRANCH   64   65
ATOM     65  C44 UNL A   1      38.352  31.021  30.552  1.00  0.00    +0.000 C 
ATOM     66  C45 UNL A   1      37.344  31.437  29.672  1.00  0.00    +0.000 C 
ATOM     67  F13 UNL A   1      37.566  31.434  28.350  1.00  0.00    +0.000 F 
ATOM     68  C46 UNL A   1      36.113  31.881  30.150  1.00  0.00    +0.000 C 
ATOM     69  F14 UNL A   1      35.173  32.297  29.291  1.00  0.00    +0.000 F 
ATOM     70  C47 UNL A   1      35.860  31.895  31.514  1.00  0.00    +0.000 C 
ATOM     71  F15 UNL A   1      34.670  32.306  31.972  1.00  0.00    +0.000 F 
ATOM     72  C48 UNL A   1      36.842  31.483  32.403  1.00  0.00    +0.000 C 
ATOM     73  F16 UNL A   1      36.597  31.482  33.720  1.00  0.00    +0.000 F 
ATOM     74  C49 UNL A   1      38.081  31.063  31.928  1.00  0.00    +0.000 C 
ATOM     75  F17 UNL A   1      39.015  30.673  32.807  1.00  0.00    +0.000 F 
ENDBRANCH   64   65
TORSDOF 17
ENDMDL
MODEL 5
REMARK VINA RESULT:     -10.3     37.606     43.418
ROOT
ATOM     28  C20 UNL A   1      14.237  50.102   4.338  1.00  0.00    +0.000 C 
ATOM     29  C21 UNL A   1      14.302  51.570   4.667  1.00  0.00    +0.000 C 
ATOM     30  N4  UNL A   1      14.787  52.556   3.953  1.00  0.00    +0.000 N 
ATOM     31  C22 UNL A   1      14.588  53.706   4.706  1.00  0.00    +0.000 C 
ATOM     32  C23 UNL A   1      14.947  54.979   4.416  1.00  0.00    +0.000 C 
ATOM     44  C30 UNL A   1      15.640  55.378   3.219  1.00  0.00    +0.000 C 
ATOM     45  C31 UNL A   1      16.063  56.645   2.850  1.00  0.00    +0.000 C 
ATOM     46  C32 UNL A   1      16.669  56.554   1.593  1.00  0.00    +0.000 C 
ATOM     47  C33 UNL A   1      16.656  55.227   1.196  1.00  0.00    +0.000 C 
ATOM     48  N5  UNL A   1      16.019  54.518   2.201  1.00  0.00    +0.000 N 
ATOM     49  C34 UNL A   1      17.181  54.648  -0.013  1.00  0.00    +0.000 C 
ATOM     61  C41 UNL A   1      17.167  53.327  -0.312  1.00  0.00    +0.000 C 
ATOM     62  N6  UNL A   1      16.657  52.273   0.432  1.00  0.00    +0.000 N 
ATOM     63  C42 UNL A   1      16.853  51.197  -0.288  1.00  0.00    +0.000 C 
ATOM     64  C43 UNL A   1      16.501  49.771   0.026  1.00  0.00    +0.000 C 
ATOM     76  C50 UNL A   1      15.829  49.490   1.158  1.00  0.00    +0.000 C 
ATOM     77  C51 UNL A   1      15.416  48.156   1.584  1.00  0.00    +0.000 C 
ATOM     78  C52 UNL A   1      14.756  48.253   2.749  1.00  0.00    +0.000 C 
ATOM     79  C53 UNL A   1      14.744  49.652   3.175  1.00  0.00    +0.000 C 
ATOM     80  N7  UNL A   1      15.372  50.319   2.153  1.00  0.00    +0.000 N 
ATOM     81  C54 UNL A   1      17.511  51.448  -1.579  1.00  0.00    +0.000 C 
ATOM     82  C55 UNL A   1      17.705  52.759  -1.531  1.00  0.00    +0.000 C 
ATOM     83  C56 UNL A   1      13.916  53.304   5.922  1.00  0.00    +0.000 C 
ATOM     84  C57 UNL A   1      13.754  51.988   5.967  1.00  0.00    +0.000 C 
ATOM    109  H23 UNL A   1      15.949  57.506   3.406  1.00  0.00    +0.000 H 
ATOM    110  H24 UNL A   1      17.059  57.342   1.052  1.00  0.00    +0.000 H 
ATOM    111  H25 UNL A   1      15.859  53.546   2.193  1.00  0.00    +0.000 H 
ATOM    112  H26 UNL A   1      15.603  47.279   1.074  1.00  0.00    +0.000 H 
ATOM    113  H27 UNL A   1      14.325  47.467   3.260  1.00  0.00    +0.000 H 
ATOM    114  H28 UNL A   1      15.485  51.297   2.134  1.00  0.00    +0.000 H 
ATOM    115  H29 UNL A   1      17.758  50.779  -2.325  1.00  0.00    +0.000 H 
ATOM    116  H30 UNL A   1      18.178  53.304  -2.268  1.00  0.00    +0.000 H 
ATOM    117  H31 UNL A   1      13.603  53.955   6.658  1.00  0.00    +0.000 H 
ATOM    118  H32 UNL A   1      13.348  51.408   6.719  1.00  0.00    +0.000 H 
ENDROOT
BRANCH   28   27
ATOM     27  C19 UNL A   1      13.684  49.131   5.318  1.00  0.00    +0.000 C 
ATOM    107  H21 UNL A   1      10.751  47.764   6.230  1.00  0.00    +0.000 H 
ATOM    108  H22 UNL A   1      11.682  49.375   4.679  1.00  0.00    +0.000 H 
ATOM     85  C58 UNL A   1      14.514  48.452   6.224  1.00  0.00    +0.000 C 
ATOM     86  C59 UNL A   1      13.990  47.441   7.035  1.00  0.00    +0.000 C 
ATOM    120  H34 UNL A   1      14.609  46.920   7.676  1.00  0.00    +0.000 H 
ATOM     24  C16 UNL A   1      12.626  47.137   6.973  1.00  0.00    +0.000 C 
ATOM     25  C17 UNL A   1      11.772  47.905   6.180  1.00  0.00    +0.000 C 
ATOM     26  C18 UNL A   1      12.305  48.861   5.320  1.00  0.00    +0.000 C 
ATOM    119  H33 UNL A   1      15.513  48.700   6.290  1.00  0.00    +0.000 H 
BRANCH   24   22
ATOM     22  C15 UNL A   1      12.117  45.968   7.723  1.00  0.00    +0.000 C 
ATOM     23  O3  UNL A   1      11.391  45.151   7.163  1.00  0.00    +0.000 O 
BRANCH   22   21
ATOM    106  H20 UNL A   1      12.936  45.026   9.296  1.00  0.00    +0.000 H 
ATOM     21  N3  UNL A   1      12.422  45.831   9.058  1.00  0.00    +0.000 N 
BRANCH   21   20
ATOM    105  H19 UNL A   1      11.745  46.096  10.969  1.00  0.00    +0.000 H 
ATOM     20  C14 UNL A   1      12.091  46.713  10.167  1.00  0.00    +0.000 C 
ATOM    104  H18 UNL A   1      11.344  47.405   9.838  1.00  0.00    +0.000 H 
BRANCH   20   19
ATOM     19  C13 UNL A   1      13.286  47.503  10.689  1.00  0.00    +0.000 C 
ATOM    102  H16 UNL A   1      13.270  47.458  11.758  1.00  0.00    +0.000 H 
ATOM    103  H17 UNL A   1      14.151  47.051  10.252  1.00  0.00    +0.000 H 
BRANCH   19   18
ATOM     18  C12 UNL A   1      13.329  48.976  10.281  1.00  0.00    +0.000 C 
ATOM    100  H14 UNL A   1      13.777  49.526  11.081  1.00  0.00    +0.000 H 
ATOM    101  H15 UNL A   1      13.886  49.011   9.367  1.00  0.00    +0.000 H 
BRANCH   18   17
ATOM     17  C11 UNL A   1      11.973  49.615   9.969  1.00  0.00    +0.000 C 
ATOM     98  H12 UNL A   1      11.259  48.829   9.847  1.00  0.00    +0.000 H 
ATOM     99  H13 UNL A   1      11.765  50.270  10.789  1.00  0.00    +0.000 H 
BRANCH   17   16
ATOM     97  H11 UNL A   1      11.224  50.028   8.049  1.00  0.00    +0.000 H 
ATOM     96  H10 UNL A   1      12.913  50.559   8.311  1.00  0.00    +0.000 H 
ATOM     16  C10 UNL A   1      11.923  50.495   8.711  1.00  0.00    +0.000 C 
BRANCH   16   15
ATOM     95  H9  UNL A   1      10.347  51.915   8.820  1.00  0.00    +0.000 H 
ATOM     94  H8  UNL A   1      11.868  52.569   8.222  1.00  0.00    +0.000 H 
ATOM     15  C9  UNL A   1      11.410  51.917   8.936  1.00  0.00    +0.000 C 
BRANCH   15   14
ATOM     93  H7  UNL A   1      11.318  51.919  11.037  1.00  0.00    +0.000 H 
ATOM     14  N2  UNL A   1      11.723  52.384  10.270  1.00  0.00    +0.000 N 
BRANCH   14    2
ATOM      1  O1  UNL A   1      12.332  54.324  11.343  1.00  0.00    +0.000 O 
ATOM      2  C1  UNL A   1      12.563  53.449  10.515  1.00  0.00    +0.000 C 
BRANCH    2    3
ATOM      3  C2  UNL A   1      13.809  53.475   9.638  1.00  0.00    +0.000 C 
ATOM     87  H1  UNL A   1      14.221  54.463   9.645  1.00  0.00    +0.000 H 
ATOM     88  H2  UNL A   1      13.532  53.191   8.644  1.00  0.00    +0.000 H 
BRANCH    3    4
ATOM      4  C3  UNL A   1      14.845  52.506  10.141  1.00  0.00    +0.000 C 
ATOM      5  C4  UNL A   1      14.947  52.280  11.569  1.00  0.00    +0.000 C 
ATOM      6  C5  UNL A   1      15.882  51.460  12.068  1.00  0.00    +0.000 C 
ATOM      7  C6  UNL A   1      16.826  50.750  11.161  1.00  0.00    +0.000 C 
ATOM      8  O2  UNL A   1      17.686  50.033  11.660  1.00  0.00    +0.000 O 
ATOM      9  N1  UNL A   1      16.634  50.972   9.806  1.00  0.00    +0.000 N 
ATOM     13  C8  UNL A   1      15.671  51.839   9.318  1.00  0.00    +0.000 C 
ATOM     89  H3  UNL A   1      14.293  52.755  12.209  1.00  0.00    +0.000 H 
ATOM     90  H4  UNL A   1      15.948  51.320  13.087  1.00  0.00    +0.000 H 
ATOM     92  H6  UNL A   1      15.586  51.975   8.299  1.00  0.00    +0.000 H 
BRANCH    9   10
ATOM     10  C7  UNL A   1      17.531  50.296   8.904  1.00  0.00    +0.000 C 
ATOM     11  F1  UNL A   1      16.847  49.718   7.886  1.00  0.00    +0.000 F 
ATOM     12  F2  UNL A   1      18.431  51.157   8.371  1.00  0.00    +0.000 F 
ATOM     91  H5  UNL A   1      18.041  49.548   9.475  1.00  0.00    +0.000 H 
ENDBRANCH    9   10
ENDBRANCH    3    4
ENDBRANCH    2    3
ENDBRANCH   14    2
ENDBRANCH   15   14
ENDBRANCH   16   15
ENDBRANCH   17   16
ENDBRANCH   18   17
ENDBRANCH   19   18
ENDBRANCH   20   19
ENDBRANCH   21   20
ENDBRANCH   22   21
ENDBRANCH   24   22
ENDBRANCH   28   27
BRANCH   32   33
ATOM     33  C24 UNL A   1      14.598  56.048   5.408  1.00  0.00    +0.000 C 
ATOM     34  C25 UNL A   1      15.572  56.624   6.236  1.00  0.00    +0.000 C 
ATOM     35  F3  UNL A   1      16.834  56.170   6.209  1.00  0.00    +0.000 F 
ATOM     36  C26 UNL A   1      15.247  57.658   7.111  1.00  0.00    +0.000 C 
ATOM     37  F4  UNL A   1      16.189  58.176   7.911  1.00  0.00    +0.000 F 
ATOM     38  C27 UNL A   1      13.951  58.149   7.157  1.00  0.00    +0.000 C 
ATOM     39  F5  UNL A   1      13.644  59.154   7.990  1.00  0.00    +0.000 F 
ATOM     40  C28 UNL A   1      12.973  57.599   6.343  1.00  0.00    +0.000 C 
ATOM     41  F6  UNL A   1      11.723  58.080   6.379  1.00  0.00    +0.000 F 
ATOM     42  C29 UNL A   1      13.290  56.550   5.483  1.00  0.00    +0.000 C 
ATOM     43  F7  UNL A   1      12.323  56.036   4.707  1.00  0.00    +0.000 F 
ENDBRANCH   32   33
BRANCH   49   50
ATOM     50  C35 UNL A   1      17.798  55.575  -1.016  1.00  0.00    +0.000 C 
ATOM     51  C36 UNL A   1      17.030  56.158  -2.035  1.00  0.00    +0.000 C 
ATOM     52  F8  UNL A   1      15.735  55.837  -2.172  1.00  0.00    +0.000 F 
ATOM     53  C37 UNL A   1      17.599  57.058  -2.931  1.00  0.00    +0.000 C 
ATOM     54  F9  UNL A   1      16.856  57.583  -3.915  1.00  0.00    +0.000 F 
ATOM     55  C38 UNL A   1      18.937  57.408  -2.812  1.00  0.00    +0.000 C 
ATOM     56  F10 UNL A   1      19.480  58.282  -3.670  1.00  0.00    +0.000 F 
ATOM     57  C39 UNL A   1      19.711  56.848  -1.808  1.00  0.00    +0.000 C 
ATOM     58  F11 UNL A   1      21.001  57.193  -1.686  1.00  0.00    +0.000 F 
ATOM     59  C40 UNL A   1      19.151  55.932  -0.922  1.00  0.00    +0.000 C 
ATOM     60  F12 UNL A   1      19.924  55.404   0.039  1.00  0.00    +0.000 F 
ENDBRANCH   49   50
BRANCH   64   65
ATOM     65  C44 UNL A   1      16.886  48.668  -0.889  1.00  0.00    +0.000 C 
ATOM     66  C45 UNL A   1      18.023  47.891  -0.636  1.00  0.00    +0.000 C 
ATOM     67  F13 UNL A   1      18.806  48.171   0.416  1.00  0.00    +0.000 F 
ATOM     68  C46 UNL A   1      18.372  46.836  -1.476  1.00  0.00    +0.000 C 
ATOM     69  F14 UNL A   1      19.478  46.121  -1.227  1.00  0.00    +0.000 F 
ATOM     70  C47 UNL A   1      17.579  46.526  -2.571  1.00  0.00    +0.000 C 
ATOM     71  F15 UNL A   1      17.907  45.502  -3.370  1.00  0.00    +0.000 F 
ATOM     72  C48 UNL A   1      16.446  47.281  -2.839  1.00  0.00    +0.000 C 
ATOM     73  F16 UNL A   1      15.670  46.977  -3.888  1.00  0.00    +0.000 F 
ATOM     74  C49 UNL A   1      16.110  48.351  -2.014  1.00  0.00    +0.000 C 
ATOM     75  F17 UNL A   1      15.012  49.067  -2.296  1.00  0.00    +0.000 F 
ENDBRANCH   64   65
TORSDOF 17
ENDMDL
MODEL 6
REMARK VINA RESULT:     -10.2     19.844     25.753
ROOT
ATOM     28  C20 UNL A   1      52.995  19.878  11.496  1.00  0.00    +0.000 C 
ATOM     29  C21 UNL A   1      54.355  19.292  11.220  1.00  0.00    +0.000 C 
ATOM     30  N4  UNL A   1      55.395  19.210  12.012  1.00  0.00    +0.000 N 
ATOM     31  C22 UNL A   1      56.384  18.572  11.276  1.00  0.00    +0.000 C 
ATOM     32  C23 UNL A   1      57.655  18.282  11.642  1.00  0.00    +0.000 C 
ATOM     44  C30 UNL A   1      58.232  18.612  12.919  1.00  0.00    +0.000 C 
ATOM     45  C31 UNL A   1      59.520  18.375  13.370  1.00  0.00    +0.000 C 
ATOM     46  C32 UNL A   1      59.617  18.847  14.684  1.00  0.00    +0.000 C 
ATOM     47  C33 UNL A   1      58.402  19.409  15.037  1.00  0.00    +0.000 C 
ATOM     48  N5  UNL A   1      57.561  19.255  13.947  1.00  0.00    +0.000 N 
ATOM     49  C34 UNL A   1      58.031  20.036  16.279  1.00  0.00    +0.000 C 
ATOM     61  C41 UNL A   1      56.828  20.602  16.535  1.00  0.00    +0.000 C 
ATOM     62  N6  UNL A   1      55.718  20.696  15.708  1.00  0.00    +0.000 N 
ATOM     63  C42 UNL A   1      54.795  21.301  16.414  1.00  0.00    +0.000 C 
ATOM     64  C43 UNL A   1      53.392  21.668  16.020  1.00  0.00    +0.000 C 
ATOM     76  C50 UNL A   1      52.926  21.297  14.813  1.00  0.00    +0.000 C 
ATOM     77  C51 UNL A   1      51.586  21.579  14.304  1.00  0.00    +0.000 C 
ATOM     78  C52 UNL A   1      51.463  21.049  13.078  1.00  0.00    +0.000 C 
ATOM     79  C53 UNL A   1      52.735  20.434  12.695  1.00  0.00    +0.000 C 
ATOM     80  N7  UNL A   1      53.533  20.599  13.799  1.00  0.00    +0.000 N 
ATOM     81  C54 UNL A   1      55.216  21.659  17.776  1.00  0.00    +0.000 C 
ATOM     82  C55 UNL A   1      56.472  21.235  17.788  1.00  0.00    +0.000 C 
ATOM     83  C56 UNL A   1      55.817  18.264   9.982  1.00  0.00    +0.000 C 
ATOM     84  C57 UNL A   1      54.578  18.726   9.880  1.00  0.00    +0.000 C 
ATOM    109  H23 UNL A   1      60.277  17.928  12.831  1.00  0.00    +0.000 H 
ATOM    110  H24 UNL A   1      60.452  18.785  15.287  1.00  0.00    +0.000 H 
ATOM    111  H25 UNL A   1      56.624  19.557  13.908  1.00  0.00    +0.000 H 
ATOM    112  H26 UNL A   1      50.852  22.102  14.806  1.00  0.00    +0.000 H 
ATOM    113  H27 UNL A   1      50.610  21.070  12.498  1.00  0.00    +0.000 H 
ATOM    114  H28 UNL A   1      54.451  20.249  13.859  1.00  0.00    +0.000 H 
ATOM    115  H29 UNL A   1      54.676  22.121  18.525  1.00  0.00    +0.000 H 
ATOM    116  H30 UNL A   1      57.114  21.342  18.589  1.00  0.00    +0.000 H 
ATOM    117  H31 UNL A   1      56.311  17.751   9.236  1.00  0.00    +0.000 H 
ATOM    118  H32 UNL A   1      53.937  18.696   9.072  1.00  0.00    +0.000 H 
ENDROOT
BRANCH   28   27
ATOM     27  C19 UNL A   1      51.957  19.915  10.432  1.00  0.00    +0.000 C 
ATOM    107  H21 UNL A   1      50.647  22.031   8.173  1.00  0.00    +0.000 H 
ATOM    108  H22 UNL A   1      52.295  21.946   9.946  1.00  0.00    +0.000 H 
ATOM     85  C58 UNL A   1      51.192  18.782  10.116  1.00  0.00    +0.000 C 
ATOM     86  C59 UNL A   1      50.327  18.802   9.018  1.00  0.00    +0.000 C 
ATOM    120  H34 UNL A   1      49.789  17.957   8.768  1.00  0.00    +0.000 H 
ATOM     24  C16 UNL A   1      50.193  19.970   8.260  1.00  0.00    +0.000 C 
ATOM     25  C17 UNL A   1      50.843  21.140   8.655  1.00  0.00    +0.000 C 
ATOM     26  C18 UNL A   1      51.758  21.099   9.703  1.00  0.00    +0.000 C 
ATOM    119  H33 UNL A   1      51.268  17.932  10.696  1.00  0.00    +0.000 H 
BRANCH   24   22
ATOM     22  C15 UNL A   1      49.393  19.930   7.017  1.00  0.00    +0.000 C 
ATOM     23  O3  UNL A   1      49.928  20.165   5.937  1.00  0.00    +0.000 O 
BRANCH   22   21
ATOM    106  H20 UNL A   1      47.633  19.787   7.974  1.00  0.00    +0.000 H 
ATOM     21  N3  UNL A   1      48.041  19.678   7.085  1.00  0.00    +0.000 N 
BRANCH   21   20
ATOM    105  H19 UNL A   1      47.573  19.575   5.097  1.00  0.00    +0.000 H 
ATOM     20  C14 UNL A   1      47.133  19.273   6.023  1.00  0.00    +0.000 C 
ATOM    104  H18 UNL A   1      46.185  19.739   6.191  1.00  0.00    +0.000 H 
BRANCH   20   19
ATOM     19  C13 UNL A   1      46.923  17.764   5.951  1.00  0.00    +0.000 C 
ATOM    102  H16 UNL A   1      47.847  17.317   5.646  1.00  0.00    +0.000 H 
ATOM    103  H17 UNL A   1      46.601  17.464   6.925  1.00  0.00    +0.000 H 
BRANCH   19   18
ATOM     18  C12 UNL A   1      45.834  17.297   4.985  1.00  0.00    +0.000 C 
ATOM    100  H14 UNL A   1      45.641  16.264   5.180  1.00  0.00    +0.000 H 
ATOM    101  H15 UNL A   1      44.992  17.935   5.163  1.00  0.00    +0.000 H 
BRANCH   18   17
ATOM     17  C11 UNL A   1      46.162  17.444   3.497  1.00  0.00    +0.000 C 
ATOM     98  H12 UNL A   1      47.225  17.509   3.399  1.00  0.00    +0.000 H 
ATOM     99  H13 UNL A   1      45.733  16.588   3.019  1.00  0.00    +0.000 H 
BRANCH   17   16
ATOM     97  H11 UNL A   1      45.744  18.535   1.750  1.00  0.00    +0.000 H 
ATOM     96  H10 UNL A   1      45.998  19.544   3.206  1.00  0.00    +0.000 H 
ATOM     16  C10 UNL A   1      45.550  18.664   2.794  1.00  0.00    +0.000 C 
BRANCH   16   15
ATOM     95  H9  UNL A   1      43.822  19.676   3.504  1.00  0.00    +0.000 H 
ATOM     94  H8  UNL A   1      43.649  17.926   3.417  1.00  0.00    +0.000 H 
ATOM     15  C9  UNL A   1      44.033  18.798   2.931  1.00  0.00    +0.000 C 
BRANCH   15   14
ATOM     93  H7  UNL A   1      43.259  18.124   1.094  1.00  0.00    +0.000 H 
ATOM     14  N2  UNL A   1      43.400  18.934   1.636  1.00  0.00    +0.000 N 
BRANCH   14    2
ATOM      1  O1  UNL A   1      43.341  21.232   1.572  1.00  0.00    +0.000 O 
ATOM      2  C1  UNL A   1      42.984  20.146   1.128  1.00  0.00    +0.000 C 
BRANCH    2    3
ATOM      3  C2  UNL A   1      41.999  20.031  -0.031  1.00  0.00    +0.000 C 
ATOM     87  H1  UNL A   1      42.008  19.026  -0.399  1.00  0.00    +0.000 H 
ATOM     88  H2  UNL A   1      42.296  20.715  -0.798  1.00  0.00    +0.000 H 
BRANCH    3    4
ATOM      4  C3  UNL A   1      40.603  20.381   0.410  1.00  0.00    +0.000 C 
ATOM      5  C4  UNL A   1      39.839  21.320  -0.387  1.00  0.00    +0.000 C 
ATOM      6  C5  UNL A   1      38.609  21.695  -0.011  1.00  0.00    +0.000 C 
ATOM      7  C6  UNL A   1      37.995  21.140   1.226  1.00  0.00    +0.000 C 
ATOM      8  O2  UNL A   1      36.879  21.533   1.551  1.00  0.00    +0.000 O 
ATOM      9  N1  UNL A   1      38.761  20.207   1.908  1.00  0.00    +0.000 N 
ATOM     13  C8  UNL A   1      40.037  19.850   1.507  1.00  0.00    +0.000 C 
ATOM     89  H3  UNL A   1      40.246  21.704  -1.253  1.00  0.00    +0.000 H 
ATOM     90  H4  UNL A   1      38.084  22.373  -0.584  1.00  0.00    +0.000 H 
ATOM     92  H6  UNL A   1      40.566  19.160   2.064  1.00  0.00    +0.000 H 
BRANCH    9   10
ATOM     10  C7  UNL A   1      38.191  19.650   3.108  1.00  0.00    +0.000 C 
ATOM     11  F1  UNL A   1      38.787  18.475   3.426  1.00  0.00    +0.000 F 
ATOM     12  F2  UNL A   1      38.339  20.494   4.158  1.00  0.00    +0.000 F 
ATOM     91  H5  UNL A   1      37.150  19.494   2.915  1.00  0.00    +0.000 H 
ENDBRANCH    9   10
ENDBRANCH    3    4
ENDBRANCH    2    3
ENDBRANCH   14    2
ENDBRANCH   15   14
ENDBRANCH   16   15
ENDBRANCH   17   16
ENDBRANCH   18   17
ENDBRANCH   19   18
ENDBRANCH   20   19
ENDBRANCH   21   20
ENDBRANCH   22   21
ENDBRANCH   24   22
ENDBRANCH   28   27
BRANCH   32   33
ATOM     33  C24 UNL A   1      58.524  17.568  10.650  1.00  0.00    +0.000 C 
ATOM     34  C25 UNL A   1      59.335  18.272   9.748  1.00  0.00    +0.000 C 
ATOM     35  F3  UNL A   1      59.290  19.612   9.704  1.00  0.00    +0.000 F 
ATOM     36  C26 UNL A   1      60.182  17.598   8.872  1.00  0.00    +0.000 C 
ATOM     37  F4  UNL A   1      60.930  18.290   8.000  1.00  0.00    +0.000 F 
ATOM     38  C27 UNL A   1      60.252  16.213   8.897  1.00  0.00    +0.000 C 
ATOM     39  F5  UNL A   1      61.078  15.567   8.062  1.00  0.00    +0.000 F 
ATOM     40  C28 UNL A   1      59.463  15.498   9.785  1.00  0.00    +0.000 C 
ATOM     41  F6  UNL A   1      59.537  14.160   9.818  1.00  0.00    +0.000 F 
ATOM     42  C29 UNL A   1      58.599  16.167  10.647  1.00  0.00    +0.000 C 
ATOM     43  F7  UNL A   1      57.848  15.449  11.495  1.00  0.00    +0.000 F 
ENDBRANCH   32   33
BRANCH   49   50
ATOM     50  C35 UNL A   1      59.057  20.073  17.371  1.00  0.00    +0.000 C 
ATOM     51  C36 UNL A   1      59.737  21.258  17.688  1.00  0.00    +0.000 C 
ATOM     52  F8  UNL A   1      59.532  22.369  16.964  1.00  0.00    +0.000 F 
ATOM     53  C37 UNL A   1      60.651  21.297  18.737  1.00  0.00    +0.000 C 
ATOM     54  F9  UNL A   1      61.313  22.432  19.005  1.00  0.00    +0.000 F 
ATOM     55  C38 UNL A   1      60.883  20.163  19.502  1.00  0.00    +0.000 C 
ATOM     56  F10 UNL A   1      61.756  20.206  20.518  1.00  0.00    +0.000 F 
ATOM     57  C39 UNL A   1      60.215  18.984  19.210  1.00  0.00    +0.000 C 
ATOM     58  F11 UNL A   1      60.431  17.890  19.954  1.00  0.00    +0.000 F 
ATOM     59  C40 UNL A   1      59.316  18.935  18.148  1.00  0.00    +0.000 C 
ATOM     60  F12 UNL A   1      58.685  17.780  17.887  1.00  0.00    +0.000 F 
ENDBRANCH   49   50
BRANCH   64   65
ATOM     65  C44 UNL A   1      52.516  22.436  16.939  1.00  0.00    +0.000 C 
ATOM     66  C45 UNL A   1      52.373  23.822  16.802  1.00  0.00    +0.000 C 
ATOM     67  F13 UNL A   1      53.072  24.479  15.864  1.00  0.00    +0.000 F 
ATOM     68  C46 UNL A   1      51.529  24.543  17.644  1.00  0.00    +0.000 C 
ATOM     69  F14 UNL A   1      51.427  25.873  17.509  1.00  0.00    +0.000 F 
ATOM     70  C47 UNL A   1      50.797  23.888  18.623  1.00  0.00    +0.000 C 
ATOM     71  F15 UNL A   1      49.973  24.580  19.422  1.00  0.00    +0.000 F 
ATOM     72  C48 UNL A   1      50.920  22.515  18.774  1.00  0.00    +0.000 C 
ATOM     73  F16 UNL A   1      50.205  21.876  19.709  1.00  0.00    +0.000 F 
ATOM     74  C49 UNL A   1      51.782  21.797  17.949  1.00  0.00    +0.000 C 
ATOM     75  F17 UNL A   1      51.887  20.470  18.118  1.00  0.00    +0.000 F 
ENDBRANCH   64   65
TORSDOF 17
ENDMDL
MODEL 7
REMARK VINA RESULT:     -10.1     34.416     42.746
ROOT
ATOM     28  C20 UNL A   1       2.338  10.986  37.605  1.00  0.00    +0.000 C 
ATOM     29  C21 UNL A   1       3.364   9.895  37.763  1.00  0.00    +0.000 C 
ATOM     30  N4  UNL A   1       3.281   8.629  37.436  1.00  0.00    +0.000 N 
ATOM     31  C22 UNL A   1       4.504   8.067  37.778  1.00  0.00    +0.000 C 
ATOM     32  C23 UNL A   1       4.901   6.776  37.669  1.00  0.00    +0.000 C 
ATOM     44  C30 UNL A   1       4.078   5.710  37.161  1.00  0.00    +0.000 C 
ATOM     45  C31 UNL A   1       4.390   4.366  37.033  1.00  0.00    +0.000 C 
ATOM     46  C32 UNL A   1       3.290   3.714  36.468  1.00  0.00    +0.000 C 
ATOM     47  C33 UNL A   1       2.280   4.643  36.279  1.00  0.00    +0.000 C 
ATOM     48  N5  UNL A   1       2.778   5.863  36.705  1.00  0.00    +0.000 N 
ATOM     49  C34 UNL A   1       0.960   4.436  35.744  1.00  0.00    +0.000 C 
ATOM     61  C41 UNL A   1       0.009   5.393  35.628  1.00  0.00    +0.000 C 
ATOM     62  N6  UNL A   1       0.082   6.737  35.968  1.00  0.00    +0.000 N 
ATOM     63  C42 UNL A   1      -1.076   7.253  35.642  1.00  0.00    +0.000 C 
ATOM     64  C43 UNL A   1      -1.556   8.669  35.788  1.00  0.00    +0.000 C 
ATOM     76  C50 UNL A   1      -0.710   9.609  36.249  1.00  0.00    +0.000 C 
ATOM     77  C51 UNL A   1      -1.037  11.020  36.434  1.00  0.00    +0.000 C 
ATOM     78  C52 UNL A   1       0.047  11.665  36.893  1.00  0.00    +0.000 C 
ATOM     79  C53 UNL A   1       1.131  10.700  37.082  1.00  0.00    +0.000 C 
ATOM     80  N7  UNL A   1       0.603   9.512  36.641  1.00  0.00    +0.000 N 
ATOM     81  C54 UNL A   1      -2.021   6.292  35.054  1.00  0.00    +0.000 C 
ATOM     82  C55 UNL A   1      -1.318   5.168  35.094  1.00  0.00    +0.000 C 
ATOM     83  C56 UNL A   1       5.323   9.130  38.315  1.00  0.00    +0.000 C 
ATOM     84  C57 UNL A   1       4.652  10.273  38.367  1.00  0.00    +0.000 C 
ATOM    109  H23 UNL A   1       5.281   3.924  37.306  1.00  0.00    +0.000 H 
ATOM    110  H24 UNL A   1       3.239   2.710  36.232  1.00  0.00    +0.000 H 
ATOM    111  H25 UNL A   1       2.283   6.714  36.686  1.00  0.00    +0.000 H 
ATOM    112  H26 UNL A   1      -1.954  11.452  36.244  1.00  0.00    +0.000 H 
ATOM    113  H27 UNL A   1       0.107  12.677  37.081  1.00  0.00    +0.000 H 
ATOM    114  H28 UNL A   1       1.115   8.672  36.609  1.00  0.00    +0.000 H 
ATOM    115  H29 UNL A   1      -2.978   6.450  34.703  1.00  0.00    +0.000 H 
ATOM    116  H30 UNL A   1      -1.672   4.249  34.782  1.00  0.00    +0.000 H 
ATOM    117  H31 UNL A   1       6.303   9.015  38.618  1.00  0.00    +0.000 H 
ATOM    118  H32 UNL A   1       4.954  11.188  38.735  1.00  0.00    +0.000 H 
ENDROOT
BRANCH   28   27
ATOM     27  C19 UNL A   1       2.617  12.363  38.089  1.00  0.00    +0.000 C 
ATOM    107  H21 UNL A   1       2.197  14.277  40.820  1.00  0.00    +0.000 H 
ATOM    108  H22 UNL A   1       1.716  12.057  39.979  1.00  0.00    +0.000 H 
ATOM     85  C58 UNL A   1       3.287  13.300  37.287  1.00  0.00    +0.000 C 
ATOM     86  C59 UNL A   1       3.664  14.537  37.816  1.00  0.00    +0.000 C 
ATOM    120  H34 UNL A   1       4.185  15.212  37.234  1.00  0.00    +0.000 H 
ATOM     24  C16 UNL A   1       3.334  14.857  39.137  1.00  0.00    +0.000 C 
ATOM     25  C17 UNL A   1       2.546  13.988  39.893  1.00  0.00    +0.000 C 
ATOM     26  C18 UNL A   1       2.234  12.728  39.390  1.00  0.00    +0.000 C 
ATOM    119  H33 UNL A   1       3.501  13.074  36.303  1.00  0.00    +0.000 H 
BRANCH   24   22
ATOM     22  C15 UNL A   1       3.870  16.103  39.729  1.00  0.00    +0.000 C 
ATOM     23  O3  UNL A   1       3.099  16.984  40.100  1.00  0.00    +0.000 O 
BRANCH   22   21
ATOM    106  H20 UNL A   1       5.602  16.992  39.239  1.00  0.00    +0.000 H 
ATOM     21  N3  UNL A   1       5.231  16.285  39.814  1.00  0.00    +0.000 N 
BRANCH   21   20
ATOM    105  H19 UNL A   1       6.080  14.532  40.438  1.00  0.00    +0.000 H 
ATOM     20  C14 UNL A   1       6.198  15.576  40.638  1.00  0.00    +0.000 C 
ATOM    104  H18 UNL A   1       6.009  15.815  41.664  1.00  0.00    +0.000 H 
BRANCH   20   19
ATOM     19  C13 UNL A   1       7.645  15.935  40.316  1.00  0.00    +0.000 C 
ATOM    102  H16 UNL A   1       7.645  16.874  39.802  1.00  0.00    +0.000 H 
ATOM    103  H17 UNL A   1       8.159  15.957  41.254  1.00  0.00    +0.000 H 
BRANCH   19   18
ATOM     18  C12 UNL A   1       8.395  14.924  39.449  1.00  0.00    +0.000 C 
ATOM    100  H14 UNL A   1       7.939  14.916  38.482  1.00  0.00    +0.000 H 
ATOM    101  H15 UNL A   1       9.417  15.245  39.442  1.00  0.00    +0.000 H 
BRANCH   18   17
ATOM     17  C11 UNL A   1       8.412  13.486  39.975  1.00  0.00    +0.000 C 
ATOM     98  H12 UNL A   1       9.422  13.135  39.942  1.00  0.00    +0.000 H 
ATOM     99  H13 UNL A   1       7.999  13.532  40.961  1.00  0.00    +0.000 H 
BRANCH   17   16
ATOM     97  H11 UNL A   1       6.665  12.330  39.801  1.00  0.00    +0.000 H 
ATOM     96  H10 UNL A   1       8.115  11.593  39.055  1.00  0.00    +0.000 H 
ATOM     16  C10 UNL A   1       7.541  12.483  39.205  1.00  0.00    +0.000 C 
BRANCH   16   15
ATOM     95  H9  UNL A   1       7.310  13.996  37.732  1.00  0.00    +0.000 H 
ATOM     94  H8  UNL A   1       5.989  12.835  37.787  1.00  0.00    +0.000 H 
ATOM     15  C9  UNL A   1       7.049  12.965  37.841  1.00  0.00    +0.000 C 
BRANCH   15   14
ATOM     93  H7  UNL A   1       8.370  11.565  36.991  1.00  0.00    +0.000 H 
ATOM     14  N2  UNL A   1       7.671  12.220  36.766  1.00  0.00    +0.000 N 
BRANCH   14    2
ATOM      1  O1  UNL A   1       7.722  11.658  34.537  1.00  0.00    +0.000 O 
ATOM      2  C1  UNL A   1       7.328  12.387  35.441  1.00  0.00    +0.000 C 
BRANCH    2    3
ATOM      3  C2  UNL A   1       6.432  13.592  35.176  1.00  0.00    +0.000 C 
ATOM     87  H1  UNL A   1       6.104  13.996  36.110  1.00  0.00    +0.000 H 
ATOM     88  H2  UNL A   1       5.596  13.271  34.590  1.00  0.00    +0.000 H 
BRANCH    3    4
ATOM      4  C3  UNL A   1       7.172  14.657  34.411  1.00  0.00    +0.000 C 
ATOM      5  C4  UNL A   1       8.245  15.370  35.077  1.00  0.00    +0.000 C 
ATOM      6  C5  UNL A   1       8.903  16.355  34.452  1.00  0.00    +0.000 C 
ATOM      7  C6  UNL A   1       8.556  16.727  33.053  1.00  0.00    +0.000 C 
ATOM      8  O2  UNL A   1       9.162  17.655  32.529  1.00  0.00    +0.000 O 
ATOM      9  N1  UNL A   1       7.558  15.967  32.462  1.00  0.00    +0.000 N 
ATOM     13  C8  UNL A   1       6.882  14.965  33.136  1.00  0.00    +0.000 C 
ATOM     89  H3  UNL A   1       8.505  15.115  36.042  1.00  0.00    +0.000 H 
ATOM     90  H4  UNL A   1       9.655  16.859  34.945  1.00  0.00    +0.000 H 
ATOM     92  H6  UNL A   1       6.137  14.443  32.648  1.00  0.00    +0.000 H 
BRANCH    9   10
ATOM     10  C7  UNL A   1       7.204  16.302  31.106  1.00  0.00    +0.000 C 
ATOM     11  F1  UNL A   1       7.676  15.373  30.240  1.00  0.00    +0.000 F 
ATOM     12  F2  UNL A   1       5.859  16.372  30.955  1.00  0.00    +0.000 F 
ATOM     91  H5  UNL A   1       7.641  17.257  30.897  1.00  0.00    +0.000 H 
ENDBRANCH    9   10
ENDBRANCH    3    4
ENDBRANCH    2    3
ENDBRANCH   14    2
ENDBRANCH   15   14
ENDBRANCH   16   15
ENDBRANCH   17   16
ENDBRANCH   18   17
ENDBRANCH   19   18
ENDBRANCH   20   19
ENDBRANCH   21   20
ENDBRANCH   22   21
ENDBRANCH   24   22
ENDBRANCH   28   27
BRANCH   32   33
ATOM     33  C24 UNL A   1       6.294   6.433  38.105  1.00  0.00    +0.000 C 
ATOM     34  C25 UNL A   1       7.410   6.780  37.330  1.00  0.00    +0.000 C 
ATOM     35  F3  UNL A   1       7.245   7.364  36.133  1.00  0.00    +0.000 F 
ATOM     36  C26 UNL A   1       8.702   6.509  37.774  1.00  0.00    +0.000 C 
ATOM     37  F4  UNL A   1       9.753   6.826  37.006  1.00  0.00    +0.000 F 
ATOM     38  C27 UNL A   1       8.902   5.910  39.009  1.00  0.00    +0.000 C 
ATOM     39  F5  UNL A   1      10.147   5.663  39.441  1.00  0.00    +0.000 F 
ATOM     40  C28 UNL A   1       7.813   5.564  39.795  1.00  0.00    +0.000 C 
ATOM     41  F6  UNL A   1       8.006   4.995  40.992  1.00  0.00    +0.000 F 
ATOM     42  C29 UNL A   1       6.520   5.813  39.343  1.00  0.00    +0.000 C 
ATOM     43  F7  UNL A   1       5.485   5.468  40.124  1.00  0.00    +0.000 F 
ENDBRANCH   32   33
BRANCH   49   50
ATOM     50  C35 UNL A   1       0.605   3.053  35.287  1.00  0.00    +0.000 C 
ATOM     51  C36 UNL A   1       1.036   2.566  34.045  1.00  0.00    +0.000 C 
ATOM     52  F8  UNL A   1       1.718   3.362  33.207  1.00  0.00    +0.000 F 
ATOM     53  C37 UNL A   1       0.746   1.264  33.649  1.00  0.00    +0.000 C 
ATOM     54  F9  UNL A   1       1.142   0.826  32.446  1.00  0.00    +0.000 F 
ATOM     55  C38 UNL A   1       0.042   0.419  34.496  1.00  0.00    +0.000 C 
ATOM     56  F10 UNL A   1      -0.227  -0.838  34.117  1.00  0.00    +0.000 F 
ATOM     57  C39 UNL A   1      -0.387   0.879  35.731  1.00  0.00    +0.000 C 
ATOM     58  F11 UNL A   1      -1.059   0.061  36.553  1.00  0.00    +0.000 F 
ATOM     59  C40 UNL A   1      -0.117   2.188  36.121  1.00  0.00    +0.000 C 
ATOM     60  F12 UNL A   1      -0.546   2.607  37.322  1.00  0.00    +0.000 F 
ENDBRANCH   49   50
BRANCH   64   65
ATOM     65  C44 UNL A   1      -2.947   9.046  35.437  1.00  0.00    +0.000 C 
ATOM     66  C45 UNL A   1      -3.989   8.878  36.357  1.00  0.00    +0.000 C 
ATOM     67  F13 UNL A   1      -3.744   8.324  37.554  1.00  0.00    +0.000 F 
ATOM     68  C46 UNL A   1      -5.292   9.257  36.042  1.00  0.00    +0.000 C 
ATOM     69  F14 UNL A   1      -6.278   9.065  36.930  1.00  0.00    +0.000 F 
ATOM     70  C47 UNL A   1      -5.572   9.832  34.811  1.00  0.00    +0.000 C 
ATOM     71  F15 UNL A   1      -6.822  10.211  34.515  1.00  0.00    +0.000 F 
ATOM     72  C48 UNL A   1      -4.554  10.011  33.886  1.00  0.00    +0.000 C 
ATOM     73  F16 UNL A   1      -4.818  10.576  32.700  1.00  0.00    +0.000 F 
ATOM     74  C49 UNL A   1      -3.256   9.609  34.190  1.00  0.00    +0.000 C 
ATOM     75  F17 UNL A   1      -2.291   9.789  33.277  1.00  0.00    +0.000 F 
ENDBRANCH   64   65
TORSDOF 17
ENDMDL
MODEL 8
REMARK VINA RESULT:     -10.1     37.801     43.349
ROOT
ATOM     28  C20 UNL A   1      14.238  54.072   5.108  1.00  0.00    +0.000 C 
ATOM     29  C21 UNL A   1      13.733  52.654   5.151  1.00  0.00    +0.000 C 
ATOM     30  N4  UNL A   1      14.024  51.649   4.363  1.00  0.00    +0.000 N 
ATOM     31  C22 UNL A   1      13.303  50.565   4.846  1.00  0.00    +0.000 C 
ATOM     32  C23 UNL A   1      13.239  49.305   4.353  1.00  0.00    +0.000 C 
ATOM     44  C30 UNL A   1      13.936  48.853   3.178  1.00  0.00    +0.000 C 
ATOM     45  C31 UNL A   1      13.914  47.597   2.592  1.00  0.00    +0.000 C 
ATOM     46  C32 UNL A   1      14.766  47.617   1.483  1.00  0.00    +0.000 C 
ATOM     47  C33 UNL A   1      15.289  48.893   1.357  1.00  0.00    +0.000 C 
ATOM     48  N5  UNL A   1      14.775  49.640   2.404  1.00  0.00    +0.000 N 
ATOM     49  C34 UNL A   1      16.196  49.395   0.358  1.00  0.00    +0.000 C 
ATOM     61  C41 UNL A   1      16.633  50.675   0.277  1.00  0.00    +0.000 C 
ATOM     62  N6  UNL A   1      16.335  51.749   1.104  1.00  0.00    +0.000 N 
ATOM     63  C42 UNL A   1      17.020  52.762   0.636  1.00  0.00    +0.000 C 
ATOM     64  C43 UNL A   1      17.079  54.177   1.139  1.00  0.00    +0.000 C 
ATOM     76  C50 UNL A   1      16.414  54.507   2.262  1.00  0.00    +0.000 C 
ATOM     77  C51 UNL A   1      16.390  55.836   2.866  1.00  0.00    +0.000 C 
ATOM     78  C52 UNL A   1      15.644  55.797   3.982  1.00  0.00    +0.000 C 
ATOM     79  C53 UNL A   1      15.097  54.449   4.141  1.00  0.00    +0.000 C 
ATOM     80  N7  UNL A   1      15.635  53.742   3.094  1.00  0.00    +0.000 N 
ATOM     81  C54 UNL A   1      17.835  52.445  -0.546  1.00  0.00    +0.000 C 
ATOM     82  C55 UNL A   1      17.541  51.167  -0.739  1.00  0.00    +0.000 C 
ATOM     83  C56 UNL A   1      12.579  51.024   6.010  1.00  0.00    +0.000 C 
ATOM     84  C57 UNL A   1      12.777  52.319   6.218  1.00  0.00    +0.000 C 
ATOM    109  H23 UNL A   1      13.365  46.788   2.919  1.00  0.00    +0.000 H 
ATOM    110  H24 UNL A   1      14.970  46.817   0.864  1.00  0.00    +0.000 H 
ATOM    111  H25 UNL A   1      14.975  50.588   2.575  1.00  0.00    +0.000 H 
ATOM    112  H26 UNL A   1      16.868  56.672   2.496  1.00  0.00    +0.000 H 
ATOM    113  H27 UNL A   1      15.483  56.588   4.623  1.00  0.00    +0.000 H 
ATOM    114  H28 UNL A   1      15.478  52.781   2.954  1.00  0.00    +0.000 H 
ATOM    115  H29 UNL A   1      18.469  53.057  -1.084  1.00  0.00    +0.000 H 
ATOM    116  H30 UNL A   1      17.912  50.595  -1.513  1.00  0.00    +0.000 H 
ATOM    117  H31 UNL A   1      11.986  50.422   6.603  1.00  0.00    +0.000 H 
ATOM    118  H32 UNL A   1      12.367  52.932   6.940  1.00  0.00    +0.000 H 
ENDROOT
BRANCH   28   27
ATOM     27  C19 UNL A   1      13.741  55.082   6.078  1.00  0.00    +0.000 C 
ATOM    107  H21 UNL A   1      11.306  57.377   6.401  1.00  0.00    +0.000 H 
ATOM    108  H22 UNL A   1      12.174  55.755   4.826  1.00  0.00    +0.000 H 
ATOM     85  C58 UNL A   1      14.353  55.259   7.329  1.00  0.00    +0.000 C 
ATOM     86  C59 UNL A   1      13.780  56.111   8.278  1.00  0.00    +0.000 C 
ATOM    120  H34 UNL A   1      14.214  56.215   9.209  1.00  0.00    +0.000 H 
ATOM     24  C16 UNL A   1      12.618  56.822   7.961  1.00  0.00    +0.000 C 
ATOM     25  C17 UNL A   1      12.087  56.758   6.672  1.00  0.00    +0.000 C 
ATOM     26  C18 UNL A   1      12.615  55.856   5.753  1.00  0.00    +0.000 C 
ATOM    119  H33 UNL A   1      15.228  54.758   7.548  1.00  0.00    +0.000 H 
BRANCH   24   22
ATOM     22  C15 UNL A   1      11.942  57.599   9.022  1.00  0.00    +0.000 C 
ATOM     23  O3  UNL A   1      12.056  58.822   9.052  1.00  0.00    +0.000 O 
BRANCH   22   21
ATOM    106  H20 UNL A   1      11.339  57.288  10.912  1.00  0.00    +0.000 H 
ATOM     21  N3  UNL A   1      11.227  56.941   9.998  1.00  0.00    +0.000 N 
BRANCH   21   20
ATOM    105  H19 UNL A   1      10.239  55.595   8.818  1.00  0.00    +0.000 H 
ATOM     20  C14 UNL A   1      10.329  55.804   9.863  1.00  0.00    +0.000 C 
ATOM    104  H18 UNL A   1       9.390  56.060  10.306  1.00  0.00    +0.000 H 
BRANCH   20   19
ATOM     19  C13 UNL A   1      10.853  54.538  10.533  1.00  0.00    +0.000 C 
ATOM    102  H16 UNL A   1      10.123  54.217  11.246  1.00  0.00    +0.000 H 
ATOM    103  H17 UNL A   1      11.023  53.837   9.744  1.00  0.00    +0.000 H 
BRANCH   19   18
ATOM     18  C12 UNL A   1      12.189  54.685  11.262  1.00  0.00    +0.000 C 
ATOM    100  H14 UNL A   1      12.815  53.870  10.969  1.00  0.00    +0.000 H 
ATOM    101  H15 UNL A   1      12.571  55.646  10.983  1.00  0.00    +0.000 H 
BRANCH   18   17
ATOM     17  C11 UNL A   1      12.110  54.694  12.791  1.00  0.00    +0.000 C 
ATOM     98  H12 UNL A   1      11.864  55.687  13.102  1.00  0.00    +0.000 H 
ATOM     99  H13 UNL A   1      11.373  53.962  13.049  1.00  0.00    +0.000 H 
BRANCH   17   16
ATOM     97  H11 UNL A   1      13.071  53.829  14.448  1.00  0.00    +0.000 H 
ATOM     96  H10 UNL A   1      13.997  55.143  13.662  1.00  0.00    +0.000 H 
ATOM     16  C10 UNL A   1      13.390  54.273  13.528  1.00  0.00    +0.000 C 
BRANCH   16   15
ATOM     95  H9  UNL A   1      15.230  53.266  13.193  1.00  0.00    +0.000 H 
ATOM     94  H8  UNL A   1      14.213  53.406  11.763  1.00  0.00    +0.000 H 
ATOM     15  C9  UNL A   1      14.231  53.214  12.815  1.00  0.00    +0.000 C 
BRANCH   15   14
ATOM     93  H7  UNL A   1      13.694  51.553  13.989  1.00  0.00    +0.000 H 
ATOM     14  N2  UNL A   1      13.718  51.883  13.062  1.00  0.00    +0.000 N 
BRANCH   14    2
ATOM      1  O1  UNL A   1      12.246  51.273  11.403  1.00  0.00    +0.000 O 
ATOM      2  C1  UNL A   1      13.261  51.057  12.058  1.00  0.00    +0.000 C 
BRANCH    2    3
ATOM      3  C2  UNL A   1      14.111  49.809  11.842  1.00  0.00    +0.000 C 
ATOM     87  H1  UNL A   1      13.496  49.035  11.432  1.00  0.00    +0.000 H 
ATOM     88  H2  UNL A   1      14.517  49.507  12.784  1.00  0.00    +0.000 H 
BRANCH    3    4
ATOM      4  C3  UNL A   1      15.248  50.088  10.896  1.00  0.00    +0.000 C 
ATOM      5  C4  UNL A   1      16.544  50.426  11.450  1.00  0.00    +0.000 C 
ATOM      6  C5  UNL A   1      17.575  50.724  10.648  1.00  0.00    +0.000 C 
ATOM      7  C6  UNL A   1      17.414  50.697   9.169  1.00  0.00    +0.000 C 
ATOM      8  O2  UNL A   1      18.374  51.006   8.471  1.00  0.00    +0.000 O 
ATOM      9  N1  UNL A   1      16.163  50.312   8.710  1.00  0.00    +0.000 N 
ATOM     13  C8  UNL A   1      15.109  50.026   9.561  1.00  0.00    +0.000 C 
ATOM     89  H3  UNL A   1      16.674  50.437  12.473  1.00  0.00    +0.000 H 
ATOM     90  H4  UNL A   1      18.487  50.974  11.060  1.00  0.00    +0.000 H 
ATOM     92  H6  UNL A   1      14.196  49.760   9.160  1.00  0.00    +0.000 H 
BRANCH    9   10
ATOM     10  C7  UNL A   1      15.979  50.274   7.282  1.00  0.00    +0.000 C 
ATOM     11  F1  UNL A   1      16.393  51.430   6.709  1.00  0.00    +0.000 F 
ATOM     12  F2  UNL A   1      16.679  49.256   6.725  1.00  0.00    +0.000 F 
ATOM     91  H5  UNL A   1      14.933  50.130   7.106  1.00  0.00    +0.000 H 
ENDBRANCH    9   10
ENDBRANCH    3    4
ENDBRANCH    2    3
ENDBRANCH   14    2
ENDBRANCH   15   14
ENDBRANCH   16   15
ENDBRANCH   17   16
ENDBRANCH   18   17
ENDBRANCH   19   18
ENDBRANCH   20   19
ENDBRANCH   21   20
ENDBRANCH   22   21
ENDBRANCH   24   22
ENDBRANCH   28   27
BRANCH   32   33
ATOM     33  C24 UNL A   1      12.383  48.312   5.081  1.00  0.00    +0.000 C 
ATOM     34  C25 UNL A   1      11.043  48.102   4.726  1.00  0.00    +0.000 C 
ATOM     35  F3  UNL A   1      10.473  48.850   3.770  1.00  0.00    +0.000 F 
ATOM     36  C26 UNL A   1      10.276  47.134   5.370  1.00  0.00    +0.000 C 
ATOM     37  F4  UNL A   1       8.989  46.968   5.033  1.00  0.00    +0.000 F 
ATOM     38  C27 UNL A   1      10.840  46.344   6.361  1.00  0.00    +0.000 C 
ATOM     39  F5  UNL A   1      10.103  45.403   6.969  1.00  0.00    +0.000 F 
ATOM     40  C28 UNL A   1      12.165  46.530   6.723  1.00  0.00    +0.000 C 
ATOM     41  F6  UNL A   1      12.714  45.760   7.672  1.00  0.00    +0.000 F 
ATOM     42  C29 UNL A   1      12.928  47.512   6.096  1.00  0.00    +0.000 C 
ATOM     43  F7  UNL A   1      14.208  47.670   6.467  1.00  0.00    +0.000 F 
ENDBRANCH   32   33
BRANCH   49   50
ATOM     50  C35 UNL A   1      16.690  48.432  -0.679  1.00  0.00    +0.000 C 
ATOM     51  C36 UNL A   1      17.924  47.780  -0.535  1.00  0.00    +0.000 C 
ATOM     52  F8  UNL A   1      18.721  48.066   0.506  1.00  0.00    +0.000 F 
ATOM     53  C37 UNL A   1      18.352  46.849  -1.476  1.00  0.00    +0.000 C 
ATOM     54  F9  UNL A   1      19.547  46.258  -1.335  1.00  0.00    +0.000 F 
ATOM     55  C38 UNL A   1      17.548  46.535  -2.562  1.00  0.00    +0.000 C 
ATOM     56  F10 UNL A   1      17.958  45.630  -3.461  1.00  0.00    +0.000 F 
ATOM     57  C39 UNL A   1      16.322  47.163  -2.718  1.00  0.00    +0.000 C 
ATOM     58  F11 UNL A   1      15.540  46.853  -3.762  1.00  0.00    +0.000 F 
ATOM     59  C40 UNL A   1      15.899  48.110  -1.791  1.00  0.00    +0.000 C 
ATOM     60  F12 UNL A   1      14.708  48.704  -1.968  1.00  0.00    +0.000 F 
ENDBRANCH   49   50
BRANCH   64   65
ATOM     65  C44 UNL A   1      17.854  55.214   0.415  1.00  0.00    +0.000 C 
ATOM     66  C45 UNL A   1      19.101  55.641   0.891  1.00  0.00    +0.000 C 
ATOM     67  F13 UNL A   1      19.583  55.149   2.041  1.00  0.00    +0.000 F 
ATOM     68  C46 UNL A   1      19.845  56.593   0.198  1.00  0.00    +0.000 C 
ATOM     69  F14 UNL A   1      21.024  57.004   0.686  1.00  0.00    +0.000 F 
ATOM     70  C47 UNL A   1      19.367  57.119  -0.993  1.00  0.00    +0.000 C 
ATOM     71  F15 UNL A   1      20.091  58.022  -1.667  1.00  0.00    +0.000 F 
ATOM     72  C48 UNL A   1      18.137  56.707  -1.485  1.00  0.00    +0.000 C 
ATOM     73  F16 UNL A   1      17.678  57.203  -2.642  1.00  0.00    +0.000 F 
ATOM     74  C49 UNL A   1      17.381  55.774  -0.781  1.00  0.00    +0.000 C 
ATOM     75  F17 UNL A   1      16.194  55.395  -1.276  1.00  0.00    +0.000 F 
ENDBRANCH   64   65
TORSDOF 17
ENDMDL
MODEL 9
REMARK VINA RESULT:     -10.1     20.876     28.927
ROOT
ATOM     28  C20 UNL A   1      25.364  39.543  46.705  1.00  0.00    +0.000 C 
ATOM     29  C21 UNL A   1      24.826  38.148  46.526  1.00  0.00    +0.000 C 
ATOM     30  N4  UNL A   1      23.651  37.668  46.851  1.00  0.00    +0.000 N 
ATOM     31  C22 UNL A   1      23.662  36.336  46.458  1.00  0.00    +0.000 C 
ATOM     32  C23 UNL A   1      22.692  35.403  46.607  1.00  0.00    +0.000 C 
ATOM     44  C30 UNL A   1      21.421  35.641  47.239  1.00  0.00    +0.000 C 
ATOM     45  C31 UNL A   1      20.383  34.748  47.453  1.00  0.00    +0.000 C 
ATOM     46  C32 UNL A   1      19.338  35.435  48.080  1.00  0.00    +0.000 C 
ATOM     47  C33 UNL A   1      19.738  36.744  48.288  1.00  0.00    +0.000 C 
ATOM     48  N5  UNL A   1      21.016  36.858  47.765  1.00  0.00    +0.000 N 
ATOM     49  C34 UNL A   1      19.007  37.816  48.913  1.00  0.00    +0.000 C 
ATOM     61  C41 UNL A   1      19.485  39.066  49.119  1.00  0.00    +0.000 C 
ATOM     62  N6  UNL A   1      20.725  39.589  48.780  1.00  0.00    +0.000 N 
ATOM     63  C42 UNL A   1      20.701  40.843  49.157  1.00  0.00    +0.000 C 
ATOM     64  C43 UNL A   1      21.774  41.888  49.039  1.00  0.00    +0.000 C 
ATOM     76  C50 UNL A   1      22.925  41.584  48.410  1.00  0.00    +0.000 C 
ATOM     77  C51 UNL A   1      24.046  42.500  48.216  1.00  0.00    +0.000 C 
ATOM     78  C52 UNL A   1      25.016  41.868  47.536  1.00  0.00    +0.000 C 
ATOM     79  C53 UNL A   1      24.602  40.486  47.291  1.00  0.00    +0.000 C 
ATOM     80  N7  UNL A   1      23.334  40.417  47.813  1.00  0.00    +0.000 N 
ATOM     81  C54 UNL A   1      19.436  41.261  49.779  1.00  0.00    +0.000 C 
ATOM     82  C55 UNL A   1      18.740  40.132  49.755  1.00  0.00    +0.000 C 
ATOM     83  C56 UNL A   1      24.949  36.085  45.849  1.00  0.00    +0.000 C 
ATOM     84  C57 UNL A   1      25.723  37.162  45.903  1.00  0.00    +0.000 C 
ATOM    109  H23 UNL A   1      20.382  33.750  47.194  1.00  0.00    +0.000 H 
ATOM    110  H24 UNL A   1      18.424  35.033  48.341  1.00  0.00    +0.000 H 
ATOM    111  H25 UNL A   1      21.556  37.681  47.766  1.00  0.00    +0.000 H 
ATOM    112  H26 UNL A   1      24.088  43.475  48.549  1.00  0.00    +0.000 H 
ATOM    113  H27 UNL A   1      25.908  42.288  47.234  1.00  0.00    +0.000 H 
ATOM    114  H28 UNL A   1      22.773  39.610  47.765  1.00  0.00    +0.000 H 
ATOM    115  H29 UNL A   1      19.162  42.189  50.140  1.00  0.00    +0.000 H 
ATOM    116  H30 UNL A   1      17.789  40.027  50.141  1.00  0.00    +0.000 H 
ATOM    117  H31 UNL A   1      25.229  35.187  45.425  1.00  0.00    +0.000 H 
ATOM    118  H32 UNL A   1      26.699  37.277  45.589  1.00  0.00    +0.000 H 
ENDROOT
BRANCH   28   27
ATOM     27  C19 UNL A   1      26.758  39.873  46.307  1.00  0.00    +0.000 C 
ATOM    107  H21 UNL A   1      29.889  39.760  47.525  1.00  0.00    +0.000 H 
ATOM    108  H22 UNL A   1      27.600  39.279  48.155  1.00  0.00    +0.000 H 
ATOM     85  C58 UNL A   1      27.054  40.390  45.036  1.00  0.00    +0.000 C 
ATOM     86  C59 UNL A   1      28.383  40.555  44.636  1.00  0.00    +0.000 C 
ATOM    120  H34 UNL A   1      28.599  40.905  43.689  1.00  0.00    +0.000 H 
ATOM     24  C16 UNL A   1      29.419  40.245  45.523  1.00  0.00    +0.000 C 
ATOM     25  C17 UNL A   1      29.129  39.866  46.835  1.00  0.00    +0.000 C 
ATOM     26  C18 UNL A   1      27.808  39.633  47.208  1.00  0.00    +0.000 C 
ATOM    119  H33 UNL A   1      26.287  40.648  44.396  1.00  0.00    +0.000 H 
BRANCH   24   22
ATOM     22  C15 UNL A   1      30.815  40.281  45.036  1.00  0.00    +0.000 C 
ATOM     23  O3  UNL A   1      31.597  41.116  45.482  1.00  0.00    +0.000 O 
BRANCH   22   21
ATOM    106  H20 UNL A   1      31.403  39.813  43.174  1.00  0.00    +0.000 H 
ATOM     21  N3  UNL A   1      31.214  39.407  44.050  1.00  0.00    +0.000 N 
BRANCH   21   20
ATOM    105  H19 UNL A   1      31.516  37.715  45.158  1.00  0.00    +0.000 H 
ATOM     20  C14 UNL A   1      31.397  37.966  44.125  1.00  0.00    +0.000 C 
ATOM    104  H18 UNL A   1      32.255  37.701  43.543  1.00  0.00    +0.000 H 
BRANCH   20   19
ATOM     19  C13 UNL A   1      30.198  37.177  43.606  1.00  0.00    +0.000 C 
ATOM    102  H16 UNL A   1      29.719  37.765  42.851  1.00  0.00    +0.000 H 
ATOM    103  H17 UNL A   1      30.590  36.249  43.247  1.00  0.00    +0.000 H 
BRANCH   19   18
ATOM     18  C12 UNL A   1      29.148  36.813  44.656  1.00  0.00    +0.000 C 
ATOM    100  H14 UNL A   1      28.520  37.666  44.803  1.00  0.00    +0.000 H 
ATOM    101  H15 UNL A   1      28.632  35.957  44.270  1.00  0.00    +0.000 H 
BRANCH   18   17
ATOM     17  C11 UNL A   1      29.697  36.390  46.021  1.00  0.00    +0.000 C 
ATOM     98  H12 UNL A   1      30.600  35.841  45.857  1.00  0.00    +0.000 H 
ATOM     99  H13 UNL A   1      29.832  37.296  46.574  1.00  0.00    +0.000 H 
BRANCH   17   16
ATOM     97  H11 UNL A   1      29.178  34.531  46.854  1.00  0.00    +0.000 H 
ATOM     96  H10 UNL A   1      27.781  35.577  46.459  1.00  0.00    +0.000 H 
ATOM     16  C10 UNL A   1      28.765  35.517  46.875  1.00  0.00    +0.000 C 
BRANCH   16   15
ATOM     95  H9  UNL A   1      29.375  36.704  48.528  1.00  0.00    +0.000 H 
ATOM     94  H8  UNL A   1      28.913  35.058  48.952  1.00  0.00    +0.000 H 
ATOM     15  C9  UNL A   1      28.679  35.910  48.349  1.00  0.00    +0.000 C 
BRANCH   15   14
ATOM     93  H7  UNL A   1      26.647  36.334  48.006  1.00  0.00    +0.000 H 
ATOM     14  N2  UNL A   1      27.353  36.380  48.691  1.00  0.00    +0.000 N 
BRANCH   14    2
ATOM      1  O1  UNL A   1      27.555  36.517  50.978  1.00  0.00    +0.000 O 
ATOM      2  C1  UNL A   1      27.033  36.888  49.931  1.00  0.00    +0.000 C 
BRANCH    2    3
ATOM      3  C2  UNL A   1      25.933  37.944  49.908  1.00  0.00    +0.000 C 
ATOM     87  H1  UNL A   1      25.832  38.321  48.912  1.00  0.00    +0.000 H 
ATOM     88  H2  UNL A   1      26.203  38.730  50.582  1.00  0.00    +0.000 H 
BRANCH    3    4
ATOM      4  C3  UNL A   1      24.617  37.363  50.351  1.00  0.00    +0.000 C 
ATOM      5  C4  UNL A   1      24.341  35.970  50.062  1.00  0.00    +0.000 C 
ATOM      6  C5  UNL A   1      23.167  35.420  50.398  1.00  0.00    +0.000 C 
ATOM      7  C6  UNL A   1      22.126  36.227  51.092  1.00  0.00    +0.000 C 
ATOM      8  O2  UNL A   1      21.053  35.694  51.355  1.00  0.00    +0.000 O 
ATOM      9  N1  UNL A   1      22.480  37.535  51.385  1.00  0.00    +0.000 N 
ATOM     13  C8  UNL A   1      23.694  38.084  51.011  1.00  0.00    +0.000 C 
ATOM     89  H3  UNL A   1      25.058  35.395  49.593  1.00  0.00    +0.000 H 
ATOM     90  H4  UNL A   1      22.984  34.431  50.175  1.00  0.00    +0.000 H 
ATOM     92  H6  UNL A   1      23.895  39.069  51.243  1.00  0.00    +0.000 H 
BRANCH    9   10
ATOM     10  C7  UNL A   1      21.493  38.340  52.059  1.00  0.00    +0.000 C 
ATOM     11  F1  UNL A   1      21.388  37.983  53.362  1.00  0.00    +0.000 F 
ATOM     12  F2  UNL A   1      21.816  39.655  52.008  1.00  0.00    +0.000 F 
ATOM     91  H5  UNL A   1      20.562  38.177  51.557  1.00  0.00    +0.000 H 
ENDBRANCH    9   10
ENDBRANCH    3    4
ENDBRANCH    2    3
ENDBRANCH   14    2
ENDBRANCH   15   14
ENDBRANCH   16   15
ENDBRANCH   17   16
ENDBRANCH   18   17
ENDBRANCH   19   18
ENDBRANCH   20   19
ENDBRANCH   21   20
ENDBRANCH   22   21
ENDBRANCH   24   22
ENDBRANCH   28   27
BRANCH   32   33
ATOM     33  C24 UNL A   1      22.959  34.025  46.078  1.00  0.00    +0.000 C 
ATOM     34  C25 UNL A   1      22.449  33.606  44.840  1.00  0.00    +0.000 C 
ATOM     35  F3  UNL A   1      21.642  34.412  44.135  1.00  0.00    +0.000 F 
ATOM     36  C26 UNL A   1      22.754  32.346  44.331  1.00  0.00    +0.000 C 
ATOM     37  F4  UNL A   1      22.236  31.955  43.158  1.00  0.00    +0.000 F 
ATOM     38  C27 UNL A   1      23.589  31.493  45.038  1.00  0.00    +0.000 C 
ATOM     39  F5  UNL A   1      23.892  30.285  44.539  1.00  0.00    +0.000 F 
ATOM     40  C28 UNL A   1      24.109  31.889  46.260  1.00  0.00    +0.000 C 
ATOM     41  F6  UNL A   1      24.924  31.071  46.938  1.00  0.00    +0.000 F 
ATOM     42  C29 UNL A   1      23.789  33.140  46.782  1.00  0.00    +0.000 C 
ATOM     43  F7  UNL A   1      24.305  33.497  47.967  1.00  0.00    +0.000 F 
ENDBRANCH   32   33
BRANCH   49   50
ATOM     50  C35 UNL A   1      17.614  37.525  49.382  1.00  0.00    +0.000 C 
ATOM     51  C36 UNL A   1      17.290  37.531  50.746  1.00  0.00    +0.000 C 
ATOM     52  F8  UNL A   1      18.248  37.727  51.666  1.00  0.00    +0.000 F 
ATOM     53  C37 UNL A   1      15.983  37.311  51.171  1.00  0.00    +0.000 C 
ATOM     54  F9  UNL A   1      15.700  37.292  52.481  1.00  0.00    +0.000 F 
ATOM     55  C38 UNL A   1      14.974  37.106  50.241  1.00  0.00    +0.000 C 
ATOM     56  F10 UNL A   1      13.715  36.905  50.651  1.00  0.00    +0.000 F 
ATOM     57  C39 UNL A   1      15.272  37.104  48.887  1.00  0.00    +0.000 C 
ATOM     58  F11 UNL A   1      14.296  36.915  47.987  1.00  0.00    +0.000 F 
ATOM     59  C40 UNL A   1      16.582  37.303  48.459  1.00  0.00    +0.000 C 
ATOM     60  F12 UNL A   1      16.841  37.294  47.142  1.00  0.00    +0.000 F 
ENDBRANCH   49   50
BRANCH   64   65
ATOM     65  C44 UNL A   1      21.587  43.244  49.609  1.00  0.00    +0.000 C 
ATOM     66  C45 UNL A   1      21.956  43.524  50.931  1.00  0.00    +0.000 C 
ATOM     67  F13 UNL A   1      22.437  42.546  51.713  1.00  0.00    +0.000 F 
ATOM     68  C46 UNL A   1      21.809  44.804  51.461  1.00  0.00    +0.000 C 
ATOM     69  F14 UNL A   1      22.147  45.041  52.737  1.00  0.00    +0.000 F 
ATOM     70  C47 UNL A   1      21.313  45.831  50.673  1.00  0.00    +0.000 C 
ATOM     71  F15 UNL A   1      21.187  47.065  51.179  1.00  0.00    +0.000 F 
ATOM     72  C48 UNL A   1      20.945  45.578  49.360  1.00  0.00    +0.000 C 
ATOM     73  F16 UNL A   1      20.476  46.570  48.591  1.00  0.00    +0.000 F 
ATOM     74  C49 UNL A   1      21.067  44.293  48.837  1.00  0.00    +0.000 C 
ATOM     75  F17 UNL A   1      20.702  44.073  47.565  1.00  0.00    +0.000 F 
ENDBRANCH   64   65
TORSDOF 17
ENDMDL
MODEL 10
REMARK VINA RESULT:     -10.1     34.341     42.529
ROOT
ATOM     28  C20 UNL A   1       2.255  10.982  37.958  1.00  0.00    +0.000 C 
ATOM     29  C21 UNL A   1       0.952  10.563  37.330  1.00  0.00    +0.000 C 
ATOM     30  N4  UNL A   1       0.589   9.385  36.887  1.00  0.00    +0.000 N 
ATOM     31  C22 UNL A   1      -0.710   9.536  36.421  1.00  0.00    +0.000 C 
ATOM     32  C23 UNL A   1      -1.511   8.614  35.837  1.00  0.00    +0.000 C 
ATOM     44  C30 UNL A   1      -1.130   7.250  35.577  1.00  0.00    +0.000 C 
ATOM     45  C31 UNL A   1      -1.871   6.249  34.970  1.00  0.00    +0.000 C 
ATOM     46  C32 UNL A   1      -1.101   5.081  34.958  1.00  0.00    +0.000 C 
ATOM     47  C33 UNL A   1       0.131   5.364  35.525  1.00  0.00    +0.000 C 
ATOM     48  N5  UNL A   1       0.098   6.697  35.903  1.00  0.00    +0.000 N 
ATOM     49  C34 UNL A   1       1.255   4.484  35.713  1.00  0.00    +0.000 C 
ATOM     61  C41 UNL A   1       2.447   4.848  36.240  1.00  0.00    +0.000 C 
ATOM     62  N6  UNL A   1       2.846   6.091  36.713  1.00  0.00    +0.000 N 
ATOM     63  C42 UNL A   1       4.071   5.933  37.147  1.00  0.00    +0.000 C 
ATOM     64  C43 UNL A   1       4.994   6.946  37.763  1.00  0.00    +0.000 C 
ATOM     76  C50 UNL A   1       4.547   8.195  37.993  1.00  0.00    +0.000 C 
ATOM     77  C51 UNL A   1       5.329   9.274  38.589  1.00  0.00    +0.000 C 
ATOM     78  C52 UNL A   1       4.561  10.371  38.683  1.00  0.00    +0.000 C 
ATOM     79  C53 UNL A   1       3.248  10.085  38.105  1.00  0.00    +0.000 C 
ATOM     80  N7  UNL A   1       3.318   8.759  37.753  1.00  0.00    +0.000 N 
ATOM     81  C54 UNL A   1       4.592   4.566  37.000  1.00  0.00    +0.000 C 
ATOM     82  C55 UNL A   1       3.571   3.952  36.417  1.00  0.00    +0.000 C 
ATOM     83  C56 UNL A   1      -1.085  10.913  36.654  1.00  0.00    +0.000 C 
ATOM     84  C57 UNL A   1      -0.079  11.602  37.176  1.00  0.00    +0.000 C 
ATOM    109  H23 UNL A   1      -2.826   6.348  34.593  1.00  0.00    +0.000 H 
ATOM    110  H24 UNL A   1      -1.401   4.164  34.591  1.00  0.00    +0.000 H 
ATOM    111  H25 UNL A   1       0.837   7.179  36.339  1.00  0.00    +0.000 H 
ATOM    112  H26 UNL A   1       6.313   9.205  38.890  1.00  0.00    +0.000 H 
ATOM    113  H27 UNL A   1       4.850  11.271  39.096  1.00  0.00    +0.000 H 
ATOM    114  H28 UNL A   1       2.562   8.262  37.367  1.00  0.00    +0.000 H 
ATOM    115  H29 UNL A   1       5.510   4.185  37.278  1.00  0.00    +0.000 H 
ATOM    116  H30 UNL A   1       3.577   2.962  36.127  1.00  0.00    +0.000 H 
ATOM    117  H31 UNL A   1      -2.015  11.308  36.444  1.00  0.00    +0.000 H 
ATOM    118  H32 UNL A   1      -0.031  12.606  37.412  1.00  0.00    +0.000 H 
ENDROOT
BRANCH   28   27
ATOM     27  C19 UNL A   1       2.485  12.397  38.352  1.00  0.00    +0.000 C 
ATOM    107  H21 UNL A   1       1.876  14.502  40.900  1.00  0.00    +0.000 H 
ATOM    108  H22 UNL A   1       1.479  12.216  40.204  1.00  0.00    +0.000 H 
ATOM     85  C58 UNL A   1       3.186  13.284  37.520  1.00  0.00    +0.000 C 
ATOM     86  C59 UNL A   1       3.513  14.565  37.975  1.00  0.00    +0.000 C 
ATOM    120  H34 UNL A   1       4.057  15.204  37.374  1.00  0.00    +0.000 H 
ATOM     24  C16 UNL A   1       3.101  14.976  39.246  1.00  0.00    +0.000 C 
ATOM     25  C17 UNL A   1       2.283  14.151  40.020  1.00  0.00    +0.000 C 
ATOM     26  C18 UNL A   1       2.020  12.852  39.597  1.00  0.00    +0.000 C 
ATOM    119  H33 UNL A   1       3.461  12.989  36.570  1.00  0.00    +0.000 H 
BRANCH   24   22
ATOM     22  C15 UNL A   1       3.582  16.273  39.771  1.00  0.00    +0.000 C 
ATOM     23  O3  UNL A   1       3.055  17.317  39.398  1.00  0.00    +0.000 O 
BRANCH   22   21
ATOM    106  H20 UNL A   1       4.422  16.396  41.591  1.00  0.00    +0.000 H 
ATOM     21  N3  UNL A   1       4.650  16.302  40.638  1.00  0.00    +0.000 N 
BRANCH   21   20
ATOM    105  H19 UNL A   1       6.572  16.916  40.972  1.00  0.00    +0.000 H 
ATOM     20  C14 UNL A   1       6.072  16.213  40.340  1.00  0.00    +0.000 C 
ATOM    104  H18 UNL A   1       6.215  16.430  39.302  1.00  0.00    +0.000 H 
BRANCH   20   19
ATOM     19  C13 UNL A   1       6.666  14.840  40.635  1.00  0.00    +0.000 C 
ATOM    102  H16 UNL A   1       6.776  14.749  41.695  1.00  0.00    +0.000 H 
ATOM    103  H17 UNL A   1       5.990  14.129  40.209  1.00  0.00    +0.000 H 
BRANCH   19   18
ATOM     18  C12 UNL A   1       8.027  14.562  39.995  1.00  0.00    +0.000 C 
ATOM    100  H14 UNL A   1       7.976  14.862  38.970  1.00  0.00    +0.000 H 
ATOM    101  H15 UNL A   1       8.741  15.114  40.573  1.00  0.00    +0.000 H 
BRANCH   18   17
ATOM     17  C11 UNL A   1       8.492  13.104  40.038  1.00  0.00    +0.000 C 
ATOM     98  H12 UNL A   1       9.558  13.096  39.958  1.00  0.00    +0.000 H 
ATOM     99  H13 UNL A   1       8.121  12.707  40.960  1.00  0.00    +0.000 H 
BRANCH   17   16
ATOM     97  H11 UNL A   1       7.002  11.812  39.310  1.00  0.00    +0.000 H 
ATOM     96  H10 UNL A   1       8.654  11.428  38.739  1.00  0.00    +0.000 H 
ATOM     16  C10 UNL A   1       7.931  12.191  38.938  1.00  0.00    +0.000 C 
BRANCH   16   15
ATOM     95  H9  UNL A   1       8.231  13.755  37.532  1.00  0.00    +0.000 H 
ATOM     94  H8  UNL A   1       6.574  13.167  37.614  1.00  0.00    +0.000 H 
ATOM     15  C9  UNL A   1       7.607  12.890  37.618  1.00  0.00    +0.000 C 
BRANCH   15   14
ATOM     93  H7  UNL A   1       8.463  11.251  36.616  1.00  0.00    +0.000 H 
ATOM     14  N2  UNL A   1       7.868  12.024  36.487  1.00  0.00    +0.000 N 
BRANCH   14    2
ATOM      1  O1  UNL A   1       7.588  11.554  34.254  1.00  0.00    +0.000 O 
ATOM      2  C1  UNL A   1       7.319  12.232  35.240  1.00  0.00    +0.000 C 
BRANCH    2    3
ATOM      3  C2  UNL A   1       6.359  13.414  35.171  1.00  0.00    +0.000 C 
ATOM     87  H1  UNL A   1       6.381  13.938  36.104  1.00  0.00    +0.000 H 
ATOM     88  H2  UNL A   1       5.376  13.042  34.971  1.00  0.00    +0.000 H 
BRANCH    3    4
ATOM      4  C3  UNL A   1       6.746  14.360  34.066  1.00  0.00    +0.000 C 
ATOM      5  C4  UNL A   1       6.104  14.218  32.774  1.00  0.00    +0.000 C 
ATOM      6  C5  UNL A   1       6.447  15.009  31.748  1.00  0.00    +0.000 C 
ATOM      7  C6  UNL A   1       7.484  16.062  31.920  1.00  0.00    +0.000 C 
ATOM      8  O2  UNL A   1       7.791  16.744  30.948  1.00  0.00    +0.000 O 
ATOM      9  N1  UNL A   1       8.016  16.176  33.196  1.00  0.00    +0.000 N 
ATOM     13  C8  UNL A   1       7.656  15.334  34.234  1.00  0.00    +0.000 C 
ATOM     89  H3  UNL A   1       5.374  13.502  32.643  1.00  0.00    +0.000 H 
ATOM     90  H4  UNL A   1       5.987  14.887  30.833  1.00  0.00    +0.000 H 
ATOM     92  H6  UNL A   1       8.098  15.458  35.159  1.00  0.00    +0.000 H 
BRANCH    9   10
ATOM     10  C7  UNL A   1       9.021  17.189  33.393  1.00  0.00    +0.000 C 
ATOM     11  F1  UNL A   1       8.473  18.428  33.348  1.00  0.00    +0.000 F 
ATOM     12  F2  UNL A   1       9.633  17.044  34.593  1.00  0.00    +0.000 F 
ATOM     91  H5  UNL A   1       9.737  17.075  32.605  1.00  0.00    +0.000 H 
ENDBRANCH    9   10
ENDBRANCH    3    4
ENDBRANCH    2    3
ENDBRANCH   14    2
ENDBRANCH   15   14
ENDBRANCH   16   15
ENDBRANCH   17   16
ENDBRANCH   18   17
ENDBRANCH   19   18
ENDBRANCH   20   19
ENDBRANCH   21   20
ENDBRANCH   22   21
ENDBRANCH   24   22
ENDBRANCH   28   27
BRANCH   32   33
ATOM     33  C24 UNL A   1      -2.890   9.041  35.432  1.00  0.00    +0.000 C 
ATOM     34  C25 UNL A   1      -3.984   8.896  36.298  1.00  0.00    +0.000 C 
ATOM     35  F3  UNL A   1      -3.829   8.296  37.487  1.00  0.00    +0.000 F 
ATOM     36  C26 UNL A   1      -5.249   9.351  35.934  1.00  0.00    +0.000 C 
ATOM     37  F4  UNL A   1      -6.286   9.180  36.765  1.00  0.00    +0.000 F 
ATOM     38  C27 UNL A   1      -5.439   9.978  34.711  1.00  0.00    +0.000 C 
ATOM     39  F5  UNL A   1      -6.654  10.428  34.369  1.00  0.00    +0.000 F 
ATOM     40  C28 UNL A   1      -4.370  10.137  33.843  1.00  0.00    +0.000 C 
ATOM     41  F6  UNL A   1      -4.549  10.753  32.666  1.00  0.00    +0.000 F 
ATOM     42  C29 UNL A   1      -3.108   9.664  34.194  1.00  0.00    +0.000 C 
ATOM     43  F7  UNL A   1      -2.092   9.831  33.334  1.00  0.00    +0.000 F 
ENDBRANCH   32   33
BRANCH   49   50
ATOM     50  C35 UNL A   1       1.097   3.056  35.285  1.00  0.00    +0.000 C 
ATOM     51  C36 UNL A   1       0.582   2.089  36.160  1.00  0.00    +0.000 C 
ATOM     52  F8  UNL A   1       0.286   2.414  37.428  1.00  0.00    +0.000 F 
ATOM     53  C37 UNL A   1       0.391   0.776  35.740  1.00  0.00    +0.000 C 
ATOM     54  F9  UNL A   1      -0.076  -0.140  36.599  1.00  0.00    +0.000 F 
ATOM     55  C38 UNL A   1       0.688   0.413  34.434  1.00  0.00    +0.000 C 
ATOM     56  F10 UNL A   1       0.494  -0.850  34.028  1.00  0.00    +0.000 F 
ATOM     57  C39 UNL A   1       1.192   1.355  33.551  1.00  0.00    +0.000 C 
ATOM     58  F11 UNL A   1       1.471   1.008  32.287  1.00  0.00    +0.000 F 
ATOM     59  C40 UNL A   1       1.404   2.665  33.974  1.00  0.00    +0.000 C 
ATOM     60  F12 UNL A   1       1.895   3.556  33.099  1.00  0.00    +0.000 F 
ENDBRANCH   49   50
BRANCH   64   65
ATOM     65  C44 UNL A   1       6.391   6.593  38.116  1.00  0.00    +0.000 C 
ATOM     66  C45 UNL A   1       7.453   6.930  37.267  1.00  0.00    +0.000 C 
ATOM     67  F13 UNL A   1       7.207   7.533  36.094  1.00  0.00    +0.000 F 
ATOM     68  C46 UNL A   1       8.769   6.626  37.608  1.00  0.00    +0.000 C 
ATOM     69  F14 UNL A   1       9.766   6.937  36.768  1.00  0.00    +0.000 F 
ATOM     70  C47 UNL A   1       9.049   6.001  38.814  1.00  0.00    +0.000 C 
ATOM     71  F15 UNL A   1      10.316   5.723  39.149  1.00  0.00    +0.000 F 
ATOM     72  C48 UNL A   1       8.013   5.662  39.673  1.00  0.00    +0.000 C 
ATOM     73  F16 UNL A   1       8.280   5.069  40.844  1.00  0.00    +0.000 F 
ATOM     74  C49 UNL A   1       6.695   5.942  39.321  1.00  0.00    +0.000 C 
ATOM     75  F17 UNL A   1       5.712   5.601  40.166  1.00  0.00    +0.000 F 
ENDBRANCH   64   65
TORSDOF 17
ENDMDL
