MODEL 1
REMARK VINA RESULT:      -7.7      0.000      0.000
ROOT
ATOM     24  C20 UNL A   1      53.245  19.674  11.437  1.00  0.00    +0.000 C 
ATOM     25  C21 UNL A   1      54.580  19.005  11.275  1.00  0.00    +0.000 C 
ATOM     26  N3  UNL A   1      55.580  18.934  12.118  1.00  0.00    +0.000 N 
ATOM     27  C22 UNL A   1      56.548  18.162  11.491  1.00  0.00    +0.000 C 
ATOM     28  C23 UNL A   1      57.789  17.843  11.930  1.00  0.00    +0.000 C 
ATOM     40  C30 UNL A   1      58.342  18.281  13.184  1.00  0.00    +0.000 C 
ATOM     41  C31 UNL A   1      59.612  18.072  13.689  1.00  0.00    +0.000 C 
ATOM     42  C32 UNL A   1      59.678  18.648  14.963  1.00  0.00    +0.000 C 
ATOM     43  C33 UNL A   1      58.461  19.252  15.234  1.00  0.00    +0.000 C 
ATOM     44  N4  UNL A   1      57.649  19.016  14.136  1.00  0.00    +0.000 N 
ATOM     45  C34 UNL A   1      58.065  19.988  16.408  1.00  0.00    +0.000 C 
ATOM     57  C41 UNL A   1      56.854  20.569  16.592  1.00  0.00    +0.000 C 
ATOM     58  N5  UNL A   1      55.762  20.596  15.738  1.00  0.00    +0.000 N 
ATOM     59  C42 UNL A   1      54.829  21.268  16.367  1.00  0.00    +0.000 C 
ATOM     60  C43 UNL A   1      53.444  21.627  15.906  1.00  0.00    +0.000 C 
ATOM     72  C50 UNL A   1      53.042  21.255  14.675  1.00  0.00    +0.000 C 
ATOM     73  C51 UNL A   1      51.734  21.536  14.090  1.00  0.00    +0.000 C 
ATOM     74  C52 UNL A   1      51.674  20.980  12.869  1.00  0.00    +0.000 C 
ATOM     75  C53 UNL A   1      52.951  20.331  12.575  1.00  0.00    +0.000 C 
ATOM     76  N6  UNL A   1      53.704  20.551  13.701  1.00  0.00    +0.000 N 
ATOM     77  C54 UNL A   1      55.218  21.724  17.708  1.00  0.00    +0.000 C 
ATOM     78  C55 UNL A   1      56.473  21.303  17.781  1.00  0.00    +0.000 C 
ATOM     79  C56 UNL A   1      56.000  17.749  10.216  1.00  0.00    +0.000 C 
ATOM     80  C57 UNL A   1      54.813  18.297  10.006  1.00  0.00    +0.000 C 
ATOM    118  H25 UNL A   1      60.381  17.577  13.209  1.00  0.00    +0.000 H 
ATOM    119  H26 UNL A   1      60.494  18.627  15.593  1.00  0.00    +0.000 H 
ATOM    120  H27 UNL A   1      56.719  19.325  14.044  1.00  0.00    +0.000 H 
ATOM    121  H28 UNL A   1      50.979  22.074  14.541  1.00  0.00    +0.000 H 
ATOM    122  H29 UNL A   1      50.856  21.006  12.239  1.00  0.00    +0.000 H 
ATOM    123  H30 UNL A   1      54.631  20.232  13.801  1.00  0.00    +0.000 H 
ATOM    124  H31 UNL A   1      54.661  22.237  18.409  1.00  0.00    +0.000 H 
ATOM    125  H32 UNL A   1      57.099  21.477  18.583  1.00  0.00    +0.000 H 
ATOM    126  H33 UNL A   1      56.473  17.111   9.557  1.00  0.00    +0.000 H 
ATOM    127  H34 UNL A   1      54.208  18.243   9.172  1.00  0.00    +0.000 H 
ENDROOT
BRANCH   24   23
ATOM    129  H36 UNL A   1      50.915  21.299   7.820  1.00  0.00    +0.000 H 
ATOM     81  C58 UNL A   1      52.050  20.593   9.450  1.00  0.00    +0.000 C 
ATOM     82  C59 UNL A   1      51.081  20.502   8.456  1.00  0.00    +0.000 C 
ATOM     20  C16 UNL A   1      50.329  19.331   8.320  1.00  0.00    +0.000 C 
ATOM     21  C17 UNL A   1      50.469  18.295   9.248  1.00  0.00    +0.000 C 
ATOM    116  H23 UNL A   1      49.887  17.447   9.170  1.00  0.00    +0.000 H 
ATOM     22  C18 UNL A   1      51.400  18.413  10.283  1.00  0.00    +0.000 C 
ATOM    117  H24 UNL A   1      51.488  17.659  10.983  1.00  0.00    +0.000 H 
ATOM     23  C19 UNL A   1      52.216  19.552  10.376  1.00  0.00    +0.000 C 
ATOM    128  H35 UNL A   1      52.652  21.430   9.506  1.00  0.00    +0.000 H 
BRANCH   20   18
ATOM     18  C15 UNL A   1      49.350  19.177   7.220  1.00  0.00    +0.000 C 
ATOM     19  O2  UNL A   1      48.185  19.509   7.391  1.00  0.00    +0.000 O 
BRANCH   18   17
ATOM     17  N2  UNL A   1      49.752  18.661   6.012  1.00  0.00    +0.000 N 
ATOM    115  H22 UNL A   1      49.557  19.221   5.226  1.00  0.00    +0.000 H 
BRANCH   17   16
ATOM    113  H20 UNL A   1      50.412  16.799   6.615  1.00  0.00    +0.000 H 
ATOM    114  H21 UNL A   1      49.920  16.925   4.926  1.00  0.00    +0.000 H 
ATOM     16  C14 UNL A   1      50.430  17.405   5.734  1.00  0.00    +0.000 C 
BRANCH   16   15
ATOM    111  H18 UNL A   1      52.512  17.320   6.124  1.00  0.00    +0.000 H 
ATOM     15  C13 UNL A   1      51.882  17.622   5.315  1.00  0.00    +0.000 C 
ATOM    112  H19 UNL A   1      52.031  17.043   4.427  1.00  0.00    +0.000 H 
BRANCH   15   14
ATOM    110  H17 UNL A   1      51.386  19.658   5.241  1.00  0.00    +0.000 H 
ATOM    109  H16 UNL A   1      52.440  19.105   3.904  1.00  0.00    +0.000 H 
ATOM     14  C12 UNL A   1      52.230  19.069   4.953  1.00  0.00    +0.000 C 
BRANCH   14   13
ATOM    107  H14 UNL A   1      54.124  20.032   4.970  1.00  0.00    +0.000 H 
ATOM    108  H15 UNL A   1      53.041  20.417   6.343  1.00  0.00    +0.000 H 
ATOM     13  C11 UNL A   1      53.434  19.658   5.698  1.00  0.00    +0.000 C 
BRANCH   13   12
ATOM    105  H12 UNL A   1      54.350  19.147   7.552  1.00  0.00    +0.000 H 
ATOM    106  H13 UNL A   1      53.579  17.798   6.685  1.00  0.00    +0.000 H 
ATOM     12  C10 UNL A   1      54.186  18.676   6.606  1.00  0.00    +0.000 C 
BRANCH   12   11
ATOM     11  C9  UNL A   1      55.539  18.231   6.047  1.00  0.00    +0.000 C 
ATOM    103  H10 UNL A   1      55.581  17.162   6.035  1.00  0.00    +0.000 H 
ATOM    104  H11 UNL A   1      55.647  18.617   5.055  1.00  0.00    +0.000 H 
BRANCH   11   10
ATOM     10  N1  UNL A   1      56.621  18.741   6.870  1.00  0.00    +0.000 N 
ATOM    102  H9  UNL A   1      57.074  18.057   7.414  1.00  0.00    +0.000 H 
BRANCH   10    8
ATOM      9  O1  UNL A   1      57.804  20.481   6.120  1.00  0.00    +0.000 O 
ATOM      8  C8  UNL A   1      57.115  19.996   7.016  1.00  0.00    +0.000 C 
BRANCH    8    7
ATOM    101  H8  UNL A   1      57.650  20.695   8.986  1.00  0.00    +0.000 H 
ATOM      7  C7  UNL A   1      56.917  20.769   8.263  1.00  0.00    +0.000 C 
BRANCH    7    6
ATOM    100  H7  UNL A   1      55.203  21.768   7.770  1.00  0.00    +0.000 H 
ATOM      6  C6  UNL A   1      55.867  21.558   8.532  1.00  0.00    +0.000 C 
BRANCH    6    5
ATOM    130  H37 UNL A   1      53.753  22.975   9.315  1.00  0.00    +0.000 H 
ATOM      3  C3  UNL A   1      56.327  22.633  12.144  1.00  0.00    +0.000 C 
ATOM      4  C4  UNL A   1      56.553  22.035  10.894  1.00  0.00    +0.000 C 
ATOM      5  C5  UNL A   1      55.615  22.140   9.859  1.00  0.00    +0.000 C 
ATOM     99  H6  UNL A   1      57.426  21.507  10.736  1.00  0.00    +0.000 H 
ATOM    136  H43 UNL A   1      54.949  23.769  13.272  1.00  0.00    +0.000 H 
ATOM     83  C60 UNL A   1      54.447  22.882  10.073  1.00  0.00    +0.000 C 
ATOM     84  C61 UNL A   1      54.212  23.498  11.311  1.00  0.00    +0.000 C 
ATOM     93  C69 UNL A   1      55.141  23.348  12.349  1.00  0.00    +0.000 C 
BRANCH    3    2
ATOM     97  H4  UNL A   1      57.465  23.492  13.698  1.00  0.00    +0.000 H 
ATOM      2  C2  UNL A   1      57.362  22.532  13.237  1.00  0.00    +0.000 C 
ATOM     98  H5  UNL A   1      57.024  21.793  13.932  1.00  0.00    +0.000 H 
BRANCH    2    1
ATOM      1  C1  UNL A   1      58.723  22.091  12.724  1.00  0.00    +0.000 C 
ATOM     94  H1  UNL A   1      59.082  22.801  12.008  1.00  0.00    +0.000 H 
ATOM     95  H2  UNL A   1      58.635  21.130  12.261  1.00  0.00    +0.000 H 
ATOM     96  H3  UNL A   1      59.410  22.031  13.542  1.00  0.00    +0.000 H 
ENDBRANCH    2    1
ENDBRANCH    3    2
BRANCH   84   85
ATOM     85  C62 UNL A   1      52.958  24.283  11.487  1.00  0.00    +0.000 C 
ATOM     86  O3  UNL A   1      52.556  24.546  12.617  1.00  0.00    +0.000 O 
BRANCH   85   87
ATOM    131  H38 UNL A   1      50.844  23.133  10.356  1.00  0.00    +0.000 H 
ATOM    132  H39 UNL A   1      49.506  23.921   8.489  1.00  0.00    +0.000 H 
ATOM    133  H40 UNL A   1      50.089  25.989   7.364  1.00  0.00    +0.000 H 
ATOM    134  H41 UNL A   1      52.031  27.257   8.076  1.00  0.00    +0.000 H 
ATOM    135  H42 UNL A   1      53.373  26.476   9.945  1.00  0.00    +0.000 H 
ATOM     87  C63 UNL A   1      52.184  24.768  10.319  1.00  0.00    +0.000 C 
ATOM     88  C64 UNL A   1      51.087  24.017   9.882  1.00  0.00    +0.000 C 
ATOM     89  C65 UNL A   1      50.323  24.466   8.804  1.00  0.00    +0.000 C 
ATOM     90  C66 UNL A   1      50.662  25.653   8.153  1.00  0.00    +0.000 C 
ATOM     91  C67 UNL A   1      51.776  26.386   8.567  1.00  0.00    +0.000 C 
ATOM     92  C68 UNL A   1      52.544  25.942   9.646  1.00  0.00    +0.000 C 
ENDBRANCH   85   87
ENDBRANCH   84   85
ENDBRANCH    6    5
ENDBRANCH    7    6
ENDBRANCH    8    7
ENDBRANCH   10    8
ENDBRANCH   11   10
ENDBRANCH   12   11
ENDBRANCH   13   12
ENDBRANCH   14   13
ENDBRANCH   15   14
ENDBRANCH   16   15
ENDBRANCH   17   16
ENDBRANCH   18   17
ENDBRANCH   20   18
ENDBRANCH   24   23
BRANCH   28   29
ATOM     33  F2  UNL A   1      60.859  17.246   8.155  1.00  0.00    +0.000 F 
ATOM     34  C27 UNL A   1      60.229  15.342   9.403  1.00  0.00    +0.000 C 
ATOM     35  F3  UNL A   1      60.977  14.559   8.613  1.00  0.00    +0.000 F 
ATOM     36  C28 UNL A   1      59.500  14.785  10.443  1.00  0.00    +0.000 C 
ATOM     37  F4  UNL A   1      59.560  13.465  10.669  1.00  0.00    +0.000 F 
ATOM     38  C29 UNL A   1      58.702  15.593  11.248  1.00  0.00    +0.000 C 
ATOM     39  F5  UNL A   1      57.995  15.022  12.235  1.00  0.00    +0.000 F 
ATOM     29  C24 UNL A   1      58.637  16.979  11.041  1.00  0.00    +0.000 C 
ATOM     30  C25 UNL A   1      59.401  17.524   9.999  1.00  0.00    +0.000 C 
ATOM     31  F1  UNL A   1      59.365  18.842   9.751  1.00  0.00    +0.000 F 
ATOM     32  C26 UNL A   1      60.176  16.709   9.177  1.00  0.00    +0.000 C 
ENDBRANCH   28   29
BRANCH   45   46
ATOM     46  C35 UNL A   1      59.074  20.146  17.506  1.00  0.00    +0.000 C 
ATOM     47  C36 UNL A   1      59.769  21.349  17.696  1.00  0.00    +0.000 C 
ATOM     48  F6  UNL A   1      59.580  22.378  16.855  1.00  0.00    +0.000 F 
ATOM     49  C37 UNL A   1      60.690  21.486  18.731  1.00  0.00    +0.000 C 
ATOM     50  F7  UNL A   1      61.375  22.630  18.869  1.00  0.00    +0.000 F 
ATOM     51  C38 UNL A   1      60.911  20.437  19.611  1.00  0.00    +0.000 C 
ATOM     52  F8  UNL A   1      61.793  20.572  20.610  1.00  0.00    +0.000 F 
ATOM     53  C39 UNL A   1      60.222  19.244  19.451  1.00  0.00    +0.000 C 
ATOM     54  F9  UNL A   1      60.426  18.232  20.307  1.00  0.00    +0.000 F 
ATOM     55  C40 UNL A   1      59.319  19.094  18.401  1.00  0.00    +0.000 C 
ATOM     56  F10 UNL A   1      58.676  17.925  18.265  1.00  0.00    +0.000 F 
ENDBRANCH   45   46
BRANCH   60   61
ATOM     65  F12 UNL A   1      50.236  21.908  19.564  1.00  0.00    +0.000 F 
ATOM     66  C47 UNL A   1      50.819  23.900  18.437  1.00  0.00    +0.000 C 
ATOM     67  F13 UNL A   1      50.000  24.605  19.228  1.00  0.00    +0.000 F 
ATOM     68  C48 UNL A   1      51.537  24.536  17.436  1.00  0.00    +0.000 C 
ATOM     69  F14 UNL A   1      51.427  25.861  17.271  1.00  0.00    +0.000 F 
ATOM     70  C49 UNL A   1      52.377  23.800  16.602  1.00  0.00    +0.000 C 
ATOM     71  F15 UNL A   1      53.055  24.439  15.637  1.00  0.00    +0.000 F 
ATOM     61  C44 UNL A   1      52.531  22.416  16.770  1.00  0.00    +0.000 C 
ATOM     62  C45 UNL A   1      51.803  21.798  17.796  1.00  0.00    +0.000 C 
ATOM     63  F11 UNL A   1      51.904  20.473  17.981  1.00  0.00    +0.000 F 
ATOM     64  C46 UNL A   1      50.947  22.530  18.613  1.00  0.00    +0.000 C 
ENDBRANCH   60   61
TORSDOF 21
ENDMDL
MODEL 2
REMARK VINA RESULT:      -7.5      6.826      9.762
ROOT
ATOM     24  C20 UNL A   1      53.568  19.577  11.765  1.00  0.00    +0.000 C 
ATOM     25  C21 UNL A   1      54.936  18.968  11.643  1.00  0.00    +0.000 C 
ATOM     26  N3  UNL A   1      55.931  18.987  12.494  1.00  0.00    +0.000 N 
ATOM     27  C22 UNL A   1      56.942  18.235  11.911  1.00  0.00    +0.000 C 
ATOM     28  C23 UNL A   1      58.193  17.999  12.372  1.00  0.00    +0.000 C 
ATOM     40  C30 UNL A   1      58.713  18.523  13.607  1.00  0.00    +0.000 C 
ATOM     41  C31 UNL A   1      59.988  18.402  14.129  1.00  0.00    +0.000 C 
ATOM     42  C32 UNL A   1      60.015  19.040  15.374  1.00  0.00    +0.000 C 
ATOM     43  C33 UNL A   1      58.767  19.595  15.609  1.00  0.00    +0.000 C 
ATOM     44  N4  UNL A   1      57.977  19.267  14.519  1.00  0.00    +0.000 N 
ATOM     45  C34 UNL A   1      58.326  20.365  16.744  1.00  0.00    +0.000 C 
ATOM     57  C41 UNL A   1      57.086  20.893  16.892  1.00  0.00    +0.000 C 
ATOM     58  N5  UNL A   1      56.001  20.826  16.032  1.00  0.00    +0.000 N 
ATOM     59  C42 UNL A   1      55.030  21.480  16.622  1.00  0.00    +0.000 C 
ATOM     60  C43 UNL A   1      53.633  21.748  16.136  1.00  0.00    +0.000 C 
ATOM     72  C50 UNL A   1      53.260  21.298  14.923  1.00  0.00    +0.000 C 
ATOM     73  C51 UNL A   1      51.946  21.485  14.316  1.00  0.00    +0.000 C 
ATOM     74  C52 UNL A   1      51.923  20.870  13.123  1.00  0.00    +0.000 C 
ATOM     75  C53 UNL A   1      53.233  20.272  12.868  1.00  0.00    +0.000 C 
ATOM     76  N6  UNL A   1      53.965  20.582  13.987  1.00  0.00    +0.000 N 
ATOM     77  C54 UNL A   1      55.385  22.018  17.942  1.00  0.00    +0.000 C 
ATOM     78  C55 UNL A   1      56.659  21.664  18.043  1.00  0.00    +0.000 C 
ATOM     79  C56 UNL A   1      56.425  17.735  10.654  1.00  0.00    +0.000 C 
ATOM     80  C57 UNL A   1      55.214  18.213  10.411  1.00  0.00    +0.000 C 
ATOM    118  H25 UNL A   1      60.784  17.923  13.678  1.00  0.00    +0.000 H 
ATOM    119  H26 UNL A   1      60.826  19.089  16.010  1.00  0.00    +0.000 H 
ATOM    120  H27 UNL A   1      57.034  19.525  14.406  1.00  0.00    +0.000 H 
ATOM    121  H28 UNL A   1      51.161  22.006  14.737  1.00  0.00    +0.000 H 
ATOM    122  H29 UNL A   1      51.110  20.826  12.488  1.00  0.00    +0.000 H 
ATOM    123  H30 UNL A   1      54.905  20.315  14.107  1.00  0.00    +0.000 H 
ATOM    124  H31 UNL A   1      54.798  22.536  18.615  1.00  0.00    +0.000 H 
ATOM    125  H32 UNL A   1      57.269  21.906  18.840  1.00  0.00    +0.000 H 
ATOM    126  H33 UNL A   1      56.934  17.091  10.029  1.00  0.00    +0.000 H 
ATOM    127  H34 UNL A   1      54.620  18.089   9.577  1.00  0.00    +0.000 H 
ENDROOT
BRANCH   24   23
ATOM    129  H36 UNL A   1      51.209  20.901   8.046  1.00  0.00    +0.000 H 
ATOM     81  C58 UNL A   1      52.357  20.334   9.721  1.00  0.00    +0.000 C 
ATOM     82  C59 UNL A   1      51.401  20.148   8.726  1.00  0.00    +0.000 C 
ATOM     20  C16 UNL A   1      50.699  18.942   8.651  1.00  0.00    +0.000 C 
ATOM     21  C17 UNL A   1      50.873  17.966   9.636  1.00  0.00    +0.000 C 
ATOM    116  H23 UNL A   1      50.327  17.091   9.600  1.00  0.00    +0.000 H 
ATOM     22  C18 UNL A   1      51.788  18.179  10.670  1.00  0.00    +0.000 C 
ATOM    117  H24 UNL A   1      51.900  17.469  11.411  1.00  0.00    +0.000 H 
ATOM     23  C19 UNL A   1      52.555  19.354  10.705  1.00  0.00    +0.000 C 
ATOM    128  H35 UNL A   1      52.923  21.197   9.735  1.00  0.00    +0.000 H 
BRANCH   20   18
ATOM     18  C15 UNL A   1      49.738  18.686   7.554  1.00  0.00    +0.000 C 
ATOM     19  O2  UNL A   1      49.969  17.809   6.734  1.00  0.00    +0.000 O 
BRANCH   18   17
ATOM     17  N2  UNL A   1      48.589  19.434   7.461  1.00  0.00    +0.000 N 
ATOM    115  H22 UNL A   1      47.886  19.214   8.114  1.00  0.00    +0.000 H 
BRANCH   17   16
ATOM    113  H20 UNL A   1      47.406  21.028   6.890  1.00  0.00    +0.000 H 
ATOM    114  H21 UNL A   1      49.116  21.159   6.477  1.00  0.00    +0.000 H 
ATOM     16  C14 UNL A   1      48.270  20.508   6.534  1.00  0.00    +0.000 C 
BRANCH   16   15
ATOM    111  H18 UNL A   1      48.194  20.762   4.431  1.00  0.00    +0.000 H 
ATOM     15  C13 UNL A   1      47.984  19.981   5.130  1.00  0.00    +0.000 C 
ATOM    112  H19 UNL A   1      48.607  19.120   4.997  1.00  0.00    +0.000 H 
BRANCH   15   14
ATOM    110  H17 UNL A   1      46.133  19.340   5.879  1.00  0.00    +0.000 H 
ATOM    109  H16 UNL A   1      46.572  18.637   4.292  1.00  0.00    +0.000 H 
ATOM     14  C12 UNL A   1      46.543  19.513   4.906  1.00  0.00    +0.000 C 
BRANCH   14   13
ATOM    107  H14 UNL A   1      45.167  21.129   4.998  1.00  0.00    +0.000 H 
ATOM    108  H15 UNL A   1      46.239  21.099   3.565  1.00  0.00    +0.000 H 
ATOM     13  C11 UNL A   1      45.621  20.536   4.232  1.00  0.00    +0.000 C 
BRANCH   13   12
ATOM    105  H12 UNL A   1      44.254  18.971   3.758  1.00  0.00    +0.000 H 
ATOM    106  H13 UNL A   1      43.677  20.618   3.411  1.00  0.00    +0.000 H 
ATOM     12  C10 UNL A   1      44.501  19.937   3.370  1.00  0.00    +0.000 C 
BRANCH   12   11
ATOM     11  C9  UNL A   1      44.875  19.781   1.894  1.00  0.00    +0.000 C 
ATOM    103  H10 UNL A   1      45.864  20.159   1.740  1.00  0.00    +0.000 H 
ATOM    104  H11 UNL A   1      44.832  18.744   1.634  1.00  0.00    +0.000 H 
BRANCH   11   10
ATOM     10  N1  UNL A   1      43.947  20.514   1.053  1.00  0.00    +0.000 N 
ATOM    102  H9  UNL A   1      44.231  21.433   0.840  1.00  0.00    +0.000 H 
BRANCH   10    8
ATOM      9  O1  UNL A   1      42.743  19.515  -0.542  1.00  0.00    +0.000 O 
ATOM      8  C8  UNL A   1      42.758  20.152   0.511  1.00  0.00    +0.000 C 
BRANCH    8    7
ATOM    101  H8  UNL A   1      41.395  20.543   2.137  1.00  0.00    +0.000 H 
ATOM      7  C7  UNL A   1      41.470  20.574   1.108  1.00  0.00    +0.000 C 
BRANCH    7    6
ATOM    100  H7  UNL A   1      40.535  21.379  -0.521  1.00  0.00    +0.000 H 
ATOM      6  C6  UNL A   1      40.395  20.992   0.425  1.00  0.00    +0.000 C 
BRANCH    6    5
ATOM    130  H37 UNL A   1      38.185  22.040  -0.628  1.00  0.00    +0.000 H 
ATOM      3  C3  UNL A   1      37.445  20.287   2.708  1.00  0.00    +0.000 C 
ATOM      4  C4  UNL A   1      38.746  20.304   2.182  1.00  0.00    +0.000 C 
ATOM      5  C5  UNL A   1      39.026  20.927   0.958  1.00  0.00    +0.000 C 
ATOM     99  H6  UNL A   1      39.510  19.849   2.706  1.00  0.00    +0.000 H 
ATOM    136  H43 UNL A   1      35.449  20.880   2.353  1.00  0.00    +0.000 H 
ATOM     83  C60 UNL A   1      37.989  21.568   0.269  1.00  0.00    +0.000 C 
ATOM     84  C61 UNL A   1      36.686  21.573   0.788  1.00  0.00    +0.000 C 
ATOM     93  C69 UNL A   1      36.415  20.910   1.991  1.00  0.00    +0.000 C 
BRANCH    3    2
ATOM     97  H4  UNL A   1      37.692  18.704   4.079  1.00  0.00    +0.000 H 
ATOM      2  C2  UNL A   1      37.168  19.636   4.040  1.00  0.00    +0.000 C 
ATOM     98  H5  UNL A   1      37.500  20.310   4.802  1.00  0.00    +0.000 H 
BRANCH    2    1
ATOM      1  C1  UNL A   1      35.690  19.373   4.274  1.00  0.00    +0.000 C 
ATOM     94  H1  UNL A   1      35.109  20.065   3.700  1.00  0.00    +0.000 H 
ATOM     95  H2  UNL A   1      35.465  19.494   5.313  1.00  0.00    +0.000 H 
ATOM     96  H3  UNL A   1      35.453  18.374   3.973  1.00  0.00    +0.000 H 
ENDBRANCH    2    1
ENDBRANCH    3    2
BRANCH   84   85
ATOM     85  C62 UNL A   1      35.619  22.275   0.021  1.00  0.00    +0.000 C 
ATOM     86  O3  UNL A   1      34.741  22.890   0.618  1.00  0.00    +0.000 O 
BRANCH   85   87
ATOM    131  H38 UNL A   1      37.708  22.288  -1.623  1.00  0.00    +0.000 H 
ATOM    132  H39 UNL A   1      37.730  22.192  -4.050  1.00  0.00    +0.000 H 
ATOM    133  H40 UNL A   1      35.642  22.133  -5.282  1.00  0.00    +0.000 H 
ATOM    134  H41 UNL A   1      33.526  22.207  -4.097  1.00  0.00    +0.000 H 
ATOM    135  H42 UNL A   1      33.496  22.300  -1.670  1.00  0.00    +0.000 H 
ATOM     87  C63 UNL A   1      35.601  22.257  -1.462  1.00  0.00    +0.000 C 
ATOM     88  C64 UNL A   1      36.819  22.255  -2.148  1.00  0.00    +0.000 C 
ATOM     89  C65 UNL A   1      36.832  22.208  -3.543  1.00  0.00    +0.000 C 
ATOM     90  C66 UNL A   1      35.630  22.180  -4.251  1.00  0.00    +0.000 C 
ATOM     91  C67 UNL A   1      34.413  22.216  -3.570  1.00  0.00    +0.000 C 
ATOM     92  C68 UNL A   1      34.395  22.262  -2.174  1.00  0.00    +0.000 C 
ENDBRANCH   85   87
ENDBRANCH   84   85
ENDBRANCH    6    5
ENDBRANCH    7    6
ENDBRANCH    8    7
ENDBRANCH   10    8
ENDBRANCH   11   10
ENDBRANCH   12   11
ENDBRANCH   13   12
ENDBRANCH   14   13
ENDBRANCH   15   14
ENDBRANCH   16   15
ENDBRANCH   17   16
ENDBRANCH   18   17
ENDBRANCH   20   18
ENDBRANCH   24   23
BRANCH   28   29
ATOM     33  F2  UNL A   1      60.052  13.638  11.129  1.00  0.00    +0.000 F 
ATOM     34  C27 UNL A   1      60.762  15.544   9.929  1.00  0.00    +0.000 C 
ATOM     35  F3  UNL A   1      61.570  14.786   9.175  1.00  0.00    +0.000 F 
ATOM     36  C28 UNL A   1      60.709  16.916   9.729  1.00  0.00    +0.000 C 
ATOM     37  F4  UNL A   1      61.453  17.480   8.767  1.00  0.00    +0.000 F 
ATOM     38  C29 UNL A   1      59.890  17.707  10.529  1.00  0.00    +0.000 C 
ATOM     39  F5  UNL A   1      59.874  19.033  10.322  1.00  0.00    +0.000 F 
ATOM     29  C24 UNL A   1      59.089  17.137  11.530  1.00  0.00    +0.000 C 
ATOM     30  C25 UNL A   1      59.140  15.746  11.698  1.00  0.00    +0.000 C 
ATOM     31  F1  UNL A   1      58.404  15.152  12.650  1.00  0.00    +0.000 F 
ATOM     32  C26 UNL A   1      59.983  14.960  10.916  1.00  0.00    +0.000 C 
ENDBRANCH   28   29
BRANCH   45   46
ATOM     46  C35 UNL A   1      59.316  20.625  17.839  1.00  0.00    +0.000 C 
ATOM     47  C36 UNL A   1      60.077  21.803  17.876  1.00  0.00    +0.000 C 
ATOM     48  F6  UNL A   1      59.970  22.707  16.891  1.00  0.00    +0.000 F 
ATOM     49  C37 UNL A   1      60.980  22.037  18.909  1.00  0.00    +0.000 C 
ATOM     50  F7  UNL A   1      61.729  23.149  18.903  1.00  0.00    +0.000 F 
ATOM     51  C38 UNL A   1      61.118  21.117  19.937  1.00  0.00    +0.000 C 
ATOM     52  F8  UNL A   1      61.983  21.347  20.934  1.00  0.00    +0.000 F 
ATOM     53  C39 UNL A   1      60.362  19.953  19.929  1.00  0.00    +0.000 C 
ATOM     54  F9  UNL A   1      60.486  19.067  20.928  1.00  0.00    +0.000 F 
ATOM     55  C40 UNL A   1      59.478  19.703  18.884  1.00  0.00    +0.000 C 
ATOM     56  F10 UNL A   1      58.769  18.563  18.897  1.00  0.00    +0.000 F 
ENDBRANCH   45   46
BRANCH   60   61
ATOM     65  F12 UNL A   1      51.530  25.977  17.338  1.00  0.00    +0.000 F 
ATOM     66  C47 UNL A   1      50.846  24.027  18.481  1.00  0.00    +0.000 C 
ATOM     67  F13 UNL A   1      49.978  24.740  19.210  1.00  0.00    +0.000 F 
ATOM     68  C48 UNL A   1      50.968  22.660  18.685  1.00  0.00    +0.000 C 
ATOM     69  F14 UNL A   1      50.204  22.050  19.601  1.00  0.00    +0.000 F 
ATOM     70  C49 UNL A   1      51.883  21.920  17.939  1.00  0.00    +0.000 C 
ATOM     71  F15 UNL A   1      51.986  20.602  18.161  1.00  0.00    +0.000 F 
ATOM     61  C44 UNL A   1      52.676  22.531  16.956  1.00  0.00    +0.000 C 
ATOM     62  C45 UNL A   1      52.526  23.910  16.760  1.00  0.00    +0.000 C 
ATOM     63  F11 UNL A   1      53.278  24.540  15.845  1.00  0.00    +0.000 F 
ATOM     64  C46 UNL A   1      51.629  24.653  17.522  1.00  0.00    +0.000 C 
ENDBRANCH   60   61
TORSDOF 21
ENDMDL
MODEL 3
REMARK VINA RESULT:      -7.5     45.859     50.741
ROOT
ATOM     24  C20 UNL A   1      22.333  38.794  48.614  1.00  0.00    +0.000 C 
ATOM     25  C21 UNL A   1      22.694  40.249  48.715  1.00  0.00    +0.000 C 
ATOM     26  N3  UNL A   1      23.862  40.824  48.572  1.00  0.00    +0.000 N 
ATOM     27  C22 UNL A   1      23.632  42.186  48.717  1.00  0.00    +0.000 C 
ATOM     28  C23 UNL A   1      24.530  43.200  48.706  1.00  0.00    +0.000 C 
ATOM     40  C30 UNL A   1      25.948  43.024  48.541  1.00  0.00    +0.000 C 
ATOM     41  C31 UNL A   1      26.948  43.978  48.587  1.00  0.00    +0.000 C 
ATOM     42  C32 UNL A   1      28.170  43.346  48.328  1.00  0.00    +0.000 C 
ATOM     43  C33 UNL A   1      27.935  41.990  48.163  1.00  0.00    +0.000 C 
ATOM     44  N4  UNL A   1      26.567  41.807  48.293  1.00  0.00    +0.000 N 
ATOM     45  C34 UNL A   1      28.885  40.939  47.905  1.00  0.00    +0.000 C 
ATOM     57  C41 UNL A   1      28.578  39.625  47.774  1.00  0.00    +0.000 C 
ATOM     58  N5  UNL A   1      27.338  39.007  47.856  1.00  0.00    +0.000 N 
ATOM     59  C42 UNL A   1      27.557  37.732  47.650  1.00  0.00    +0.000 C 
ATOM     60  C43 UNL A   1      26.579  36.590  47.648  1.00  0.00    +0.000 C 
ATOM     72  C50 UNL A   1      25.279  36.835  47.905  1.00  0.00    +0.000 C 
ATOM     73  C51 UNL A   1      24.219  35.832  47.944  1.00  0.00    +0.000 C 
ATOM     74  C52 UNL A   1      23.049  36.443  48.189  1.00  0.00    +0.000 C 
ATOM     75  C53 UNL A   1      23.284  37.877  48.356  1.00  0.00    +0.000 C 
ATOM     76  N6  UNL A   1      24.636  38.017  48.177  1.00  0.00    +0.000 N 
ATOM     77  C54 UNL A   1      28.963  37.397  47.388  1.00  0.00    +0.000 C 
ATOM     78  C55 UNL A   1      29.548  38.582  47.511  1.00  0.00    +0.000 C 
ATOM     79  C56 UNL A   1      22.207  42.356  48.913  1.00  0.00    +0.000 C 
ATOM     80  C57 UNL A   1      21.592  41.185  48.986  1.00  0.00    +0.000 C 
ATOM    118  H25 UNL A   1      26.818  44.984  48.778  1.00  0.00    +0.000 H 
ATOM    119  H26 UNL A   1      29.089  43.809  48.271  1.00  0.00    +0.000 H 
ATOM    120  H27 UNL A   1      26.104  40.942  48.221  1.00  0.00    +0.000 H 
ATOM    121  H28 UNL A   1      24.348  34.818  47.805  1.00  0.00    +0.000 H 
ATOM    122  H29 UNL A   1      22.131  35.975  48.250  1.00  0.00    +0.000 H 
ATOM    123  H30 UNL A   1      25.102  38.883  48.236  1.00  0.00    +0.000 H 
ATOM    124  H31 UNL A   1      29.385  36.483  47.167  1.00  0.00    +0.000 H 
ATOM    125  H32 UNL A   1      30.565  38.739  47.430  1.00  0.00    +0.000 H 
ATOM    126  H33 UNL A   1      21.734  43.270  48.987  1.00  0.00    +0.000 H 
ATOM    127  H34 UNL A   1      20.600  40.982  49.181  1.00  0.00    +0.000 H 
ENDROOT
BRANCH   24   23
ATOM    129  H36 UNL A   1      18.715  37.273  51.012  1.00  0.00    +0.000 H 
ATOM     81  C58 UNL A   1      20.397  38.014  49.979  1.00  0.00    +0.000 C 
ATOM     82  C59 UNL A   1      19.073  37.599  50.101  1.00  0.00    +0.000 C 
ATOM     20  C16 UNL A   1      18.231  37.623  48.986  1.00  0.00    +0.000 C 
ATOM     21  C17 UNL A   1      18.740  37.955  47.727  1.00  0.00    +0.000 C 
ATOM    116  H23 UNL A   1      18.127  37.935  46.898  1.00  0.00    +0.000 H 
ATOM     22  C18 UNL A   1      20.085  38.311  47.596  1.00  0.00    +0.000 C 
ATOM    117  H24 UNL A   1      20.468  38.533  46.663  1.00  0.00    +0.000 H 
ATOM     23  C19 UNL A   1      20.916  38.369  48.725  1.00  0.00    +0.000 C 
ATOM    128  H35 UNL A   1      20.999  38.062  50.816  1.00  0.00    +0.000 H 
BRANCH   20   18
ATOM     18  C15 UNL A   1      16.798  37.267  49.105  1.00  0.00    +0.000 C 
ATOM     19  O2  UNL A   1      16.061  37.939  49.811  1.00  0.00    +0.000 O 
BRANCH   18   17
ATOM     17  N2  UNL A   1      16.303  36.183  48.420  1.00  0.00    +0.000 N 
ATOM    115  H22 UNL A   1      16.578  35.302  48.765  1.00  0.00    +0.000 H 
BRANCH   17   16
ATOM    113  H20 UNL A   1      15.026  35.172  47.150  1.00  0.00    +0.000 H 
ATOM    114  H21 UNL A   1      14.650  36.875  47.414  1.00  0.00    +0.000 H 
ATOM     16  C14 UNL A   1      15.427  36.157  47.260  1.00  0.00    +0.000 C 
BRANCH   16   15
ATOM    111  H18 UNL A   1      15.449  36.650  45.198  1.00  0.00    +0.000 H 
ATOM     15  C13 UNL A   1      16.170  36.532  45.979  1.00  0.00    +0.000 C 
ATOM    112  H19 UNL A   1      16.708  37.431  46.194  1.00  0.00    +0.000 H 
BRANCH   15   14
ATOM    110  H17 UNL A   1      17.523  34.987  46.403  1.00  0.00    +0.000 H 
ATOM    109  H16 UNL A   1      17.998  36.029  45.027  1.00  0.00    +0.000 H 
ATOM     14  C12 UNL A   1      17.208  35.503  45.521  1.00  0.00    +0.000 C 
BRANCH   14   13
ATOM    107  H14 UNL A   1      16.155  33.697  45.141  1.00  0.00    +0.000 H 
ATOM    108  H15 UNL A   1      16.067  34.936  43.852  1.00  0.00    +0.000 H 
ATOM     13  C11 UNL A   1      16.683  34.426  44.563  1.00  0.00    +0.000 C 
BRANCH   13   12
ATOM    105  H12 UNL A   1      18.510  34.407  43.466  1.00  0.00    +0.000 H 
ATOM    106  H13 UNL A   1      18.146  32.916  44.367  1.00  0.00    +0.000 H 
ATOM     12  C10 UNL A   1      17.760  33.698  43.747  1.00  0.00    +0.000 C 
BRANCH   12   11
ATOM     11  C9  UNL A   1      17.226  33.034  42.475  1.00  0.00    +0.000 C 
ATOM    103  H10 UNL A   1      16.156  33.051  42.492  1.00  0.00    +0.000 H 
ATOM    104  H11 UNL A   1      17.591  33.571  41.626  1.00  0.00    +0.000 H 
BRANCH   11   10
ATOM     10  N1  UNL A   1      17.680  31.658  42.391  1.00  0.00    +0.000 N 
ATOM    102  H9  UNL A   1      18.488  31.530  41.842  1.00  0.00    +0.000 H 
BRANCH   10    8
ATOM      9  O1  UNL A   1      16.187  29.998  42.444  1.00  0.00    +0.000 O 
ATOM      8  C8  UNL A   1      17.185  30.520  42.938  1.00  0.00    +0.000 C 
BRANCH    8    7
ATOM    101  H8  UNL A   1      17.159  29.894  45.003  1.00  0.00    +0.000 H 
ATOM      7  C7  UNL A   1      17.764  29.933  44.167  1.00  0.00    +0.000 C 
BRANCH    7    6
ATOM    100  H7  UNL A   1      19.227  28.545  43.833  1.00  0.00    +0.000 H 
ATOM      6  C6  UNL A   1      19.007  29.446  44.288  1.00  0.00    +0.000 C 
BRANCH    6    5
ATOM    130  H37 UNL A   1      19.093  32.001  45.033  1.00  0.00    +0.000 H 
ATOM      3  C3  UNL A   1      22.280  30.135  46.082  1.00  0.00    +0.000 C 
ATOM      4  C4  UNL A   1      21.247  29.464  45.411  1.00  0.00    +0.000 C 
ATOM      5  C5  UNL A   1      20.073  30.130  45.035  1.00  0.00    +0.000 C 
ATOM     99  H6  UNL A   1      21.354  28.461  45.189  1.00  0.00    +0.000 H 
ATOM    136  H43 UNL A   1      22.868  31.994  46.895  1.00  0.00    +0.000 H 
ATOM     83  C60 UNL A   1      19.949  31.496  45.313  1.00  0.00    +0.000 C 
ATOM     84  C61 UNL A   1      20.978  32.185  45.971  1.00  0.00    +0.000 C 
ATOM     93  C69 UNL A   1      22.128  31.495  46.376  1.00  0.00    +0.000 C 
BRANCH    3    2
ATOM     97  H4  UNL A   1      23.586  29.307  47.518  1.00  0.00    +0.000 H 
ATOM      2  C2  UNL A   1      23.549  29.407  46.453  1.00  0.00    +0.000 C 
ATOM     98  H5  UNL A   1      23.528  28.455  45.965  1.00  0.00    +0.000 H 
BRANCH    2    1
ATOM      1  C1  UNL A   1      24.803  30.131  45.989  1.00  0.00    +0.000 C 
ATOM     94  H1  UNL A   1      24.894  30.040  44.926  1.00  0.00    +0.000 H 
ATOM     95  H2  UNL A   1      25.660  29.697  46.460  1.00  0.00    +0.000 H 
ATOM     96  H3  UNL A   1      24.736  31.165  46.253  1.00  0.00    +0.000 H 
ENDBRANCH    2    1
ENDBRANCH    3    2
BRANCH   84   85
ATOM     85  C62 UNL A   1      20.802  33.640  46.237  1.00  0.00    +0.000 C 
ATOM     86  O3  UNL A   1      20.051  34.011  47.135  1.00  0.00    +0.000 O 
BRANCH   85   87
ATOM    131  H38 UNL A   1      23.264  33.470  45.250  1.00  0.00    +0.000 H 
ATOM    132  H39 UNL A   1      24.470  35.082  43.892  1.00  0.00    +0.000 H 
ATOM    133  H40 UNL A   1      23.441  37.206  43.328  1.00  0.00    +0.000 H 
ATOM    134  H41 UNL A   1      21.222  37.740  44.150  1.00  0.00    +0.000 H 
ATOM    135  H42 UNL A   1      20.009  36.131  45.507  1.00  0.00    +0.000 H 
ATOM     87  C63 UNL A   1      21.529  34.661  45.444  1.00  0.00    +0.000 C 
ATOM     88  C64 UNL A   1      22.824  34.371  45.003  1.00  0.00    +0.000 C 
ATOM     89  C65 UNL A   1      23.520  35.301  44.229  1.00  0.00    +0.000 C 
ATOM     90  C66 UNL A   1      22.930  36.525  43.910  1.00  0.00    +0.000 C 
ATOM     91  C67 UNL A   1      21.650  36.830  44.377  1.00  0.00    +0.000 C 
ATOM     92  C68 UNL A   1      20.950  35.902  45.152  1.00  0.00    +0.000 C 
ENDBRANCH   85   87
ENDBRANCH   84   85
ENDBRANCH    6    5
ENDBRANCH    7    6
ENDBRANCH    8    7
ENDBRANCH   10    8
ENDBRANCH   11   10
ENDBRANCH   12   11
ENDBRANCH   13   12
ENDBRANCH   14   13
ENDBRANCH   15   14
ENDBRANCH   16   15
ENDBRANCH   17   16
ENDBRANCH   18   17
ENDBRANCH   20   18
ENDBRANCH   24   23
BRANCH   28   29
ATOM     33  F2  UNL A   1      22.845  47.432  46.896  1.00  0.00    +0.000 F 
ATOM     34  C27 UNL A   1      22.994  47.194  49.241  1.00  0.00    +0.000 C 
ATOM     35  F3  UNL A   1      22.527  48.439  49.412  1.00  0.00    +0.000 F 
ATOM     36  C28 UNL A   1      23.332  46.421  50.342  1.00  0.00    +0.000 C 
ATOM     37  F4  UNL A   1      23.174  46.915  51.579  1.00  0.00    +0.000 F 
ATOM     38  C29 UNL A   1      23.841  45.138  50.166  1.00  0.00    +0.000 C 
ATOM     39  F5  UNL A   1      24.175  44.422  51.250  1.00  0.00    +0.000 F 
ATOM     29  C24 UNL A   1      24.000  44.594  48.882  1.00  0.00    +0.000 C 
ATOM     30  C25 UNL A   1      23.628  45.383  47.784  1.00  0.00    +0.000 C 
ATOM     31  F1  UNL A   1      23.772  44.915  46.535  1.00  0.00    +0.000 F 
ATOM     32  C26 UNL A   1      23.147  46.678  47.963  1.00  0.00    +0.000 C 
ENDBRANCH   28   29
BRANCH   45   46
ATOM     46  C35 UNL A   1      30.332  41.318  47.792  1.00  0.00    +0.000 C 
ATOM     47  C36 UNL A   1      30.895  41.707  46.568  1.00  0.00    +0.000 C 
ATOM     48  F6  UNL A   1      30.153  41.696  45.450  1.00  0.00    +0.000 F 
ATOM     49  C37 UNL A   1      32.236  42.072  46.483  1.00  0.00    +0.000 C 
ATOM     50  F7  UNL A   1      32.765  42.399  45.296  1.00  0.00    +0.000 F 
ATOM     51  C38 UNL A   1      33.028  42.085  47.621  1.00  0.00    +0.000 C 
ATOM     52  F8  UNL A   1      34.317  42.442  47.538  1.00  0.00    +0.000 F 
ATOM     53  C39 UNL A   1      32.487  41.719  48.845  1.00  0.00    +0.000 C 
ATOM     54  F9  UNL A   1      33.249  41.741  49.947  1.00  0.00    +0.000 F 
ATOM     55  C40 UNL A   1      31.154  41.328  48.929  1.00  0.00    +0.000 C 
ATOM     56  F10 UNL A   1      30.661  40.969  50.124  1.00  0.00    +0.000 F 
ENDBRANCH   45   46
BRANCH   60   61
ATOM     65  F12 UNL A   1      27.612  32.923  44.608  1.00  0.00    +0.000 F 
ATOM     66  C47 UNL A   1      27.912  32.570  46.923  1.00  0.00    +0.000 C 
ATOM     67  F13 UNL A   1      28.327  31.318  46.694  1.00  0.00    +0.000 F 
ATOM     68  C48 UNL A   1      27.831  33.049  48.223  1.00  0.00    +0.000 C 
ATOM     69  F14 UNL A   1      28.186  32.264  49.249  1.00  0.00    +0.000 F 
ATOM     70  C49 UNL A   1      27.383  34.347  48.463  1.00  0.00    +0.000 C 
ATOM     71  F15 UNL A   1      27.307  34.782  49.729  1.00  0.00    +0.000 F 
ATOM     61  C44 UNL A   1      27.030  35.197  47.405  1.00  0.00    +0.000 C 
ATOM     62  C45 UNL A   1      27.132  34.694  46.101  1.00  0.00    +0.000 C 
ATOM     63  F11 UNL A   1      26.786  35.465  45.059  1.00  0.00    +0.000 F 
ATOM     64  C46 UNL A   1      27.557  33.390  45.863  1.00  0.00    +0.000 C 
ENDBRANCH   60   61
TORSDOF 21
ENDMDL
MODEL 4
REMARK VINA RESULT:      -7.4     33.461     38.974
ROOT
ATOM     24  C20 UNL A   1      46.973  11.934  47.367  1.00  0.00    +0.000 C 
ATOM     25  C21 UNL A   1      47.615  13.288  47.251  1.00  0.00    +0.000 C 
ATOM     26  N3  UNL A   1      48.620  13.788  47.925  1.00  0.00    +0.000 N 
ATOM     27  C22 UNL A   1      48.841  15.050  47.391  1.00  0.00    +0.000 C 
ATOM     28  C23 UNL A   1      49.737  15.988  47.781  1.00  0.00    +0.000 C 
ATOM     40  C30 UNL A   1      50.654  15.824  48.878  1.00  0.00    +0.000 C 
ATOM     41  C31 UNL A   1      51.551  16.740  49.398  1.00  0.00    +0.000 C 
ATOM     42  C32 UNL A   1      52.260  16.119  50.433  1.00  0.00    +0.000 C 
ATOM     43  C33 UNL A   1      51.775  14.830  50.585  1.00  0.00    +0.000 C 
ATOM     44  N4  UNL A   1      50.792  14.661  49.622  1.00  0.00    +0.000 N 
ATOM     45  C34 UNL A   1      52.178  13.825  51.535  1.00  0.00    +0.000 C 
ATOM     57  C41 UNL A   1      51.638  12.585  51.634  1.00  0.00    +0.000 C 
ATOM     58  N5  UNL A   1      50.619  12.015  50.885  1.00  0.00    +0.000 N 
ATOM     59  C42 UNL A   1      50.465  10.800  51.351  1.00  0.00    +0.000 C 
ATOM     60  C43 UNL A   1      49.485   9.740  50.930  1.00  0.00    +0.000 C 
ATOM     72  C50 UNL A   1      48.598  10.013  49.954  1.00  0.00    +0.000 C 
ATOM     73  C51 UNL A   1      47.587   9.091  49.445  1.00  0.00    +0.000 C 
ATOM     74  C52 UNL A   1      46.911   9.688  48.451  1.00  0.00    +0.000 C 
ATOM     75  C53 UNL A   1      47.421  11.048  48.276  1.00  0.00    +0.000 C 
ATOM     76  N6  UNL A   1      48.416  11.155  49.214  1.00  0.00    +0.000 N 
ATOM     77  C54 UNL A   1      51.390  10.451  52.437  1.00  0.00    +0.000 C 
ATOM     78  C55 UNL A   1      52.058  11.586  52.595  1.00  0.00    +0.000 C 
ATOM     79  C56 UNL A   1      47.896  15.223  46.307  1.00  0.00    +0.000 C 
ATOM     80  C57 UNL A   1      47.072  14.189  46.223  1.00  0.00    +0.000 C 
ATOM    118  H25 UNL A   1      51.677  17.713  49.079  1.00  0.00    +0.000 H 
ATOM    119  H26 UNL A   1      53.016  16.548  50.989  1.00  0.00    +0.000 H 
ATOM    120  H27 UNL A   1      50.269  13.839  49.487  1.00  0.00    +0.000 H 
ATOM    121  H28 UNL A   1      47.420   8.134  49.793  1.00  0.00    +0.000 H 
ATOM    122  H29 UNL A   1      46.153   9.257  47.899  1.00  0.00    +0.000 H 
ATOM    123  H30 UNL A   1      48.950  11.972  49.343  1.00  0.00    +0.000 H 
ATOM    124  H31 UNL A   1      51.493   9.559  52.944  1.00  0.00    +0.000 H 
ATOM    125  H32 UNL A   1      52.785  11.737  53.312  1.00  0.00    +0.000 H 
ATOM    126  H33 UNL A   1      47.868  16.044  45.683  1.00  0.00    +0.000 H 
ATOM    127  H34 UNL A   1      46.262  14.050  45.599  1.00  0.00    +0.000 H 
ENDROOT
BRANCH   24   23
ATOM    129  H36 UNL A   1      45.470  10.280  43.347  1.00  0.00    +0.000 H 
ATOM     81  C58 UNL A   1      46.223  10.986  45.186  1.00  0.00    +0.000 C 
ATOM     82  C59 UNL A   1      45.222  10.622  44.289  1.00  0.00    +0.000 C 
ATOM     20  C16 UNL A   1      43.879  10.723  44.665  1.00  0.00    +0.000 C 
ATOM     21  C17 UNL A   1      43.535  11.292  45.894  1.00  0.00    +0.000 C 
ATOM    116  H23 UNL A   1      42.543  11.401  46.155  1.00  0.00    +0.000 H 
ATOM     22  C18 UNL A   1      44.540  11.714  46.768  1.00  0.00    +0.000 C 
ATOM    117  H24 UNL A   1      44.287  12.156  47.667  1.00  0.00    +0.000 H 
ATOM     23  C19 UNL A   1      45.891  11.539  46.431  1.00  0.00    +0.000 C 
ATOM    128  H35 UNL A   1      47.214  10.846  44.933  1.00  0.00    +0.000 H 
BRANCH   20   18
ATOM     18  C15 UNL A   1      42.798  10.266  43.762  1.00  0.00    +0.000 C 
ATOM     19  O2  UNL A   1      42.239   9.199  43.974  1.00  0.00    +0.000 O 
BRANCH   18   17
ATOM     17  N2  UNL A   1      42.427  11.041  42.690  1.00  0.00    +0.000 N 
ATOM    115  H22 UNL A   1      42.989  10.951  41.887  1.00  0.00    +0.000 H 
BRANCH   17   16
ATOM    113  H20 UNL A   1      41.235  12.294  41.561  1.00  0.00    +0.000 H 
ATOM    114  H21 UNL A   1      40.428  11.471  42.897  1.00  0.00    +0.000 H 
ATOM     16  C14 UNL A   1      41.317  11.973  42.578  1.00  0.00    +0.000 C 
BRANCH   16   15
ATOM    111  H18 UNL A   1      40.581  13.724  43.521  1.00  0.00    +0.000 H 
ATOM     15  C13 UNL A   1      41.512  13.199  43.467  1.00  0.00    +0.000 C 
ATOM    112  H19 UNL A   1      41.844  12.835  44.417  1.00  0.00    +0.000 H 
BRANCH   15   14
ATOM    110  H17 UNL A   1      42.103  15.128  42.895  1.00  0.00    +0.000 H 
ATOM    109  H16 UNL A   1      42.966  13.809  42.047  1.00  0.00    +0.000 H 
ATOM     14  C12 UNL A   1      42.584  14.177  42.977  1.00  0.00    +0.000 C 
BRANCH   14   13
ATOM    107  H14 UNL A   1      44.308  13.457  43.990  1.00  0.00    +0.000 H 
ATOM    108  H15 UNL A   1      44.345  15.183  43.519  1.00  0.00    +0.000 H 
ATOM     13  C11 UNL A   1      43.769  14.380  43.929  1.00  0.00    +0.000 C 
BRANCH   13   12
ATOM    105  H12 UNL A   1      42.364  15.089  45.364  1.00  0.00    +0.000 H 
ATOM    106  H13 UNL A   1      43.599  13.974  45.994  1.00  0.00    +0.000 H 
ATOM     12  C10 UNL A   1      43.396  14.808  45.355  1.00  0.00    +0.000 C 
BRANCH   12   11
ATOM     11  C9  UNL A   1      44.220  15.985  45.882  1.00  0.00    +0.000 C 
ATOM    103  H10 UNL A   1      45.257  15.721  45.869  1.00  0.00    +0.000 H 
ATOM    104  H11 UNL A   1      44.047  16.835  45.256  1.00  0.00    +0.000 H 
BRANCH   11   10
ATOM     10  N1  UNL A   1      43.828  16.313  47.239  1.00  0.00    +0.000 N 
ATOM    102  H9  UNL A   1      42.867  16.501  47.351  1.00  0.00    +0.000 H 
BRANCH   10    8
ATOM      9  O1  UNL A   1      44.830  17.514  48.834  1.00  0.00    +0.000 O 
ATOM      8  C8  UNL A   1      44.555  16.404  48.381  1.00  0.00    +0.000 C 
BRANCH    8    7
ATOM    101  H8  UNL A   1      46.081  15.246  49.374  1.00  0.00    +0.000 H 
ATOM      7  C7  UNL A   1      45.100  15.204  49.054  1.00  0.00    +0.000 C 
BRANCH    7    6
ATOM    100  H7  UNL A   1      43.541  13.911  48.779  1.00  0.00    +0.000 H 
ATOM      6  C6  UNL A   1      44.429  14.066  49.283  1.00  0.00    +0.000 C 
BRANCH    6    5
ATOM    130  H37 UNL A   1      43.294  11.714  49.801  1.00  0.00    +0.000 H 
ATOM      3  C3  UNL A   1      46.444  12.242  51.932  1.00  0.00    +0.000 C 
ATOM      4  C4  UNL A   1      46.033  13.216  51.009  1.00  0.00    +0.000 C 
ATOM      5  C5  UNL A   1      44.894  13.029  50.215  1.00  0.00    +0.000 C 
ATOM     99  H6  UNL A   1      46.581  14.086  50.914  1.00  0.00    +0.000 H 
ATOM    136  H43 UNL A   1      46.002  10.329  52.711  1.00  0.00    +0.000 H 
ATOM     83  C60 UNL A   1      44.141  11.859  50.373  1.00  0.00    +0.000 C 
ATOM     84  C61 UNL A   1      44.530  10.882  51.301  1.00  0.00    +0.000 C 
ATOM     93  C69 UNL A   1      45.694  11.066  52.057  1.00  0.00    +0.000 C 
BRANCH    3    2
ATOM     97  H4  UNL A   1      47.428  12.165  53.796  1.00  0.00    +0.000 H 
ATOM      2  C2  UNL A   1      47.658  12.474  52.798  1.00  0.00    +0.000 C 
ATOM     98  H5  UNL A   1      48.463  11.906  52.382  1.00  0.00    +0.000 H 
BRANCH    2    1
ATOM      1  C1  UNL A   1      48.092  13.930  52.828  1.00  0.00    +0.000 C 
ATOM     94  H1  UNL A   1      47.242  14.560  52.667  1.00  0.00    +0.000 H 
ATOM     95  H2  UNL A   1      48.816  14.103  52.059  1.00  0.00    +0.000 H 
ATOM     96  H3  UNL A   1      48.526  14.154  53.780  1.00  0.00    +0.000 H 
ENDBRANCH    2    1
ENDBRANCH    3    2
BRANCH   84   85
ATOM     85  C62 UNL A   1      43.692   9.657  51.436  1.00  0.00    +0.000 C 
ATOM     86  O3  UNL A   1      42.527   9.753  51.813  1.00  0.00    +0.000 O 
BRANCH   85   87
ATOM    131  H38 UNL A   1      44.691   7.863  53.125  1.00  0.00    +0.000 H 
ATOM    132  H39 UNL A   1      45.524   5.632  52.650  1.00  0.00    +0.000 H 
ATOM    133  H40 UNL A   1      45.569   4.813  50.367  1.00  0.00    +0.000 H 
ATOM    134  H41 UNL A   1      44.818   6.232  48.549  1.00  0.00    +0.000 H 
ATOM    135  H42 UNL A   1      43.981   8.464  49.016  1.00  0.00    +0.000 H 
ATOM     87  C63 UNL A   1      44.233   8.315  51.111  1.00  0.00    +0.000 C 
ATOM     88  C64 UNL A   1      44.703   7.511  52.154  1.00  0.00    +0.000 C 
ATOM     89  C65 UNL A   1      45.189   6.232  51.880  1.00  0.00    +0.000 C 
ATOM     90  C66 UNL A   1      45.220   5.763  50.566  1.00  0.00    +0.000 C 
ATOM     91  C67 UNL A   1      44.782   6.577  49.520  1.00  0.00    +0.000 C 
ATOM     92  C68 UNL A   1      44.294   7.858  49.789  1.00  0.00    +0.000 C 
ENDBRANCH   85   87
ENDBRANCH   84   85
ENDBRANCH    6    5
ENDBRANCH    7    6
ENDBRANCH    8    7
ENDBRANCH   10    8
ENDBRANCH   11   10
ENDBRANCH   12   11
ENDBRANCH   13   12
ENDBRANCH   14   13
ENDBRANCH   15   14
ENDBRANCH   16   15
ENDBRANCH   17   16
ENDBRANCH   18   17
ENDBRANCH   20   18
ENDBRANCH   24   23
BRANCH   28   29
ATOM     33  F2  UNL A   1      51.577  18.885  44.282  1.00  0.00    +0.000 F 
ATOM     34  C27 UNL A   1      49.784  19.699  45.586  1.00  0.00    +0.000 C 
ATOM     35  F3  UNL A   1      49.802  20.858  44.913  1.00  0.00    +0.000 F 
ATOM     36  C28 UNL A   1      48.874  19.507  46.615  1.00  0.00    +0.000 C 
ATOM     37  F4  UNL A   1      48.000  20.476  46.924  1.00  0.00    +0.000 F 
ATOM     38  C29 UNL A   1      48.871  18.313  47.331  1.00  0.00    +0.000 C 
ATOM     39  F5  UNL A   1      47.991  18.165  48.333  1.00  0.00    +0.000 F 
ATOM     29  C24 UNL A   1      49.765  17.279  47.015  1.00  0.00    +0.000 C 
ATOM     30  C25 UNL A   1      50.659  17.486  45.955  1.00  0.00    +0.000 C 
ATOM     31  F1  UNL A   1      51.542  16.533  45.620  1.00  0.00    +0.000 F 
ATOM     32  C26 UNL A   1      50.679  18.692  45.259  1.00  0.00    +0.000 C 
ENDBRANCH   28   29
BRANCH   45   46
ATOM     46  C35 UNL A   1      53.263  14.179  52.508  1.00  0.00    +0.000 C 
ATOM     47  C36 UNL A   1      54.618  14.100  52.156  1.00  0.00    +0.000 C 
ATOM     48  F6  UNL A   1      54.975  13.650  50.943  1.00  0.00    +0.000 F 
ATOM     49  C37 UNL A   1      55.613  14.448  53.064  1.00  0.00    +0.000 C 
ATOM     50  F7  UNL A   1      56.904  14.325  52.722  1.00  0.00    +0.000 F 
ATOM     51  C38 UNL A   1      55.274  14.909  54.328  1.00  0.00    +0.000 C 
ATOM     52  F8  UNL A   1      56.233  15.250  55.199  1.00  0.00    +0.000 F 
ATOM     53  C39 UNL A   1      53.938  15.010  54.691  1.00  0.00    +0.000 C 
ATOM     54  F9  UNL A   1      53.608  15.466  55.907  1.00  0.00    +0.000 F 
ATOM     55  C40 UNL A   1      52.941  14.638  53.794  1.00  0.00    +0.000 C 
ATOM     56  F10 UNL A   1      51.659  14.736  54.177  1.00  0.00    +0.000 F 
ENDBRANCH   45   46
BRANCH   60   61
ATOM     65  F12 UNL A   1      47.529   6.634  54.136  1.00  0.00    +0.000 F 
ATOM     66  C47 UNL A   1      49.374   5.901  52.857  1.00  0.00    +0.000 C 
ATOM     67  F13 UNL A   1      49.336   4.706  53.459  1.00  0.00    +0.000 F 
ATOM     68  C48 UNL A   1      50.340   6.167  51.898  1.00  0.00    +0.000 C 
ATOM     69  F14 UNL A   1      51.227   5.220  51.561  1.00  0.00    +0.000 F 
ATOM     70  C49 UNL A   1      50.391   7.416  51.283  1.00  0.00    +0.000 C 
ATOM     71  F15 UNL A   1      51.339   7.649  50.364  1.00  0.00    +0.000 F 
ATOM     61  C44 UNL A   1      49.459   8.416  51.599  1.00  0.00    +0.000 C 
ATOM     62  C45 UNL A   1      48.485   8.120  52.562  1.00  0.00    +0.000 C 
ATOM     63  F11 UNL A   1      47.585   9.051  52.910  1.00  0.00    +0.000 F 
ATOM     64  C46 UNL A   1      48.450   6.879  53.193  1.00  0.00    +0.000 C 
ENDBRANCH   60   61
TORSDOF 21
ENDMDL
MODEL 5
REMARK VINA RESULT:      -7.3      5.068      8.212
ROOT
ATOM     24  C20 UNL A   1      53.445  19.685  11.668  1.00  0.00    +0.000 C 
ATOM     25  C21 UNL A   1      54.813  19.080  11.524  1.00  0.00    +0.000 C 
ATOM     26  N3  UNL A   1      55.813  19.082  12.370  1.00  0.00    +0.000 N 
ATOM     27  C22 UNL A   1      56.821  18.344  11.763  1.00  0.00    +0.000 C 
ATOM     28  C23 UNL A   1      58.075  18.099  12.212  1.00  0.00    +0.000 C 
ATOM     40  C30 UNL A   1      58.602  18.596  13.455  1.00  0.00    +0.000 C 
ATOM     41  C31 UNL A   1      59.880  18.465  13.966  1.00  0.00    +0.000 C 
ATOM     42  C32 UNL A   1      59.914  19.075  15.226  1.00  0.00    +0.000 C 
ATOM     43  C33 UNL A   1      58.667  19.623  15.480  1.00  0.00    +0.000 C 
ATOM     44  N4  UNL A   1      57.871  19.319  14.387  1.00  0.00    +0.000 N 
ATOM     45  C34 UNL A   1      58.232  20.368  16.634  1.00  0.00    +0.000 C 
ATOM     57  C41 UNL A   1      56.993  20.891  16.802  1.00  0.00    +0.000 C 
ATOM     58  N5  UNL A   1      55.902  20.842  15.947  1.00  0.00    +0.000 N 
ATOM     59  C42 UNL A   1      54.935  21.481  16.557  1.00  0.00    +0.000 C 
ATOM     60  C43 UNL A   1      53.535  21.758  16.086  1.00  0.00    +0.000 C 
ATOM     72  C50 UNL A   1      53.155  21.335  14.865  1.00  0.00    +0.000 C 
ATOM     73  C51 UNL A   1      51.836  21.535  14.271  1.00  0.00    +0.000 C 
ATOM     74  C52 UNL A   1      51.807  20.946  13.064  1.00  0.00    +0.000 C 
ATOM     75  C53 UNL A   1      53.116  20.355  12.789  1.00  0.00    +0.000 C 
ATOM     76  N6  UNL A   1      53.854  20.641  13.909  1.00  0.00    +0.000 N 
ATOM     77  C54 UNL A   1      55.297  21.990  17.887  1.00  0.00    +0.000 C 
ATOM     78  C55 UNL A   1      56.572  21.635  17.972  1.00  0.00    +0.000 C 
ATOM     79  C56 UNL A   1      56.297  17.872  10.499  1.00  0.00    +0.000 C 
ATOM     80  C57 UNL A   1      55.084  18.354  10.274  1.00  0.00    +0.000 C 
ATOM    118  H25 UNL A   1      60.673  17.997  13.500  1.00  0.00    +0.000 H 
ATOM    119  H26 UNL A   1      60.728  19.111  15.857  1.00  0.00    +0.000 H 
ATOM    120  H27 UNL A   1      56.927  19.579  14.287  1.00  0.00    +0.000 H 
ATOM    121  H28 UNL A   1      51.053  22.045  14.707  1.00  0.00    +0.000 H 
ATOM    122  H29 UNL A   1      50.990  20.915  12.433  1.00  0.00    +0.000 H 
ATOM    123  H30 UNL A   1      54.795  20.372  14.018  1.00  0.00    +0.000 H 
ATOM    124  H31 UNL A   1      54.714  22.492  18.574  1.00  0.00    +0.000 H 
ATOM    125  H32 UNL A   1      57.186  21.861  18.770  1.00  0.00    +0.000 H 
ATOM    126  H33 UNL A   1      56.803  17.242   9.857  1.00  0.00    +0.000 H 
ATOM    127  H34 UNL A   1      54.485  18.248   9.441  1.00  0.00    +0.000 H 
ENDROOT
BRANCH   24   23
ATOM    129  H36 UNL A   1      51.059  21.091   7.996  1.00  0.00    +0.000 H 
ATOM     81  C58 UNL A   1      52.218  20.487   9.651  1.00  0.00    +0.000 C 
ATOM     82  C59 UNL A   1      51.257  20.323   8.657  1.00  0.00    +0.000 C 
ATOM     20  C16 UNL A   1      50.558  19.117   8.558  1.00  0.00    +0.000 C 
ATOM     21  C17 UNL A   1      50.740  18.118   9.518  1.00  0.00    +0.000 C 
ATOM    116  H23 UNL A   1      50.196  17.243   9.465  1.00  0.00    +0.000 H 
ATOM     22  C18 UNL A   1      51.661  18.309  10.551  1.00  0.00    +0.000 C 
ATOM    117  H24 UNL A   1      51.780  17.582  11.274  1.00  0.00    +0.000 H 
ATOM     23  C19 UNL A   1      52.426  19.485  10.609  1.00  0.00    +0.000 C 
ATOM    128  H35 UNL A   1      52.782  21.351   9.681  1.00  0.00    +0.000 H 
BRANCH   20   18
ATOM     18  C15 UNL A   1      49.590  18.884   7.461  1.00  0.00    +0.000 C 
ATOM     19  O2  UNL A   1      49.160  19.832   6.818  1.00  0.00    +0.000 O 
BRANCH   18   17
ATOM     17  N2  UNL A   1      49.179  17.606   7.169  1.00  0.00    +0.000 N 
ATOM    115  H22 UNL A   1      49.698  16.886   7.595  1.00  0.00    +0.000 H 
BRANCH   17   16
ATOM    113  H20 UNL A   1      47.616  16.317   6.766  1.00  0.00    +0.000 H 
ATOM    114  H21 UNL A   1      47.392  17.982   6.228  1.00  0.00    +0.000 H 
ATOM     16  C14 UNL A   1      48.082  17.170   6.320  1.00  0.00    +0.000 C 
BRANCH   16   15
ATOM    111  H18 UNL A   1      48.613  17.689   4.334  1.00  0.00    +0.000 H 
ATOM     15  C13 UNL A   1      48.561  16.795   4.920  1.00  0.00    +0.000 C 
ATOM    112  H19 UNL A   1      49.510  16.318   5.042  1.00  0.00    +0.000 H 
BRANCH   15   14
ATOM    110  H17 UNL A   1      48.099  15.657   3.220  1.00  0.00    +0.000 H 
ATOM    109  H16 UNL A   1      46.673  16.201   4.155  1.00  0.00    +0.000 H 
ATOM     14  C12 UNL A   1      47.662  15.795   4.187  1.00  0.00    +0.000 C 
BRANCH   14   13
ATOM    107  H14 UNL A   1      47.992  13.696   4.125  1.00  0.00    +0.000 H 
ATOM    108  H15 UNL A   1      48.129  14.460   5.739  1.00  0.00    +0.000 H 
ATOM     13  C11 UNL A   1      47.583  14.400   4.820  1.00  0.00    +0.000 C 
BRANCH   13   12
ATOM    105  H12 UNL A   1      45.847  13.215   4.470  1.00  0.00    +0.000 H 
ATOM    106  H13 UNL A   1      46.228  13.521   6.181  1.00  0.00    +0.000 H 
ATOM     12  C10 UNL A   1      46.170  13.933   5.195  1.00  0.00    +0.000 C 
BRANCH   12   11
ATOM     11  C9  UNL A   1      45.139  15.062   5.244  1.00  0.00    +0.000 C 
ATOM    103  H10 UNL A   1      45.537  15.878   5.812  1.00  0.00    +0.000 H 
ATOM    104  H11 UNL A   1      44.924  15.378   4.245  1.00  0.00    +0.000 H 
BRANCH   11   10
ATOM     10  N1  UNL A   1      43.911  14.603   5.866  1.00  0.00    +0.000 N 
ATOM    102  H9  UNL A   1      43.909  13.648   6.105  1.00  0.00    +0.000 H 
BRANCH   10    8
ATOM      9  O1  UNL A   1      41.897  14.689   6.830  1.00  0.00    +0.000 O 
ATOM      8  C8  UNL A   1      42.766  15.263   6.175  1.00  0.00    +0.000 C 
BRANCH    8    7
ATOM    101  H8  UNL A   1      43.258  17.322   5.763  1.00  0.00    +0.000 H 
ATOM      7  C7  UNL A   1      42.497  16.630   5.675  1.00  0.00    +0.000 C 
BRANCH    7    6
ATOM    100  H7  UNL A   1      40.464  16.647   5.468  1.00  0.00    +0.000 H 
ATOM      6  C6  UNL A   1      41.350  17.044   5.119  1.00  0.00    +0.000 C 
BRANCH    6    5
ATOM    130  H37 UNL A   1      39.197  18.273   4.148  1.00  0.00    +0.000 H 
ATOM      3  C3  UNL A   1      42.372  19.332   2.267  1.00  0.00    +0.000 C 
ATOM      4  C4  UNL A   1      42.442  18.420   3.331  1.00  0.00    +0.000 C 
ATOM      5  C5  UNL A   1      41.292  18.037   4.035  1.00  0.00    +0.000 C 
ATOM     99  H6  UNL A   1      43.357  18.025   3.600  1.00  0.00    +0.000 H 
ATOM    136  H43 UNL A   1      41.066  20.555   1.145  1.00  0.00    +0.000 H 
ATOM     83  C60 UNL A   1      40.052  18.555   3.644  1.00  0.00    +0.000 C 
ATOM     84  C61 UNL A   1      39.963  19.456   2.573  1.00  0.00    +0.000 C 
ATOM     93  C69 UNL A   1      41.127  19.861   1.907  1.00  0.00    +0.000 C 
BRANCH    3    2
ATOM     97  H4  UNL A   1      43.717  19.052   0.665  1.00  0.00    +0.000 H 
ATOM      2  C2  UNL A   1      43.617  19.710   1.503  1.00  0.00    +0.000 C 
ATOM     98  H5  UNL A   1      43.508  20.729   1.195  1.00  0.00    +0.000 H 
BRANCH    2    1
ATOM      1  C1  UNL A   1      44.878  19.619   2.346  1.00  0.00    +0.000 C 
ATOM     94  H1  UNL A   1      45.024  18.607   2.662  1.00  0.00    +0.000 H 
ATOM     95  H2  UNL A   1      44.781  20.251   3.204  1.00  0.00    +0.000 H 
ATOM     96  H3  UNL A   1      45.720  19.935   1.765  1.00  0.00    +0.000 H 
ENDBRANCH    2    1
ENDBRANCH    3    2
BRANCH   84   85
ATOM     85  C62 UNL A   1      38.619  19.974   2.190  1.00  0.00    +0.000 C 
ATOM     86  O3  UNL A   1      38.374  20.227   1.014  1.00  0.00    +0.000 O 
BRANCH   85   87
ATOM    131  H38 UNL A   1      37.219  18.111   3.469  1.00  0.00    +0.000 H 
ATOM    132  H39 UNL A   1      35.523  18.397   5.183  1.00  0.00    +0.000 H 
ATOM    133  H40 UNL A   1      34.869  20.625   5.885  1.00  0.00    +0.000 H 
ATOM    134  H41 UNL A   1      35.879  22.573   4.851  1.00  0.00    +0.000 H 
ATOM    135  H42 UNL A   1      37.579  22.295   3.137  1.00  0.00    +0.000 H 
ATOM     87  C63 UNL A   1      37.558  20.181   3.205  1.00  0.00    +0.000 C 
ATOM     88  C64 UNL A   1      36.946  19.059   3.774  1.00  0.00    +0.000 C 
ATOM     89  C65 UNL A   1      35.965  19.223   4.753  1.00  0.00    +0.000 C 
ATOM     90  C66 UNL A   1      35.585  20.506   5.152  1.00  0.00    +0.000 C 
ATOM     91  C67 UNL A   1      36.171  21.627   4.562  1.00  0.00    +0.000 C 
ATOM     92  C68 UNL A   1      37.153  21.467   3.582  1.00  0.00    +0.000 C 
ENDBRANCH   85   87
ENDBRANCH   84   85
ENDBRANCH    6    5
ENDBRANCH    7    6
ENDBRANCH    8    7
ENDBRANCH   10    8
ENDBRANCH   11   10
ENDBRANCH   12   11
ENDBRANCH   13   12
ENDBRANCH   14   13
ENDBRANCH   15   14
ENDBRANCH   16   15
ENDBRANCH   17   16
ENDBRANCH   18   17
ENDBRANCH   20   18
ENDBRANCH   24   23
BRANCH   28   29
ATOM     33  F2  UNL A   1      59.929  13.768  10.859  1.00  0.00    +0.000 F 
ATOM     34  C27 UNL A   1      60.631  15.702   9.699  1.00  0.00    +0.000 C 
ATOM     35  F3  UNL A   1      61.435  14.962   8.923  1.00  0.00    +0.000 F 
ATOM     36  C28 UNL A   1      60.576  17.078   9.531  1.00  0.00    +0.000 C 
ATOM     37  F4  UNL A   1      61.315  17.664   8.578  1.00  0.00    +0.000 F 
ATOM     38  C29 UNL A   1      59.761  17.850  10.353  1.00  0.00    +0.000 C 
ATOM     39  F5  UNL A   1      59.744  19.180  10.177  1.00  0.00    +0.000 F 
ATOM     29  C24 UNL A   1      58.967  17.257  11.346  1.00  0.00    +0.000 C 
ATOM     30  C25 UNL A   1      59.019  15.862  11.482  1.00  0.00    +0.000 C 
ATOM     31  F1  UNL A   1      58.288  15.247  12.424  1.00  0.00    +0.000 F 
ATOM     32  C26 UNL A   1      59.858  15.095  10.677  1.00  0.00    +0.000 C 
ENDBRANCH   28   29
BRANCH   45   46
ATOM     46  C35 UNL A   1      59.229  20.604  17.729  1.00  0.00    +0.000 C 
ATOM     47  C36 UNL A   1      60.012  21.767  17.770  1.00  0.00    +0.000 C 
ATOM     48  F6  UNL A   1      59.921  22.676  16.788  1.00  0.00    +0.000 F 
ATOM     49  C37 UNL A   1      60.921  21.980  18.802  1.00  0.00    +0.000 C 
ATOM     50  F7  UNL A   1      61.691  23.077  18.799  1.00  0.00    +0.000 F 
ATOM     51  C38 UNL A   1      61.042  21.053  19.827  1.00  0.00    +0.000 C 
ATOM     52  F8  UNL A   1      61.913  21.262  20.823  1.00  0.00    +0.000 F 
ATOM     53  C39 UNL A   1      60.265  19.904  19.815  1.00  0.00    +0.000 C 
ATOM     54  F9  UNL A   1      60.373  19.012  20.810  1.00  0.00    +0.000 F 
ATOM     55  C40 UNL A   1      59.374  19.675  18.770  1.00  0.00    +0.000 C 
ATOM     56  F10 UNL A   1      58.643  18.549  18.780  1.00  0.00    +0.000 F 
ENDBRANCH   45   46
BRANCH   60   61
ATOM     65  F12 UNL A   1      50.196  21.940  19.631  1.00  0.00    +0.000 F 
ATOM     66  C47 UNL A   1      50.791  23.957  18.556  1.00  0.00    +0.000 C 
ATOM     67  F13 UNL A   1      49.935  24.639  19.328  1.00  0.00    +0.000 F 
ATOM     68  C48 UNL A   1      51.536  24.618  17.591  1.00  0.00    +0.000 C 
ATOM     69  F14 UNL A   1      51.414  25.944  17.443  1.00  0.00    +0.000 F 
ATOM     70  C49 UNL A   1      52.415  23.906  16.776  1.00  0.00    +0.000 C 
ATOM     71  F15 UNL A   1      53.118  24.569  15.847  1.00  0.00    +0.000 F 
ATOM     61  C44 UNL A   1      52.581  22.522  16.929  1.00  0.00    +0.000 C 
ATOM     62  C45 UNL A   1      51.826  21.878  17.918  1.00  0.00    +0.000 C 
ATOM     63  F11 UNL A   1      51.938  20.552  18.087  1.00  0.00    +0.000 F 
ATOM     64  C46 UNL A   1      50.931  22.586  18.715  1.00  0.00    +0.000 C 
ENDBRANCH   60   61
TORSDOF 21
ENDMDL
MODEL 6
REMARK VINA RESULT:      -7.3      4.777      7.912
ROOT
ATOM     24  C20 UNL A   1      52.856  20.244  11.387  1.00  0.00    +0.000 C 
ATOM     25  C21 UNL A   1      54.175  19.572  11.132  1.00  0.00    +0.000 C 
ATOM     26  N3  UNL A   1      55.206  19.440  11.929  1.00  0.00    +0.000 N 
ATOM     27  C22 UNL A   1      56.139  18.697  11.219  1.00  0.00    +0.000 C 
ATOM     28  C23 UNL A   1      57.392  18.339  11.590  1.00  0.00    +0.000 C 
ATOM     40  C30 UNL A   1      57.998  18.694  12.845  1.00  0.00    +0.000 C 
ATOM     41  C31 UNL A   1      59.284  18.442  13.286  1.00  0.00    +0.000 C 
ATOM     42  C32 UNL A   1      59.406  18.939  14.590  1.00  0.00    +0.000 C 
ATOM     43  C33 UNL A   1      58.208  19.538  14.944  1.00  0.00    +0.000 C 
ATOM     44  N4  UNL A   1      57.352  19.378  13.866  1.00  0.00    +0.000 N 
ATOM     45  C34 UNL A   1      57.868  20.205  16.175  1.00  0.00    +0.000 C 
ATOM     57  C41 UNL A   1      56.672  20.787  16.440  1.00  0.00    +0.000 C 
ATOM     58  N5  UNL A   1      55.548  20.877  15.633  1.00  0.00    +0.000 N 
ATOM     59  C42 UNL A   1      54.649  21.519  16.337  1.00  0.00    +0.000 C 
ATOM     60  C43 UNL A   1      53.252  21.920  15.953  1.00  0.00    +0.000 C 
ATOM     72  C50 UNL A   1      52.798  21.628  14.720  1.00  0.00    +0.000 C 
ATOM     73  C51 UNL A   1      51.473  21.958  14.203  1.00  0.00    +0.000 C 
ATOM     74  C52 UNL A   1      51.358  21.477  12.955  1.00  0.00    +0.000 C 
ATOM     75  C53 UNL A   1      52.615  20.834  12.573  1.00  0.00    +0.000 C 
ATOM     76  N6  UNL A   1      53.413  20.977  13.679  1.00  0.00    +0.000 N 
ATOM     77  C54 UNL A   1      55.095  21.889  17.688  1.00  0.00    +0.000 C 
ATOM     78  C55 UNL A   1      56.347  21.451  17.685  1.00  0.00    +0.000 C 
ATOM     79  C56 UNL A   1      55.537  18.368   9.944  1.00  0.00    +0.000 C 
ATOM     80  C57 UNL A   1      54.350  18.941   9.815  1.00  0.00    +0.000 C 
ATOM    118  H25 UNL A   1      60.027  17.969  12.748  1.00  0.00    +0.000 H 
ATOM    119  H26 UNL A   1      60.246  18.871  15.185  1.00  0.00    +0.000 H 
ATOM    120  H27 UNL A   1      56.424  19.701  13.829  1.00  0.00    +0.000 H 
ATOM    121  H28 UNL A   1      50.742  22.475  14.716  1.00  0.00    +0.000 H 
ATOM    122  H29 UNL A   1      50.517  21.550  12.360  1.00  0.00    +0.000 H 
ATOM    123  H30 UNL A   1      54.339  20.643  13.723  1.00  0.00    +0.000 H 
ATOM    124  H31 UNL A   1      54.572  22.365  18.439  1.00  0.00    +0.000 H 
ATOM    125  H32 UNL A   1      57.005  21.569  18.472  1.00  0.00    +0.000 H 
ATOM    126  H33 UNL A   1      55.976  17.766   9.230  1.00  0.00    +0.000 H 
ATOM    127  H34 UNL A   1      53.713  18.943   9.003  1.00  0.00    +0.000 H 
ENDROOT
BRANCH   24   23
ATOM    129  H36 UNL A   1      50.256  22.183   8.125  1.00  0.00    +0.000 H 
ATOM     81  C58 UNL A   1      51.512  21.341   9.595  1.00  0.00    +0.000 C 
ATOM     82  C59 UNL A   1      50.501  21.320   8.638  1.00  0.00    +0.000 C 
ATOM     20  C16 UNL A   1      49.817  20.131   8.372  1.00  0.00    +0.000 C 
ATOM     21  C17 UNL A   1      50.065  18.991   9.142  1.00  0.00    +0.000 C 
ATOM    116  H23 UNL A   1      49.533  18.124   8.971  1.00  0.00    +0.000 H 
ATOM     22  C18 UNL A   1      51.037  19.030  10.145  1.00  0.00    +0.000 C 
ATOM    117  H24 UNL A   1      51.205  18.196  10.730  1.00  0.00    +0.000 H 
ATOM     23  C19 UNL A   1      51.785  20.198  10.361  1.00  0.00    +0.000 C 
ATOM    128  H35 UNL A   1      52.063  22.201   9.741  1.00  0.00    +0.000 H 
BRANCH   20   18
ATOM     18  C15 UNL A   1      48.796  20.061   7.302  1.00  0.00    +0.000 C 
ATOM     19  O2  UNL A   1      48.235  21.081   6.928  1.00  0.00    +0.000 O 
BRANCH   18   17
ATOM     17  N2  UNL A   1      48.483  18.850   6.732  1.00  0.00    +0.000 N 
ATOM    115  H22 UNL A   1      49.241  18.237   6.595  1.00  0.00    +0.000 H 
BRANCH   17   16
ATOM    113  H20 UNL A   1      47.114  17.313   6.558  1.00  0.00    +0.000 H 
ATOM    114  H21 UNL A   1      46.431  18.922   6.798  1.00  0.00    +0.000 H 
ATOM     16  C14 UNL A   1      47.187  18.349   6.304  1.00  0.00    +0.000 C 
BRANCH   16   15
ATOM    111  H18 UNL A   1      46.056  19.002   4.634  1.00  0.00    +0.000 H 
ATOM     15  C13 UNL A   1      46.987  18.502   4.798  1.00  0.00    +0.000 C 
ATOM    112  H19 UNL A   1      47.829  19.054   4.435  1.00  0.00    +0.000 H 
BRANCH   15   14
ATOM    110  H17 UNL A   1      47.362  17.402   3.052  1.00  0.00    +0.000 H 
ATOM    109  H16 UNL A   1      45.956  16.828   4.000  1.00  0.00    +0.000 H 
ATOM     14  C12 UNL A   1      46.965  17.183   4.021  1.00  0.00    +0.000 C 
BRANCH   14   13
ATOM    107  H14 UNL A   1      48.609  15.842   3.882  1.00  0.00    +0.000 H 
ATOM    108  H15 UNL A   1      48.230  16.444   5.525  1.00  0.00    +0.000 H 
ATOM     13  C11 UNL A   1      47.847  16.068   4.599  1.00  0.00    +0.000 C 
BRANCH   13   12
ATOM    105  H12 UNL A   1      47.629  13.953   4.472  1.00  0.00    +0.000 H 
ATOM    106  H13 UNL A   1      47.100  14.682   6.006  1.00  0.00    +0.000 H 
ATOM     12  C10 UNL A   1      47.112  14.765   4.939  1.00  0.00    +0.000 C 
BRANCH   12   11
ATOM     11  C9  UNL A   1      45.654  14.738   4.475  1.00  0.00    +0.000 C 
ATOM    103  H10 UNL A   1      45.354  15.728   4.202  1.00  0.00    +0.000 H 
ATOM    104  H11 UNL A   1      45.572  14.082   3.634  1.00  0.00    +0.000 H 
BRANCH   11   10
ATOM     10  N1  UNL A   1      44.791  14.253   5.536  1.00  0.00    +0.000 N 
ATOM    102  H9  UNL A   1      45.160  13.494   6.045  1.00  0.00    +0.000 H 
BRANCH   10    8
ATOM      9  O1  UNL A   1      42.728  13.827   6.279  1.00  0.00    +0.000 O 
ATOM      8  C8  UNL A   1      43.566  14.665   5.948  1.00  0.00    +0.000 C 
BRANCH    8    7
ATOM    101  H8  UNL A   1      43.820  16.761   6.389  1.00  0.00    +0.000 H 
ATOM      7  C7  UNL A   1      43.180  16.093   5.931  1.00  0.00    +0.000 C 
BRANCH    7    6
ATOM    100  H7  UNL A   1      41.155  16.240   5.693  1.00  0.00    +0.000 H 
ATOM      6  C6  UNL A   1      42.070  16.594   5.371  1.00  0.00    +0.000 C 
BRANCH    6    5
ATOM    130  H37 UNL A   1      39.986  17.757   4.189  1.00  0.00    +0.000 H 
ATOM      3  C3  UNL A   1      43.303  19.034   2.738  1.00  0.00    +0.000 C 
ATOM      4  C4  UNL A   1      43.293  18.086   3.773  1.00  0.00    +0.000 C 
ATOM      5  C5  UNL A   1      42.089  17.623   4.321  1.00  0.00    +0.000 C 
ATOM     99  H6  UNL A   1      44.188  17.724   4.137  1.00  0.00    +0.000 H 
ATOM    136  H43 UNL A   1      42.077  20.236   1.507  1.00  0.00    +0.000 H 
ATOM     83  C60 UNL A   1      40.879  18.098   3.801  1.00  0.00    +0.000 C 
ATOM     84  C61 UNL A   1      40.871  19.034   2.757  1.00  0.00    +0.000 C 
ATOM     93  C69 UNL A   1      42.083  19.518   2.248  1.00  0.00    +0.000 C 
BRANCH    3    2
ATOM     97  H4  UNL A   1      45.354  19.496   2.908  1.00  0.00    +0.000 H 
ATOM      2  C2  UNL A   1      44.608  19.499   2.141  1.00  0.00    +0.000 C 
ATOM     98  H5  UNL A   1      44.854  18.828   1.345  1.00  0.00    +0.000 H 
BRANCH    2    1
ATOM      1  C1  UNL A   1      44.523  20.897   1.551  1.00  0.00    +0.000 C 
ATOM     94  H1  UNL A   1      44.566  20.837   0.483  1.00  0.00    +0.000 H 
ATOM     95  H2  UNL A   1      45.342  21.486   1.908  1.00  0.00    +0.000 H 
ATOM     96  H3  UNL A   1      43.602  21.354   1.845  1.00  0.00    +0.000 H 
ENDBRANCH    2    1
ENDBRANCH    3    2
BRANCH   84   85
ATOM     85  C62 UNL A   1      39.557  19.503   2.233  1.00  0.00    +0.000 C 
ATOM     86  O3  UNL A   1      38.524  19.218   2.832  1.00  0.00    +0.000 O 
BRANCH   85   87
ATOM    131  H38 UNL A   1      39.812  18.680  -0.282  1.00  0.00    +0.000 H 
ATOM    132  H39 UNL A   1      39.610  19.971  -2.329  1.00  0.00    +0.000 H 
ATOM    133  H40 UNL A   1      39.178  22.356  -2.223  1.00  0.00    +0.000 H 
ATOM    134  H41 UNL A   1      38.984  23.464  -0.074  1.00  0.00    +0.000 H 
ATOM    135  H42 UNL A   1      39.183  22.178   1.978  1.00  0.00    +0.000 H 
ATOM     87  C63 UNL A   1      39.469  20.324   1.002  1.00  0.00    +0.000 C 
ATOM     88  C64 UNL A   1      39.621  19.694  -0.238  1.00  0.00    +0.000 C 
ATOM     89  C65 UNL A   1      39.512  20.437  -1.414  1.00  0.00    +0.000 C 
ATOM     90  C66 UNL A   1      39.269  21.810  -1.352  1.00  0.00    +0.000 C 
ATOM     91  C67 UNL A   1      39.151  22.447  -0.116  1.00  0.00    +0.000 C 
ATOM     92  C68 UNL A   1      39.258  21.707   1.064  1.00  0.00    +0.000 C 
ENDBRANCH   85   87
ENDBRANCH   84   85
ENDBRANCH    6    5
ENDBRANCH    7    6
ENDBRANCH    8    7
ENDBRANCH   10    8
ENDBRANCH   11   10
ENDBRANCH   12   11
ENDBRANCH   13   12
ENDBRANCH   14   13
ENDBRANCH   15   14
ENDBRANCH   16   15
ENDBRANCH   17   16
ENDBRANCH   18   17
ENDBRANCH   20   18
ENDBRANCH   24   23
BRANCH   28   29
ATOM     33  F2  UNL A   1      60.380  17.947   7.724  1.00  0.00    +0.000 F 
ATOM     34  C27 UNL A   1      59.699  15.970   8.822  1.00  0.00    +0.000 C 
ATOM     35  F3  UNL A   1      60.406  15.229   7.957  1.00  0.00    +0.000 F 
ATOM     36  C28 UNL A   1      58.966  15.356   9.826  1.00  0.00    +0.000 C 
ATOM     37  F4  UNL A   1      58.980  14.020   9.942  1.00  0.00    +0.000 F 
ATOM     38  C29 UNL A   1      58.211  16.122  10.709  1.00  0.00    +0.000 C 
ATOM     39  F5  UNL A   1      57.498  15.497  11.658  1.00  0.00    +0.000 F 
ATOM     29  C24 UNL A   1      58.193  17.522  10.618  1.00  0.00    +0.000 C 
ATOM     30  C25 UNL A   1      58.962  18.123   9.610  1.00  0.00    +0.000 C 
ATOM     31  F1  UNL A   1      58.971  19.458   9.472  1.00  0.00    +0.000 F 
ATOM     32  C26 UNL A   1      59.693  17.352   8.711  1.00  0.00    +0.000 C 
ENDBRANCH   28   29
BRANCH   45   46
ATOM     46  C35 UNL A   1      58.920  20.285  17.240  1.00  0.00    +0.000 C 
ATOM     47  C36 UNL A   1      59.181  19.205  18.095  1.00  0.00    +0.000 C 
ATOM     48  F6  UNL A   1      58.449  18.084  18.010  1.00  0.00    +0.000 F 
ATOM     49  C37 UNL A   1      60.173  19.289  19.068  1.00  0.00    +0.000 C 
ATOM     50  F7  UNL A   1      60.378  18.261  19.904  1.00  0.00    +0.000 F 
ATOM     51  C38 UNL A   1      60.941  20.438  19.185  1.00  0.00    +0.000 C 
ATOM     52  F8  UNL A   1      61.899  20.515  20.118  1.00  0.00    +0.000 F 
ATOM     53  C39 UNL A   1      60.709  21.512  18.337  1.00  0.00    +0.000 C 
ATOM     54  F9  UNL A   1      61.457  22.620  18.441  1.00  0.00    +0.000 F 
ATOM     55  C40 UNL A   1      59.701  21.442  17.381  1.00  0.00    +0.000 C 
ATOM     56  F10 UNL A   1      59.493  22.500  16.583  1.00  0.00    +0.000 F 
ENDBRANCH   45   46
BRANCH   60   61
ATOM     65  F12 UNL A   1      50.114  22.003  19.682  1.00  0.00    +0.000 F 
ATOM     66  C47 UNL A   1      50.754  24.061  18.718  1.00  0.00    +0.000 C 
ATOM     67  F13 UNL A   1      49.975  24.726  19.581  1.00  0.00    +0.000 F 
ATOM     68  C48 UNL A   1      51.482  24.754  17.762  1.00  0.00    +0.000 C 
ATOM     69  F14 UNL A   1      51.419  26.092  17.713  1.00  0.00    +0.000 F 
ATOM     70  C49 UNL A   1      52.280  24.063  16.852  1.00  0.00    +0.000 C 
ATOM     71  F15 UNL A   1      52.967  24.757  15.934  1.00  0.00    +0.000 F 
ATOM     61  C44 UNL A   1      52.383  22.665  16.899  1.00  0.00    +0.000 C 
ATOM     62  C45 UNL A   1      51.648  21.988  17.881  1.00  0.00    +0.000 C 
ATOM     63  F11 UNL A   1      51.701  20.649  17.951  1.00  0.00    +0.000 F 
ATOM     64  C46 UNL A   1      50.833  22.678  18.774  1.00  0.00    +0.000 C 
ENDBRANCH   60   61
TORSDOF 21
ENDMDL
MODEL 7
REMARK VINA RESULT:      -7.2     44.497     50.917
ROOT
ATOM     24  C20 UNL A   1      24.456  37.684  46.572  1.00  0.00    +0.000 C 
ATOM     25  C21 UNL A   1      25.846  38.223  46.390  1.00  0.00    +0.000 C 
ATOM     26  N3  UNL A   1      26.344  39.374  46.767  1.00  0.00    +0.000 N 
ATOM     27  C22 UNL A   1      27.682  39.346  46.397  1.00  0.00    +0.000 C 
ATOM     28  C23 UNL A   1      28.613  40.322  46.521  1.00  0.00    +0.000 C 
ATOM     40  C30 UNL A   1      28.355  41.622  47.081  1.00  0.00    +0.000 C 
ATOM     41  C31 UNL A   1      29.210  42.703  47.186  1.00  0.00    +0.000 C 
ATOM     42  C32 UNL A   1      28.531  43.738  47.840  1.00  0.00    +0.000 C 
ATOM     43  C33 UNL A   1      27.238  43.315  48.104  1.00  0.00    +0.000 C 
ATOM     44  N4  UNL A   1      27.144  42.014  47.636  1.00  0.00    +0.000 N 
ATOM     45  C34 UNL A   1      26.167  44.041  48.738  1.00  0.00    +0.000 C 
ATOM     57  C41 UNL A   1      24.916  43.562  48.945  1.00  0.00    +0.000 C 
ATOM     58  N5  UNL A   1      24.391  42.322  48.612  1.00  0.00    +0.000 N 
ATOM     59  C42 UNL A   1      23.149  42.332  49.027  1.00  0.00    +0.000 C 
ATOM     60  C43 UNL A   1      22.100  41.262  48.909  1.00  0.00    +0.000 C 
ATOM     72  C50 UNL A   1      22.404  40.108  48.285  1.00  0.00    +0.000 C 
ATOM     73  C51 UNL A   1      21.492  38.984  48.089  1.00  0.00    +0.000 C 
ATOM     74  C52 UNL A   1      22.147  37.993  47.464  1.00  0.00    +0.000 C 
ATOM     75  C53 UNL A   1      23.517  38.426  47.188  1.00  0.00    +0.000 C 
ATOM     76  N6  UNL A   1      23.577  39.695  47.705  1.00  0.00    +0.000 N 
ATOM     77  C54 UNL A   1      22.749  43.578  49.696  1.00  0.00    +0.000 C 
ATOM     78  C55 UNL A   1      23.852  44.306  49.587  1.00  0.00    +0.000 C 
ATOM     79  C56 UNL A   1      27.931  38.048  45.806  1.00  0.00    +0.000 C 
ATOM     80  C57 UNL A   1      26.813  37.342  45.718  1.00  0.00    +0.000 C 
ATOM    118  H25 UNL A   1      30.182  42.742  46.842  1.00  0.00    +0.000 H 
ATOM    119  H26 UNL A   1      28.925  44.660  48.083  1.00  0.00    +0.000 H 
ATOM    120  H27 UNL A   1      26.339  41.451  47.689  1.00  0.00    +0.000 H 
ATOM    121  H28 UNL A   1      20.503  38.957  48.384  1.00  0.00    +0.000 H 
ATOM    122  H29 UNL A   1      21.748  37.073  47.219  1.00  0.00    +0.000 H 
ATOM    123  H30 UNL A   1      24.386  40.256  47.664  1.00  0.00    +0.000 H 
ATOM    124  H31 UNL A   1      21.849  43.822  50.135  1.00  0.00    +0.000 H 
ATOM    125  H32 UNL A   1      23.941  45.280  49.917  1.00  0.00    +0.000 H 
ATOM    126  H33 UNL A   1      28.857  37.717  45.495  1.00  0.00    +0.000 H 
ATOM    127  H34 UNL A   1      26.661  36.415  45.292  1.00  0.00    +0.000 H 
ENDROOT
BRANCH   24   23
ATOM    129  H36 UNL A   1      24.021  33.171  47.348  1.00  0.00    +0.000 H 
ATOM     81  C58 UNL A   1      24.194  35.254  47.069  1.00  0.00    +0.000 C 
ATOM     82  C59 UNL A   1      23.905  33.949  46.679  1.00  0.00    +0.000 C 
ATOM     20  C16 UNL A   1      23.461  33.693  45.378  1.00  0.00    +0.000 C 
ATOM     21  C17 UNL A   1      23.413  34.725  44.437  1.00  0.00    +0.000 C 
ATOM    116  H23 UNL A   1      23.121  34.529  43.467  1.00  0.00    +0.000 H 
ATOM     22  C18 UNL A   1      23.762  36.024  44.814  1.00  0.00    +0.000 C 
ATOM    117  H24 UNL A   1      23.750  36.783  44.113  1.00  0.00    +0.000 H 
ATOM     23  C19 UNL A   1      24.130  36.303  46.139  1.00  0.00    +0.000 C 
ATOM    128  H35 UNL A   1      24.455  35.451  48.048  1.00  0.00    +0.000 H 
BRANCH   20   18
ATOM     18  C15 UNL A   1      23.068  32.328  44.962  1.00  0.00    +0.000 C 
ATOM     19  O2  UNL A   1      23.520  31.357  45.552  1.00  0.00    +0.000 O 
BRANCH   18   17
ATOM     17  N2  UNL A   1      22.195  32.156  43.914  1.00  0.00    +0.000 N 
ATOM    115  H22 UNL A   1      22.605  32.142  43.019  1.00  0.00    +0.000 H 
BRANCH   17   16
ATOM    113  H20 UNL A   1      20.428  31.592  43.006  1.00  0.00    +0.000 H 
ATOM    114  H21 UNL A   1      20.512  31.324  44.747  1.00  0.00    +0.000 H 
ATOM     16  C14 UNL A   1      20.751  31.988  43.945  1.00  0.00    +0.000 C 
BRANCH   16   15
ATOM    111  H18 UNL A   1      20.695  34.108  43.933  1.00  0.00    +0.000 H 
ATOM     15  C13 UNL A   1      20.031  33.311  44.195  1.00  0.00    +0.000 C 
ATOM    112  H19 UNL A   1      19.143  33.290  43.598  1.00  0.00    +0.000 H 
BRANCH   15   14
ATOM    110  H17 UNL A   1      19.956  32.694  46.198  1.00  0.00    +0.000 H 
ATOM    109  H16 UNL A   1      18.508  33.591  45.646  1.00  0.00    +0.000 H 
ATOM     14  C12 UNL A   1      19.576  33.525  45.642  1.00  0.00    +0.000 C 
BRANCH   14   13
ATOM    107  H14 UNL A   1      19.650  34.884  47.274  1.00  0.00    +0.000 H 
ATOM    108  H15 UNL A   1      21.190  34.637  46.395  1.00  0.00    +0.000 H 
ATOM     13  C11 UNL A   1      20.132  34.781  46.324  1.00  0.00    +0.000 C 
BRANCH   13   12
ATOM    105  H12 UNL A   1      20.856  36.629  45.549  1.00  0.00    +0.000 H 
ATOM    106  H13 UNL A   1      19.617  35.820  44.559  1.00  0.00    +0.000 H 
ATOM     12  C10 UNL A   1      19.932  36.089  45.546  1.00  0.00    +0.000 C 
BRANCH   12   11
ATOM     11  C9  UNL A   1      18.844  36.994  46.129  1.00  0.00    +0.000 C 
ATOM    103  H10 UNL A   1      18.731  36.781  47.172  1.00  0.00    +0.000 H 
ATOM    104  H11 UNL A   1      19.133  38.014  45.990  1.00  0.00    +0.000 H 
BRANCH   11   10
ATOM     10  N1  UNL A   1      17.579  36.768  45.455  1.00  0.00    +0.000 N 
ATOM    102  H9  UNL A   1      17.469  37.274  44.617  1.00  0.00    +0.000 H 
BRANCH   10    8
ATOM      9  O1  UNL A   1      15.838  36.265  46.761  1.00  0.00    +0.000 O 
ATOM      8  C8  UNL A   1      16.524  35.980  45.780  1.00  0.00    +0.000 C 
BRANCH    8    7
ATOM    101  H8  UNL A   1      16.219  33.855  45.570  1.00  0.00    +0.000 H 
ATOM      7  C7  UNL A   1      16.223  34.737  45.034  1.00  0.00    +0.000 C 
BRANCH    7    6
ATOM    100  H7  UNL A   1      15.606  35.506  43.244  1.00  0.00    +0.000 H 
ATOM      6  C6  UNL A   1      15.954  34.660  43.723  1.00  0.00    +0.000 C 
BRANCH    6    5
ATOM    130  H37 UNL A   1      16.836  32.294  44.567  1.00  0.00    +0.000 H 
ATOM      3  C3  UNL A   1      16.090  32.242  40.801  1.00  0.00    +0.000 C 
ATOM      4  C4  UNL A   1      15.875  33.404  41.557  1.00  0.00    +0.000 C 
ATOM      5  C5  UNL A   1      16.129  33.432  42.935  1.00  0.00    +0.000 C 
ATOM     99  H6  UNL A   1      15.522  34.255  41.089  1.00  0.00    +0.000 H 
ATOM    136  H43 UNL A   1      16.705  30.224  40.904  1.00  0.00    +0.000 H 
ATOM     83  C60 UNL A   1      16.634  32.283  43.555  1.00  0.00    +0.000 C 
ATOM     84  C61 UNL A   1      16.869  31.117  42.811  1.00  0.00    +0.000 C 
ATOM     93  C69 UNL A   1      16.570  31.094  41.443  1.00  0.00    +0.000 C 
BRANCH    3    2
ATOM     97  H4  UNL A   1      14.801  32.448  39.144  1.00  0.00    +0.000 H 
ATOM      2  C2  UNL A   1      15.837  32.240  39.314  1.00  0.00    +0.000 C 
ATOM     98  H5  UNL A   1      16.468  32.987  38.880  1.00  0.00    +0.000 H 
BRANCH    2    1
ATOM      1  C1  UNL A   1      16.180  30.913  38.657  1.00  0.00    +0.000 C 
ATOM     94  H1  UNL A   1      15.325  30.546  38.127  1.00  0.00    +0.000 H 
ATOM     95  H2  UNL A   1      16.466  30.206  39.408  1.00  0.00    +0.000 H 
ATOM     96  H3  UNL A   1      16.991  31.052  37.973  1.00  0.00    +0.000 H 
ENDBRANCH    2    1
ENDBRANCH    3    2
BRANCH   84   85
ATOM     85  C62 UNL A   1      17.414  29.923  43.516  1.00  0.00    +0.000 C 
ATOM     86  O3  UNL A   1      18.492  29.997  44.099  1.00  0.00    +0.000 O 
BRANCH   85   87
ATOM    131  H38 UNL A   1      14.890  29.500  42.796  1.00  0.00    +0.000 H 
ATOM    132  H39 UNL A   1      13.654  27.410  42.755  1.00  0.00    +0.000 H 
ATOM    133  H40 UNL A   1      14.713  25.358  43.498  1.00  0.00    +0.000 H 
ATOM    134  H41 UNL A   1      16.995  25.393  44.318  1.00  0.00    +0.000 H 
ATOM    135  H42 UNL A   1      18.239  27.480  44.360  1.00  0.00    +0.000 H 
ATOM     87  C63 UNL A   1      16.672  28.639  43.541  1.00  0.00    +0.000 C 
ATOM     88  C64 UNL A   1      15.343  28.624  43.105  1.00  0.00    +0.000 C 
ATOM     89  C65 UNL A   1      14.630  27.425  43.089  1.00  0.00    +0.000 C 
ATOM     90  C66 UNL A   1      15.238  26.246  43.522  1.00  0.00    +0.000 C 
ATOM     91  C67 UNL A   1      16.553  26.264  43.988  1.00  0.00    +0.000 C 
ATOM     92  C68 UNL A   1      17.271  27.463  44.005  1.00  0.00    +0.000 C 
ENDBRANCH   85   87
ENDBRANCH   84   85
ENDBRANCH    6    5
ENDBRANCH    7    6
ENDBRANCH    8    7
ENDBRANCH   10    8
ENDBRANCH   11   10
ENDBRANCH   12   11
ENDBRANCH   13   12
ENDBRANCH   14   13
ENDBRANCH   15   14
ENDBRANCH   16   15
ENDBRANCH   17   16
ENDBRANCH   18   17
ENDBRANCH   20   18
ENDBRANCH   24   23
BRANCH   28   29
ATOM     33  F2  UNL A   1      33.298  39.129  47.331  1.00  0.00    +0.000 F 
ATOM     34  C27 UNL A   1      32.587  39.436  45.100  1.00  0.00    +0.000 C 
ATOM     35  F3  UNL A   1      33.823  39.173  44.654  1.00  0.00    +0.000 F 
ATOM     36  C28 UNL A   1      31.577  39.749  44.202  1.00  0.00    +0.000 C 
ATOM     37  F4  UNL A   1      31.834  39.769  42.887  1.00  0.00    +0.000 F 
ATOM     38  C29 UNL A   1      30.299  40.049  44.665  1.00  0.00    +0.000 C 
ATOM     39  F5  UNL A   1      29.348  40.364  43.773  1.00  0.00    +0.000 F 
ATOM     29  C24 UNL A   1      30.001  40.018  46.036  1.00  0.00    +0.000 C 
ATOM     30  C25 UNL A   1      31.032  39.675  46.923  1.00  0.00    +0.000 C 
ATOM     31  F1  UNL A   1      30.803  39.644  48.245  1.00  0.00    +0.000 F 
ATOM     32  C26 UNL A   1      32.316  39.405  46.459  1.00  0.00    +0.000 C 
ENDBRANCH   28   29
BRANCH   45   46
ATOM     46  C35 UNL A   1      26.445  45.445  49.186  1.00  0.00    +0.000 C 
ATOM     47  C36 UNL A   1      26.081  46.551  48.403  1.00  0.00    +0.000 C 
ATOM     48  F6  UNL A   1      25.517  46.368  47.199  1.00  0.00    +0.000 F 
ATOM     49  C37 UNL A   1      26.330  47.848  48.840  1.00  0.00    +0.000 C 
ATOM     50  F7  UNL A   1      26.013  48.890  48.058  1.00  0.00    +0.000 F 
ATOM     51  C38 UNL A   1      26.918  48.066  50.077  1.00  0.00    +0.000 C 
ATOM     52  F8  UNL A   1      27.151  49.316  50.500  1.00  0.00    +0.000 F 
ATOM     53  C39 UNL A   1      27.271  46.987  50.875  1.00  0.00    +0.000 C 
ATOM     54  F9  UNL A   1      27.829  47.196  52.075  1.00  0.00    +0.000 F 
ATOM     55  C40 UNL A   1      27.047  45.688  50.429  1.00  0.00    +0.000 C 
ATOM     56  F10 UNL A   1      27.409  44.664  51.217  1.00  0.00    +0.000 F 
ENDBRANCH   45   46
BRANCH   60   61
ATOM     65  F12 UNL A   1      18.639  40.391  52.228  1.00  0.00    +0.000 F 
ATOM     66  C47 UNL A   1      18.145  41.886  50.468  1.00  0.00    +0.000 C 
ATOM     67  F13 UNL A   1      16.913  42.078  50.957  1.00  0.00    +0.000 F 
ATOM     68  C48 UNL A   1      18.541  42.532  49.307  1.00  0.00    +0.000 C 
ATOM     69  F14 UNL A   1      17.697  43.365  48.682  1.00  0.00    +0.000 F 
ATOM     70  C49 UNL A   1      19.817  42.320  48.789  1.00  0.00    +0.000 C 
ATOM     71  F15 UNL A   1      20.173  42.952  47.661  1.00  0.00    +0.000 F 
ATOM     61  C44 UNL A   1      20.729  41.474  49.437  1.00  0.00    +0.000 C 
ATOM     62  C45 UNL A   1      20.309  40.841  50.615  1.00  0.00    +0.000 C 
ATOM     63  F11 UNL A   1      21.140  40.007  51.258  1.00  0.00    +0.000 F 
ATOM     64  C46 UNL A   1      19.026  41.035  51.119  1.00  0.00    +0.000 C 
ENDBRANCH   60   61
TORSDOF 21
ENDMDL
MODEL 8
REMARK VINA RESULT:      -7.1     36.025     42.251
ROOT
ATOM     24  C20 UNL A   1      42.644  15.010  49.726  1.00  0.00    +0.000 C 
ATOM     25  C21 UNL A   1      42.684  13.842  50.671  1.00  0.00    +0.000 C 
ATOM     26  N3  UNL A   1      42.180  13.733  51.875  1.00  0.00    +0.000 N 
ATOM     27  C22 UNL A   1      42.458  12.436  52.284  1.00  0.00    +0.000 C 
ATOM     28  C23 UNL A   1      42.190  11.851  53.476  1.00  0.00    +0.000 C 
ATOM     40  C30 UNL A   1      41.545  12.514  54.577  1.00  0.00    +0.000 C 
ATOM     41  C31 UNL A   1      41.293  12.032  55.849  1.00  0.00    +0.000 C 
ATOM     42  C32 UNL A   1      40.606  13.020  56.564  1.00  0.00    +0.000 C 
ATOM     43  C33 UNL A   1      40.467  14.134  55.751  1.00  0.00    +0.000 C 
ATOM     44  N4  UNL A   1      41.045  13.808  54.534  1.00  0.00    +0.000 N 
ATOM     45  C34 UNL A   1      39.852  15.399  56.058  1.00  0.00    +0.000 C 
ATOM     57  C41 UNL A   1      39.773  16.453  55.209  1.00  0.00    +0.000 C 
ATOM     58  N5  UNL A   1      40.241  16.563  53.909  1.00  0.00    +0.000 N 
ATOM     59  C42 UNL A   1      39.914  17.767  53.507  1.00  0.00    +0.000 C 
ATOM     60  C43 UNL A   1      40.191  18.435  52.189  1.00  0.00    +0.000 C 
ATOM     72  C50 UNL A   1      40.885  17.770  51.246  1.00  0.00    +0.000 C 
ATOM     73  C51 UNL A   1      41.235  18.289  49.927  1.00  0.00    +0.000 C 
ATOM     74  C52 UNL A   1      41.892  17.339  49.243  1.00  0.00    +0.000 C 
ATOM     75  C53 UNL A   1      42.036  16.154  50.090  1.00  0.00    +0.000 C 
ATOM     76  N6  UNL A   1      41.414  16.504  51.262  1.00  0.00    +0.000 N 
ATOM     77  C54 UNL A   1      39.175  18.552  54.504  1.00  0.00    +0.000 C 
ATOM     78  C55 UNL A   1      39.147  17.719  55.536  1.00  0.00    +0.000 C 
ATOM     79  C56 UNL A   1      43.134  11.781  51.184  1.00  0.00    +0.000 C 
ATOM     80  C57 UNL A   1      43.357  12.627  50.189  1.00  0.00    +0.000 C 
ATOM    118  H25 UNL A   1      41.565  11.104  56.210  1.00  0.00    +0.000 H 
ATOM    119  H26 UNL A   1      40.262  12.935  57.533  1.00  0.00    +0.000 H 
ATOM    120  H27 UNL A   1      41.094  14.407  53.754  1.00  0.00    +0.000 H 
ATOM    121  H28 UNL A   1      41.013  19.234  49.577  1.00  0.00    +0.000 H 
ATOM    122  H29 UNL A   1      42.238  17.429  48.275  1.00  0.00    +0.000 H 
ATOM    123  H30 UNL A   1      41.353  15.903  52.040  1.00  0.00    +0.000 H 
ATOM    124  H31 UNL A   1      38.781  19.502  54.424  1.00  0.00    +0.000 H 
ATOM    125  H32 UNL A   1      38.733  17.944  56.454  1.00  0.00    +0.000 H 
ATOM    126  H33 UNL A   1      43.407  10.786  51.177  1.00  0.00    +0.000 H 
ATOM    127  H34 UNL A   1      43.868  12.473  49.306  1.00  0.00    +0.000 H 
ENDROOT
BRANCH   24   23
ATOM    129  H36 UNL A   1      42.328  13.882  45.279  1.00  0.00    +0.000 H 
ATOM     81  C58 UNL A   1      42.395  14.424  47.315  1.00  0.00    +0.000 C 
ATOM     82  C59 UNL A   1      42.911  14.286  46.030  1.00  0.00    +0.000 C 
ATOM     20  C16 UNL A   1      44.221  14.691  45.758  1.00  0.00    +0.000 C 
ATOM     21  C17 UNL A   1      45.049  15.131  46.794  1.00  0.00    +0.000 C 
ATOM    116  H23 UNL A   1      46.027  15.394  46.599  1.00  0.00    +0.000 H 
ATOM     22  C18 UNL A   1      44.548  15.211  48.095  1.00  0.00    +0.000 C 
ATOM    117  H24 UNL A   1      45.166  15.513  48.866  1.00  0.00    +0.000 H 
ATOM     23  C19 UNL A   1      43.209  14.883  48.361  1.00  0.00    +0.000 C 
ATOM    128  H35 UNL A   1      41.407  14.189  47.499  1.00  0.00    +0.000 H 
BRANCH   20   18
ATOM     18  C15 UNL A   1      44.767  14.632  44.383  1.00  0.00    +0.000 C 
ATOM     19  O2  UNL A   1      45.644  13.825  44.110  1.00  0.00    +0.000 O 
BRANCH   18   17
ATOM     17  N2  UNL A   1      44.288  15.485  43.417  1.00  0.00    +0.000 N 
ATOM    115  H22 UNL A   1      44.972  15.970  42.902  1.00  0.00    +0.000 H 
BRANCH   17   16
ATOM    113  H20 UNL A   1      42.266  15.437  43.839  1.00  0.00    +0.000 H 
ATOM    114  H21 UNL A   1      42.817  16.821  42.893  1.00  0.00    +0.000 H 
ATOM     16  C14 UNL A   1      42.909  15.767  43.051  1.00  0.00    +0.000 C 
BRANCH   16   15
ATOM    111  H18 UNL A   1      41.944  15.745  41.163  1.00  0.00    +0.000 H 
ATOM     15  C13 UNL A   1      42.508  15.059  41.759  1.00  0.00    +0.000 C 
ATOM    112  H19 UNL A   1      43.418  14.746  41.290  1.00  0.00    +0.000 H 
BRANCH   15   14
ATOM    110  H17 UNL A   1      41.394  13.462  40.981  1.00  0.00    +0.000 H 
ATOM    109  H16 UNL A   1      40.827  14.053  42.573  1.00  0.00    +0.000 H 
ATOM     14  C12 UNL A   1      41.666  13.796  41.960  1.00  0.00    +0.000 C 
BRANCH   14   13
ATOM    107  H14 UNL A   1      43.146  12.272  41.945  1.00  0.00    +0.000 H 
ATOM    108  H15 UNL A   1      42.792  12.999  43.542  1.00  0.00    +0.000 H 
ATOM     13  C11 UNL A   1      42.395  12.621  42.622  1.00  0.00    +0.000 C 
BRANCH   13   12
ATOM    105  H12 UNL A   1      40.701  11.787  43.609  1.00  0.00    +0.000 H 
ATOM    106  H13 UNL A   1      41.165  10.991  42.087  1.00  0.00    +0.000 H 
ATOM     12  C10 UNL A   1      41.506  11.429  43.001  1.00  0.00    +0.000 C 
BRANCH   12   11
ATOM     11  C9  UNL A   1      42.240  10.332  43.774  1.00  0.00    +0.000 C 
ATOM    103  H10 UNL A   1      41.523   9.668  44.210  1.00  0.00    +0.000 H 
ATOM    104  H11 UNL A   1      42.874   9.798  43.098  1.00  0.00    +0.000 H 
BRANCH   11   10
ATOM     10  N1  UNL A   1      43.056  10.909  44.826  1.00  0.00    +0.000 N 
ATOM    102  H9  UNL A   1      42.575  11.531  45.419  1.00  0.00    +0.000 H 
BRANCH   10    8
ATOM      9  O1  UNL A   1      45.140  10.326  44.271  1.00  0.00    +0.000 O 
ATOM      8  C8  UNL A   1      44.366  10.738  45.134  1.00  0.00    +0.000 C 
BRANCH    8    7
ATOM    101  H8  UNL A   1      44.284  11.503  47.149  1.00  0.00    +0.000 H 
ATOM      7  C7  UNL A   1      44.877  10.956  46.506  1.00  0.00    +0.000 C 
BRANCH    7    6
ATOM    100  H7  UNL A   1      46.820  10.350  46.320  1.00  0.00    +0.000 H 
ATOM      6  C6  UNL A   1      46.045  10.502  46.984  1.00  0.00    +0.000 C 
BRANCH    6    5
ATOM    130  H37 UNL A   1      46.082   8.121  48.174  1.00  0.00    +0.000 H 
ATOM      3  C3  UNL A   1      46.636  10.954  50.706  1.00  0.00    +0.000 C 
ATOM      4  C4  UNL A   1      46.464  11.236  49.342  1.00  0.00    +0.000 C 
ATOM      5  C5  UNL A   1      46.275  10.211  48.406  1.00  0.00    +0.000 C 
ATOM     99  H6  UNL A   1      46.477  12.218  49.023  1.00  0.00    +0.000 H 
ATOM    136  H43 UNL A   1      46.770   9.396  52.126  1.00  0.00    +0.000 H 
ATOM     83  C60 UNL A   1      46.230   8.885  48.853  1.00  0.00    +0.000 C 
ATOM     84  C61 UNL A   1      46.386   8.585  50.214  1.00  0.00    +0.000 C 
ATOM     93  C69 UNL A   1      46.615   9.619  51.130  1.00  0.00    +0.000 C 
BRANCH    3    2
ATOM     97  H4  UNL A   1      45.856  12.296  52.135  1.00  0.00    +0.000 H 
ATOM      2  C2  UNL A   1      46.810  12.073  51.702  1.00  0.00    +0.000 C 
ATOM     98  H5  UNL A   1      47.512  11.743  52.438  1.00  0.00    +0.000 H 
BRANCH    2    1
ATOM      1  C1  UNL A   1      47.366  13.341  51.075  1.00  0.00    +0.000 C 
ATOM     94  H1  UNL A   1      48.180  13.705  51.669  1.00  0.00    +0.000 H 
ATOM     95  H2  UNL A   1      46.598  14.084  51.029  1.00  0.00    +0.000 H 
ATOM     96  H3  UNL A   1      47.715  13.128  50.086  1.00  0.00    +0.000 H 
ENDBRANCH    2    1
ENDBRANCH    3    2
BRANCH   84   85
ATOM     85  C62 UNL A   1      46.323   7.159  50.639  1.00  0.00    +0.000 C 
ATOM     86  O3  UNL A   1      47.359   6.547  50.882  1.00  0.00    +0.000 O 
BRANCH   85   87
ATOM    131  H38 UNL A   1      43.897   8.120  50.129  1.00  0.00    +0.000 H 
ATOM    132  H39 UNL A   1      41.752   6.993  50.296  1.00  0.00    +0.000 H 
ATOM    133  H40 UNL A   1      41.643   4.699  51.076  1.00  0.00    +0.000 H 
ATOM    134  H41 UNL A   1      43.671   3.536  51.726  1.00  0.00    +0.000 H 
ATOM    135  H42 UNL A   1      45.820   4.656  51.559  1.00  0.00    +0.000 H 
ATOM     87  C63 UNL A   1      45.024   6.459  50.791  1.00  0.00    +0.000 C 
ATOM     88  C64 UNL A   1      43.851   7.141  50.454  1.00  0.00    +0.000 C 
ATOM     89  C65 UNL A   1      42.617   6.496  50.557  1.00  0.00    +0.000 C 
ATOM     90  C66 UNL A   1      42.555   5.178  51.012  1.00  0.00    +0.000 C 
ATOM     91  C67 UNL A   1      43.722   4.506  51.379  1.00  0.00    +0.000 C 
ATOM     92  C68 UNL A   1      44.959   5.147  51.277  1.00  0.00    +0.000 C 
ENDBRANCH   85   87
ENDBRANCH   84   85
ENDBRANCH    6    5
ENDBRANCH    7    6
ENDBRANCH    8    7
ENDBRANCH   10    8
ENDBRANCH   11   10
ENDBRANCH   12   11
ENDBRANCH   13   12
ENDBRANCH   14   13
ENDBRANCH   15   14
ENDBRANCH   16   15
ENDBRANCH   17   16
ENDBRANCH   18   17
ENDBRANCH   20   18
ENDBRANCH   24   23
BRANCH   28   29
ATOM     33  F2  UNL A   1      41.182   7.054  53.533  1.00  0.00    +0.000 F 
ATOM     34  C27 UNL A   1      43.400   7.741  53.962  1.00  0.00    +0.000 C 
ATOM     35  F3  UNL A   1      43.779   6.465  54.125  1.00  0.00    +0.000 F 
ATOM     36  C28 UNL A   1      44.325   8.764  54.111  1.00  0.00    +0.000 C 
ATOM     37  F4  UNL A   1      45.602   8.475  54.400  1.00  0.00    +0.000 F 
ATOM     38  C29 UNL A   1      43.928  10.090  53.968  1.00  0.00    +0.000 C 
ATOM     39  F5  UNL A   1      44.842  11.058  54.136  1.00  0.00    +0.000 F 
ATOM     29  C24 UNL A   1      42.601  10.417  53.650  1.00  0.00    +0.000 C 
ATOM     30  C25 UNL A   1      41.689   9.365  53.479  1.00  0.00    +0.000 C 
ATOM     31  F1  UNL A   1      40.406   9.624  53.186  1.00  0.00    +0.000 F 
ATOM     32  C26 UNL A   1      42.083   8.041  53.652  1.00  0.00    +0.000 C 
ENDBRANCH   28   29
BRANCH   45   46
ATOM     46  C35 UNL A   1      39.273  15.580  57.430  1.00  0.00    +0.000 C 
ATOM     47  C36 UNL A   1      40.010  16.172  58.465  1.00  0.00    +0.000 C 
ATOM     48  F6  UNL A   1      41.282  16.546  58.260  1.00  0.00    +0.000 F 
ATOM     49  C37 UNL A   1      39.453  16.348  59.728  1.00  0.00    +0.000 C 
ATOM     50  F7  UNL A   1      40.188  16.877  60.716  1.00  0.00    +0.000 F 
ATOM     51  C38 UNL A   1      38.142  15.965  59.972  1.00  0.00    +0.000 C 
ATOM     52  F8  UNL A   1      37.605  16.140  61.186  1.00  0.00    +0.000 F 
ATOM     53  C39 UNL A   1      37.390  15.392  58.956  1.00  0.00    +0.000 C 
ATOM     54  F9  UNL A   1      36.120  15.030  59.187  1.00  0.00    +0.000 F 
ATOM     55  C40 UNL A   1      37.953  15.190  57.699  1.00  0.00    +0.000 C 
ATOM     56  F10 UNL A   1      37.205  14.624  56.740  1.00  0.00    +0.000 F 
ENDBRANCH   45   46
BRANCH   60   61
ATOM     65  F12 UNL A   1      36.827  21.602  50.638  1.00  0.00    +0.000 F 
ATOM     66  C47 UNL A   1      38.869  22.458  51.458  1.00  0.00    +0.000 C 
ATOM     67  F13 UNL A   1      38.454  23.710  51.229  1.00  0.00    +0.000 F 
ATOM     68  C48 UNL A   1      40.132  22.229  51.983  1.00  0.00    +0.000 C 
ATOM     69  F14 UNL A   1      40.932  23.263  52.278  1.00  0.00    +0.000 F 
ATOM     70  C49 UNL A   1      40.571  20.925  52.206  1.00  0.00    +0.000 C 
ATOM     71  F15 UNL A   1      41.800  20.731  52.707  1.00  0.00    +0.000 F 
ATOM     61  C44 UNL A   1      39.744  19.827  51.930  1.00  0.00    +0.000 C 
ATOM     62  C45 UNL A   1      38.468  20.084  51.411  1.00  0.00    +0.000 C 
ATOM     63  F11 UNL A   1      37.650  19.064  51.113  1.00  0.00    +0.000 F 
ATOM     64  C46 UNL A   1      38.039  21.385  51.166  1.00  0.00    +0.000 C 
ENDBRANCH   60   61
TORSDOF 21
ENDMDL
MODEL 9
REMARK VINA RESULT:      -7.0     43.328     50.742
ROOT
ATOM     24  C20 UNL A   1      25.899  38.286  49.959  1.00  0.00    +0.000 C 
ATOM     25  C21 UNL A   1      26.479  37.375  48.915  1.00  0.00    +0.000 C 
ATOM     26  N3  UNL A   1      25.866  36.560  48.093  1.00  0.00    +0.000 N 
ATOM     27  C22 UNL A   1      26.863  35.995  47.308  1.00  0.00    +0.000 C 
ATOM     28  C23 UNL A   1      26.746  35.050  46.346  1.00  0.00    +0.000 C 
ATOM     40  C30 UNL A   1      25.504  34.436  45.961  1.00  0.00    +0.000 C 
ATOM     41  C31 UNL A   1      25.289  33.419  45.048  1.00  0.00    +0.000 C 
ATOM     42  C32 UNL A   1      23.911  33.181  44.973  1.00  0.00    +0.000 C 
ATOM     43  C33 UNL A   1      23.272  34.021  45.871  1.00  0.00    +0.000 C 
ATOM     44  N4  UNL A   1      24.260  34.788  46.467  1.00  0.00    +0.000 N 
ATOM     45  C34 UNL A   1      21.865  34.121  46.162  1.00  0.00    +0.000 C 
ATOM     57  C41 UNL A   1      21.315  34.961  47.073  1.00  0.00    +0.000 C 
ATOM     58  N5  UNL A   1      21.942  35.878  47.904  1.00  0.00    +0.000 N 
ATOM     59  C42 UNL A   1      20.987  36.455  48.591  1.00  0.00    +0.000 C 
ATOM     60  C43 UNL A   1      21.090  37.510  49.656  1.00  0.00    +0.000 C 
ATOM     72  C50 UNL A   1      22.305  37.962  50.021  1.00  0.00    +0.000 C 
ATOM     73  C51 UNL A   1      22.561  38.976  51.040  1.00  0.00    +0.000 C 
ATOM     74  C52 UNL A   1      23.883  39.203  51.107  1.00  0.00    +0.000 C 
ATOM     75  C53 UNL A   1      24.568  38.327  50.157  1.00  0.00    +0.000 C 
ATOM     76  N6  UNL A   1      23.553  37.622  49.562  1.00  0.00    +0.000 N 
ATOM     77  C54 UNL A   1      19.637  35.984  48.255  1.00  0.00    +0.000 C 
ATOM     78  C55 UNL A   1      19.896  35.048  47.351  1.00  0.00    +0.000 C 
ATOM     79  C56 UNL A   1      28.116  36.594  47.720  1.00  0.00    +0.000 C 
ATOM     80  C57 UNL A   1      27.941  37.404  48.754  1.00  0.00    +0.000 C 
ATOM    118  H25 UNL A   1      26.017  32.920  44.514  1.00  0.00    +0.000 H 
ATOM    119  H26 UNL A   1      23.450  32.496  44.356  1.00  0.00    +0.000 H 
ATOM    120  H27 UNL A   1      24.104  35.480  47.149  1.00  0.00    +0.000 H 
ATOM    121  H28 UNL A   1      21.843  39.442  51.615  1.00  0.00    +0.000 H 
ATOM    122  H29 UNL A   1      24.342  39.887  51.730  1.00  0.00    +0.000 H 
ATOM    123  H30 UNL A   1      23.705  36.938  48.870  1.00  0.00    +0.000 H 
ATOM    124  H31 UNL A   1      18.726  36.298  48.624  1.00  0.00    +0.000 H 
ATOM    125  H32 UNL A   1      19.177  34.459  46.902  1.00  0.00    +0.000 H 
ATOM    126  H33 UNL A   1      29.025  36.412  47.268  1.00  0.00    +0.000 H 
ATOM    127  H34 UNL A   1      28.645  37.921  49.302  1.00  0.00    +0.000 H 
ENDROOT
BRANCH   24   23
ATOM    129  H36 UNL A   1      28.270  42.197  50.445  1.00  0.00    +0.000 H 
ATOM     81  C58 UNL A   1      27.125  40.446  50.180  1.00  0.00    +0.000 C 
ATOM     82  C59 UNL A   1      27.963  41.312  50.878  1.00  0.00    +0.000 C 
ATOM     20  C16 UNL A   1      28.391  40.979  52.167  1.00  0.00    +0.000 C 
ATOM     21  C17 UNL A   1      28.073  39.732  52.712  1.00  0.00    +0.000 C 
ATOM    116  H23 UNL A   1      28.421  39.471  53.647  1.00  0.00    +0.000 H 
ATOM     22  C18 UNL A   1      27.283  38.838  51.985  1.00  0.00    +0.000 C 
ATOM    117  H24 UNL A   1      27.066  37.908  52.377  1.00  0.00    +0.000 H 
ATOM     23  C19 UNL A   1      26.781  39.200  50.725  1.00  0.00    +0.000 C 
ATOM    128  H35 UNL A   1      26.754  40.724  49.258  1.00  0.00    +0.000 H 
BRANCH   20   18
ATOM     18  C15 UNL A   1      29.215  41.917  52.963  1.00  0.00    +0.000 C 
ATOM     19  O2  UNL A   1      30.310  41.565  53.376  1.00  0.00    +0.000 O 
BRANCH   18   17
ATOM     17  N2  UNL A   1      28.745  43.180  53.234  1.00  0.00    +0.000 N 
ATOM    115  H22 UNL A   1      28.087  43.240  53.964  1.00  0.00    +0.000 H 
BRANCH   17   16
ATOM    113  H20 UNL A   1      29.694  45.014  53.260  1.00  0.00    +0.000 H 
ATOM    114  H21 UNL A   1      29.612  44.219  51.688  1.00  0.00    +0.000 H 
ATOM     16  C14 UNL A   1      29.088  44.439  52.593  1.00  0.00    +0.000 C 
BRANCH   16   15
ATOM    111  H18 UNL A   1      27.348  45.519  53.142  1.00  0.00    +0.000 H 
ATOM     15  C13 UNL A   1      27.845  45.251  52.234  1.00  0.00    +0.000 C 
ATOM    112  H19 UNL A   1      28.187  46.098  51.677  1.00  0.00    +0.000 H 
BRANCH   15   14
ATOM    110  H17 UNL A   1      25.881  44.919  51.578  1.00  0.00    +0.000 H 
ATOM    109  H16 UNL A   1      26.929  43.469  51.536  1.00  0.00    +0.000 H 
ATOM     14  C12 UNL A   1      26.842  44.517  51.339  1.00  0.00    +0.000 C 
BRANCH   14   13
ATOM    107  H14 UNL A   1      28.073  44.886  49.646  1.00  0.00    +0.000 H 
ATOM    108  H15 UNL A   1      26.634  43.861  49.355  1.00  0.00    +0.000 H 
ATOM     13  C11 UNL A   1      27.030  44.734  49.832  1.00  0.00    +0.000 C 
BRANCH   13   12
ATOM    105  H12 UNL A   1      26.798  46.822  49.478  1.00  0.00    +0.000 H 
ATOM    106  H13 UNL A   1      26.189  45.758  48.188  1.00  0.00    +0.000 H 
ATOM     12  C10 UNL A   1      26.264  45.926  49.243  1.00  0.00    +0.000 C 
BRANCH   12   11
ATOM     11  C9  UNL A   1      24.835  46.064  49.773  1.00  0.00    +0.000 C 
ATOM    103  H10 UNL A   1      24.653  45.297  50.497  1.00  0.00    +0.000 H 
ATOM    104  H11 UNL A   1      24.725  47.029  50.222  1.00  0.00    +0.000 H 
BRANCH   11   10
ATOM     10  N1  UNL A   1      23.876  45.938  48.692  1.00  0.00    +0.000 N 
ATOM    102  H9  UNL A   1      23.207  46.660  48.656  1.00  0.00    +0.000 H 
BRANCH   10    8
ATOM      9  O1  UNL A   1      23.856  45.328  46.543  1.00  0.00    +0.000 O 
ATOM      8  C8  UNL A   1      23.743  44.998  47.723  1.00  0.00    +0.000 C 
BRANCH    8    7
ATOM    101  H8  UNL A   1      22.392  43.330  47.933  1.00  0.00    +0.000 H 
ATOM      7  C7  UNL A   1      23.382  43.598  48.041  1.00  0.00    +0.000 C 
BRANCH    7    6
ATOM    100  H7  UNL A   1      24.606  42.714  49.418  1.00  0.00    +0.000 H 
ATOM      6  C6  UNL A   1      24.233  42.650  48.458  1.00  0.00    +0.000 C 
BRANCH    6    5
ATOM    130  H37 UNL A   1      26.544  42.368  47.165  1.00  0.00    +0.000 H 
ATOM      3  C3  UNL A   1      24.210  39.388  46.516  1.00  0.00    +0.000 C 
ATOM      4  C4  UNL A   1      23.813  40.438  47.359  1.00  0.00    +0.000 C 
ATOM      5  C5  UNL A   1      24.661  41.523  47.616  1.00  0.00    +0.000 C 
ATOM     99  H6  UNL A   1      22.879  40.408  47.798  1.00  0.00    +0.000 H 
ATOM    136  H43 UNL A   1      25.793  38.658  45.323  1.00  0.00    +0.000 H 
ATOM     83  C60 UNL A   1      25.914  41.568  46.992  1.00  0.00    +0.000 C 
ATOM     84  C61 UNL A   1      26.320  40.536  46.135  1.00  0.00    +0.000 C 
ATOM     93  C69 UNL A   1      25.478  39.438  45.922  1.00  0.00    +0.000 C 
BRANCH    3    2
ATOM     97  H4  UNL A   1      23.786  37.324  46.425  1.00  0.00    +0.000 H 
ATOM      2  C2  UNL A   1      23.272  38.242  46.229  1.00  0.00    +0.000 C 
ATOM     98  H5  UNL A   1      22.417  38.361  46.861  1.00  0.00    +0.000 H 
BRANCH    2    1
ATOM      1  C1  UNL A   1      22.780  38.226  44.791  1.00  0.00    +0.000 C 
ATOM     94  H1  UNL A   1      22.172  39.089  44.613  1.00  0.00    +0.000 H 
ATOM     95  H2  UNL A   1      22.203  37.341  44.621  1.00  0.00    +0.000 H 
ATOM     96  H3  UNL A   1      23.619  38.238  44.127  1.00  0.00    +0.000 H 
ENDBRANCH    2    1
ENDBRANCH    3    2
BRANCH   84   85
ATOM     85  C62 UNL A   1      27.660  40.634  45.490  1.00  0.00    +0.000 C 
ATOM     86  O3  UNL A   1      27.769  41.155  44.384  1.00  0.00    +0.000 O 
BRANCH   85   87
ATOM    131  H38 UNL A   1      29.202  38.606  44.730  1.00  0.00    +0.000 H 
ATOM    132  H39 UNL A   1      31.238  37.778  45.762  1.00  0.00    +0.000 H 
ATOM    133  H40 UNL A   1      32.069  38.799  47.800  1.00  0.00    +0.000 H 
ATOM    134  H41 UNL A   1      30.849  40.624  48.832  1.00  0.00    +0.000 H 
ATOM    135  H42 UNL A   1      28.813  41.459  47.804  1.00  0.00    +0.000 H 
ATOM     87  C63 UNL A   1      28.878  40.123  46.165  1.00  0.00    +0.000 C 
ATOM     88  C64 UNL A   1      29.561  39.045  45.593  1.00  0.00    +0.000 C 
ATOM     89  C65 UNL A   1      30.726  38.564  46.190  1.00  0.00    +0.000 C 
ATOM     90  C66 UNL A   1      31.200  39.148  47.366  1.00  0.00    +0.000 C 
ATOM     91  C67 UNL A   1      30.502  40.202  47.957  1.00  0.00    +0.000 C 
ATOM     92  C68 UNL A   1      29.335  40.688  47.362  1.00  0.00    +0.000 C 
ENDBRANCH   85   87
ENDBRANCH   84   85
ENDBRANCH    6    5
ENDBRANCH    7    6
ENDBRANCH    8    7
ENDBRANCH   10    8
ENDBRANCH   11   10
ENDBRANCH   12   11
ENDBRANCH   13   12
ENDBRANCH   14   13
ENDBRANCH   15   14
ENDBRANCH   16   15
ENDBRANCH   17   16
ENDBRANCH   18   17
ENDBRANCH   20   18
ENDBRANCH   24   23
BRANCH   28   29
ATOM     33  F2  UNL A   1      29.958  35.392  42.660  1.00  0.00    +0.000 F 
ATOM     34  C27 UNL A   1      30.366  33.806  44.360  1.00  0.00    +0.000 C 
ATOM     35  F3  UNL A   1      31.487  33.408  43.741  1.00  0.00    +0.000 F 
ATOM     36  C28 UNL A   1      29.973  33.197  45.543  1.00  0.00    +0.000 C 
ATOM     37  F4  UNL A   1      30.725  32.223  46.076  1.00  0.00    +0.000 F 
ATOM     38  C29 UNL A   1      28.796  33.591  46.174  1.00  0.00    +0.000 C 
ATOM     39  F5  UNL A   1      28.434  32.971  47.307  1.00  0.00    +0.000 F 
ATOM     29  C24 UNL A   1      28.002  34.619  45.644  1.00  0.00    +0.000 C 
ATOM     30  C25 UNL A   1      28.432  35.237  44.461  1.00  0.00    +0.000 C 
ATOM     31  F1  UNL A   1      27.702  36.217  43.906  1.00  0.00    +0.000 F 
ATOM     32  C26 UNL A   1      29.594  34.821  43.817  1.00  0.00    +0.000 C 
ENDBRANCH   28   29
BRANCH   45   46
ATOM     46  C35 UNL A   1      20.932  33.212  45.419  1.00  0.00    +0.000 C 
ATOM     47  C36 UNL A   1      20.758  31.872  45.796  1.00  0.00    +0.000 C 
ATOM     48  F6  UNL A   1      21.472  31.358  46.809  1.00  0.00    +0.000 F 
ATOM     49  C37 UNL A   1      19.875  31.045  45.107  1.00  0.00    +0.000 C 
ATOM     50  F7  UNL A   1      19.755  29.757  45.456  1.00  0.00    +0.000 F 
ATOM     51  C38 UNL A   1      19.130  31.548  44.050  1.00  0.00    +0.000 C 
ATOM     52  F8  UNL A   1      18.276  30.752  43.392  1.00  0.00    +0.000 F 
ATOM     53  C39 UNL A   1      19.274  32.875  43.672  1.00  0.00    +0.000 C 
ATOM     54  F9  UNL A   1      18.546  33.365  42.658  1.00  0.00    +0.000 F 
ATOM     55  C40 UNL A   1      20.175  33.697  44.342  1.00  0.00    +0.000 C 
ATOM     56  F10 UNL A   1      20.302  34.973  43.946  1.00  0.00    +0.000 F 
ENDBRANCH   45   46
BRANCH   60   61
ATOM     65  F12 UNL A   1      17.766  37.255  53.211  1.00  0.00    +0.000 F 
ATOM     66  C47 UNL A   1      17.597  39.020  51.652  1.00  0.00    +0.000 C 
ATOM     67  F13 UNL A   1      16.509  39.489  52.277  1.00  0.00    +0.000 F 
ATOM     68  C48 UNL A   1      18.079  39.661  50.520  1.00  0.00    +0.000 C 
ATOM     69  F14 UNL A   1      17.466  40.761  50.061  1.00  0.00    +0.000 F 
ATOM     70  C49 UNL A   1      19.202  39.165  49.860  1.00  0.00    +0.000 C 
ATOM     71  F15 UNL A   1      19.643  39.800  48.765  1.00  0.00    +0.000 F 
ATOM     61  C44 UNL A   1      19.877  38.031  50.335  1.00  0.00    +0.000 C 
ATOM     62  C45 UNL A   1      19.377  37.408  51.487  1.00  0.00    +0.000 C 
ATOM     63  F11 UNL A   1      19.979  36.309  51.965  1.00  0.00    +0.000 F 
ATOM     64  C46 UNL A   1      18.242  37.890  52.131  1.00  0.00    +0.000 C 
ENDBRANCH   60   61
TORSDOF 21
ENDMDL
MODEL 10
REMARK VINA RESULT:      -7.0     48.034     52.931
ROOT
ATOM     24  C20 UNL A   1      13.640  53.643   5.423  1.00  0.00    +0.000 C 
ATOM     25  C21 UNL A   1      13.244  52.193   5.403  1.00  0.00    +0.000 C 
ATOM     26  N3  UNL A   1      13.629  51.240   4.591  1.00  0.00    +0.000 N 
ATOM     27  C22 UNL A   1      13.003  50.086   5.041  1.00  0.00    +0.000 C 
ATOM     28  C23 UNL A   1      13.038  48.843   4.505  1.00  0.00    +0.000 C 
ATOM     40  C30 UNL A   1      13.764  48.495   3.313  1.00  0.00    +0.000 C 
ATOM     41  C31 UNL A   1      13.807  47.282   2.650  1.00  0.00    +0.000 C 
ATOM     42  C32 UNL A   1      14.681  47.407   1.563  1.00  0.00    +0.000 C 
ATOM     43  C33 UNL A   1      15.150  48.710   1.526  1.00  0.00    +0.000 C 
ATOM     44  N4  UNL A   1      14.583  49.366   2.607  1.00  0.00    +0.000 N 
ATOM     45  C34 UNL A   1      16.051  49.313   0.577  1.00  0.00    +0.000 C 
ATOM     57  C41 UNL A   1      16.451  50.608   0.597  1.00  0.00    +0.000 C 
ATOM     58  N5  UNL A   1      16.105  51.614   1.488  1.00  0.00    +0.000 N 
ATOM     59  C42 UNL A   1      16.756  52.682   1.097  1.00  0.00    +0.000 C 
ATOM     60  C43 UNL A   1      16.740  54.068   1.678  1.00  0.00    +0.000 C 
ATOM     72  C50 UNL A   1      15.957  54.328   2.742  1.00  0.00    +0.000 C 
ATOM     73  C51 UNL A   1      15.832  55.621   3.408  1.00  0.00    +0.000 C 
ATOM     74  C52 UNL A   1      14.995  55.497   4.451  1.00  0.00    +0.000 C 
ATOM     75  C53 UNL A   1      14.500  54.122   4.505  1.00  0.00    +0.000 C 
ATOM     76  N6  UNL A   1      15.119  53.502   3.449  1.00  0.00    +0.000 N 
ATOM     77  C54 UNL A   1      17.611  52.468  -0.079  1.00  0.00    +0.000 C 
ATOM     78  C55 UNL A   1      17.360  51.197  -0.365  1.00  0.00    +0.000 C 
ATOM     79  C56 UNL A   1      12.248  50.447   6.223  1.00  0.00    +0.000 C 
ATOM     80  C57 UNL A   1      12.311  51.750   6.450  1.00  0.00    +0.000 C 
ATOM    118  H25 UNL A   1      13.284  46.431   2.909  1.00  0.00    +0.000 H 
ATOM    119  H26 UNL A   1      14.932  46.656   0.902  1.00  0.00    +0.000 H 
ATOM    120  H27 UNL A   1      14.737  50.309   2.840  1.00  0.00    +0.000 H 
ATOM    121  H28 UNL A   1      16.311  56.490   3.124  1.00  0.00    +0.000 H 
ATOM    122  H29 UNL A   1      14.743  56.252   5.108  1.00  0.00    +0.000 H 
ATOM    123  H30 UNL A   1      14.976  52.554   3.221  1.00  0.00    +0.000 H 
ATOM    124  H31 UNL A   1      18.240  53.131  -0.556  1.00  0.00    +0.000 H 
ATOM    125  H32 UNL A   1      17.763  50.692  -1.170  1.00  0.00    +0.000 H 
ATOM    126  H33 UNL A   1      11.729  49.776   6.810  1.00  0.00    +0.000 H 
ATOM    127  H34 UNL A   1      11.832  52.309   7.173  1.00  0.00    +0.000 H 
ENDROOT
BRANCH   24   23
ATOM    129  H36 UNL A   1      10.502  56.468   7.245  1.00  0.00    +0.000 H 
ATOM     81  C58 UNL A   1      11.879  55.128   6.378  1.00  0.00    +0.000 C 
ATOM     82  C59 UNL A   1      11.403  55.980   7.370  1.00  0.00    +0.000 C 
ATOM     20  C16 UNL A   1      12.148  56.175   8.537  1.00  0.00    +0.000 C 
ATOM     21  C17 UNL A   1      13.419  55.607   8.662  1.00  0.00    +0.000 C 
ATOM    116  H23 UNL A   1      13.984  55.783   9.507  1.00  0.00    +0.000 H 
ATOM     22  C18 UNL A   1      13.922  54.802   7.637  1.00  0.00    +0.000 C 
ATOM    117  H24 UNL A   1      14.870  54.401   7.718  1.00  0.00    +0.000 H 
ATOM     23  C19 UNL A   1      13.145  54.536   6.499  1.00  0.00    +0.000 C 
ATOM    128  H35 UNL A   1      11.298  54.931   5.548  1.00  0.00    +0.000 H 
BRANCH   20   18
ATOM     18  C15 UNL A   1      11.627  57.009   9.644  1.00  0.00    +0.000 C 
ATOM     19  O2  UNL A   1      11.476  58.212   9.481  1.00  0.00    +0.000 O 
BRANCH   18   17
ATOM     17  N2  UNL A   1      11.313  56.430  10.850  1.00  0.00    +0.000 N 
ATOM    115  H22 UNL A   1      11.836  56.748  11.621  1.00  0.00    +0.000 H 
BRANCH   17   16
ATOM    113  H20 UNL A   1      10.165  55.372  12.202  1.00  0.00    +0.000 H 
ATOM    114  H21 UNL A   1       9.413  55.679  10.635  1.00  0.00    +0.000 H 
ATOM     16  C14 UNL A   1      10.316  55.414  11.144  1.00  0.00    +0.000 C 
BRANCH   16   15
ATOM    111  H18 UNL A   1       9.873  53.427  10.552  1.00  0.00    +0.000 H 
ATOM     15  C13 UNL A   1      10.748  54.034  10.653  1.00  0.00    +0.000 C 
ATOM    112  H19 UNL A   1      11.260  54.189   9.726  1.00  0.00    +0.000 H 
BRANCH   15   14
ATOM    110  H17 UNL A   1      11.191  52.484  11.993  1.00  0.00    +0.000 H 
ATOM    109  H16 UNL A   1      12.073  54.009  12.309  1.00  0.00    +0.000 H 
ATOM     14  C12 UNL A   1      11.730  53.308  11.577  1.00  0.00    +0.000 C 
BRANCH   14   13
ATOM    107  H14 UNL A   1      12.966  51.654  11.077  1.00  0.00    +0.000 H 
ATOM    108  H15 UNL A   1      12.861  52.949   9.845  1.00  0.00    +0.000 H 
ATOM     13  C11 UNL A   1      12.958  52.707  10.883  1.00  0.00    +0.000 C 
BRANCH   13   12
ATOM    105  H12 UNL A   1      14.826  53.643  10.466  1.00  0.00    +0.000 H 
ATOM    106  H13 UNL A   1      14.098  54.060  12.036  1.00  0.00    +0.000 H 
ATOM     12  C10 UNL A   1      14.309  53.283  11.331  1.00  0.00    +0.000 C 
BRANCH   12   11
ATOM     11  C9  UNL A   1      15.207  52.268  12.041  1.00  0.00    +0.000 C 
ATOM    103  H10 UNL A   1      15.847  52.785  12.727  1.00  0.00    +0.000 H 
ATOM    104  H11 UNL A   1      14.591  51.569  12.566  1.00  0.00    +0.000 H 
BRANCH   11   10
ATOM     10  N1  UNL A   1      16.021  51.548  11.080  1.00  0.00    +0.000 N 
ATOM    102  H9  UNL A   1      16.190  52.038  10.242  1.00  0.00    +0.000 H 
BRANCH   10    8
ATOM      9  O1  UNL A   1      17.704  50.190  11.639  1.00  0.00    +0.000 O 
ATOM      8  C8  UNL A   1      16.589  50.317  11.136  1.00  0.00    +0.000 C 
BRANCH    8    7
ATOM    101  H8  UNL A   1      16.395  48.218  10.679  1.00  0.00    +0.000 H 
ATOM      7  C7  UNL A   1      15.938  49.132  10.534  1.00  0.00    +0.000 C 
BRANCH    7    6
ATOM    100  H7  UNL A   1      14.878  49.225   8.789  1.00  0.00    +0.000 H 
ATOM      6  C6  UNL A   1      14.806  49.145   9.815  1.00  0.00    +0.000 C 
BRANCH    6    5
ATOM    130  H37 UNL A   1      12.502  48.621   8.589  1.00  0.00    +0.000 H 
ATOM      3  C3  UNL A   1      11.974  49.249  12.340  1.00  0.00    +0.000 C 
ATOM      4  C4  UNL A   1      13.260  49.294  11.781  1.00  0.00    +0.000 C 
ATOM      5  C5  UNL A   1      13.468  49.051  10.417  1.00  0.00    +0.000 C 
ATOM     99  H6  UNL A   1      14.068  49.508  12.387  1.00  0.00    +0.000 H 
ATOM    136  H43 UNL A   1       9.935  48.896  11.914  1.00  0.00    +0.000 H 
ATOM     83  C60 UNL A   1      12.363  48.790   9.598  1.00  0.00    +0.000 C 
ATOM     84  C61 UNL A   1      11.069  48.757  10.137  1.00  0.00    +0.000 C 
ATOM     93  C69 UNL A   1      10.883  48.960  11.510  1.00  0.00    +0.000 C 
BRANCH    3    2
ATOM     97  H4  UNL A   1      10.807  49.997  13.931  1.00  0.00    +0.000 H 
ATOM      2  C2  UNL A   1      11.767  49.541  13.805  1.00  0.00    +0.000 C 
ATOM     98  H5  UNL A   1      11.836  48.612  14.331  1.00  0.00    +0.000 H 
BRANCH    2    1
ATOM      1  C1  UNL A   1      12.825  50.469  14.378  1.00  0.00    +0.000 C 
ATOM     94  H1  UNL A   1      13.725  49.918  14.557  1.00  0.00    +0.000 H 
ATOM     95  H2  UNL A   1      12.474  50.887  15.299  1.00  0.00    +0.000 H 
ATOM     96  H3  UNL A   1      13.023  51.258  13.683  1.00  0.00    +0.000 H 
ENDBRANCH    2    1
ENDBRANCH    3    2
BRANCH   84   85
ATOM     85  C62 UNL A   1       9.925  48.482   9.223  1.00  0.00    +0.000 C 
ATOM     86  O3  UNL A   1       9.397  47.374   9.221  1.00  0.00    +0.000 O 
BRANCH   85   87
ATOM    131  H38 UNL A   1       9.740  51.091   9.699  1.00  0.00    +0.000 H 
ATOM    132  H39 UNL A   1       8.947  52.850   8.224  1.00  0.00    +0.000 H 
ATOM    133  H40 UNL A   1       8.126  52.300   6.009  1.00  0.00    +0.000 H 
ATOM    134  H41 UNL A   1       8.059  49.989   5.274  1.00  0.00    +0.000 H 
ATOM    135  H42 UNL A   1       8.853  48.224   6.743  1.00  0.00    +0.000 H 
ATOM     87  C63 UNL A   1       9.397  49.530   8.316  1.00  0.00    +0.000 C 
ATOM     88  C64 UNL A   1       9.397  50.858   8.753  1.00  0.00    +0.000 C 
ATOM     89  C65 UNL A   1       8.935  51.868   7.908  1.00  0.00    +0.000 C 
ATOM     90  C66 UNL A   1       8.457  51.550   6.636  1.00  0.00    +0.000 C 
ATOM     91  C67 UNL A   1       8.425  50.221   6.211  1.00  0.00    +0.000 C 
ATOM     92  C68 UNL A   1       8.887  49.207   7.052  1.00  0.00    +0.000 C 
ENDBRANCH   85   87
ENDBRANCH   84   85
ENDBRANCH    6    5
ENDBRANCH    7    6
ENDBRANCH    8    7
ENDBRANCH   10    8
ENDBRANCH   11   10
ENDBRANCH   12   11
ENDBRANCH   13   12
ENDBRANCH   14   13
ENDBRANCH   15   14
ENDBRANCH   16   15
ENDBRANCH   17   16
ENDBRANCH   18   17
ENDBRANCH   20   18
ENDBRANCH   24   23
BRANCH   28   29
ATOM     33  F2  UNL A   1       9.084  45.982   4.965  1.00  0.00    +0.000 F 
ATOM     34  C27 UNL A   1      10.837  45.734   6.527  1.00  0.00    +0.000 C 
ATOM     35  F3  UNL A   1      10.152  44.775   7.165  1.00  0.00    +0.000 F 
ATOM     36  C28 UNL A   1      12.083  46.126   6.994  1.00  0.00    +0.000 C 
ATOM     37  F4  UNL A   1      12.609  45.531   8.075  1.00  0.00    +0.000 F 
ATOM     38  C29 UNL A   1      12.785  47.140   6.348  1.00  0.00    +0.000 C 
ATOM     39  F5  UNL A   1      13.979  47.508   6.835  1.00  0.00    +0.000 F 
ATOM     29  C24 UNL A   1      12.262  47.765   5.206  1.00  0.00    +0.000 C 
ATOM     30  C25 UNL A   1      11.012  47.336   4.737  1.00  0.00    +0.000 C 
ATOM     31  F1  UNL A   1      10.462  47.909   3.656  1.00  0.00    +0.000 F 
ATOM     32  C26 UNL A   1      10.300  46.341   5.403  1.00  0.00    +0.000 C 
ENDBRANCH   28   29
BRANCH   45   46
ATOM     46  C35 UNL A   1      16.574  48.452  -0.534  1.00  0.00    +0.000 C 
ATOM     47  C36 UNL A   1      17.857  47.888  -0.484  1.00  0.00    +0.000 C 
ATOM     48  F6  UNL A   1      18.671  48.154   0.549  1.00  0.00    +0.000 F 
ATOM     49  C37 UNL A   1      18.321  47.078  -1.516  1.00  0.00    +0.000 C 
ATOM     50  F7  UNL A   1      19.566  46.583  -1.469  1.00  0.00    +0.000 F 
ATOM     51  C38 UNL A   1      17.504  46.791  -2.599  1.00  0.00    +0.000 C 
ATOM     52  F8  UNL A   1      17.950  46.006  -3.589  1.00  0.00    +0.000 F 
ATOM     53  C39 UNL A   1      16.225  47.326  -2.661  1.00  0.00    +0.000 C 
ATOM     54  F9  UNL A   1      15.430  47.042  -3.702  1.00  0.00    +0.000 F 
ATOM     55  C40 UNL A   1      15.767  48.158  -1.643  1.00  0.00    +0.000 C 
ATOM     56  F10 UNL A   1      14.530  48.670  -1.735  1.00  0.00    +0.000 F 
ENDBRANCH   45   46
BRANCH   60   61
ATOM     65  F12 UNL A   1      17.358  57.528  -1.699  1.00  0.00    +0.000 F 
ATOM     66  C47 UNL A   1      19.043  57.249  -0.068  1.00  0.00    +0.000 C 
ATOM     67  F13 UNL A   1      19.758  58.241  -0.614  1.00  0.00    +0.000 F 
ATOM     68  C48 UNL A   1      19.527  56.572   1.042  1.00  0.00    +0.000 C 
ATOM     69  F14 UNL A   1      20.703  56.923   1.580  1.00  0.00    +0.000 F 
ATOM     70  C49 UNL A   1      18.791  55.529   1.601  1.00  0.00    +0.000 C 
ATOM     71  F15 UNL A   1      19.285  54.886   2.670  1.00  0.00    +0.000 F 
ATOM     61  C44 UNL A   1      17.545  55.159   1.074  1.00  0.00    +0.000 C 
ATOM     62  C45 UNL A   1      17.072  55.865  -0.041  1.00  0.00    +0.000 C 
ATOM     63  F11 UNL A   1      15.895  55.534  -0.591  1.00  0.00    +0.000 F 
ATOM     64  C46 UNL A   1      17.819  56.891  -0.613  1.00  0.00    +0.000 C 
ENDBRANCH   60   61
TORSDOF 21
ENDMDL
