MODEL 1
REMARK VINA RESULT:     -11.7      0.000      0.000
ROOT
ATOM     28  C20 UNL A   1      40.035  29.015  29.056  1.00  0.00    +0.000 C 
ATOM     29  C21 UNL A   1      40.299  28.800  30.499  1.00  0.00    +0.000 C 
ATOM     30  N6  UNL A   1      41.226  29.339  31.216  1.00  0.00    +0.000 N 
ATOM     31  C22 UNL A   1      41.091  28.796  32.490  1.00  0.00    +0.000 C 
ATOM     32  C23 UNL A   1      42.151  28.742  33.344  1.00  0.00    +0.000 C 
ATOM     44  C30 UNL A   1      43.213  29.611  32.897  1.00  0.00    +0.000 C 
ATOM     45  C31 UNL A   1      43.332  30.974  32.716  1.00  0.00    +0.000 C 
ATOM     46  C32 UNL A   1      44.089  31.122  31.516  1.00  0.00    +0.000 C 
ATOM     47  C33 UNL A   1      44.457  29.848  31.078  1.00  0.00    +0.000 C 
ATOM     48  N7  UNL A   1      44.236  29.049  32.172  1.00  0.00    +0.000 N 
ATOM     49  C34 UNL A   1      44.897  29.345  29.797  1.00  0.00    +0.000 C 
ATOM     61  C41 UNL A   1      44.841  28.036  29.412  1.00  0.00    +0.000 C 
ATOM     62  N8  UNL A   1      44.902  27.677  28.072  1.00  0.00    +0.000 N 
ATOM     63  C42 UNL A   1      44.268  26.535  28.004  1.00  0.00    +0.000 C 
ATOM     64  C43 UNL A   1      43.326  26.198  26.903  1.00  0.00    +0.000 C 
ATOM     76  C50 UNL A   1      42.283  27.057  27.017  1.00  0.00    +0.000 C 
ATOM     77  C51 UNL A   1      41.280  27.446  26.053  1.00  0.00    +0.000 C 
ATOM     78  C52 UNL A   1      40.467  28.349  26.638  1.00  0.00    +0.000 C 
ATOM     79  C53 UNL A   1      40.779  28.456  28.071  1.00  0.00    +0.000 C 
ATOM     80  N9  UNL A   1      41.946  27.747  28.202  1.00  0.00    +0.000 N 
ATOM     81  C54 UNL A   1      44.095  25.835  29.266  1.00  0.00    +0.000 C 
ATOM     82  C55 UNL A   1      44.369  26.839  30.105  1.00  0.00    +0.000 C 
ATOM     83  C56 UNL A   1      39.813  28.135  32.511  1.00  0.00    +0.000 C 
ATOM     84  C57 UNL A   1      39.333  28.005  31.273  1.00  0.00    +0.000 C 
ATOM    112  H22 UNL A   1      42.956  31.723  33.318  1.00  0.00    +0.000 H 
ATOM    113  H23 UNL A   1      44.322  32.013  31.051  1.00  0.00    +0.000 H 
ATOM    114  H24 UNL A   1      44.722  28.223  32.396  1.00  0.00    +0.000 H 
ATOM    115  H25 UNL A   1      41.200  27.093  25.087  1.00  0.00    +0.000 H 
ATOM    116  H26 UNL A   1      39.734  28.888  26.150  1.00  0.00    +0.000 H 
ATOM    117  H27 UNL A   1      42.486  27.722  29.025  1.00  0.00    +0.000 H 
ATOM    118  H28 UNL A   1      43.837  24.854  29.457  1.00  0.00    +0.000 H 
ATOM    119  H29 UNL A   1      44.259  26.775  31.129  1.00  0.00    +0.000 H 
ATOM    120  H30 UNL A   1      39.335  27.806  33.365  1.00  0.00    +0.000 H 
ATOM    121  H31 UNL A   1      38.503  27.486  30.946  1.00  0.00    +0.000 H 
ENDROOT
BRANCH   28   27
ATOM    122  H32 UNL A   1      39.520  31.530  29.284  1.00  0.00    +0.000 H 
ATOM     27  C19 UNL A   1      38.756  29.636  28.759  1.00  0.00    +0.000 C 
ATOM    110  H20 UNL A   1      35.724  29.210  27.405  1.00  0.00    +0.000 H 
ATOM    111  H21 UNL A   1      37.751  27.946  27.959  1.00  0.00    +0.000 H 
ATOM     85  C58 UNL A   1      38.673  30.984  29.062  1.00  0.00    +0.000 C 
ATOM     86  C59 UNL A   1      37.447  31.569  29.061  1.00  0.00    +0.000 C 
ATOM     24  C16 UNL A   1      36.416  30.983  28.341  1.00  0.00    +0.000 C 
ATOM     25  C17 UNL A   1      36.506  29.656  27.910  1.00  0.00    +0.000 C 
ATOM     26  C18 UNL A   1      37.677  28.951  28.180  1.00  0.00    +0.000 C 
ATOM    123  H33 UNL A   1      37.284  32.441  29.590  1.00  0.00    +0.000 H 
BRANCH   24   22
ATOM     22  C15 UNL A   1      35.276  31.860  28.019  1.00  0.00    +0.000 C 
ATOM     23  O3  UNL A   1      35.444  33.043  27.798  1.00  0.00    +0.000 O 
BRANCH   22   21
ATOM    109  H19 UNL A   1      33.608  31.035  28.821  1.00  0.00    +0.000 H 
ATOM     21  N5  UNL A   1      34.017  31.276  27.959  1.00  0.00    +0.000 N 
BRANCH   21   20
ATOM    108  H18 UNL A   1      33.893  30.603  26.011  1.00  0.00    +0.000 H 
ATOM    107  H17 UNL A   1      32.740  31.874  26.434  1.00  0.00    +0.000 H 
ATOM     20  C14 UNL A   1      33.226  30.978  26.759  1.00  0.00    +0.000 C 
BRANCH   20   19
ATOM    105  H15 UNL A   1      31.477  30.292  27.736  1.00  0.00    +0.000 H 
ATOM    106  H16 UNL A   1      31.696  29.705  26.079  1.00  0.00    +0.000 H 
ATOM     19  C13 UNL A   1      32.172  29.917  27.013  1.00  0.00    +0.000 C 
BRANCH   19   18
ATOM     18  C12 UNL A   1      32.762  28.599  27.539  1.00  0.00    +0.000 C 
ATOM    103  H13 UNL A   1      33.262  28.810  28.461  1.00  0.00    +0.000 H 
ATOM    104  H14 UNL A   1      31.932  27.930  27.633  1.00  0.00    +0.000 H 
BRANCH   18   17
ATOM     17  C11 UNL A   1      33.762  27.887  26.612  1.00  0.00    +0.000 C 
ATOM    101  H11 UNL A   1      34.529  28.586  26.354  1.00  0.00    +0.000 H 
ATOM    102  H12 UNL A   1      34.119  27.038  27.158  1.00  0.00    +0.000 H 
BRANCH   17   16
ATOM     99  H9  UNL A   1      33.237  26.264  25.331  1.00  0.00    +0.000 H 
ATOM    100  H10 UNL A   1      32.155  27.668  25.251  1.00  0.00    +0.000 H 
ATOM     16  C10 UNL A   1      33.170  27.332  25.309  1.00  0.00    +0.000 C 
BRANCH   16   15
ATOM     97  H7  UNL A   1      34.328  28.794  24.262  1.00  0.00    +0.000 H 
ATOM     98  H8  UNL A   1      34.654  27.141  23.784  1.00  0.00    +0.000 H 
ATOM     15  C9  UNL A   1      33.891  27.840  24.057  1.00  0.00    +0.000 C 
BRANCH   15   14
ATOM     14  N4  UNL A   1      32.950  27.969  22.960  1.00  0.00    +0.000 N 
ATOM     96  H6  UNL A   1      33.115  28.758  22.394  1.00  0.00    +0.000 H 
BRANCH   14   12
ATOM     12  C8  UNL A   1      31.879  27.218  22.549  1.00  0.00    +0.000 C 
ATOM     13  O2  UNL A   1      30.833  27.811  22.285  1.00  0.00    +0.000 O 
BRANCH   12   11
ATOM      8  C4  UNL A   1      31.952  22.962  22.853  1.00  0.00    +0.000 C 
ATOM      9  C5  UNL A   1      30.806  23.664  23.223  1.00  0.00    +0.000 C 
ATOM     10  C6  UNL A   1      30.802  25.055  23.080  1.00  0.00    +0.000 C 
ATOM     11  C7  UNL A   1      31.897  25.729  22.507  1.00  0.00    +0.000 C 
ATOM     87  C60 UNL A   1      32.940  24.975  21.967  1.00  0.00    +0.000 C 
ATOM     88  C61 UNL A   1      33.004  23.602  22.193  1.00  0.00    +0.000 C 
ATOM    124  H34 UNL A   1      33.667  25.436  21.396  1.00  0.00    +0.000 H 
ATOM    125  H35 UNL A   1      33.824  23.060  21.876  1.00  0.00    +0.000 H 
ATOM     94  H4  UNL A   1      29.981  23.169  23.595  1.00  0.00    +0.000 H 
ATOM     95  H5  UNL A   1      29.983  25.596  23.398  1.00  0.00    +0.000 H 
BRANCH    8    7
ATOM      4  C3  UNL A   1      32.760  19.739  24.075  1.00  0.00    +0.000 C 
ATOM      5  N1  UNL A   1      32.325  19.504  22.791  1.00  0.00    +0.000 N 
ATOM      6  N2  UNL A   1      31.816  20.629  22.306  1.00  0.00    +0.000 N 
ATOM      7  N3  UNL A   1      32.085  21.605  23.187  1.00  0.00    +0.000 N 
ATOM     89  C62 UNL A   1      32.548  21.075  24.380  1.00  0.00    +0.000 C 
BRANCH    4    2
ATOM      2  C2  UNL A   1      33.320  18.664  24.887  1.00  0.00    +0.000 C 
ATOM      3  O1  UNL A   1      32.702  18.196  25.843  1.00  0.00    +0.000 O 
BRANCH    2    1
ATOM      1  C1  UNL A   1      34.680  18.122  24.538  1.00  0.00    +0.000 C 
ATOM     91  H1  UNL A   1      35.005  17.451  25.306  1.00  0.00    +0.000 H 
ATOM     92  H2  UNL A   1      35.377  18.930  24.454  1.00  0.00    +0.000 H 
ATOM     93  H3  UNL A   1      34.628  17.598  23.606  1.00  0.00    +0.000 H 
ENDBRANCH    2    1
ENDBRANCH    4    2
BRANCH   89   90
ATOM     90  C63 UNL A   1      32.693  21.894  25.608  1.00  0.00    +0.000 C 
ATOM    126  H36 UNL A   1      33.730  22.081  25.792  1.00  0.00    +0.000 H 
ATOM    127  H37 UNL A   1      32.272  21.368  26.440  1.00  0.00    +0.000 H 
ATOM    128  H38 UNL A   1      32.180  22.825  25.478  1.00  0.00    +0.000 H 
ENDBRANCH   89   90
ENDBRANCH    8    7
ENDBRANCH   12   11
ENDBRANCH   14   12
ENDBRANCH   15   14
ENDBRANCH   16   15
ENDBRANCH   17   16
ENDBRANCH   18   17
ENDBRANCH   19   18
ENDBRANCH   20   19
ENDBRANCH   21   20
ENDBRANCH   22   21
ENDBRANCH   24   22
ENDBRANCH   28   27
BRANCH   32   33
ATOM     33  C24 UNL A   1      42.382  27.663  34.372  1.00  0.00    +0.000 C 
ATOM     34  C25 UNL A   1      42.969  26.448  33.966  1.00  0.00    +0.000 C 
ATOM     35  F1  UNL A   1      43.554  26.340  32.763  1.00  0.00    +0.000 F 
ATOM     36  C26 UNL A   1      42.894  25.293  34.748  1.00  0.00    +0.000 C 
ATOM     37  F2  UNL A   1      43.357  24.131  34.264  1.00  0.00    +0.000 F 
ATOM     38  C27 UNL A   1      42.285  25.323  35.988  1.00  0.00    +0.000 C 
ATOM     39  F3  UNL A   1      42.157  24.204  36.711  1.00  0.00    +0.000 F 
ATOM     40  C28 UNL A   1      41.766  26.512  36.455  1.00  0.00    +0.000 C 
ATOM     41  F4  UNL A   1      41.160  26.559  37.649  1.00  0.00    +0.000 F 
ATOM     42  C29 UNL A   1      41.793  27.653  35.655  1.00  0.00    +0.000 C 
ATOM     43  F5  UNL A   1      41.126  28.704  36.145  1.00  0.00    +0.000 F 
ENDBRANCH   32   33
BRANCH   49   50
ATOM     50  C35 UNL A   1      45.233  30.373  28.747  1.00  0.00    +0.000 C 
ATOM     51  C36 UNL A   1      44.276  31.025  27.949  1.00  0.00    +0.000 C 
ATOM     52  F6  UNL A   1      42.978  30.712  28.044  1.00  0.00    +0.000 F 
ATOM     53  C37 UNL A   1      44.630  32.056  27.080  1.00  0.00    +0.000 C 
ATOM     54  F7  UNL A   1      43.694  32.655  26.329  1.00  0.00    +0.000 F 
ATOM     55  C38 UNL A   1      45.943  32.490  27.021  1.00  0.00    +0.000 C 
ATOM     56  F8  UNL A   1      46.280  33.509  26.219  1.00  0.00    +0.000 F 
ATOM     57  C39 UNL A   1      46.902  31.883  27.816  1.00  0.00    +0.000 C 
ATOM     58  F9  UNL A   1      48.164  32.331  27.800  1.00  0.00    +0.000 F 
ATOM     59  C40 UNL A   1      46.554  30.830  28.659  1.00  0.00    +0.000 C 
ATOM     60  F10 UNL A   1      47.503  30.286  29.435  1.00  0.00    +0.000 F 
ENDBRANCH   49   50
BRANCH   64   65
ATOM     65  C44 UNL A   1      43.382  24.923  26.153  1.00  0.00    +0.000 C 
ATOM     66  C45 UNL A   1      44.371  24.686  25.184  1.00  0.00    +0.000 C 
ATOM     67  F11 UNL A   1      45.153  25.691  24.763  1.00  0.00    +0.000 F 
ATOM     68  C46 UNL A   1      44.616  23.402  24.686  1.00  0.00    +0.000 C 
ATOM     69  F12 UNL A   1      45.605  23.204  23.803  1.00  0.00    +0.000 F 
ATOM     70  C47 UNL A   1      43.880  22.320  25.142  1.00  0.00    +0.000 C 
ATOM     71  F13 UNL A   1      44.156  21.081  24.713  1.00  0.00    +0.000 F 
ATOM     72  C48 UNL A   1      42.884  22.523  26.079  1.00  0.00    +0.000 C 
ATOM     73  F14 UNL A   1      42.192  21.481  26.560  1.00  0.00    +0.000 F 
ATOM     74  C49 UNL A   1      42.639  23.805  26.577  1.00  0.00    +0.000 C 
ATOM     75  F15 UNL A   1      41.725  23.919  27.552  1.00  0.00    +0.000 F 
ENDBRANCH   64   65
TORSDOF 19
ENDMDL
MODEL 2
REMARK VINA RESULT:     -11.5      1.609      2.175
ROOT
ATOM     28  C20 UNL A   1      40.273  29.219  29.082  1.00  0.00    +0.000 C 
ATOM     29  C21 UNL A   1      40.634  29.037  30.508  1.00  0.00    +0.000 C 
ATOM     30  N6  UNL A   1      41.602  29.599  31.151  1.00  0.00    +0.000 N 
ATOM     31  C22 UNL A   1      41.557  29.082  32.441  1.00  0.00    +0.000 C 
ATOM     32  C23 UNL A   1      42.673  29.057  33.223  1.00  0.00    +0.000 C 
ATOM     44  C30 UNL A   1      43.693  29.925  32.688  1.00  0.00    +0.000 C 
ATOM     45  C31 UNL A   1      43.786  31.286  32.472  1.00  0.00    +0.000 C 
ATOM     46  C32 UNL A   1      44.459  31.415  31.221  1.00  0.00    +0.000 C 
ATOM     47  C33 UNL A   1      44.811  30.135  30.787  1.00  0.00    +0.000 C 
ATOM     48  N7  UNL A   1      44.672  29.357  31.909  1.00  0.00    +0.000 N 
ATOM     49  C34 UNL A   1      45.170  29.609  29.489  1.00  0.00    +0.000 C 
ATOM     61  C41 UNL A   1      45.103  28.292  29.136  1.00  0.00    +0.000 C 
ATOM     62  N8  UNL A   1      45.078  27.906  27.803  1.00  0.00    +0.000 N 
ATOM     63  C42 UNL A   1      44.453  26.757  27.801  1.00  0.00    +0.000 C 
ATOM     64  C43 UNL A   1      43.443  26.388  26.772  1.00  0.00    +0.000 C 
ATOM     76  C50 UNL A   1      42.401  27.239  26.937  1.00  0.00    +0.000 C 
ATOM     77  C51 UNL A   1      41.332  27.598  26.036  1.00  0.00    +0.000 C 
ATOM     78  C52 UNL A   1      40.550  28.506  26.654  1.00  0.00    +0.000 C 
ATOM     79  C53 UNL A   1      40.956  28.646  28.061  1.00  0.00    +0.000 C 
ATOM     80  N9  UNL A   1      42.137  27.951  28.128  1.00  0.00    +0.000 N 
ATOM     81  C54 UNL A   1      44.371  26.082  29.086  1.00  0.00    +0.000 C 
ATOM     82  C55 UNL A   1      44.691  27.105  29.884  1.00  0.00    +0.000 C 
ATOM     83  C56 UNL A   1      40.290  28.410  32.561  1.00  0.00    +0.000 C 
ATOM     84  C57 UNL A   1      39.731  28.250  31.361  1.00  0.00    +0.000 C 
ATOM    112  H22 UNL A   1      43.443  32.044  33.083  1.00  0.00    +0.000 H 
ATOM    113  H23 UNL A   1      44.652  32.298  30.724  1.00  0.00    +0.000 H 
ATOM    114  H24 UNL A   1      45.180  28.541  32.117  1.00  0.00    +0.000 H 
ATOM    115  H25 UNL A   1      41.191  27.224  25.084  1.00  0.00    +0.000 H 
ATOM    116  H26 UNL A   1      39.781  29.027  26.205  1.00  0.00    +0.000 H 
ATOM    117  H27 UNL A   1      42.730  27.948  28.914  1.00  0.00    +0.000 H 
ATOM    118  H28 UNL A   1      44.137  25.102  29.314  1.00  0.00    +0.000 H 
ATOM    119  H29 UNL A   1      44.649  27.062  30.914  1.00  0.00    +0.000 H 
ATOM    120  H30 UNL A   1      39.874  28.096  33.452  1.00  0.00    +0.000 H 
ATOM    121  H31 UNL A   1      38.887  27.716  31.100  1.00  0.00    +0.000 H 
ENDROOT
BRANCH   28   27
ATOM    122  H32 UNL A   1      38.192  27.971  28.212  1.00  0.00    +0.000 H 
ATOM     27  C19 UNL A   1      38.971  29.822  28.858  1.00  0.00    +0.000 C 
ATOM    110  H20 UNL A   1      37.064  32.535  29.315  1.00  0.00    +0.000 H 
ATOM    111  H21 UNL A   1      39.364  31.752  29.649  1.00  0.00    +0.000 H 
ATOM     85  C58 UNL A   1      38.030  28.988  28.279  1.00  0.00    +0.000 C 
ATOM     86  C59 UNL A   1      36.885  29.544  27.800  1.00  0.00    +0.000 C 
ATOM     24  C16 UNL A   1      36.475  30.776  28.288  1.00  0.00    +0.000 C 
ATOM     25  C17 UNL A   1      37.361  31.604  28.983  1.00  0.00    +0.000 C 
ATOM     26  C18 UNL A   1      38.653  31.140  29.218  1.00  0.00    +0.000 C 
ATOM    123  H33 UNL A   1      36.327  29.054  27.083  1.00  0.00    +0.000 H 
BRANCH   24   22
ATOM     22  C15 UNL A   1      35.055  31.111  28.076  1.00  0.00    +0.000 C 
ATOM     23  O3  UNL A   1      34.659  32.252  28.208  1.00  0.00    +0.000 O 
BRANCH   22   21
ATOM    109  H19 UNL A   1      34.501  29.168  27.924  1.00  0.00    +0.000 H 
ATOM     21  N5  UNL A   1      34.203  30.079  27.703  1.00  0.00    +0.000 N 
BRANCH   21   20
ATOM    108  H18 UNL A   1      33.047  30.812  26.157  1.00  0.00    +0.000 H 
ATOM    107  H17 UNL A   1      32.197  30.616  27.694  1.00  0.00    +0.000 H 
ATOM     20  C14 UNL A   1      32.909  30.192  27.018  1.00  0.00    +0.000 C 
BRANCH   20   19
ATOM    105  H15 UNL A   1      32.156  28.251  27.401  1.00  0.00    +0.000 H 
ATOM    106  H16 UNL A   1      31.527  29.031  25.939  1.00  0.00    +0.000 H 
ATOM     19  C13 UNL A   1      32.391  28.848  26.544  1.00  0.00    +0.000 C 
BRANCH   19   18
ATOM     18  C12 UNL A   1      33.405  28.085  25.679  1.00  0.00    +0.000 C 
ATOM    103  H13 UNL A   1      34.339  28.605  25.734  1.00  0.00    +0.000 H 
ATOM    104  H14 UNL A   1      33.431  27.091  26.075  1.00  0.00    +0.000 H 
BRANCH   18   17
ATOM     17  C11 UNL A   1      33.043  27.926  24.191  1.00  0.00    +0.000 C 
ATOM    101  H11 UNL A   1      33.921  28.125  23.614  1.00  0.00    +0.000 H 
ATOM    102  H12 UNL A   1      32.673  26.928  24.082  1.00  0.00    +0.000 H 
BRANCH   17   16
ATOM     99  H9  UNL A   1      31.324  29.145  24.519  1.00  0.00    +0.000 H 
ATOM    100  H10 UNL A   1      32.392  29.686  23.210  1.00  0.00    +0.000 H 
ATOM     16  C10 UNL A   1      31.925  28.848  23.685  1.00  0.00    +0.000 C 
BRANCH   16   15
ATOM     97  H7  UNL A   1      30.860  28.854  21.831  1.00  0.00    +0.000 H 
ATOM     98  H8  UNL A   1      31.491  27.286  22.293  1.00  0.00    +0.000 H 
ATOM     15  C9  UNL A   1      31.020  28.181  22.646  1.00  0.00    +0.000 C 
BRANCH   15   14
ATOM     14  N4  UNL A   1      29.742  27.841  23.245  1.00  0.00    +0.000 N 
ATOM     96  H6  UNL A   1      29.104  28.591  23.258  1.00  0.00    +0.000 H 
BRANCH   14   12
ATOM     12  C8  UNL A   1      29.241  26.689  23.796  1.00  0.00    +0.000 C 
ATOM     13  O2  UNL A   1      28.026  26.626  23.982  1.00  0.00    +0.000 O 
BRANCH   12   11
ATOM      8  C4  UNL A   1      32.020  23.769  25.196  1.00  0.00    +0.000 C 
ATOM      9  C5  UNL A   1      31.465  24.682  26.090  1.00  0.00    +0.000 C 
ATOM     10  C6  UNL A   1      30.531  25.604  25.606  1.00  0.00    +0.000 C 
ATOM     11  C7  UNL A   1      30.105  25.569  24.266  1.00  0.00    +0.000 C 
ATOM     87  C60 UNL A   1      30.533  24.518  23.453  1.00  0.00    +0.000 C 
ATOM     88  C61 UNL A   1      31.536  23.657  23.890  1.00  0.00    +0.000 C 
ATOM    124  H34 UNL A   1      30.103  24.378  22.524  1.00  0.00    +0.000 H 
ATOM    125  H35 UNL A   1      31.920  22.940  23.254  1.00  0.00    +0.000 H 
ATOM     94  H4  UNL A   1      31.735  24.677  27.086  1.00  0.00    +0.000 H 
ATOM     95  H5  UNL A   1      30.149  26.320  26.243  1.00  0.00    +0.000 H 
BRANCH    8    7
ATOM      4  C3  UNL A   1      35.076  22.043  25.666  1.00  0.00    +0.000 C 
ATOM      5  N1  UNL A   1      34.127  21.164  26.134  1.00  0.00    +0.000 N 
ATOM      6  N2  UNL A   1      32.958  21.790  26.179  1.00  0.00    +0.000 N 
ATOM      7  N3  UNL A   1      33.117  22.982  25.582  1.00  0.00    +0.000 N 
ATOM     89  C62 UNL A   1      34.460  23.250  25.372  1.00  0.00    +0.000 C 
BRANCH    4    2
ATOM      2  C2  UNL A   1      36.477  21.650  25.562  1.00  0.00    +0.000 C 
ATOM      3  O1  UNL A   1      37.382  22.402  25.924  1.00  0.00    +0.000 O 
BRANCH    2    1
ATOM      1  C1  UNL A   1      36.812  20.293  25.000  1.00  0.00    +0.000 C 
ATOM     91  H1  UNL A   1      37.160  19.657  25.787  1.00  0.00    +0.000 H 
ATOM     92  H2  UNL A   1      37.577  20.393  24.259  1.00  0.00    +0.000 H 
ATOM     93  H3  UNL A   1      35.938  19.865  24.556  1.00  0.00    +0.000 H 
ENDBRANCH    2    1
ENDBRANCH    4    2
BRANCH   89   90
ATOM     90  C63 UNL A   1      34.945  24.588  24.956  1.00  0.00    +0.000 C 
ATOM    126  H36 UNL A   1      34.254  25.018  24.262  1.00  0.00    +0.000 H 
ATOM    127  H37 UNL A   1      35.904  24.491  24.490  1.00  0.00    +0.000 H 
ATOM    128  H38 UNL A   1      35.028  25.221  25.815  1.00  0.00    +0.000 H 
ENDBRANCH   89   90
ENDBRANCH    8    7
ENDBRANCH   12   11
ENDBRANCH   14   12
ENDBRANCH   15   14
ENDBRANCH   16   15
ENDBRANCH   17   16
ENDBRANCH   18   17
ENDBRANCH   19   18
ENDBRANCH   20   19
ENDBRANCH   21   20
ENDBRANCH   22   21
ENDBRANCH   24   22
ENDBRANCH   28   27
BRANCH   32   33
ATOM     33  C24 UNL A   1      42.982  28.002  34.255  1.00  0.00    +0.000 C 
ATOM     34  C25 UNL A   1      43.188  28.396  35.593  1.00  0.00    +0.000 C 
ATOM     35  F1  UNL A   1      42.860  29.632  36.000  1.00  0.00    +0.000 F 
ATOM     36  C26 UNL A   1      43.814  27.560  36.522  1.00  0.00    +0.000 C 
ATOM     37  F2  UNL A   1      44.101  28.025  37.746  1.00  0.00    +0.000 F 
ATOM     38  C27 UNL A   1      44.202  26.283  36.167  1.00  0.00    +0.000 C 
ATOM     39  F3  UNL A   1      44.858  25.504  37.036  1.00  0.00    +0.000 F 
ATOM     40  C28 UNL A   1      43.948  25.832  34.889  1.00  0.00    +0.000 C 
ATOM     41  F4  UNL A   1      44.327  24.600  34.522  1.00  0.00    +0.000 F 
ATOM     42  C29 UNL A   1      43.371  26.681  33.946  1.00  0.00    +0.000 C 
ATOM     43  F5  UNL A   1      43.314  26.191  32.703  1.00  0.00    +0.000 F 
ENDBRANCH   32   33
BRANCH   49   50
ATOM     50  C35 UNL A   1      45.424  30.617  28.399  1.00  0.00    +0.000 C 
ATOM     51  C36 UNL A   1      44.409  31.250  27.660  1.00  0.00    +0.000 C 
ATOM     52  F6  UNL A   1      43.123  30.936  27.854  1.00  0.00    +0.000 F 
ATOM     53  C37 UNL A   1      44.695  32.266  26.748  1.00  0.00    +0.000 C 
ATOM     54  F7  UNL A   1      43.704  32.847  26.055  1.00  0.00    +0.000 F 
ATOM     55  C38 UNL A   1      45.998  32.703  26.586  1.00  0.00    +0.000 C 
ATOM     56  F8  UNL A   1      46.272  33.708  25.742  1.00  0.00    +0.000 F 
ATOM     57  C39 UNL A   1      47.014  32.115  27.321  1.00  0.00    +0.000 C 
ATOM     58  F9  UNL A   1      48.270  32.567  27.205  1.00  0.00    +0.000 F 
ATOM     59  C40 UNL A   1      46.733  31.077  28.207  1.00  0.00    +0.000 C 
ATOM     60  F10 UNL A   1      47.739  30.552  28.923  1.00  0.00    +0.000 F 
ENDBRANCH   49   50
BRANCH   64   65
ATOM     65  C44 UNL A   1      43.463  25.098  26.046  1.00  0.00    +0.000 C 
ATOM     66  C45 UNL A   1      44.479  24.789  25.128  1.00  0.00    +0.000 C 
ATOM     67  F11 UNL A   1      45.333  25.742  24.726  1.00  0.00    +0.000 F 
ATOM     68  C46 UNL A   1      44.676  23.484  24.662  1.00  0.00    +0.000 C 
ATOM     69  F12 UNL A   1      45.690  23.217  23.828  1.00  0.00    +0.000 F 
ATOM     70  C47 UNL A   1      43.862  22.453  25.103  1.00  0.00    +0.000 C 
ATOM     71  F13 UNL A   1      44.089  21.192  24.706  1.00  0.00    +0.000 F 
ATOM     72  C48 UNL A   1      42.838  22.727  25.990  1.00  0.00    +0.000 C 
ATOM     73  F14 UNL A   1      42.069  21.732  26.455  1.00  0.00    +0.000 F 
ATOM     74  C49 UNL A   1      42.641  24.029  26.454  1.00  0.00    +0.000 C 
ATOM     75  F15 UNL A   1      41.693  24.211  27.385  1.00  0.00    +0.000 F 
ENDBRANCH   64   65
TORSDOF 19
ENDMDL
MODEL 3
REMARK VINA RESULT:     -11.5      4.693      8.163
ROOT
ATOM     28  C20 UNL A   1      40.140  29.345  29.158  1.00  0.00    +0.000 C 
ATOM     29  C21 UNL A   1      40.377  29.042  30.590  1.00  0.00    +0.000 C 
ATOM     30  N6  UNL A   1      41.309  29.512  31.348  1.00  0.00    +0.000 N 
ATOM     31  C22 UNL A   1      41.140  28.903  32.587  1.00  0.00    +0.000 C 
ATOM     32  C23 UNL A   1      42.186  28.771  33.450  1.00  0.00    +0.000 C 
ATOM     44  C30 UNL A   1      43.278  29.631  33.066  1.00  0.00    +0.000 C 
ATOM     45  C31 UNL A   1      43.439  30.999  32.964  1.00  0.00    +0.000 C 
ATOM     46  C32 UNL A   1      44.216  31.191  31.784  1.00  0.00    +0.000 C 
ATOM     47  C33 UNL A   1      44.554  29.933  31.280  1.00  0.00    +0.000 C 
ATOM     48  N7  UNL A   1      44.295  29.081  32.324  1.00  0.00    +0.000 N 
ATOM     49  C34 UNL A   1      44.999  29.490  29.978  1.00  0.00    +0.000 C 
ATOM     61  C41 UNL A   1      44.911  28.207  29.519  1.00  0.00    +0.000 C 
ATOM     62  N8  UNL A   1      44.980  27.923  28.162  1.00  0.00    +0.000 N 
ATOM     63  C42 UNL A   1      44.316  26.805  28.021  1.00  0.00    +0.000 C 
ATOM     64  C43 UNL A   1      43.380  26.558  26.891  1.00  0.00    +0.000 C 
ATOM     76  C50 UNL A   1      42.360  27.439  27.040  1.00  0.00    +0.000 C 
ATOM     77  C51 UNL A   1      41.383  27.911  26.088  1.00  0.00    +0.000 C 
ATOM     78  C52 UNL A   1      40.587  28.803  26.711  1.00  0.00    +0.000 C 
ATOM     79  C53 UNL A   1      40.882  28.820  28.152  1.00  0.00    +0.000 C 
ATOM     80  N9  UNL A   1      42.026  28.072  28.258  1.00  0.00    +0.000 N 
ATOM     81  C54 UNL A   1      44.104  26.041  29.240  1.00  0.00    +0.000 C 
ATOM     82  C55 UNL A   1      44.395  26.987  30.138  1.00  0.00    +0.000 C 
ATOM     83  C56 UNL A   1      39.843  28.280  32.555  1.00  0.00    +0.000 C 
ATOM     84  C57 UNL A   1      39.378  28.234  31.305  1.00  0.00    +0.000 C 
ATOM    112  H22 UNL A   1      43.076  31.723  33.603  1.00  0.00    +0.000 H 
ATOM    113  H23 UNL A   1      44.482  32.100  31.373  1.00  0.00    +0.000 H 
ATOM    114  H24 UNL A   1      44.755  28.230  32.507  1.00  0.00    +0.000 H 
ATOM    115  H25 UNL A   1      41.306  27.615  25.102  1.00  0.00    +0.000 H 
ATOM    116  H26 UNL A   1      39.877  29.390  26.245  1.00  0.00    +0.000 H 
ATOM    117  H27 UNL A   1      42.553  27.984  29.085  1.00  0.00    +0.000 H 
ATOM    118  H28 UNL A   1      43.816  25.058  29.372  1.00  0.00    +0.000 H 
ATOM    119  H29 UNL A   1      44.268  26.869  31.155  1.00  0.00    +0.000 H 
ATOM    120  H30 UNL A   1      39.344  27.918  33.383  1.00  0.00    +0.000 H 
ATOM    121  H31 UNL A   1      38.538  27.758  30.939  1.00  0.00    +0.000 H 
ENDROOT
BRANCH   28   27
ATOM    122  H32 UNL A   1      37.948  28.172  28.477  1.00  0.00    +0.000 H 
ATOM     27  C19 UNL A   1      38.884  30.019  28.880  1.00  0.00    +0.000 C 
ATOM    110  H20 UNL A   1      37.207  32.912  29.028  1.00  0.00    +0.000 H 
ATOM    111  H21 UNL A   1      39.445  31.993  29.422  1.00  0.00    +0.000 H 
ATOM     85  C58 UNL A   1      37.867  29.200  28.421  1.00  0.00    +0.000 C 
ATOM     86  C59 UNL A   1      36.758  29.783  27.894  1.00  0.00    +0.000 C 
ATOM     24  C16 UNL A   1      36.457  31.095  28.232  1.00  0.00    +0.000 C 
ATOM     25  C17 UNL A   1      37.421  31.927  28.809  1.00  0.00    +0.000 C 
ATOM     26  C18 UNL A   1      38.679  31.392  29.080  1.00  0.00    +0.000 C 
ATOM    123  H33 UNL A   1      36.147  29.257  27.250  1.00  0.00    +0.000 H 
BRANCH   24   22
ATOM     22  C15 UNL A   1      35.064  31.515  28.001  1.00  0.00    +0.000 C 
ATOM     23  O3  UNL A   1      34.176  30.693  27.887  1.00  0.00    +0.000 O 
BRANCH   22   21
ATOM    109  H19 UNL A   1      35.253  33.374  27.216  1.00  0.00    +0.000 H 
ATOM     21  N5  UNL A   1      34.809  32.880  27.942  1.00  0.00    +0.000 N 
BRANCH   21   20
ATOM    108  H18 UNL A   1      33.217  33.010  29.251  1.00  0.00    +0.000 H 
ATOM    107  H17 UNL A   1      33.496  34.455  28.272  1.00  0.00    +0.000 H 
ATOM     20  C14 UNL A   1      33.952  33.668  28.836  1.00  0.00    +0.000 C 
BRANCH   20   19
ATOM    105  H15 UNL A   1      35.460  33.572  30.318  1.00  0.00    +0.000 H 
ATOM    106  H16 UNL A   1      35.183  35.179  29.625  1.00  0.00    +0.000 H 
ATOM     19  C13 UNL A   1      34.730  34.280  29.986  1.00  0.00    +0.000 C 
BRANCH   19   18
ATOM     18  C12 UNL A   1      33.838  34.660  31.178  1.00  0.00    +0.000 C 
ATOM    103  H13 UNL A   1      32.940  35.092  30.790  1.00  0.00    +0.000 H 
ATOM    104  H14 UNL A   1      33.688  33.753  31.725  1.00  0.00    +0.000 H 
BRANCH   18   17
ATOM     17  C11 UNL A   1      34.442  35.654  32.186  1.00  0.00    +0.000 C 
ATOM    101  H11 UNL A   1      35.291  36.114  31.728  1.00  0.00    +0.000 H 
ATOM    102  H12 UNL A   1      33.659  36.341  32.429  1.00  0.00    +0.000 H 
BRANCH   17   16
ATOM     99  H9  UNL A   1      35.963  35.111  33.579  1.00  0.00    +0.000 H 
ATOM    100  H10 UNL A   1      34.416  35.591  34.302  1.00  0.00    +0.000 H 
ATOM     16  C10 UNL A   1      34.897  35.043  33.519  1.00  0.00    +0.000 C 
BRANCH   16   15
ATOM     97  H7  UNL A   1      33.939  33.454  34.582  1.00  0.00    +0.000 H 
ATOM     98  H8  UNL A   1      33.891  33.285  32.839  1.00  0.00    +0.000 H 
ATOM     15  C9  UNL A   1      34.493  33.574  33.675  1.00  0.00    +0.000 C 
BRANCH   15   14
ATOM     14  N4  UNL A   1      35.677  32.736  33.722  1.00  0.00    +0.000 N 
ATOM     96  H6  UNL A   1      35.971  32.525  34.638  1.00  0.00    +0.000 H 
BRANCH   14   12
ATOM     12  C8  UNL A   1      36.470  32.178  32.753  1.00  0.00    +0.000 C 
ATOM     13  O2  UNL A   1      36.100  31.114  32.254  1.00  0.00    +0.000 O 
BRANCH   12   11
ATOM      8  C4  UNL A   1      40.339  33.824  32.030  1.00  0.00    +0.000 C 
ATOM      9  C5  UNL A   1      40.218  32.512  32.484  1.00  0.00    +0.000 C 
ATOM     10  C6  UNL A   1      38.935  31.991  32.678  1.00  0.00    +0.000 C 
ATOM     11  C7  UNL A   1      37.790  32.743  32.356  1.00  0.00    +0.000 C 
ATOM     87  C60 UNL A   1      37.953  33.974  31.718  1.00  0.00    +0.000 C 
ATOM     88  C61 UNL A   1      39.219  34.547  31.612  1.00  0.00    +0.000 C 
ATOM    124  H34 UNL A   1      37.134  34.462  31.323  1.00  0.00    +0.000 H 
ATOM    125  H35 UNL A   1      39.328  35.498  31.227  1.00  0.00    +0.000 H 
ATOM     94  H4  UNL A   1      41.055  31.939  32.672  1.00  0.00    +0.000 H 
ATOM     95  H5  UNL A   1      38.826  31.040  33.064  1.00  0.00    +0.000 H 
BRANCH    8    7
ATOM      4  C3  UNL A   1      43.654  34.996  31.602  1.00  0.00    +0.000 C 
ATOM      5  N1  UNL A   1      43.384  35.248  32.928  1.00  0.00    +0.000 N 
ATOM      6  N2  UNL A   1      42.096  35.019  33.148  1.00  0.00    +0.000 N 
ATOM      7  N3  UNL A   1      41.592  34.459  32.037  1.00  0.00    +0.000 N 
ATOM     89  C62 UNL A   1      42.492  34.554  30.987  1.00  0.00    +0.000 C 
BRANCH    4    2
ATOM      2  C2  UNL A   1      44.986  35.215  31.051  1.00  0.00    +0.000 C 
ATOM      3  O1  UNL A   1      45.557  36.299  31.169  1.00  0.00    +0.000 O 
BRANCH    2    1
ATOM      1  C1  UNL A   1      45.670  34.085  30.328  1.00  0.00    +0.000 C 
ATOM     91  H1  UNL A   1      46.083  34.447  29.410  1.00  0.00    +0.000 H 
ATOM     92  H2  UNL A   1      44.959  33.314  30.118  1.00  0.00    +0.000 H 
ATOM     93  H3  UNL A   1      46.453  33.691  30.941  1.00  0.00    +0.000 H 
ENDBRANCH    2    1
ENDBRANCH    4    2
BRANCH   89   90
ATOM     90  C63 UNL A   1      42.113  34.241  29.588  1.00  0.00    +0.000 C 
ATOM    126  H36 UNL A   1      41.482  35.016  29.207  1.00  0.00    +0.000 H 
ATOM    127  H37 UNL A   1      41.588  33.308  29.561  1.00  0.00    +0.000 H 
ATOM    128  H38 UNL A   1      42.996  34.172  28.987  1.00  0.00    +0.000 H 
ENDBRANCH   89   90
ENDBRANCH    8    7
ENDBRANCH   12   11
ENDBRANCH   14   12
ENDBRANCH   15   14
ENDBRANCH   16   15
ENDBRANCH   17   16
ENDBRANCH   18   17
ENDBRANCH   19   18
ENDBRANCH   20   19
ENDBRANCH   21   20
ENDBRANCH   22   21
ENDBRANCH   24   22
ENDBRANCH   28   27
BRANCH   32   33
ATOM     33  C24 UNL A   1      42.371  27.629  34.418  1.00  0.00    +0.000 C 
ATOM     34  C25 UNL A   1      42.908  26.415  33.947  1.00  0.00    +0.000 C 
ATOM     35  F1  UNL A   1      43.490  26.347  32.739  1.00  0.00    +0.000 F 
ATOM     36  C26 UNL A   1      42.785  25.223  34.666  1.00  0.00    +0.000 C 
ATOM     37  F2  UNL A   1      43.201  24.071  34.120  1.00  0.00    +0.000 F 
ATOM     38  C27 UNL A   1      42.177  25.211  35.906  1.00  0.00    +0.000 C 
ATOM     39  F3  UNL A   1      42.001  24.062  36.569  1.00  0.00    +0.000 F 
ATOM     40  C28 UNL A   1      41.706  26.394  36.437  1.00  0.00    +0.000 C 
ATOM     41  F4  UNL A   1      41.101  26.402  37.633  1.00  0.00    +0.000 F 
ATOM     42  C29 UNL A   1      41.781  27.574  35.700  1.00  0.00    +0.000 C 
ATOM     43  F5  UNL A   1      41.157  28.624  36.246  1.00  0.00    +0.000 F 
ENDBRANCH   32   33
BRANCH   49   50
ATOM     50  C35 UNL A   1      45.378  30.565  28.992  1.00  0.00    +0.000 C 
ATOM     51  C36 UNL A   1      46.698  30.828  28.585  1.00  0.00    +0.000 C 
ATOM     52  F6  UNL A   1      47.726  30.154  29.114  1.00  0.00    +0.000 F 
ATOM     53  C37 UNL A   1      46.981  31.751  27.577  1.00  0.00    +0.000 C 
ATOM     54  F7  UNL A   1      48.251  31.984  27.215  1.00  0.00    +0.000 F 
ATOM     55  C38 UNL A   1      45.948  32.399  26.924  1.00  0.00    +0.000 C 
ATOM     56  F8  UNL A   1      46.212  33.254  25.926  1.00  0.00    +0.000 F 
ATOM     57  C39 UNL A   1      44.636  32.138  27.287  1.00  0.00    +0.000 C 
ATOM     58  F9  UNL A   1      43.630  32.724  26.624  1.00  0.00    +0.000 F 
ATOM     59  C40 UNL A   1      44.356  31.242  28.316  1.00  0.00    +0.000 C 
ATOM     60  F10 UNL A   1      43.073  30.992  28.620  1.00  0.00    +0.000 F 
ENDBRANCH   49   50
BRANCH   64   65
ATOM     65  C44 UNL A   1      43.410  25.326  26.071  1.00  0.00    +0.000 C 
ATOM     66  C45 UNL A   1      44.493  25.036  25.226  1.00  0.00    +0.000 C 
ATOM     67  F11 UNL A   1      45.421  25.971  24.978  1.00  0.00    +0.000 F 
ATOM     68  C46 UNL A   1      44.675  23.760  24.679  1.00  0.00    +0.000 C 
ATOM     69  F12 UNL A   1      45.750  23.504  23.920  1.00  0.00    +0.000 F 
ATOM     70  C47 UNL A   1      43.779  22.742  24.962  1.00  0.00    +0.000 C 
ATOM     71  F13 UNL A   1      43.986  21.504  24.490  1.00  0.00    +0.000 F 
ATOM     72  C48 UNL A   1      42.690  23.001  25.773  1.00  0.00    +0.000 C 
ATOM     73  F14 UNL A   1      41.838  22.015  26.088  1.00  0.00    +0.000 F 
ATOM     74  C49 UNL A   1      42.508  24.273  26.319  1.00  0.00    +0.000 C 
ATOM     75  F15 UNL A   1      41.486  24.434  27.172  1.00  0.00    +0.000 F 
ENDBRANCH   64   65
TORSDOF 19
ENDMDL
MODEL 4
REMARK VINA RESULT:     -11.5      3.123      8.847
ROOT
ATOM     28  C20 UNL A   1      40.996  27.304  28.870  1.00  0.00    +0.000 C 
ATOM     29  C21 UNL A   1      42.216  27.927  28.303  1.00  0.00    +0.000 C 
ATOM     30  N6  UNL A   1      43.303  28.234  28.927  1.00  0.00    +0.000 N 
ATOM     31  C22 UNL A   1      44.133  28.826  27.981  1.00  0.00    +0.000 C 
ATOM     32  C23 UNL A   1      45.114  29.694  28.358  1.00  0.00    +0.000 C 
ATOM     44  C30 UNL A   1      45.371  29.594  29.773  1.00  0.00    +0.000 C 
ATOM     45  C31 UNL A   1      45.839  28.592  30.600  1.00  0.00    +0.000 C 
ATOM     46  C32 UNL A   1      45.054  28.698  31.787  1.00  0.00    +0.000 C 
ATOM     47  C33 UNL A   1      44.213  29.804  31.651  1.00  0.00    +0.000 C 
ATOM     48  N7  UNL A   1      44.756  30.502  30.601  1.00  0.00    +0.000 N 
ATOM     49  C34 UNL A   1      42.997  30.194  32.326  1.00  0.00    +0.000 C 
ATOM     61  C41 UNL A   1      42.080  31.077  31.832  1.00  0.00    +0.000 C 
ATOM     62  N8  UNL A   1      40.780  31.112  32.320  1.00  0.00    +0.000 N 
ATOM     63  C42 UNL A   1      40.065  31.578  31.329  1.00  0.00    +0.000 C 
ATOM     64  C43 UNL A   1      38.730  31.029  30.967  1.00  0.00    +0.000 C 
ATOM     76  C50 UNL A   1      38.942  29.757  30.546  1.00  0.00    +0.000 C 
ATOM     77  C51 UNL A   1      38.028  28.646  30.425  1.00  0.00    +0.000 C 
ATOM     78  C52 UNL A   1      38.723  27.579  29.982  1.00  0.00    +0.000 C 
ATOM     79  C53 UNL A   1      40.087  27.985  29.610  1.00  0.00    +0.000 C 
ATOM     80  N9  UNL A   1      40.183  29.268  30.083  1.00  0.00    +0.000 N 
ATOM     81  C54 UNL A   1      40.808  32.264  30.284  1.00  0.00    +0.000 C 
ATOM     82  C55 UNL A   1      42.040  31.841  30.587  1.00  0.00    +0.000 C 
ATOM     83  C56 UNL A   1      43.544  28.548  26.698  1.00  0.00    +0.000 C 
ATOM     84  C57 UNL A   1      42.297  28.097  26.844  1.00  0.00    +0.000 C 
ATOM    112  H22 UNL A   1      46.592  27.914  30.402  1.00  0.00    +0.000 H 
ATOM    113  H23 UNL A   1      45.100  28.067  32.602  1.00  0.00    +0.000 H 
ATOM    114  H24 UNL A   1      44.712  31.476  30.466  1.00  0.00    +0.000 H 
ATOM    115  H25 UNL A   1      37.018  28.667  30.638  1.00  0.00    +0.000 H 
ATOM    116  H26 UNL A   1      38.352  26.618  29.916  1.00  0.00    +0.000 H 
ATOM    117  H27 UNL A   1      41.019  29.789  30.097  1.00  0.00    +0.000 H 
ATOM    118  H28 UNL A   1      40.481  32.892  29.533  1.00  0.00    +0.000 H 
ATOM    119  H29 UNL A   1      42.870  32.033  30.004  1.00  0.00    +0.000 H 
ATOM    120  H30 UNL A   1      44.020  28.680  25.791  1.00  0.00    +0.000 H 
ATOM    121  H31 UNL A   1      41.580  27.916  26.125  1.00  0.00    +0.000 H 
ENDROOT
BRANCH   28   27
ATOM    122  H32 UNL A   1      39.082  26.767  27.229  1.00  0.00    +0.000 H 
ATOM     27  C19 UNL A   1      40.689  25.984  28.348  1.00  0.00    +0.000 C 
ATOM    110  H20 UNL A   1      41.724  22.812  28.068  1.00  0.00    +0.000 H 
ATOM    111  H21 UNL A   1      42.339  24.921  29.157  1.00  0.00    +0.000 H 
ATOM     85  C58 UNL A   1      39.547  25.910  27.571  1.00  0.00    +0.000 C 
ATOM     86  C59 UNL A   1      39.052  24.682  27.267  1.00  0.00    +0.000 C 
ATOM     24  C16 UNL A   1      39.893  23.580  27.322  1.00  0.00    +0.000 C 
ATOM     25  C17 UNL A   1      41.115  23.643  27.998  1.00  0.00    +0.000 C 
ATOM     26  C18 UNL A   1      41.490  24.855  28.575  1.00  0.00    +0.000 C 
ATOM    123  H33 UNL A   1      38.062  24.569  26.999  1.00  0.00    +0.000 H 
BRANCH   24   22
ATOM     22  C15 UNL A   1      39.442  22.389  26.581  1.00  0.00    +0.000 C 
ATOM     23  O3  UNL A   1      40.110  21.374  26.568  1.00  0.00    +0.000 O 
BRANCH   22   21
ATOM    109  H19 UNL A   1      37.693  23.283  26.084  1.00  0.00    +0.000 H 
ATOM     21  N5  UNL A   1      38.222  22.470  25.921  1.00  0.00    +0.000 N 
BRANCH   21   20
ATOM    108  H18 UNL A   1      37.951  20.512  25.324  1.00  0.00    +0.000 H 
ATOM    107  H17 UNL A   1      37.963  21.695  24.011  1.00  0.00    +0.000 H 
ATOM     20  C14 UNL A   1      37.633  21.483  25.007  1.00  0.00    +0.000 C 
BRANCH   20   19
ATOM    105  H15 UNL A   1      35.756  20.515  24.860  1.00  0.00    +0.000 H 
ATOM    106  H16 UNL A   1      35.818  21.876  25.993  1.00  0.00    +0.000 H 
ATOM     19  C13 UNL A   1      36.116  21.508  25.034  1.00  0.00    +0.000 C 
BRANCH   19   18
ATOM     18  C12 UNL A   1      35.513  22.441  23.974  1.00  0.00    +0.000 C 
ATOM    103  H13 UNL A   1      35.602  23.445  24.333  1.00  0.00    +0.000 H 
ATOM    104  H14 UNL A   1      36.059  22.246  23.075  1.00  0.00    +0.000 H 
BRANCH   18   17
ATOM     17  C11 UNL A   1      34.035  22.198  23.619  1.00  0.00    +0.000 C 
ATOM    101  H11 UNL A   1      33.486  23.082  23.865  1.00  0.00    +0.000 H 
ATOM    102  H12 UNL A   1      34.018  21.955  22.577  1.00  0.00    +0.000 H 
BRANCH   17   16
ATOM     99  H9  UNL A   1      33.119  20.271  23.611  1.00  0.00    +0.000 H 
ATOM    100  H10 UNL A   1      34.074  20.646  25.058  1.00  0.00    +0.000 H 
ATOM     16  C10 UNL A   1      33.373  21.014  24.339  1.00  0.00    +0.000 C 
BRANCH   16   15
ATOM     97  H7  UNL A   1      31.498  22.033  24.477  1.00  0.00    +0.000 H 
ATOM     98  H8  UNL A   1      31.562  20.521  25.358  1.00  0.00    +0.000 H 
ATOM     15  C9  UNL A   1      32.103  21.407  25.098  1.00  0.00    +0.000 C 
BRANCH   15   14
ATOM     14  N4  UNL A   1      32.450  22.126  26.310  1.00  0.00    +0.000 N 
ATOM     96  H6  UNL A   1      32.186  21.655  27.133  1.00  0.00    +0.000 H 
BRANCH   14   12
ATOM     12  C8  UNL A   1      33.071  23.326  26.543  1.00  0.00    +0.000 C 
ATOM     13  O2  UNL A   1      34.046  23.328  27.295  1.00  0.00    +0.000 O 
BRANCH   12   11
ATOM      8  C4  UNL A   1      31.362  26.811  24.771  1.00  0.00    +0.000 C 
ATOM      9  C5  UNL A   1      30.601  26.032  25.640  1.00  0.00    +0.000 C 
ATOM     10  C6  UNL A   1      31.202  24.916  26.232  1.00  0.00    +0.000 C 
ATOM     11  C7  UNL A   1      32.561  24.622  26.014  1.00  0.00    +0.000 C 
ATOM     87  C60 UNL A   1      33.338  25.535  25.300  1.00  0.00    +0.000 C 
ATOM     88  C61 UNL A   1      32.735  26.592  24.623  1.00  0.00    +0.000 C 
ATOM    124  H34 UNL A   1      34.364  25.426  25.272  1.00  0.00    +0.000 H 
ATOM    125  H35 UNL A   1      33.297  27.211  24.017  1.00  0.00    +0.000 H 
ATOM     94  H4  UNL A   1      29.619  26.273  25.843  1.00  0.00    +0.000 H 
ATOM     95  H5  UNL A   1      30.639  24.298  26.836  1.00  0.00    +0.000 H 
BRANCH    8    7
ATOM      4  C3  UNL A   1      29.732  29.613  23.344  1.00  0.00    +0.000 C 
ATOM      5  N1  UNL A   1      29.343  28.563  22.545  1.00  0.00    +0.000 N 
ATOM      6  N2  UNL A   1      30.051  27.493  22.878  1.00  0.00    +0.000 N 
ATOM      7  N3  UNL A   1      30.745  27.799  23.986  1.00  0.00    +0.000 N 
ATOM     89  C62 UNL A   1      30.693  29.160  24.237  1.00  0.00    +0.000 C 
BRANCH    4    2
ATOM      2  C2  UNL A   1      29.162  30.944  23.168  1.00  0.00    +0.000 C 
ATOM      3  O1  UNL A   1      28.882  31.653  24.133  1.00  0.00    +0.000 O 
BRANCH    2    1
ATOM      1  C1  UNL A   1      28.919  31.452  21.771  1.00  0.00    +0.000 C 
ATOM     91  H1  UNL A   1      28.336  32.348  21.814  1.00  0.00    +0.000 H 
ATOM     92  H2  UNL A   1      28.392  30.710  21.208  1.00  0.00    +0.000 H 
ATOM     93  H3  UNL A   1      29.857  31.659  21.299  1.00  0.00    +0.000 H 
ENDBRANCH    2    1
ENDBRANCH    4    2
BRANCH   89   90
ATOM     90  C63 UNL A   1      31.560  29.814  25.247  1.00  0.00    +0.000 C 
ATOM    126  H36 UNL A   1      30.966  30.117  26.084  1.00  0.00    +0.000 H 
ATOM    127  H37 UNL A   1      32.029  30.672  24.813  1.00  0.00    +0.000 H 
ATOM    128  H38 UNL A   1      32.309  29.123  25.574  1.00  0.00    +0.000 H 
ENDBRANCH   89   90
ENDBRANCH    8    7
ENDBRANCH   12   11
ENDBRANCH   14   12
ENDBRANCH   15   14
ENDBRANCH   16   15
ENDBRANCH   17   16
ENDBRANCH   18   17
ENDBRANCH   19   18
ENDBRANCH   20   19
ENDBRANCH   21   20
ENDBRANCH   22   21
ENDBRANCH   24   22
ENDBRANCH   28   27
BRANCH   32   33
ATOM     33  C24 UNL A   1      45.590  30.869  27.541  1.00  0.00    +0.000 C 
ATOM     34  C25 UNL A   1      46.961  30.971  27.226  1.00  0.00    +0.000 C 
ATOM     35  F1  UNL A   1      47.784  29.928  27.413  1.00  0.00    +0.000 F 
ATOM     36  C26 UNL A   1      47.533  32.171  26.796  1.00  0.00    +0.000 C 
ATOM     37  F2  UNL A   1      48.861  32.252  26.631  1.00  0.00    +0.000 F 
ATOM     38  C27 UNL A   1      46.751  33.293  26.605  1.00  0.00    +0.000 C 
ATOM     39  F3  UNL A   1      47.306  34.459  26.253  1.00  0.00    +0.000 F 
ATOM     40  C28 UNL A   1      45.392  33.213  26.827  1.00  0.00    +0.000 C 
ATOM     41  F4  UNL A   1      44.618  34.294  26.660  1.00  0.00    +0.000 F 
ATOM     42  C29 UNL A   1      44.827  32.033  27.306  1.00  0.00    +0.000 C 
ATOM     43  F5  UNL A   1      43.532  32.117  27.631  1.00  0.00    +0.000 F 
ENDBRANCH   32   33
BRANCH   49   50
ATOM     50  C35 UNL A   1      42.620  29.402  33.552  1.00  0.00    +0.000 C 
ATOM     51  C36 UNL A   1      41.986  28.148  33.514  1.00  0.00    +0.000 C 
ATOM     52  F6  UNL A   1      41.618  27.602  32.349  1.00  0.00    +0.000 F 
ATOM     53  C37 UNL A   1      41.772  27.402  34.674  1.00  0.00    +0.000 C 
ATOM     54  F7  UNL A   1      41.159  26.211  34.605  1.00  0.00    +0.000 F 
ATOM     55  C38 UNL A   1      42.228  27.874  35.892  1.00  0.00    +0.000 C 
ATOM     56  F8  UNL A   1      42.064  27.142  37.002  1.00  0.00    +0.000 F 
ATOM     57  C39 UNL A   1      42.881  29.095  35.954  1.00  0.00    +0.000 C 
ATOM     58  F9  UNL A   1      43.369  29.533  37.122  1.00  0.00    +0.000 F 
ATOM     59  C40 UNL A   1      43.064  29.854  34.801  1.00  0.00    +0.000 C 
ATOM     60  F10 UNL A   1      43.726  31.017  34.895  1.00  0.00    +0.000 F 
ENDBRANCH   49   50
BRANCH   64   65
ATOM     65  C44 UNL A   1      37.540  31.880  30.740  1.00  0.00    +0.000 C 
ATOM     66  C45 UNL A   1      37.261  32.427  29.478  1.00  0.00    +0.000 C 
ATOM     67  F11 UNL A   1      38.180  32.371  28.503  1.00  0.00    +0.000 F 
ATOM     68  C46 UNL A   1      36.010  32.977  29.178  1.00  0.00    +0.000 C 
ATOM     69  F12 UNL A   1      35.761  33.441  27.945  1.00  0.00    +0.000 F 
ATOM     70  C47 UNL A   1      35.005  32.995  30.131  1.00  0.00    +0.000 C 
ATOM     71  F13 UNL A   1      33.787  33.464  29.825  1.00  0.00    +0.000 F 
ATOM     72  C48 UNL A   1      35.255  32.484  31.391  1.00  0.00    +0.000 C 
ATOM     73  F14 UNL A   1      34.279  32.458  32.310  1.00  0.00    +0.000 F 
ATOM     74  C49 UNL A   1      36.503  31.935  31.691  1.00  0.00    +0.000 C 
ATOM     75  F15 UNL A   1      36.650  31.371  32.899  1.00  0.00    +0.000 F 
ENDBRANCH   64   65
TORSDOF 19
ENDMDL
MODEL 5
REMARK VINA RESULT:     -11.4      2.917      8.746
ROOT
ATOM     28  C20 UNL A   1      41.094  27.544  28.912  1.00  0.00    +0.000 C 
ATOM     29  C21 UNL A   1      42.287  28.193  28.320  1.00  0.00    +0.000 C 
ATOM     30  N6  UNL A   1      43.375  28.536  28.924  1.00  0.00    +0.000 N 
ATOM     31  C22 UNL A   1      44.174  29.141  27.959  1.00  0.00    +0.000 C 
ATOM     32  C23 UNL A   1      45.137  30.039  28.312  1.00  0.00    +0.000 C 
ATOM     44  C30 UNL A   1      45.419  29.959  29.724  1.00  0.00    +0.000 C 
ATOM     45  C31 UNL A   1      45.926  28.978  30.553  1.00  0.00    +0.000 C 
ATOM     46  C32 UNL A   1      45.158  29.075  31.751  1.00  0.00    +0.000 C 
ATOM     47  C33 UNL A   1      44.285  30.157  31.618  1.00  0.00    +0.000 C 
ATOM     48  N7  UNL A   1      44.793  30.858  30.553  1.00  0.00    +0.000 N 
ATOM     49  C34 UNL A   1      43.069  30.521  32.309  1.00  0.00    +0.000 C 
ATOM     61  C41 UNL A   1      42.121  31.374  31.821  1.00  0.00    +0.000 C 
ATOM     62  N8  UNL A   1      40.829  31.378  32.329  1.00  0.00    +0.000 N 
ATOM     63  C42 UNL A   1      40.086  31.815  31.345  1.00  0.00    +0.000 C 
ATOM     64  C43 UNL A   1      38.761  31.227  31.010  1.00  0.00    +0.000 C 
ATOM     76  C50 UNL A   1      39.000  29.957  30.598  1.00  0.00    +0.000 C 
ATOM     77  C51 UNL A   1      38.115  28.821  30.501  1.00  0.00    +0.000 C 
ATOM     78  C52 UNL A   1      38.831  27.769  30.058  1.00  0.00    +0.000 C 
ATOM     79  C53 UNL A   1      40.178  28.207  29.660  1.00  0.00    +0.000 C 
ATOM     80  N9  UNL A   1      40.247  29.498  30.119  1.00  0.00    +0.000 N 
ATOM     81  C54 UNL A   1      40.794  32.511  30.282  1.00  0.00    +0.000 C 
ATOM     82  C55 UNL A   1      42.041  32.124  30.569  1.00  0.00    +0.000 C 
ATOM     83  C56 UNL A   1      43.573  28.834  26.688  1.00  0.00    +0.000 C 
ATOM     84  C57 UNL A   1      42.341  28.352  26.859  1.00  0.00    +0.000 C 
ATOM    112  H22 UNL A   1      46.694  28.319  30.350  1.00  0.00    +0.000 H 
ATOM    113  H23 UNL A   1      45.233  28.453  32.571  1.00  0.00    +0.000 H 
ATOM    114  H24 UNL A   1      44.720  31.829  30.409  1.00  0.00    +0.000 H 
ATOM    115  H25 UNL A   1      37.108  28.817  30.730  1.00  0.00    +0.000 H 
ATOM    116  H26 UNL A   1      38.486  26.797  30.007  1.00  0.00    +0.000 H 
ATOM    117  H27 UNL A   1      41.069  30.040  30.115  1.00  0.00    +0.000 H 
ATOM    118  H28 UNL A   1      40.439  33.123  29.531  1.00  0.00    +0.000 H 
ATOM    119  H29 UNL A   1      42.856  32.332  29.972  1.00  0.00    +0.000 H 
ATOM    120  H30 UNL A   1      44.031  28.970  25.773  1.00  0.00    +0.000 H 
ATOM    121  H31 UNL A   1      41.618  28.144  26.152  1.00  0.00    +0.000 H 
ENDROOT
BRANCH   28   27
ATOM    122  H32 UNL A   1      39.185  26.944  27.288  1.00  0.00    +0.000 H 
ATOM     27  C19 UNL A   1      40.815  26.211  28.408  1.00  0.00    +0.000 C 
ATOM    110  H20 UNL A   1      41.920  23.061  28.160  1.00  0.00    +0.000 H 
ATOM    111  H21 UNL A   1      42.492  25.196  29.221  1.00  0.00    +0.000 H 
ATOM     85  C58 UNL A   1      39.670  26.102  27.637  1.00  0.00    +0.000 C 
ATOM     86  C59 UNL A   1      39.202  24.859  27.351  1.00  0.00    +0.000 C 
ATOM     24  C16 UNL A   1      40.068  23.777  27.414  1.00  0.00    +0.000 C 
ATOM     25  C17 UNL A   1      41.292  23.876  28.083  1.00  0.00    +0.000 C 
ATOM     26  C18 UNL A   1      41.641  25.103  28.644  1.00  0.00    +0.000 C 
ATOM    123  H33 UNL A   1      38.213  24.721  27.089  1.00  0.00    +0.000 H 
BRANCH   24   22
ATOM     22  C15 UNL A   1      39.641  22.567  26.690  1.00  0.00    +0.000 C 
ATOM     23  O3  UNL A   1      40.352  21.583  26.648  1.00  0.00    +0.000 O 
BRANCH   22   21
ATOM    109  H19 UNL A   1      37.803  23.341  26.329  1.00  0.00    +0.000 H 
ATOM     21  N5  UNL A   1      38.393  22.594  26.079  1.00  0.00    +0.000 N 
BRANCH   21   20
ATOM    108  H18 UNL A   1      37.275  20.915  25.638  1.00  0.00    +0.000 H 
ATOM    107  H17 UNL A   1      38.670  21.179  24.584  1.00  0.00    +0.000 H 
ATOM     20  C14 UNL A   1      37.855  21.639  25.103  1.00  0.00    +0.000 C 
BRANCH   20   19
ATOM    105  H15 UNL A   1      37.320  23.285  23.885  1.00  0.00    +0.000 H 
ATOM    106  H16 UNL A   1      36.936  21.691  23.212  1.00  0.00    +0.000 H 
ATOM     19  C13 UNL A   1      36.944  22.304  24.089  1.00  0.00    +0.000 C 
BRANCH   19   18
ATOM     18  C12 UNL A   1      35.492  22.428  24.577  1.00  0.00    +0.000 C 
ATOM    103  H13 UNL A   1      35.452  23.230  25.283  1.00  0.00    +0.000 H 
ATOM    104  H14 UNL A   1      34.906  22.588  23.696  1.00  0.00    +0.000 H 
BRANCH   18   17
ATOM     17  C11 UNL A   1      34.894  21.178  25.248  1.00  0.00    +0.000 C 
ATOM    101  H11 UNL A   1      34.855  20.398  24.518  1.00  0.00    +0.000 H 
ATOM    102  H12 UNL A   1      35.529  20.958  26.081  1.00  0.00    +0.000 H 
BRANCH   17   16
ATOM     99  H9  UNL A   1      33.505  21.094  26.864  1.00  0.00    +0.000 H 
ATOM    100  H10 UNL A   1      33.203  22.378  25.678  1.00  0.00    +0.000 H 
ATOM     16  C10 UNL A   1      33.483  21.355  25.827  1.00  0.00    +0.000 C 
BRANCH   16   15
ATOM     97  H7  UNL A   1      32.526  19.478  25.466  1.00  0.00    +0.000 H 
ATOM     98  H8  UNL A   1      31.458  20.862  25.360  1.00  0.00    +0.000 H 
ATOM     15  C9  UNL A   1      32.434  20.488  25.127  1.00  0.00    +0.000 C 
BRANCH   15   14
ATOM     14  N4  UNL A   1      32.630  20.533  23.690  1.00  0.00    +0.000 N 
ATOM     96  H6  UNL A   1      33.222  19.822  23.354  1.00  0.00    +0.000 H 
BRANCH   14   12
ATOM     12  C8  UNL A   1      32.159  21.362  22.705  1.00  0.00    +0.000 C 
ATOM     13  O2  UNL A   1      31.808  20.845  21.643  1.00  0.00    +0.000 O 
BRANCH   12   11
ATOM      8  C4  UNL A   1      32.480  25.576  23.291  1.00  0.00    +0.000 C 
ATOM      9  C5  UNL A   1      33.388  24.921  22.462  1.00  0.00    +0.000 C 
ATOM     10  C6  UNL A   1      33.235  23.544  22.263  1.00  0.00    +0.000 C 
ATOM     11  C7  UNL A   1      32.150  22.847  22.826  1.00  0.00    +0.000 C 
ATOM     87  C60 UNL A   1      31.155  23.571  23.483  1.00  0.00    +0.000 C 
ATOM     88  C61 UNL A   1      31.345  24.920  23.775  1.00  0.00    +0.000 C 
ATOM    124  H34 UNL A   1      30.274  23.106  23.754  1.00  0.00    +0.000 H 
ATOM    125  H35 UNL A   1      30.653  25.432  24.345  1.00  0.00    +0.000 H 
ATOM     94  H4  UNL A   1      34.155  25.438  22.005  1.00  0.00    +0.000 H 
ATOM     95  H5  UNL A   1      33.927  23.034  21.694  1.00  0.00    +0.000 H 
BRANCH    8    7
ATOM      4  C3  UNL A   1      32.839  28.726  24.869  1.00  0.00    +0.000 C 
ATOM      5  N1  UNL A   1      32.640  29.042  23.545  1.00  0.00    +0.000 N 
ATOM      6  N2  UNL A   1      32.683  27.924  22.833  1.00  0.00    +0.000 N 
ATOM      7  N3  UNL A   1      32.725  26.897  23.698  1.00  0.00    +0.000 N 
ATOM     89  C62 UNL A   1      32.970  27.350  24.984  1.00  0.00    +0.000 C 
BRANCH    4    2
ATOM      2  C2  UNL A   1      32.899  29.766  25.889  1.00  0.00    +0.000 C 
ATOM      3  O1  UNL A   1      31.984  30.577  26.032  1.00  0.00    +0.000 O 
BRANCH    2    1
ATOM      1  C1  UNL A   1      34.109  29.841  26.782  1.00  0.00    +0.000 C 
ATOM     91  H1  UNL A   1      34.714  30.676  26.497  1.00  0.00    +0.000 H 
ATOM     92  H2  UNL A   1      34.680  28.940  26.686  1.00  0.00    +0.000 H 
ATOM     93  H3  UNL A   1      33.796  29.957  27.799  1.00  0.00    +0.000 H 
ENDBRANCH    2    1
ENDBRANCH    4    2
BRANCH   89   90
ATOM     90  C63 UNL A   1      33.307  26.429  26.097  1.00  0.00    +0.000 C 
ATOM    126  H36 UNL A   1      33.979  25.675  25.745  1.00  0.00    +0.000 H 
ATOM    127  H37 UNL A   1      32.413  25.969  26.461  1.00  0.00    +0.000 H 
ATOM    128  H38 UNL A   1      33.773  26.981  26.887  1.00  0.00    +0.000 H 
ENDBRANCH   89   90
ENDBRANCH    8    7
ENDBRANCH   12   11
ENDBRANCH   14   12
ENDBRANCH   15   14
ENDBRANCH   16   15
ENDBRANCH   17   16
ENDBRANCH   18   17
ENDBRANCH   19   18
ENDBRANCH   20   19
ENDBRANCH   21   20
ENDBRANCH   22   21
ENDBRANCH   24   22
ENDBRANCH   28   27
BRANCH   32   33
ATOM     33  C24 UNL A   1      45.569  31.218  27.477  1.00  0.00    +0.000 C 
ATOM     34  C25 UNL A   1      46.922  31.327  27.098  1.00  0.00    +0.000 C 
ATOM     35  F1  UNL A   1      47.758  30.288  27.243  1.00  0.00    +0.000 F 
ATOM     36  C26 UNL A   1      47.468  32.530  26.644  1.00  0.00    +0.000 C 
ATOM     37  F2  UNL A   1      48.787  32.618  26.417  1.00  0.00    +0.000 F 
ATOM     38  C27 UNL A   1      46.672  33.650  26.493  1.00  0.00    +0.000 C 
ATOM     39  F3  UNL A   1      47.204  34.819  26.119  1.00  0.00    +0.000 F 
ATOM     40  C28 UNL A   1      45.326  33.563  26.779  1.00  0.00    +0.000 C 
ATOM     41  F4  UNL A   1      44.540  34.640  26.652  1.00  0.00    +0.000 F 
ATOM     42  C29 UNL A   1      44.790  32.379  27.282  1.00  0.00    +0.000 C 
ATOM     43  F5  UNL A   1      43.511  32.455  27.668  1.00  0.00    +0.000 F 
ENDBRANCH   32   33
BRANCH   49   50
ATOM     50  C35 UNL A   1      42.734  29.731  33.548  1.00  0.00    +0.000 C 
ATOM     51  C36 UNL A   1      42.839  30.236  34.856  1.00  0.00    +0.000 C 
ATOM     52  F6  UNL A   1      43.314  31.467  35.078  1.00  0.00    +0.000 F 
ATOM     53  C37 UNL A   1      42.398  29.504  35.958  1.00  0.00    +0.000 C 
ATOM     54  F7  UNL A   1      42.516  30.012  37.194  1.00  0.00    +0.000 F 
ATOM     55  C38 UNL A   1      41.801  28.270  35.775  1.00  0.00    +0.000 C 
ATOM     56  F8  UNL A   1      41.337  27.582  36.828  1.00  0.00    +0.000 F 
ATOM     57  C39 UNL A   1      41.660  27.760  34.494  1.00  0.00    +0.000 C 
ATOM     58  F9  UNL A   1      41.039  26.588  34.306  1.00  0.00    +0.000 F 
ATOM     59  C40 UNL A   1      42.132  28.475  33.396  1.00  0.00    +0.000 C 
ATOM     60  F10 UNL A   1      41.952  27.963  32.169  1.00  0.00    +0.000 F 
ENDBRANCH   49   50
BRANCH   64   65
ATOM     65  C44 UNL A   1      37.545  32.043  30.794  1.00  0.00    +0.000 C 
ATOM     66  C45 UNL A   1      37.245  32.592  29.537  1.00  0.00    +0.000 C 
ATOM     67  F11 UNL A   1      38.162  32.571  28.559  1.00  0.00    +0.000 F 
ATOM     68  C46 UNL A   1      35.976  33.106  29.245  1.00  0.00    +0.000 C 
ATOM     69  F12 UNL A   1      35.709  33.572  28.017  1.00  0.00    +0.000 F 
ATOM     70  C47 UNL A   1      34.975  33.086  30.203  1.00  0.00    +0.000 C 
ATOM     71  F13 UNL A   1      33.742  33.521  29.904  1.00  0.00    +0.000 F 
ATOM     72  C48 UNL A   1      35.245  32.574  31.457  1.00  0.00    +0.000 C 
ATOM     73  F14 UNL A   1      34.274  32.511  32.380  1.00  0.00    +0.000 F 
ATOM     74  C49 UNL A   1      36.510  32.060  31.749  1.00  0.00    +0.000 C 
ATOM     75  F15 UNL A   1      36.679  31.491  32.952  1.00  0.00    +0.000 F 
ENDBRANCH   64   65
TORSDOF 19
ENDMDL
MODEL 6
REMARK VINA RESULT:     -11.3      2.924      8.171
ROOT
ATOM     28  C20 UNL A   1      40.882  27.474  28.957  1.00  0.00    +0.000 C 
ATOM     29  C21 UNL A   1      42.051  28.165  28.362  1.00  0.00    +0.000 C 
ATOM     30  N6  UNL A   1      43.152  28.493  28.950  1.00  0.00    +0.000 N 
ATOM     31  C22 UNL A   1      43.916  29.153  27.993  1.00  0.00    +0.000 C 
ATOM     32  C23 UNL A   1      44.878  30.045  28.360  1.00  0.00    +0.000 C 
ATOM     44  C30 UNL A   1      45.202  29.902  29.759  1.00  0.00    +0.000 C 
ATOM     45  C31 UNL A   1      45.744  28.889  30.525  1.00  0.00    +0.000 C 
ATOM     46  C32 UNL A   1      45.010  28.919  31.747  1.00  0.00    +0.000 C 
ATOM     47  C33 UNL A   1      44.122  29.996  31.691  1.00  0.00    +0.000 C 
ATOM     48  N7  UNL A   1      44.590  30.753  30.647  1.00  0.00    +0.000 N 
ATOM     49  C34 UNL A   1      42.922  30.311  32.433  1.00  0.00    +0.000 C 
ATOM     61  C41 UNL A   1      41.951  31.174  32.014  1.00  0.00    +0.000 C 
ATOM     62  N8  UNL A   1      40.674  31.139  32.557  1.00  0.00    +0.000 N 
ATOM     63  C42 UNL A   1      39.898  31.612  31.617  1.00  0.00    +0.000 C 
ATOM     64  C43 UNL A   1      38.571  31.024  31.292  1.00  0.00    +0.000 C 
ATOM     76  C50 UNL A   1      38.812  29.778  30.814  1.00  0.00    +0.000 C 
ATOM     77  C51 UNL A   1      37.937  28.637  30.688  1.00  0.00    +0.000 C 
ATOM     78  C52 UNL A   1      38.652  27.615  30.175  1.00  0.00    +0.000 C 
ATOM     79  C53 UNL A   1      39.981  28.089  29.761  1.00  0.00    +0.000 C 
ATOM     80  N9  UNL A   1      40.049  29.357  30.278  1.00  0.00    +0.000 N 
ATOM     81  C54 UNL A   1      40.567  32.366  30.569  1.00  0.00    +0.000 C 
ATOM     82  C55 UNL A   1      41.826  31.982  30.802  1.00  0.00    +0.000 C 
ATOM     83  C56 UNL A   1      43.281  28.899  26.727  1.00  0.00    +0.000 C 
ATOM     84  C57 UNL A   1      42.060  28.393  26.909  1.00  0.00    +0.000 C 
ATOM    112  H22 UNL A   1      46.513  28.251  30.269  1.00  0.00    +0.000 H 
ATOM    113  H23 UNL A   1      45.116  28.261  32.535  1.00  0.00    +0.000 H 
ATOM    114  H24 UNL A   1      44.502  31.729  30.551  1.00  0.00    +0.000 H 
ATOM    115  H25 UNL A   1      36.938  28.609  30.945  1.00  0.00    +0.000 H 
ATOM    116  H26 UNL A   1      38.316  26.643  30.088  1.00  0.00    +0.000 H 
ATOM    117  H27 UNL A   1      40.864  29.910  30.277  1.00  0.00    +0.000 H 
ATOM    118  H28 UNL A   1      40.183  33.008  29.858  1.00  0.00    +0.000 H 
ATOM    119  H29 UNL A   1      42.621  32.228  30.192  1.00  0.00    +0.000 H 
ATOM    120  H30 UNL A   1      43.711  29.083  25.806  1.00  0.00    +0.000 H 
ATOM    121  H31 UNL A   1      41.320  28.210  26.214  1.00  0.00    +0.000 H 
ENDROOT
BRANCH   28   27
ATOM    122  H32 UNL A   1      38.861  26.897  27.465  1.00  0.00    +0.000 H 
ATOM     27  C19 UNL A   1      40.604  26.163  28.397  1.00  0.00    +0.000 C 
ATOM    110  H20 UNL A   1      41.784  23.075  27.867  1.00  0.00    +0.000 H 
ATOM    111  H21 UNL A   1      42.377  25.165  29.003  1.00  0.00    +0.000 H 
ATOM     85  C58 UNL A   1      39.401  26.056  27.720  1.00  0.00    +0.000 C 
ATOM     86  C59 UNL A   1      38.950  24.815  27.400  1.00  0.00    +0.000 C 
ATOM     24  C16 UNL A   1      39.853  23.764  27.324  1.00  0.00    +0.000 C 
ATOM     25  C17 UNL A   1      41.126  23.870  27.893  1.00  0.00    +0.000 C 
ATOM     26  C18 UNL A   1      41.483  25.074  28.495  1.00  0.00    +0.000 C 
ATOM    123  H33 UNL A   1      37.947  24.655  27.214  1.00  0.00    +0.000 H 
BRANCH   24   22
ATOM     22  C15 UNL A   1      39.404  22.583  26.566  1.00  0.00    +0.000 C 
ATOM     23  O3  UNL A   1      40.095  21.585  26.501  1.00  0.00    +0.000 O 
BRANCH   22   21
ATOM    109  H19 UNL A   1      37.729  23.536  25.941  1.00  0.00    +0.000 H 
ATOM     21  N5  UNL A   1      38.159  22.652  25.953  1.00  0.00    +0.000 N 
BRANCH   21   20
ATOM    108  H18 UNL A   1      37.085  20.894  26.093  1.00  0.00    +0.000 H 
ATOM    107  H17 UNL A   1      38.055  21.059  24.624  1.00  0.00    +0.000 H 
ATOM     20  C14 UNL A   1      37.413  21.557  25.320  1.00  0.00    +0.000 C 
BRANCH   20   19
ATOM    105  H15 UNL A   1      36.240  21.719  23.564  1.00  0.00    +0.000 H 
ATOM    106  H16 UNL A   1      35.326  21.656  25.081  1.00  0.00    +0.000 H 
ATOM     19  C13 UNL A   1      36.184  22.052  24.580  1.00  0.00    +0.000 C 
BRANCH   19   18
ATOM     18  C12 UNL A   1      36.055  23.583  24.587  1.00  0.00    +0.000 C 
ATOM    103  H13 UNL A   1      36.956  23.985  25.002  1.00  0.00    +0.000 H 
ATOM    104  H14 UNL A   1      35.878  23.861  23.569  1.00  0.00    +0.000 H 
BRANCH   18   17
ATOM     17  C11 UNL A   1      34.871  24.159  25.383  1.00  0.00    +0.000 C 
ATOM    101  H11 UNL A   1      33.969  23.883  24.880  1.00  0.00    +0.000 H 
ATOM    102  H12 UNL A   1      34.954  23.756  26.371  1.00  0.00    +0.000 H 
BRANCH   17   16
ATOM     99  H9  UNL A   1      35.414  25.931  26.439  1.00  0.00    +0.000 H 
ATOM    100  H10 UNL A   1      35.329  26.101  24.675  1.00  0.00    +0.000 H 
ATOM     16  C10 UNL A   1      34.872  25.686  25.549  1.00  0.00    +0.000 C 
BRANCH   16   15
ATOM     97  H7  UNL A   1      32.779  25.514  25.948  1.00  0.00    +0.000 H 
ATOM     98  H8  UNL A   1      33.470  27.063  26.386  1.00  0.00    +0.000 H 
ATOM     15  C9  UNL A   1      33.465  26.279  25.656  1.00  0.00    +0.000 C 
BRANCH   15   14
ATOM     14  N4  UNL A   1      33.058  26.826  24.375  1.00  0.00    +0.000 N 
ATOM     96  H6  UNL A   1      33.328  27.764  24.246  1.00  0.00    +0.000 H 
BRANCH   14   12
ATOM     12  C8  UNL A   1      32.373  26.304  23.308  1.00  0.00    +0.000 C 
ATOM     13  O2  UNL A   1      31.750  27.088  22.591  1.00  0.00    +0.000 O 
BRANCH   12   11
ATOM      8  C4  UNL A   1      32.147  22.057  22.964  1.00  0.00    +0.000 C 
ATOM      9  C5  UNL A   1      31.111  22.759  23.577  1.00  0.00    +0.000 C 
ATOM     10  C6  UNL A   1      31.199  24.153  23.643  1.00  0.00    +0.000 C 
ATOM     11  C7  UNL A   1      32.270  24.841  23.043  1.00  0.00    +0.000 C 
ATOM     87  C60 UNL A   1      33.181  24.121  22.269  1.00  0.00    +0.000 C 
ATOM     88  C61 UNL A   1      33.164  22.729  22.279  1.00  0.00    +0.000 C 
ATOM    124  H34 UNL A   1      33.870  24.622  21.686  1.00  0.00    +0.000 H 
ATOM    125  H35 UNL A   1      33.896  22.195  21.783  1.00  0.00    +0.000 H 
ATOM     94  H4  UNL A   1      30.298  22.262  23.973  1.00  0.00    +0.000 H 
ATOM     95  H5  UNL A   1      30.468  24.685  24.139  1.00  0.00    +0.000 H 
BRANCH    8    7
ATOM      4  C3  UNL A   1      32.801  18.641  23.633  1.00  0.00    +0.000 C 
ATOM      5  N1  UNL A   1      32.328  18.639  22.341  1.00  0.00    +0.000 N 
ATOM      6  N2  UNL A   1      31.872  19.852  22.056  1.00  0.00    +0.000 N 
ATOM      7  N3  UNL A   1      32.212  20.659  23.074  1.00  0.00    +0.000 N 
ATOM     89  C62 UNL A   1      32.668  19.920  24.153  1.00  0.00    +0.000 C 
BRANCH    4    2
ATOM      2  C2  UNL A   1      33.316  17.423  24.246  1.00  0.00    +0.000 C 
ATOM      3  O1  UNL A   1      34.236  16.787  23.733  1.00  0.00    +0.000 O 
BRANCH    2    1
ATOM      1  C1  UNL A   1      32.705  16.943  25.536  1.00  0.00    +0.000 C 
ATOM     91  H1  UNL A   1      32.153  16.044  25.358  1.00  0.00    +0.000 H 
ATOM     92  H2  UNL A   1      32.046  17.694  25.921  1.00  0.00    +0.000 H 
ATOM     93  H3  UNL A   1      33.480  16.750  26.249  1.00  0.00    +0.000 H 
ENDBRANCH    2    1
ENDBRANCH    4    2
BRANCH   89   90
ATOM     90  C63 UNL A   1      32.883  20.523  25.492  1.00  0.00    +0.000 C 
ATOM    126  H36 UNL A   1      32.039  21.127  25.750  1.00  0.00    +0.000 H 
ATOM    127  H37 UNL A   1      33.764  21.130  25.472  1.00  0.00    +0.000 H 
ATOM    128  H38 UNL A   1      33.001  19.746  26.218  1.00  0.00    +0.000 H 
ENDBRANCH   89   90
ENDBRANCH    8    7
ENDBRANCH   12   11
ENDBRANCH   14   12
ENDBRANCH   15   14
ENDBRANCH   16   15
ENDBRANCH   17   16
ENDBRANCH   18   17
ENDBRANCH   19   18
ENDBRANCH   20   19
ENDBRANCH   21   20
ENDBRANCH   22   21
ENDBRANCH   24   22
ENDBRANCH   28   27
BRANCH   32   33
ATOM     33  C24 UNL A   1      45.272  31.267  27.570  1.00  0.00    +0.000 C 
ATOM     34  C25 UNL A   1      46.587  31.363  27.071  1.00  0.00    +0.000 C 
ATOM     35  F1  UNL A   1      47.395  30.291  27.062  1.00  0.00    +0.000 F 
ATOM     36  C26 UNL A   1      47.132  32.578  26.650  1.00  0.00    +0.000 C 
ATOM     37  F2  UNL A   1      48.425  32.643  26.303  1.00  0.00    +0.000 F 
ATOM     38  C27 UNL A   1      46.367  33.729  26.654  1.00  0.00    +0.000 C 
ATOM     39  F3  UNL A   1      46.904  34.906  26.311  1.00  0.00    +0.000 F 
ATOM     40  C28 UNL A   1      45.051  33.662  27.062  1.00  0.00    +0.000 C 
ATOM     41  F4  UNL A   1      44.296  34.769  27.085  1.00  0.00    +0.000 F 
ATOM     42  C29 UNL A   1      44.521  32.462  27.531  1.00  0.00    +0.000 C 
ATOM     43  F5  UNL A   1      43.288  32.549  28.044  1.00  0.00    +0.000 F 
ENDBRANCH   32   33
BRANCH   49   50
ATOM     50  C35 UNL A   1      42.632  29.459  33.642  1.00  0.00    +0.000 C 
ATOM     51  C36 UNL A   1      42.025  28.192  33.584  1.00  0.00    +0.000 C 
ATOM     52  F6  UNL A   1      41.606  27.686  32.419  1.00  0.00    +0.000 F 
ATOM     53  C37 UNL A   1      41.892  27.394  34.721  1.00  0.00    +0.000 C 
ATOM     54  F7  UNL A   1      41.303  26.192  34.634  1.00  0.00    +0.000 F 
ATOM     55  C38 UNL A   1      42.403  27.826  35.932  1.00  0.00    +0.000 C 
ATOM     56  F8  UNL A   1      42.316  27.044  37.017  1.00  0.00    +0.000 F 
ATOM     57  C39 UNL A   1      43.030  29.059  36.011  1.00  0.00    +0.000 C 
ATOM     58  F9  UNL A   1      43.571  29.460  37.169  1.00  0.00    +0.000 F 
ATOM     59  C40 UNL A   1      43.132  29.870  34.883  1.00  0.00    +0.000 C 
ATOM     60  F10 UNL A   1      43.772  31.045  34.992  1.00  0.00    +0.000 F 
ENDBRANCH   49   50
BRANCH   64   65
ATOM     65  C44 UNL A   1      37.340  31.834  31.150  1.00  0.00    +0.000 C 
ATOM     66  C45 UNL A   1      36.537  32.146  32.259  1.00  0.00    +0.000 C 
ATOM     67  F11 UNL A   1      36.748  31.536  33.434  1.00  0.00    +0.000 F 
ATOM     68  C46 UNL A   1      35.552  33.139  32.195  1.00  0.00    +0.000 C 
ATOM     69  F12 UNL A   1      34.842  33.448  33.289  1.00  0.00    +0.000 F 
ATOM     70  C47 UNL A   1      35.343  33.844  31.021  1.00  0.00    +0.000 C 
ATOM     71  F13 UNL A   1      34.444  34.838  30.977  1.00  0.00    +0.000 F 
ATOM     72  C48 UNL A   1      36.102  33.546  29.905  1.00  0.00    +0.000 C 
ATOM     73  F14 UNL A   1      35.939  34.248  28.775  1.00  0.00    +0.000 F 
ATOM     74  C49 UNL A   1      37.085  32.556  29.968  1.00  0.00    +0.000 C 
ATOM     75  F15 UNL A   1      37.849  32.381  28.880  1.00  0.00    +0.000 F 
ENDBRANCH   64   65
TORSDOF 19
ENDMDL
MODEL 7
REMARK VINA RESULT:     -11.3      5.282     11.373
ROOT
ATOM     28  C20 UNL A   1      40.858  28.075  28.773  1.00  0.00    +0.000 C 
ATOM     29  C21 UNL A   1      41.941  28.901  28.190  1.00  0.00    +0.000 C 
ATOM     30  N6  UNL A   1      42.995  29.348  28.785  1.00  0.00    +0.000 N 
ATOM     31  C22 UNL A   1      43.681  30.100  27.837  1.00  0.00    +0.000 C 
ATOM     32  C23 UNL A   1      44.534  31.093  28.216  1.00  0.00    +0.000 C 
ATOM     44  C30 UNL A   1      44.867  30.976  29.615  1.00  0.00    +0.000 C 
ATOM     45  C31 UNL A   1      45.520  30.025  30.374  1.00  0.00    +0.000 C 
ATOM     46  C32 UNL A   1      44.783  29.959  31.594  1.00  0.00    +0.000 C 
ATOM     47  C33 UNL A   1      43.777  30.926  31.543  1.00  0.00    +0.000 C 
ATOM     48  N7  UNL A   1      44.159  31.742  30.508  1.00  0.00    +0.000 N 
ATOM     49  C34 UNL A   1      42.547  31.095  32.283  1.00  0.00    +0.000 C 
ATOM     61  C41 UNL A   1      41.485  31.845  31.868  1.00  0.00    +0.000 C 
ATOM     62  N8  UNL A   1      40.218  31.658  32.406  1.00  0.00    +0.000 N 
ATOM     63  C42 UNL A   1      39.396  32.048  31.467  1.00  0.00    +0.000 C 
ATOM     64  C43 UNL A   1      38.146  31.314  31.131  1.00  0.00    +0.000 C 
ATOM     76  C50 UNL A   1      38.530  30.109  30.642  1.00  0.00    +0.000 C 
ATOM     77  C51 UNL A   1      37.793  28.876  30.503  1.00  0.00    +0.000 C 
ATOM     78  C52 UNL A   1      38.622  27.948  29.984  1.00  0.00    +0.000 C 
ATOM     79  C53 UNL A   1      39.889  28.575  29.579  1.00  0.00    +0.000 C 
ATOM     80  N9  UNL A   1      39.810  29.838  30.108  1.00  0.00    +0.000 N 
ATOM     81  C54 UNL A   1      39.977  32.883  30.428  1.00  0.00    +0.000 C 
ATOM     82  C55 UNL A   1      41.271  32.644  30.662  1.00  0.00    +0.000 C 
ATOM     83  C56 UNL A   1      43.084  29.787  26.566  1.00  0.00    +0.000 C 
ATOM     84  C57 UNL A   1      41.928  29.142  26.739  1.00  0.00    +0.000 C 
ATOM    112  H22 UNL A   1      46.358  29.481  30.115  1.00  0.00    +0.000 H 
ATOM    113  H23 UNL A   1      44.961  29.310  32.376  1.00  0.00    +0.000 H 
ATOM    114  H24 UNL A   1      43.960  32.702  30.421  1.00  0.00    +0.000 H 
ATOM    115  H25 UNL A   1      36.802  28.731  30.755  1.00  0.00    +0.000 H 
ATOM    116  H26 UNL A   1      38.400  26.944  29.886  1.00  0.00    +0.000 H 
ATOM    117  H27 UNL A   1      40.556  30.480  30.115  1.00  0.00    +0.000 H 
ATOM    118  H28 UNL A   1      39.524  33.484  29.721  1.00  0.00    +0.000 H 
ATOM    119  H29 UNL A   1      42.035  32.986  30.058  1.00  0.00    +0.000 H 
ATOM    120  H30 UNL A   1      43.492  30.028  25.649  1.00  0.00    +0.000 H 
ATOM    121  H31 UNL A   1      41.216  28.882  26.039  1.00  0.00    +0.000 H 
ENDROOT
BRANCH   28   27
ATOM    122  H32 UNL A   1      41.871  25.928  29.777  1.00  0.00    +0.000 H 
ATOM     27  C19 UNL A   1      40.733  26.746  28.201  1.00  0.00    +0.000 C 
ATOM    110  H20 UNL A   1      39.208  24.861  25.892  1.00  0.00    +0.000 H 
ATOM    111  H21 UNL A   1      39.393  27.196  26.617  1.00  0.00    +0.000 H 
ATOM     85  C58 UNL A   1      41.455  25.757  28.848  1.00  0.00    +0.000 C 
ATOM     86  C59 UNL A   1      41.600  24.556  28.229  1.00  0.00    +0.000 C 
ATOM     24  C16 UNL A   1      40.693  24.185  27.247  1.00  0.00    +0.000 C 
ATOM     25  C17 UNL A   1      39.859  25.132  26.646  1.00  0.00    +0.000 C 
ATOM     26  C18 UNL A   1      39.926  26.451  27.092  1.00  0.00    +0.000 C 
ATOM    123  H33 UNL A   1      42.377  23.927  28.486  1.00  0.00    +0.000 H 
BRANCH   24   22
ATOM     22  C15 UNL A   1      40.633  22.746  26.937  1.00  0.00    +0.000 C 
ATOM     23  O3  UNL A   1      39.568  22.163  26.891  1.00  0.00    +0.000 O 
BRANCH   22   21
ATOM    109  H19 UNL A   1      42.097  21.399  27.327  1.00  0.00    +0.000 H 
ATOM     21  N5  UNL A   1      41.835  22.095  26.683  1.00  0.00    +0.000 N 
BRANCH   21   20
ATOM    108  H18 UNL A   1      42.658  23.349  25.264  1.00  0.00    +0.000 H 
ATOM    107  H17 UNL A   1      42.504  21.660  24.765  1.00  0.00    +0.000 H 
ATOM     20  C14 UNL A   1      42.756  22.327  25.563  1.00  0.00    +0.000 C 
BRANCH   20   19
ATOM    105  H15 UNL A   1      44.296  21.103  26.347  1.00  0.00    +0.000 H 
ATOM    106  H16 UNL A   1      44.799  22.230  25.075  1.00  0.00    +0.000 H 
ATOM     19  C13 UNL A   1      44.204  22.094  25.953  1.00  0.00    +0.000 C 
BRANCH   19   18
ATOM     18  C12 UNL A   1      44.708  23.089  27.010  1.00  0.00    +0.000 C 
ATOM    103  H13 UNL A   1      44.053  23.935  27.001  1.00  0.00    +0.000 H 
ATOM    104  H14 UNL A   1      44.715  22.548  27.933  1.00  0.00    +0.000 H 
BRANCH   18   17
ATOM     17  C11 UNL A   1      46.146  23.605  26.824  1.00  0.00    +0.000 C 
ATOM    101  H11 UNL A   1      46.263  24.480  27.427  1.00  0.00    +0.000 H 
ATOM    102  H12 UNL A   1      46.788  22.797  27.105  1.00  0.00    +0.000 H 
BRANCH   17   16
ATOM     99  H9  UNL A   1      47.550  23.680  25.219  1.00  0.00    +0.000 H 
ATOM    100  H10 UNL A   1      45.860  23.450  24.732  1.00  0.00    +0.000 H 
ATOM     16  C10 UNL A   1      46.532  23.968  25.383  1.00  0.00    +0.000 C 
BRANCH   16   15
ATOM     97  H7  UNL A   1      46.792  25.668  24.111  1.00  0.00    +0.000 H 
ATOM     98  H8  UNL A   1      45.360  25.735  25.119  1.00  0.00    +0.000 H 
ATOM     15  C9  UNL A   1      46.395  25.463  25.083  1.00  0.00    +0.000 C 
BRANCH   15   14
ATOM     14  N4  UNL A   1      47.125  26.237  26.071  1.00  0.00    +0.000 N 
ATOM     96  H6  UNL A   1      48.078  25.997  26.130  1.00  0.00    +0.000 H 
BRANCH   14   12
ATOM     12  C8  UNL A   1      46.758  27.233  26.939  1.00  0.00    +0.000 C 
ATOM     13  O2  UNL A   1      46.887  28.397  26.560  1.00  0.00    +0.000 O 
BRANCH   12   11
ATOM      8  C4  UNL A   1      45.694  26.117  30.918  1.00  0.00    +0.000 C 
ATOM      9  C5  UNL A   1      47.003  26.498  30.632  1.00  0.00    +0.000 C 
ATOM     10  C6  UNL A   1      47.312  26.892  29.325  1.00  0.00    +0.000 C 
ATOM     11  C7  UNL A   1      46.314  26.972  28.337  1.00  0.00    +0.000 C 
ATOM     87  C60 UNL A   1      44.983  26.775  28.710  1.00  0.00    +0.000 C 
ATOM     88  C61 UNL A   1      44.675  26.286  29.977  1.00  0.00    +0.000 C 
ATOM    124  H34 UNL A   1      44.224  26.993  28.045  1.00  0.00    +0.000 H 
ATOM    125  H35 UNL A   1      43.700  26.050  30.220  1.00  0.00    +0.000 H 
ATOM     94  H4  UNL A   1      47.728  26.491  31.366  1.00  0.00    +0.000 H 
ATOM     95  H5  UNL A   1      48.287  27.127  29.083  1.00  0.00    +0.000 H 
BRANCH    8    7
ATOM      4  C3  UNL A   1      44.394  24.387  33.721  1.00  0.00    +0.000 C 
ATOM      5  N1  UNL A   1      45.112  25.421  34.276  1.00  0.00    +0.000 N 
ATOM      6  N2  UNL A   1      45.799  26.022  33.315  1.00  0.00    +0.000 N 
ATOM      7  N3  UNL A   1      45.391  25.505  32.145  1.00  0.00    +0.000 N 
ATOM     89  C62 UNL A   1      44.616  24.375  32.352  1.00  0.00    +0.000 C 
BRANCH    4    2
ATOM      2  C2  UNL A   1      43.581  23.505  34.551  1.00  0.00    +0.000 C 
ATOM      3  O1  UNL A   1      43.845  22.309  34.664  1.00  0.00    +0.000 O 
BRANCH    2    1
ATOM      1  C1  UNL A   1      42.397  24.082  35.282  1.00  0.00    +0.000 C 
ATOM     91  H1  UNL A   1      42.342  23.657  36.263  1.00  0.00    +0.000 H 
ATOM     92  H2  UNL A   1      41.500  23.854  34.746  1.00  0.00    +0.000 H 
ATOM     93  H3  UNL A   1      42.508  25.143  35.359  1.00  0.00    +0.000 H 
ENDBRANCH    2    1
ENDBRANCH    4    2
BRANCH   89   90
ATOM     90  C63 UNL A   1      44.232  23.465  31.246  1.00  0.00    +0.000 C 
ATOM    126  H36 UNL A   1      44.597  22.480  31.451  1.00  0.00    +0.000 H 
ATOM    127  H37 UNL A   1      44.655  23.819  30.329  1.00  0.00    +0.000 H 
ATOM    128  H38 UNL A   1      43.165  23.438  31.160  1.00  0.00    +0.000 H 
ENDBRANCH   89   90
ENDBRANCH    8    7
ENDBRANCH   12   11
ENDBRANCH   14   12
ENDBRANCH   15   14
ENDBRANCH   16   15
ENDBRANCH   17   16
ENDBRANCH   18   17
ENDBRANCH   19   18
ENDBRANCH   20   19
ENDBRANCH   21   20
ENDBRANCH   22   21
ENDBRANCH   24   22
ENDBRANCH   28   27
BRANCH   32   33
ATOM     33  C24 UNL A   1      44.787  32.360  27.439  1.00  0.00    +0.000 C 
ATOM     34  C25 UNL A   1      46.010  32.508  26.754  1.00  0.00    +0.000 C 
ATOM     35  F1  UNL A   1      46.823  31.455  26.572  1.00  0.00    +0.000 F 
ATOM     36  C26 UNL A   1      46.468  33.754  26.319  1.00  0.00    +0.000 C 
ATOM     37  F2  UNL A   1      47.694  33.863  25.787  1.00  0.00    +0.000 F 
ATOM     38  C27 UNL A   1      45.696  34.886  26.495  1.00  0.00    +0.000 C 
ATOM     39  F3  UNL A   1      46.159  36.089  26.135  1.00  0.00    +0.000 F 
ATOM     40  C28 UNL A   1      44.458  34.771  27.090  1.00  0.00    +0.000 C 
ATOM     41  F4  UNL A   1      43.699  35.859  27.281  1.00  0.00    +0.000 F 
ATOM     42  C29 UNL A   1      44.022  33.539  27.572  1.00  0.00    +0.000 C 
ATOM     43  F5  UNL A   1      42.878  33.574  28.266  1.00  0.00    +0.000 F 
ENDBRANCH   32   33
BRANCH   49   50
ATOM     50  C35 UNL A   1      42.353  30.204  33.483  1.00  0.00    +0.000 C 
ATOM     51  C36 UNL A   1      42.450  30.646  34.815  1.00  0.00    +0.000 C 
ATOM     52  F6  UNL A   1      42.790  31.909  35.094  1.00  0.00    +0.000 F 
ATOM     53  C37 UNL A   1      42.139  29.808  35.886  1.00  0.00    +0.000 C 
ATOM     54  F7  UNL A   1      42.247  30.257  37.145  1.00  0.00    +0.000 F 
ATOM     55  C38 UNL A   1      41.681  28.524  35.649  1.00  0.00    +0.000 C 
ATOM     56  F8  UNL A   1      41.340  27.730  36.673  1.00  0.00    +0.000 F 
ATOM     57  C39 UNL A   1      41.550  28.073  34.345  1.00  0.00    +0.000 C 
ATOM     58  F9  UNL A   1      41.060  26.849  34.108  1.00  0.00    +0.000 F 
ATOM     59  C40 UNL A   1      41.893  28.898  33.277  1.00  0.00    +0.000 C 
ATOM     60  F10 UNL A   1      41.725  28.437  32.028  1.00  0.00    +0.000 F 
ENDBRANCH   49   50
BRANCH   64   65
ATOM     65  C44 UNL A   1      36.831  31.979  30.991  1.00  0.00    +0.000 C 
ATOM     66  C45 UNL A   1      36.008  32.216  32.104  1.00  0.00    +0.000 C 
ATOM     67  F11 UNL A   1      36.298  31.651  33.285  1.00  0.00    +0.000 F 
ATOM     68  C46 UNL A   1      34.918  33.090  32.037  1.00  0.00    +0.000 C 
ATOM     69  F12 UNL A   1      34.187  33.334  33.134  1.00  0.00    +0.000 F 
ATOM     70  C47 UNL A   1      34.620  33.750  30.856  1.00  0.00    +0.000 C 
ATOM     71  F13 UNL A   1      33.614  34.636  30.807  1.00  0.00    +0.000 F 
ATOM     72  C48 UNL A   1      35.397  33.522  29.735  1.00  0.00    +0.000 C 
ATOM     73  F14 UNL A   1      35.146  34.185  28.598  1.00  0.00    +0.000 F 
ATOM     74  C49 UNL A   1      36.485  32.650  29.802  1.00  0.00    +0.000 C 
ATOM     75  F15 UNL A   1      37.255  32.545  28.708  1.00  0.00    +0.000 F 
ENDBRANCH   64   65
TORSDOF 19
ENDMDL
MODEL 8
REMARK VINA RESULT:     -11.1      5.449     11.723
ROOT
ATOM     28  C20 UNL A   1      41.250  27.833  28.845  1.00  0.00    +0.000 C 
ATOM     29  C21 UNL A   1      42.377  28.684  28.397  1.00  0.00    +0.000 C 
ATOM     30  N6  UNL A   1      43.358  29.127  29.109  1.00  0.00    +0.000 N 
ATOM     31  C22 UNL A   1      44.129  29.909  28.256  1.00  0.00    +0.000 C 
ATOM     32  C23 UNL A   1      44.925  30.902  28.744  1.00  0.00    +0.000 C 
ATOM     44  C30 UNL A   1      45.113  30.754  30.167  1.00  0.00    +0.000 C 
ATOM     45  C31 UNL A   1      45.695  29.791  30.968  1.00  0.00    +0.000 C 
ATOM     46  C32 UNL A   1      44.837  29.688  32.102  1.00  0.00    +0.000 C 
ATOM     47  C33 UNL A   1      43.830  30.646  31.970  1.00  0.00    +0.000 C 
ATOM     48  N7  UNL A   1      44.306  31.491  30.999  1.00  0.00    +0.000 N 
ATOM     49  C34 UNL A   1      42.527  30.784  32.581  1.00  0.00    +0.000 C 
ATOM     61  C41 UNL A   1      41.504  31.533  32.075  1.00  0.00    +0.000 C 
ATOM     62  N8  UNL A   1      40.191  31.319  32.474  1.00  0.00    +0.000 N 
ATOM     63  C42 UNL A   1      39.466  31.723  31.463  1.00  0.00    +0.000 C 
ATOM     64  C43 UNL A   1      38.267  30.985  30.982  1.00  0.00    +0.000 C 
ATOM     76  C50 UNL A   1      38.715  29.796  30.508  1.00  0.00    +0.000 C 
ATOM     77  C51 UNL A   1      38.012  28.559  30.265  1.00  0.00    +0.000 C 
ATOM     78  C52 UNL A   1      38.903  27.653  29.813  1.00  0.00    +0.000 C 
ATOM     79  C53 UNL A   1      40.197  28.303  29.557  1.00  0.00    +0.000 C 
ATOM     80  N9  UNL A   1      40.047  29.552  30.104  1.00  0.00    +0.000 N 
ATOM     81  C54 UNL A   1      40.141  32.590  30.510  1.00  0.00    +0.000 C 
ATOM     82  C55 UNL A   1      41.407  32.359  30.873  1.00  0.00    +0.000 C 
ATOM     83  C56 UNL A   1      43.672  29.621  26.922  1.00  0.00    +0.000 C 
ATOM     84  C57 UNL A   1      42.513  28.961  26.959  1.00  0.00    +0.000 C 
ATOM    112  H22 UNL A   1      46.563  29.263  30.785  1.00  0.00    +0.000 H 
ATOM    113  H23 UNL A   1      44.941  29.022  32.884  1.00  0.00    +0.000 H 
ATOM    114  H24 UNL A   1      44.104  32.451  30.914  1.00  0.00    +0.000 H 
ATOM    115  H25 UNL A   1      37.003  28.398  30.409  1.00  0.00    +0.000 H 
ATOM    116  H26 UNL A   1      38.705  26.650  29.670  1.00  0.00    +0.000 H 
ATOM    117  H27 UNL A   1      40.780  30.202  30.204  1.00  0.00    +0.000 H 
ATOM    118  H28 UNL A   1      39.756  33.203  29.774  1.00  0.00    +0.000 H 
ATOM    119  H29 UNL A   1      42.224  32.723  30.359  1.00  0.00    +0.000 H 
ATOM    120  H30 UNL A   1      44.170  29.889  26.058  1.00  0.00    +0.000 H 
ATOM    121  H31 UNL A   1      41.880  28.710  26.183  1.00  0.00    +0.000 H 
ENDROOT
BRANCH   28   27
ATOM    122  H32 UNL A   1      42.199  25.676  29.890  1.00  0.00    +0.000 H 
ATOM     27  C19 UNL A   1      41.203  26.517  28.232  1.00  0.00    +0.000 C 
ATOM    110  H20 UNL A   1      39.936  24.669  25.745  1.00  0.00    +0.000 H 
ATOM    111  H21 UNL A   1      40.012  26.987  26.539  1.00  0.00    +0.000 H 
ATOM     85  C58 UNL A   1      41.876  25.523  28.922  1.00  0.00    +0.000 C 
ATOM     86  C59 UNL A   1      42.100  24.340  28.291  1.00  0.00    +0.000 C 
ATOM     24  C16 UNL A   1      41.297  23.980  27.219  1.00  0.00    +0.000 C 
ATOM     25  C17 UNL A   1      40.507  24.930  26.564  1.00  0.00    +0.000 C 
ATOM     26  C18 UNL A   1      40.510  26.238  27.045  1.00  0.00    +0.000 C 
ATOM    123  H33 UNL A   1      42.860  23.716  28.606  1.00  0.00    +0.000 H 
BRANCH   24   22
ATOM     22  C15 UNL A   1      41.291  22.549  26.871  1.00  0.00    +0.000 C 
ATOM     23  O3  UNL A   1      40.757  21.734  27.597  1.00  0.00    +0.000 O 
BRANCH   22   21
ATOM    109  H19 UNL A   1      41.409  21.527  25.125  1.00  0.00    +0.000 H 
ATOM     21  N5  UNL A   1      41.898  22.178  25.677  1.00  0.00    +0.000 N 
BRANCH   21   20
ATOM    108  H18 UNL A   1      43.202  23.714  25.225  1.00  0.00    +0.000 H 
ATOM    107  H17 UNL A   1      43.272  22.331  24.127  1.00  0.00    +0.000 H 
ATOM     20  C14 UNL A   1      43.183  22.647  25.145  1.00  0.00    +0.000 C 
BRANCH   20   19
ATOM    105  H15 UNL A   1      43.992  21.479  26.715  1.00  0.00    +0.000 H 
ATOM    106  H16 UNL A   1      44.978  21.556  25.246  1.00  0.00    +0.000 H 
ATOM     19  C13 UNL A   1      44.363  22.103  25.929  1.00  0.00    +0.000 C 
BRANCH   19   18
ATOM     18  C12 UNL A   1      45.232  23.207  26.549  1.00  0.00    +0.000 C 
ATOM    103  H13 UNL A   1      44.616  23.771  27.219  1.00  0.00    +0.000 H 
ATOM    104  H14 UNL A   1      46.046  22.700  27.023  1.00  0.00    +0.000 H 
BRANCH   18   17
ATOM     17  C11 UNL A   1      45.880  24.195  25.562  1.00  0.00    +0.000 C 
ATOM    101  H11 UNL A   1      46.913  24.289  25.821  1.00  0.00    +0.000 H 
ATOM    102  H12 UNL A   1      45.715  23.788  24.586  1.00  0.00    +0.000 H 
BRANCH   17   16
ATOM     99  H9  UNL A   1      45.944  26.262  25.043  1.00  0.00    +0.000 H 
ATOM    100  H10 UNL A   1      44.327  25.533  25.033  1.00  0.00    +0.000 H 
ATOM     16  C10 UNL A   1      45.266  25.602  25.542  1.00  0.00    +0.000 C 
BRANCH   16   15
ATOM     97  H7  UNL A   1      44.584  27.143  26.859  1.00  0.00    +0.000 H 
ATOM     98  H8  UNL A   1      44.287  25.517  27.439  1.00  0.00    +0.000 H 
ATOM     15  C9  UNL A   1      44.987  26.156  26.942  1.00  0.00    +0.000 C 
BRANCH   15   14
ATOM     14  N4  UNL A   1      46.217  26.204  27.711  1.00  0.00    +0.000 N 
ATOM     96  H6  UNL A   1      46.954  25.694  27.303  1.00  0.00    +0.000 H 
BRANCH   14   12
ATOM     12  C8  UNL A   1      46.562  26.813  28.890  1.00  0.00    +0.000 C 
ATOM     13  O2  UNL A   1      47.320  27.782  28.832  1.00  0.00    +0.000 O 
BRANCH   12   11
ATOM      8  C4  UNL A   1      45.232  25.728  32.796  1.00  0.00    +0.000 C 
ATOM      9  C5  UNL A   1      44.300  25.967  31.789  1.00  0.00    +0.000 C 
ATOM     10  C6  UNL A   1      44.769  26.287  30.511  1.00  0.00    +0.000 C 
ATOM     11  C7  UNL A   1      46.147  26.297  30.225  1.00  0.00    +0.000 C 
ATOM     87  C60 UNL A   1      47.038  25.859  31.205  1.00  0.00    +0.000 C 
ATOM     88  C61 UNL A   1      46.596  25.636  32.507  1.00  0.00    +0.000 C 
ATOM    124  H34 UNL A   1      48.029  25.697  30.965  1.00  0.00    +0.000 H 
ATOM    125  H35 UNL A   1      47.271  25.404  33.253  1.00  0.00    +0.000 H 
ATOM     94  H4  UNL A   1      43.288  25.910  31.981  1.00  0.00    +0.000 H 
ATOM     95  H5  UNL A   1      44.094  26.520  29.766  1.00  0.00    +0.000 H 
BRANCH    8    7
ATOM      4  C3  UNL A   1      44.728  25.767  36.301  1.00  0.00    +0.000 C 
ATOM      5  N1  UNL A   1      44.097  24.615  35.891  1.00  0.00    +0.000 N 
ATOM      6  N2  UNL A   1      44.063  24.601  34.565  1.00  0.00    +0.000 N 
ATOM      7  N3  UNL A   1      44.814  25.627  34.133  1.00  0.00    +0.000 N 
ATOM     89  C62 UNL A   1      45.135  26.475  35.181  1.00  0.00    +0.000 C 
BRANCH    4    2
ATOM      2  C2  UNL A   1      44.864  26.085  37.718  1.00  0.00    +0.000 C 
ATOM      3  O1  UNL A   1      44.730  27.236  38.132  1.00  0.00    +0.000 O 
BRANCH    2    1
ATOM      1  C1  UNL A   1      45.173  24.974  38.687  1.00  0.00    +0.000 C 
ATOM     91  H1  UNL A   1      44.978  24.030  38.222  1.00  0.00    +0.000 H 
ATOM     92  H2  UNL A   1      44.558  25.077  39.556  1.00  0.00    +0.000 H 
ATOM     93  H3  UNL A   1      46.204  25.025  38.971  1.00  0.00    +0.000 H 
ENDBRANCH    2    1
ENDBRANCH    4    2
BRANCH   89   90
ATOM     90  C63 UNL A   1      45.746  27.808  34.962  1.00  0.00    +0.000 C 
ATOM    126  H36 UNL A   1      45.109  28.564  35.371  1.00  0.00    +0.000 H 
ATOM    127  H37 UNL A   1      45.870  27.975  33.912  1.00  0.00    +0.000 H 
ATOM    128  H38 UNL A   1      46.701  27.847  35.445  1.00  0.00    +0.000 H 
ENDBRANCH   89   90
ENDBRANCH    8    7
ENDBRANCH   12   11
ENDBRANCH   14   12
ENDBRANCH   15   14
ENDBRANCH   16   15
ENDBRANCH   17   16
ENDBRANCH   18   17
ENDBRANCH   19   18
ENDBRANCH   20   19
ENDBRANCH   21   20
ENDBRANCH   22   21
ENDBRANCH   24   22
ENDBRANCH   28   27
BRANCH   32   33
ATOM     33  C24 UNL A   1      45.241  32.190  28.027  1.00  0.00    +0.000 C 
ATOM     34  C25 UNL A   1      44.189  33.076  27.719  1.00  0.00    +0.000 C 
ATOM     35  F1  UNL A   1      42.978  32.918  28.275  1.00  0.00    +0.000 F 
ATOM     36  C26 UNL A   1      44.331  34.091  26.769  1.00  0.00    +0.000 C 
ATOM     37  F2  UNL A   1      43.266  34.827  26.419  1.00  0.00    +0.000 F 
ATOM     38  C27 UNL A   1      45.542  34.297  26.137  1.00  0.00    +0.000 C 
ATOM     39  F3  UNL A   1      45.664  35.226  25.182  1.00  0.00    +0.000 F 
ATOM     40  C28 UNL A   1      46.618  33.500  26.468  1.00  0.00    +0.000 C 
ATOM     41  F4  UNL A   1      47.798  33.675  25.857  1.00  0.00    +0.000 F 
ATOM     42  C29 UNL A   1      46.466  32.454  27.376  1.00  0.00    +0.000 C 
ATOM     43  F5  UNL A   1      47.531  31.655  27.503  1.00  0.00    +0.000 F 
ENDBRANCH   32   33
BRANCH   49   50
ATOM     50  C35 UNL A   1      42.221  29.862  33.733  1.00  0.00    +0.000 C 
ATOM     51  C36 UNL A   1      41.845  28.515  33.585  1.00  0.00    +0.000 C 
ATOM     52  F6  UNL A   1      41.678  27.980  32.370  1.00  0.00    +0.000 F 
ATOM     53  C37 UNL A   1      41.694  27.674  34.688  1.00  0.00    +0.000 C 
ATOM     54  F7  UNL A   1      41.330  26.395  34.514  1.00  0.00    +0.000 F 
ATOM     55  C38 UNL A   1      41.957  28.149  35.960  1.00  0.00    +0.000 C 
ATOM     56  F8  UNL A   1      41.855  27.333  37.019  1.00  0.00    +0.000 F 
ATOM     57  C39 UNL A   1      42.355  29.465  36.133  1.00  0.00    +0.000 C 
ATOM     58  F9  UNL A   1      42.660  29.916  37.357  1.00  0.00    +0.000 F 
ATOM     59  C40 UNL A   1      42.473  30.314  35.034  1.00  0.00    +0.000 C 
ATOM     60  F10 UNL A   1      42.889  31.573  35.237  1.00  0.00    +0.000 F 
ENDBRANCH   49   50
BRANCH   64   65
ATOM     65  C44 UNL A   1      36.965  31.639  30.722  1.00  0.00    +0.000 C 
ATOM     66  C45 UNL A   1      36.021  31.824  31.745  1.00  0.00    +0.000 C 
ATOM     67  F11 UNL A   1      36.187  31.218  32.929  1.00  0.00    +0.000 F 
ATOM     68  C46 UNL A   1      34.930  32.687  31.589  1.00  0.00    +0.000 C 
ATOM     69  F12 UNL A   1      34.079  32.881  32.606  1.00  0.00    +0.000 F 
ATOM     70  C47 UNL A   1      34.755  33.389  30.407  1.00  0.00    +0.000 C 
ATOM     71  F13 UNL A   1      33.747  34.263  30.280  1.00  0.00    +0.000 F 
ATOM     72  C48 UNL A   1      35.655  33.213  29.372  1.00  0.00    +0.000 C 
ATOM     73  F14 UNL A   1      35.520  33.916  28.239  1.00  0.00    +0.000 F 
ATOM     74  C49 UNL A   1      36.742  32.352  29.527  1.00  0.00    +0.000 C 
ATOM     75  F15 UNL A   1      37.630  32.297  28.522  1.00  0.00    +0.000 F 
ENDBRANCH   64   65
TORSDOF 19
ENDMDL
MODEL 9
REMARK VINA RESULT:     -10.8     25.361     30.132
ROOT
ATOM     28  C20 UNL A   1      23.120  36.512  48.103  1.00  0.00    +0.000 C 
ATOM     29  C21 UNL A   1      23.656  37.877  47.886  1.00  0.00    +0.000 C 
ATOM     30  N6  UNL A   1      24.114  38.692  48.776  1.00  0.00    +0.000 N 
ATOM     31  C22 UNL A   1      24.457  39.854  48.092  1.00  0.00    +0.000 C 
ATOM     32  C23 UNL A   1      24.498  41.056  48.733  1.00  0.00    +0.000 C 
ATOM     44  C30 UNL A   1      24.513  40.873  50.163  1.00  0.00    +0.000 C 
ATOM     45  C31 UNL A   1      25.392  40.287  51.052  1.00  0.00    +0.000 C 
ATOM     46  C32 UNL A   1      24.564  39.617  52.001  1.00  0.00    +0.000 C 
ATOM     47  C33 UNL A   1      23.233  39.899  51.688  1.00  0.00    +0.000 C 
ATOM     48  N7  UNL A   1      23.317  40.970  50.833  1.00  0.00    +0.000 N 
ATOM     49  C34 UNL A   1      21.989  39.254  52.041  1.00  0.00    +0.000 C 
ATOM     61  C41 UNL A   1      20.817  39.393  51.356  1.00  0.00    +0.000 C 
ATOM     62  N8  UNL A   1      19.788  38.471  51.495  1.00  0.00    +0.000 N 
ATOM     63  C42 UNL A   1      19.127  38.536  50.369  1.00  0.00    +0.000 C 
ATOM     64  C43 UNL A   1      18.614  37.332  49.661  1.00  0.00    +0.000 C 
ATOM     76  C50 UNL A   1      19.704  36.625  49.271  1.00  0.00    +0.000 C 
ATOM     77  C51 UNL A   1      19.835  35.240  48.886  1.00  0.00    +0.000 C 
ATOM     78  C52 UNL A   1      21.132  35.004  48.604  1.00  0.00    +0.000 C 
ATOM     79  C53 UNL A   1      21.886  36.267  48.606  1.00  0.00    +0.000 C 
ATOM     80  N9  UNL A   1      20.998  37.174  49.126  1.00  0.00    +0.000 N 
ATOM     81  C54 UNL A   1      19.360  39.729  49.570  1.00  0.00    +0.000 C 
ATOM     82  C55 UNL A   1      20.473  40.168  50.165  1.00  0.00    +0.000 C 
ATOM     83  C56 UNL A   1      24.443  39.516  46.693  1.00  0.00    +0.000 C 
ATOM     84  C57 UNL A   1      23.841  38.341  46.502  1.00  0.00    +0.000 C 
ATOM    112  H22 UNL A   1      26.423  40.326  51.033  1.00  0.00    +0.000 H 
ATOM    113  H23 UNL A   1      24.892  39.027  52.782  1.00  0.00    +0.000 H 
ATOM    114  H24 UNL A   1      22.642  41.677  50.720  1.00  0.00    +0.000 H 
ATOM    115  H25 UNL A   1      19.068  34.551  48.835  1.00  0.00    +0.000 H 
ATOM    116  H26 UNL A   1      21.537  34.073  48.417  1.00  0.00    +0.000 H 
ATOM    117  H27 UNL A   1      21.233  38.099  49.369  1.00  0.00    +0.000 H 
ATOM    118  H28 UNL A   1      18.824  40.120  48.779  1.00  0.00    +0.000 H 
ATOM    119  H29 UNL A   1      21.029  40.967  49.820  1.00  0.00    +0.000 H 
ATOM    120  H30 UNL A   1      24.842  40.102  45.943  1.00  0.00    +0.000 H 
ATOM    121  H31 UNL A   1      23.576  37.880  45.618  1.00  0.00    +0.000 H 
ENDROOT
BRANCH   28   27
ATOM    122  H32 UNL A   1      24.767  34.959  49.335  1.00  0.00    +0.000 H 
ATOM     27  C19 UNL A   1      23.892  35.451  47.481  1.00  0.00    +0.000 C 
ATOM    110  H20 UNL A   1      24.353  33.627  44.712  1.00  0.00    +0.000 H 
ATOM    111  H21 UNL A   1      23.053  35.536  45.532  1.00  0.00    +0.000 H 
ATOM     85  C58 UNL A   1      24.799  34.818  48.313  1.00  0.00    +0.000 C 
ATOM     86  C59 UNL A   1      25.732  34.006  47.750  1.00  0.00    +0.000 C 
ATOM     24  C16 UNL A   1      25.495  33.470  46.492  1.00  0.00    +0.000 C 
ATOM     25  C17 UNL A   1      24.506  34.004  45.661  1.00  0.00    +0.000 C 
ATOM     26  C18 UNL A   1      23.732  35.056  46.144  1.00  0.00    +0.000 C 
ATOM    123  H33 UNL A   1      26.608  33.791  48.252  1.00  0.00    +0.000 H 
BRANCH   24   22
ATOM     22  C15 UNL A   1      26.299  32.289  46.134  1.00  0.00    +0.000 C 
ATOM     23  O3  UNL A   1      27.226  32.380  45.354  1.00  0.00    +0.000 O 
BRANCH   22   21
ATOM    109  H19 UNL A   1      26.045  31.050  47.718  1.00  0.00    +0.000 H 
ATOM     21  N5  UNL A   1      25.967  31.082  46.738  1.00  0.00    +0.000 N 
BRANCH   21   20
ATOM    108  H18 UNL A   1      26.116  29.044  46.443  1.00  0.00    +0.000 H 
ATOM    107  H17 UNL A   1      25.610  29.966  45.023  1.00  0.00    +0.000 H 
ATOM     20  C14 UNL A   1      25.512  29.850  46.082  1.00  0.00    +0.000 C 
BRANCH   20   19
ATOM    105  H15 UNL A   1      23.831  28.565  45.997  1.00  0.00    +0.000 H 
ATOM    106  H16 UNL A   1      23.962  29.543  47.469  1.00  0.00    +0.000 H 
ATOM     19  C13 UNL A   1      24.065  29.527  46.405  1.00  0.00    +0.000 C 
BRANCH   19   18
ATOM     18  C12 UNL A   1      23.079  30.556  45.831  1.00  0.00    +0.000 C 
ATOM    103  H13 UNL A   1      23.630  31.220  45.199  1.00  0.00    +0.000 H 
ATOM    104  H14 UNL A   1      22.331  29.984  45.322  1.00  0.00    +0.000 H 
BRANCH   18   17
ATOM     17  C11 UNL A   1      22.315  31.409  46.860  1.00  0.00    +0.000 C 
ATOM    101  H11 UNL A   1      21.989  30.763  47.647  1.00  0.00    +0.000 H 
ATOM    102  H12 UNL A   1      22.998  32.168  47.180  1.00  0.00    +0.000 H 
BRANCH   17   16
ATOM     99  H9  UNL A   1      20.374  32.258  47.108  1.00  0.00    +0.000 H 
ATOM    100  H10 UNL A   1      21.421  33.097  45.948  1.00  0.00    +0.000 H 
ATOM     16  C10 UNL A   1      21.086  32.150  46.316  1.00  0.00    +0.000 C 
BRANCH   16   15
ATOM     97  H7  UNL A   1      20.564  31.975  44.249  1.00  0.00    +0.000 H 
ATOM     98  H8  UNL A   1      20.839  30.444  45.054  1.00  0.00    +0.000 H 
ATOM     15  C9  UNL A   1      20.412  31.421  45.151  1.00  0.00    +0.000 C 
BRANCH   15   14
ATOM     14  N4  UNL A   1      18.988  31.294  45.401  1.00  0.00    +0.000 N 
ATOM     96  H6  UNL A   1      18.772  31.088  46.339  1.00  0.00    +0.000 H 
BRANCH   14   12
ATOM     12  C8  UNL A   1      17.881  31.403  44.598  1.00  0.00    +0.000 C 
ATOM     13  O2  UNL A   1      17.230  32.446  44.662  1.00  0.00    +0.000 O 
BRANCH   12   11
ATOM      8  C4  UNL A   1      16.092  28.247  42.352  1.00  0.00    +0.000 C 
ATOM      9  C5  UNL A   1      15.697  29.565  42.130  1.00  0.00    +0.000 C 
ATOM     10  C6  UNL A   1      16.328  30.580  42.858  1.00  0.00    +0.000 C 
ATOM     11  C7  UNL A   1      17.385  30.290  43.741  1.00  0.00    +0.000 C 
ATOM     87  C60 UNL A   1      17.883  28.987  43.786  1.00  0.00    +0.000 C 
ATOM     88  C61 UNL A   1      17.203  27.953  43.147  1.00  0.00    +0.000 C 
ATOM    124  H34 UNL A   1      18.759  28.788  44.294  1.00  0.00    +0.000 H 
ATOM    125  H35 UNL A   1      17.517  26.976  43.259  1.00  0.00    +0.000 H 
ATOM     94  H4  UNL A   1      14.958  29.788  41.446  1.00  0.00    +0.000 H 
ATOM     95  H5  UNL A   1      16.013  31.556  42.746  1.00  0.00    +0.000 H 
BRANCH    8    7
ATOM      4  C3  UNL A   1      14.348  25.273  41.544  1.00  0.00    +0.000 C 
ATOM      5  N1  UNL A   1      14.769  25.749  40.323  1.00  0.00    +0.000 N 
ATOM      6  N2  UNL A   1      15.272  26.965  40.495  1.00  0.00    +0.000 N 
ATOM      7  N3  UNL A   1      15.340  27.188  41.817  1.00  0.00    +0.000 N 
ATOM     89  C62 UNL A   1      14.640  26.218  42.516  1.00  0.00    +0.000 C 
BRANCH    4    2
ATOM      2  C2  UNL A   1      13.697  23.973  41.659  1.00  0.00    +0.000 C 
ATOM      3  O1  UNL A   1      12.793  23.640  40.892  1.00  0.00    +0.000 O 
BRANCH    2    1
ATOM      1  C1  UNL A   1      14.148  23.026  42.739  1.00  0.00    +0.000 C 
ATOM     91  H1  UNL A   1      13.310  22.746  43.342  1.00  0.00    +0.000 H 
ATOM     92  H2  UNL A   1      14.882  23.507  43.352  1.00  0.00    +0.000 H 
ATOM     93  H3  UNL A   1      14.574  22.152  42.292  1.00  0.00    +0.000 H 
ENDBRANCH    2    1
ENDBRANCH    4    2
BRANCH   89   90
ATOM     90  C63 UNL A   1      14.342  26.344  43.963  1.00  0.00    +0.000 C 
ATOM    126  H36 UNL A   1      15.176  25.989  44.531  1.00  0.00    +0.000 H 
ATOM    127  H37 UNL A   1      13.476  25.762  44.200  1.00  0.00    +0.000 H 
ATOM    128  H38 UNL A   1      14.159  27.371  44.201  1.00  0.00    +0.000 H 
ENDBRANCH   89   90
ENDBRANCH    8    7
ENDBRANCH   12   11
ENDBRANCH   14   12
ENDBRANCH   15   14
ENDBRANCH   16   15
ENDBRANCH   17   16
ENDBRANCH   18   17
ENDBRANCH   19   18
ENDBRANCH   20   19
ENDBRANCH   21   20
ENDBRANCH   22   21
ENDBRANCH   24   22
ENDBRANCH   28   27
BRANCH   32   33
ATOM     33  C24 UNL A   1      24.169  42.385  48.100  1.00  0.00    +0.000 C 
ATOM     34  C25 UNL A   1      25.220  43.272  47.791  1.00  0.00    +0.000 C 
ATOM     35  F1  UNL A   1      26.495  42.853  47.807  1.00  0.00    +0.000 F 
ATOM     36  C26 UNL A   1      24.994  44.628  47.543  1.00  0.00    +0.000 C 
ATOM     37  F2  UNL A   1      26.036  45.456  47.379  1.00  0.00    +0.000 F 
ATOM     38  C27 UNL A   1      23.709  45.136  47.535  1.00  0.00    +0.000 C 
ATOM     39  F3  UNL A   1      23.495  46.445  47.360  1.00  0.00    +0.000 F 
ATOM     40  C28 UNL A   1      22.647  44.284  47.756  1.00  0.00    +0.000 C 
ATOM     41  F4  UNL A   1      21.394  44.759  47.764  1.00  0.00    +0.000 F 
ATOM     42  C29 UNL A   1      22.873  42.942  48.055  1.00  0.00    +0.000 C 
ATOM     43  F5  UNL A   1      21.783  42.248  48.402  1.00  0.00    +0.000 F 
ENDBRANCH   32   33
BRANCH   49   50
ATOM     50  C35 UNL A   1      22.059  38.189  53.105  1.00  0.00    +0.000 C 
ATOM     51  C36 UNL A   1      22.502  36.874  52.875  1.00  0.00    +0.000 C 
ATOM     52  F6  UNL A   1      22.841  36.471  51.645  1.00  0.00    +0.000 F 
ATOM     53  C37 UNL A   1      22.664  35.965  53.921  1.00  0.00    +0.000 C 
ATOM     54  F7  UNL A   1      23.084  34.716  53.668  1.00  0.00    +0.000 F 
ATOM     55  C38 UNL A   1      22.429  36.363  55.225  1.00  0.00    +0.000 C 
ATOM     56  F8  UNL A   1      22.625  35.506  56.237  1.00  0.00    +0.000 F 
ATOM     57  C39 UNL A   1      22.018  37.661  55.483  1.00  0.00    +0.000 C 
ATOM     58  F9  UNL A   1      21.837  38.066  56.746  1.00  0.00    +0.000 F 
ATOM     59  C40 UNL A   1      21.823  38.558  54.435  1.00  0.00    +0.000 C 
ATOM     60  F10 UNL A   1      21.453  39.815  54.725  1.00  0.00    +0.000 F 
ENDBRANCH   49   50
BRANCH   64   65
ATOM     65  C44 UNL A   1      17.225  37.216  49.164  1.00  0.00    +0.000 C 
ATOM     66  C45 UNL A   1      16.952  36.884  47.827  1.00  0.00    +0.000 C 
ATOM     67  F11 UNL A   1      17.940  36.879  46.921  1.00  0.00    +0.000 F 
ATOM     68  C46 UNL A   1      15.674  36.487  47.417  1.00  0.00    +0.000 C 
ATOM     69  F12 UNL A   1      15.462  36.125  46.144  1.00  0.00    +0.000 F 
ATOM     70  C47 UNL A   1      14.636  36.411  48.332  1.00  0.00    +0.000 C 
ATOM     71  F13 UNL A   1      13.428  35.971  47.953  1.00  0.00    +0.000 F 
ATOM     72  C48 UNL A   1      14.867  36.753  49.651  1.00  0.00    +0.000 C 
ATOM     73  F14 UNL A   1      13.883  36.645  50.555  1.00  0.00    +0.000 F 
ATOM     74  C49 UNL A   1      16.141  37.149  50.061  1.00  0.00    +0.000 C 
ATOM     75  F15 UNL A   1      16.322  37.375  51.371  1.00  0.00    +0.000 F 
ENDBRANCH   64   65
TORSDOF 19
ENDMDL
MODEL 10
REMARK VINA RESULT:     -10.7      4.711      8.649
ROOT
ATOM     28  C20 UNL A   1      39.980  29.171  29.055  1.00  0.00    +0.000 C 
ATOM     29  C21 UNL A   1      40.233  28.918  30.493  1.00  0.00    +0.000 C 
ATOM     30  N6  UNL A   1      41.148  29.447  31.234  1.00  0.00    +0.000 N 
ATOM     31  C22 UNL A   1      41.007  28.866  32.490  1.00  0.00    +0.000 C 
ATOM     32  C23 UNL A   1      42.060  28.801  33.353  1.00  0.00    +0.000 C 
ATOM     44  C30 UNL A   1      43.115  29.693  32.940  1.00  0.00    +0.000 C 
ATOM     45  C31 UNL A   1      43.221  31.063  32.799  1.00  0.00    +0.000 C 
ATOM     46  C32 UNL A   1      43.986  31.252  31.611  1.00  0.00    +0.000 C 
ATOM     47  C33 UNL A   1      44.373  29.995  31.141  1.00  0.00    +0.000 C 
ATOM     48  N7  UNL A   1      44.152  29.163  32.210  1.00  0.00    +0.000 N 
ATOM     49  C34 UNL A   1      44.831  29.534  29.850  1.00  0.00    +0.000 C 
ATOM     61  C41 UNL A   1      44.794  28.236  29.428  1.00  0.00    +0.000 C 
ATOM     62  N8  UNL A   1      44.870  27.916  28.079  1.00  0.00    +0.000 N 
ATOM     63  C42 UNL A   1      44.251  26.770  27.973  1.00  0.00    +0.000 C 
ATOM     64  C43 UNL A   1      43.323  26.453  26.854  1.00  0.00    +0.000 C 
ATOM     76  C50 UNL A   1      42.268  27.296  26.982  1.00  0.00    +0.000 C 
ATOM     77  C51 UNL A   1      41.270  27.701  26.021  1.00  0.00    +0.000 C 
ATOM     78  C52 UNL A   1      40.441  28.578  26.622  1.00  0.00    +0.000 C 
ATOM     79  C53 UNL A   1      40.739  28.648  28.061  1.00  0.00    +0.000 C 
ATOM     80  N9  UNL A   1      41.913  27.949  28.183  1.00  0.00    +0.000 N 
ATOM     81  C54 UNL A   1      44.074  26.032  29.213  1.00  0.00    +0.000 C 
ATOM     82  C55 UNL A   1      44.329  27.014  30.083  1.00  0.00    +0.000 C 
ATOM     83  C56 UNL A   1      39.736  28.191  32.481  1.00  0.00    +0.000 C 
ATOM     84  C57 UNL A   1      39.269  28.091  31.235  1.00  0.00    +0.000 C 
ATOM    112  H22 UNL A   1      42.831  31.790  33.419  1.00  0.00    +0.000 H 
ATOM    113  H23 UNL A   1      44.214  32.159  31.174  1.00  0.00    +0.000 H 
ATOM    114  H24 UNL A   1      44.645  28.337  32.415  1.00  0.00    +0.000 H 
ATOM    115  H25 UNL A   1      41.202  27.375  25.044  1.00  0.00    +0.000 H 
ATOM    116  H26 UNL A   1      39.707  29.122  26.143  1.00  0.00    +0.000 H 
ATOM    117  H27 UNL A   1      42.445  27.906  29.011  1.00  0.00    +0.000 H 
ATOM    118  H28 UNL A   1      43.826  25.043  29.374  1.00  0.00    +0.000 H 
ATOM    119  H29 UNL A   1      44.210  26.920  31.104  1.00  0.00    +0.000 H 
ATOM    120  H30 UNL A   1      39.254  27.833  33.321  1.00  0.00    +0.000 H 
ATOM    121  H31 UNL A   1      38.449  27.571  30.886  1.00  0.00    +0.000 H 
ENDROOT
BRANCH   28   27
ATOM    122  H32 UNL A   1      39.550  31.708  28.913  1.00  0.00    +0.000 H 
ATOM     27  C19 UNL A   1      38.697  29.785  28.763  1.00  0.00    +0.000 C 
ATOM    110  H20 UNL A   1      35.552  29.267  27.739  1.00  0.00    +0.000 H 
ATOM    111  H21 UNL A   1      37.585  28.030  28.328  1.00  0.00    +0.000 H 
ATOM     85  C58 UNL A   1      38.673  31.166  28.851  1.00  0.00    +0.000 C 
ATOM     86  C59 UNL A   1      37.467  31.791  28.852  1.00  0.00    +0.000 C 
ATOM     24  C16 UNL A   1      36.364  31.138  28.319  1.00  0.00    +0.000 C 
ATOM     25  C17 UNL A   1      36.384  29.757  28.102  1.00  0.00    +0.000 C 
ATOM     26  C18 UNL A   1      37.556  29.060  28.390  1.00  0.00    +0.000 C 
ATOM    123  H33 UNL A   1      37.371  32.741  29.244  1.00  0.00    +0.000 H 
BRANCH   24   22
ATOM     22  C15 UNL A   1      35.224  31.996  27.950  1.00  0.00    +0.000 C 
ATOM     23  O3  UNL A   1      34.120  31.521  27.772  1.00  0.00    +0.000 O 
BRANCH   22   21
ATOM    109  H19 UNL A   1      36.317  33.621  27.428  1.00  0.00    +0.000 H 
ATOM     21  N5  UNL A   1      35.461  33.361  27.837  1.00  0.00    +0.000 N 
BRANCH   21   20
ATOM    108  H18 UNL A   1      33.706  34.430  27.638  1.00  0.00    +0.000 H 
ATOM    107  H17 UNL A   1      35.105  35.383  28.145  1.00  0.00    +0.000 H 
ATOM     20  C14 UNL A   1      34.579  34.458  28.255  1.00  0.00    +0.000 C 
BRANCH   20   19
ATOM    105  H15 UNL A   1      33.504  35.149  29.942  1.00  0.00    +0.000 H 
ATOM    106  H16 UNL A   1      33.613  33.388  29.785  1.00  0.00    +0.000 H 
ATOM     19  C13 UNL A   1      34.133  34.319  29.698  1.00  0.00    +0.000 C 
BRANCH   19   18
ATOM     18  C12 UNL A   1      35.307  34.285  30.688  1.00  0.00    +0.000 C 
ATOM    103  H13 UNL A   1      35.912  33.436  30.450  1.00  0.00    +0.000 H 
ATOM    104  H14 UNL A   1      35.805  35.225  30.574  1.00  0.00    +0.000 H 
BRANCH   18   17
ATOM     17  C11 UNL A   1      34.934  34.195  32.179  1.00  0.00    +0.000 C 
ATOM    101  H11 UNL A   1      35.637  34.783  32.731  1.00  0.00    +0.000 H 
ATOM    102  H12 UNL A   1      33.926  34.546  32.253  1.00  0.00    +0.000 H 
BRANCH   17   16
ATOM     99  H9  UNL A   1      35.405  32.811  33.731  1.00  0.00    +0.000 H 
ATOM    100  H10 UNL A   1      33.913  32.462  32.838  1.00  0.00    +0.000 H 
ATOM     16  C10 UNL A   1      34.933  32.779  32.771  1.00  0.00    +0.000 C 
BRANCH   16   15
ATOM     97  H7  UNL A   1      35.011  30.956  31.656  1.00  0.00    +0.000 H 
ATOM     98  H8  UNL A   1      36.001  32.244  31.001  1.00  0.00    +0.000 H 
ATOM     15  C9  UNL A   1      35.671  31.762  31.898  1.00  0.00    +0.000 C 
BRANCH   15   14
ATOM     14  N4  UNL A   1      36.824  31.240  32.609  1.00  0.00    +0.000 N 
ATOM     96  H6  UNL A   1      36.724  30.298  32.879  1.00  0.00    +0.000 H 
BRANCH   14   12
ATOM     12  C8  UNL A   1      38.023  31.790  32.983  1.00  0.00    +0.000 C 
ATOM     13  O2  UNL A   1      38.917  31.838  32.138  1.00  0.00    +0.000 O 
BRANCH   12   11
ATOM      8  C4  UNL A   1      38.701  32.685  37.099  1.00  0.00    +0.000 C 
ATOM      9  C5  UNL A   1      39.483  31.725  36.461  1.00  0.00    +0.000 C 
ATOM     10  C6  UNL A   1      39.259  31.480  35.102  1.00  0.00    +0.000 C 
ATOM     11  C7  UNL A   1      38.318  32.231  34.375  1.00  0.00    +0.000 C 
ATOM     87  C60 UNL A   1      37.698  33.315  34.999  1.00  0.00    +0.000 C 
ATOM     88  C61 UNL A   1      37.835  33.506  36.372  1.00  0.00    +0.000 C 
ATOM    124  H34 UNL A   1      37.136  33.978  34.441  1.00  0.00    +0.000 H 
ATOM    125  H35 UNL A   1      37.301  34.250  36.849  1.00  0.00    +0.000 H 
ATOM     94  H4  UNL A   1      40.211  31.208  36.978  1.00  0.00    +0.000 H 
ATOM     95  H5  UNL A   1      39.793  30.736  34.627  1.00  0.00    +0.000 H 
BRANCH    8    7
ATOM      4  C3  UNL A   1      38.148  32.955  40.587  1.00  0.00    +0.000 C 
ATOM      5  N1  UNL A   1      39.288  33.696  40.376  1.00  0.00    +0.000 N 
ATOM      6  N2  UNL A   1      39.691  33.505  39.127  1.00  0.00    +0.000 N 
ATOM      7  N3  UNL A   1      38.733  32.805  38.498  1.00  0.00    +0.000 N 
ATOM     89  C62 UNL A   1      37.811  32.310  39.406  1.00  0.00    +0.000 C 
BRANCH    4    2
ATOM      2  C2  UNL A   1      37.504  32.922  41.895  1.00  0.00    +0.000 C 
ATOM      3  O1  UNL A   1      38.055  32.407  42.867  1.00  0.00    +0.000 O 
BRANCH    2    1
ATOM      1  C1  UNL A   1      36.139  33.538  42.049  1.00  0.00    +0.000 C 
ATOM     91  H1  UNL A   1      35.534  33.284  41.203  1.00  0.00    +0.000 H 
ATOM     92  H2  UNL A   1      36.231  34.602  42.113  1.00  0.00    +0.000 H 
ATOM     93  H3  UNL A   1      35.678  33.166  42.941  1.00  0.00    +0.000 H 
ENDBRANCH    2    1
ENDBRANCH    4    2
BRANCH   89   90
ATOM     90  C63 UNL A   1      36.787  31.306  39.028  1.00  0.00    +0.000 C 
ATOM    126  H36 UNL A   1      37.185  30.322  39.162  1.00  0.00    +0.000 H 
ATOM    127  H37 UNL A   1      36.515  31.444  38.002  1.00  0.00    +0.000 H 
ATOM    128  H38 UNL A   1      35.923  31.428  39.646  1.00  0.00    +0.000 H 
ENDBRANCH   89   90
ENDBRANCH    8    7
ENDBRANCH   12   11
ENDBRANCH   14   12
ENDBRANCH   15   14
ENDBRANCH   16   15
ENDBRANCH   17   16
ENDBRANCH   18   17
ENDBRANCH   19   18
ENDBRANCH   20   19
ENDBRANCH   21   20
ENDBRANCH   22   21
ENDBRANCH   24   22
ENDBRANCH   28   27
BRANCH   32   33
ATOM     33  C24 UNL A   1      42.293  27.696  34.352  1.00  0.00    +0.000 C 
ATOM     34  C25 UNL A   1      42.909  26.504  33.920  1.00  0.00    +0.000 C 
ATOM     35  F1  UNL A   1      43.515  26.442  32.724  1.00  0.00    +0.000 F 
ATOM     36  C26 UNL A   1      42.842  25.324  34.666  1.00  0.00    +0.000 C 
ATOM     37  F2  UNL A   1      43.334  24.186  34.156  1.00  0.00    +0.000 F 
ATOM     38  C27 UNL A   1      42.213  25.307  35.896  1.00  0.00    +0.000 C 
ATOM     39  F3  UNL A   1      42.093  24.165  36.584  1.00  0.00    +0.000 F 
ATOM     40  C28 UNL A   1      41.666  26.472  36.390  1.00  0.00    +0.000 C 
ATOM     41  F4  UNL A   1      41.040  26.473  37.575  1.00  0.00    +0.000 F 
ATOM     42  C29 UNL A   1      41.684  27.637  35.624  1.00  0.00    +0.000 C 
ATOM     43  F5  UNL A   1      40.991  28.661  36.134  1.00  0.00    +0.000 F 
ENDBRANCH   32   33
BRANCH   49   50
ATOM     50  C35 UNL A   1      45.164  30.595  28.833  1.00  0.00    +0.000 C 
ATOM     51  C36 UNL A   1      44.205  31.275  28.062  1.00  0.00    +0.000 C 
ATOM     52  F6  UNL A   1      42.907  30.963  28.153  1.00  0.00    +0.000 F 
ATOM     53  C37 UNL A   1      44.558  32.334  27.225  1.00  0.00    +0.000 C 
ATOM     54  F7  UNL A   1      43.620  32.959  26.498  1.00  0.00    +0.000 F 
ATOM     55  C38 UNL A   1      45.871  32.765  27.174  1.00  0.00    +0.000 C 
ATOM     56  F8  UNL A   1      46.208  33.810  26.404  1.00  0.00    +0.000 F 
ATOM     57  C39 UNL A   1      46.833  32.130  27.944  1.00  0.00    +0.000 C 
ATOM     58  F9  UNL A   1      48.096  32.576  27.937  1.00  0.00    +0.000 F 
ATOM     59  C40 UNL A   1      46.486  31.051  28.753  1.00  0.00    +0.000 C 
ATOM     60  F10 UNL A   1      47.438  30.480  29.507  1.00  0.00    +0.000 F 
ENDBRANCH   49   50
BRANCH   64   65
ATOM     65  C44 UNL A   1      43.400  25.201  26.069  1.00  0.00    +0.000 C 
ATOM     66  C45 UNL A   1      44.477  24.943  25.205  1.00  0.00    +0.000 C 
ATOM     67  F11 UNL A   1      45.347  25.918  24.908  1.00  0.00    +0.000 F 
ATOM     68  C46 UNL A   1      44.714  23.663  24.691  1.00  0.00    +0.000 C 
ATOM     69  F12 UNL A   1      45.783  23.442  23.913  1.00  0.00    +0.000 F 
ATOM     70  C47 UNL A   1      43.882  22.607  25.025  1.00  0.00    +0.000 C 
ATOM     71  F13 UNL A   1      44.144  21.369  24.584  1.00  0.00    +0.000 F 
ATOM     72  C48 UNL A   1      42.800  22.833  25.855  1.00  0.00    +0.000 C 
ATOM     73  F14 UNL A   1      42.010  21.813  26.220  1.00  0.00    +0.000 F 
ATOM     74  C49 UNL A   1      42.562  24.109  26.369  1.00  0.00    +0.000 C 
ATOM     75  F15 UNL A   1      41.553  24.240  27.243  1.00  0.00    +0.000 F 
ENDBRANCH   64   65
TORSDOF 19
ENDMDL
