MODEL 1
REMARK VINA RESULT:     -10.9      0.000      0.000
ROOT
ATOM    129  H39 UNL A   1      41.250  28.796  25.940  1.00  0.00    +0.000 H 
ATOM     28  C23 UNL A   1      40.819  27.920  28.656  1.00  0.00    +0.000 C 
ATOM     29  C24 UNL A   1      41.884  28.801  28.118  1.00  0.00    +0.000 C 
ATOM     30  N3  UNL A   1      42.899  29.264  28.766  1.00  0.00    +0.000 N 
ATOM     31  C25 UNL A   1      43.612  30.048  27.865  1.00  0.00    +0.000 C 
ATOM     32  C26 UNL A   1      44.455  31.019  28.314  1.00  0.00    +0.000 C 
ATOM     44  C33 UNL A   1      44.755  30.831  29.714  1.00  0.00    +0.000 C 
ATOM     45  C34 UNL A   1      45.352  29.824  30.447  1.00  0.00    +0.000 C 
ATOM     46  C35 UNL A   1      44.593  29.747  31.653  1.00  0.00    +0.000 C 
ATOM     47  C36 UNL A   1      43.629  30.755  31.614  1.00  0.00    +0.000 C 
ATOM     48  N4  UNL A   1      44.073  31.598  30.628  1.00  0.00    +0.000 N 
ATOM     49  C37 UNL A   1      42.382  30.940  32.319  1.00  0.00    +0.000 C 
ATOM     61  C44 UNL A   1      41.338  31.687  31.853  1.00  0.00    +0.000 C 
ATOM     62  N5  UNL A   1      40.045  31.485  32.316  1.00  0.00    +0.000 N 
ATOM     63  C45 UNL A   1      39.275  31.871  31.333  1.00  0.00    +0.000 C 
ATOM     64  C46 UNL A   1      38.037  31.143  30.942  1.00  0.00    +0.000 C 
ATOM     76  C53 UNL A   1      38.436  29.944  30.452  1.00  0.00    +0.000 C 
ATOM     77  C54 UNL A   1      37.718  28.696  30.331  1.00  0.00    +0.000 C 
ATOM     78  C55 UNL A   1      38.561  27.773  29.825  1.00  0.00    +0.000 C 
ATOM     79  C56 UNL A   1      39.812  28.415  29.407  1.00  0.00    +0.000 C 
ATOM     80  N6  UNL A   1      39.704  29.692  29.902  1.00  0.00    +0.000 N 
ATOM     81  C57 UNL A   1      39.909  32.714  30.332  1.00  0.00    +0.000 C 
ATOM     82  C58 UNL A   1      41.188  32.496  30.645  1.00  0.00    +0.000 C 
ATOM     83  C59 UNL A   1      43.060  29.760  26.566  1.00  0.00    +0.000 C 
ATOM     84  C60 UNL A   1      41.922  29.068  26.674  1.00  0.00    +0.000 C 
ATOM    120  H30 UNL A   1      46.170  29.252  30.182  1.00  0.00    +0.000 H 
ATOM    121  H31 UNL A   1      44.733  29.067  32.417  1.00  0.00    +0.000 H 
ATOM    122  H32 UNL A   1      43.931  32.571  30.585  1.00  0.00    +0.000 H 
ATOM    123  H33 UNL A   1      36.731  28.537  30.588  1.00  0.00    +0.000 H 
ATOM    124  H34 UNL A   1      38.358  26.764  29.745  1.00  0.00    +0.000 H 
ATOM    125  H35 UNL A   1      40.433  30.354  29.874  1.00  0.00    +0.000 H 
ATOM    126  H36 UNL A   1      39.492  33.307  29.597  1.00  0.00    +0.000 H 
ATOM    127  H37 UNL A   1      41.983  32.858  30.095  1.00  0.00    +0.000 H 
ATOM    128  H38 UNL A   1      43.485  30.051  25.672  1.00  0.00    +0.000 H 
ENDROOT
BRANCH   28   27
ATOM    130  H40 UNL A   1      39.350  26.806  26.789  1.00  0.00    +0.000 H 
ATOM    131  H41 UNL A   1      39.134  24.434  26.367  1.00  0.00    +0.000 H 
ATOM     27  C22 UNL A   1      40.883  26.538  28.206  1.00  0.00    +0.000 C 
ATOM     85  C61 UNL A   1      39.982  26.126  27.239  1.00  0.00    +0.000 C 
ATOM     86  C62 UNL A   1      39.943  24.803  26.889  1.00  0.00    +0.000 C 
ATOM    118  H28 UNL A   1      42.689  23.721  28.480  1.00  0.00    +0.000 H 
ATOM     24  C19 UNL A   1      40.989  23.958  27.237  1.00  0.00    +0.000 C 
ATOM     25  C20 UNL A   1      41.940  24.364  28.177  1.00  0.00    +0.000 C 
ATOM     26  C21 UNL A   1      41.858  25.654  28.700  1.00  0.00    +0.000 C 
ATOM    119  H29 UNL A   1      42.507  25.956  29.443  1.00  0.00    +0.000 H 
BRANCH   24   22
ATOM     22  C18 UNL A   1      41.077  22.632  26.581  1.00  0.00    +0.000 C 
ATOM     23  O3  UNL A   1      41.970  22.391  25.811  1.00  0.00    +0.000 O 
BRANCH   22   21
ATOM    117  H27 UNL A   1      40.066  21.369  27.802  1.00  0.00    +0.000 H 
ATOM     21  N2  UNL A   1      40.100  21.680  26.868  1.00  0.00    +0.000 N 
BRANCH   21   20
ATOM    116  H26 UNL A   1      38.634  20.300  26.509  1.00  0.00    +0.000 H 
ATOM    115  H25 UNL A   1      39.632  20.725  25.097  1.00  0.00    +0.000 H 
ATOM     20  C17 UNL A   1      39.117  21.083  25.964  1.00  0.00    +0.000 C 
BRANCH   20   19
ATOM    113  H23 UNL A   1      37.670  22.564  26.373  1.00  0.00    +0.000 H 
ATOM    114  H24 UNL A   1      38.483  22.667  24.771  1.00  0.00    +0.000 H 
ATOM     19  C16 UNL A   1      38.024  22.042  25.509  1.00  0.00    +0.000 C 
BRANCH   19   18
ATOM     18  C15 UNL A   1      36.806  21.409  24.810  1.00  0.00    +0.000 C 
ATOM    111  H21 UNL A   1      36.815  21.751  23.797  1.00  0.00    +0.000 H 
ATOM    112  H22 UNL A   1      36.942  20.359  24.968  1.00  0.00    +0.000 H 
BRANCH   18   17
ATOM     17  C14 UNL A   1      35.390  21.678  25.363  1.00  0.00    +0.000 C 
ATOM    109  H19 UNL A   1      34.742  21.801  24.521  1.00  0.00    +0.000 H 
ATOM    110  H20 UNL A   1      35.194  20.837  25.994  1.00  0.00    +0.000 H 
BRANCH   17   16
ATOM    107  H17 UNL A   1      34.259  22.740  26.818  1.00  0.00    +0.000 H 
ATOM    108  H18 UNL A   1      36.044  22.943  26.903  1.00  0.00    +0.000 H 
ATOM     16  C13 UNL A   1      35.173  22.894  26.283  1.00  0.00    +0.000 C 
BRANCH   16   15
ATOM    105  H15 UNL A   1      34.399  24.898  26.131  1.00  0.00    +0.000 H 
ATOM    106  H16 UNL A   1      36.082  24.677  25.557  1.00  0.00    +0.000 H 
ATOM     15  C12 UNL A   1      35.083  24.291  25.577  1.00  0.00    +0.000 C 
BRANCH   15   14
ATOM     14  N1  UNL A   1      34.611  24.259  24.106  1.00  0.00    +0.000 N 
ATOM    104  H14 UNL A   1      35.129  23.520  23.711  1.00  0.00    +0.000 H 
BRANCH   14   12
ATOM     12  C11 UNL A   1      33.851  24.718  23.062  1.00  0.00    +0.000 C 
ATOM     13  O2  UNL A   1      33.510  23.735  22.363  1.00  0.00    +0.000 O 
BRANCH   12   11
ATOM     11  C10 UNL A   1      33.435  26.160  22.413  1.00  0.00    +0.000 C 
ATOM    102  H12 UNL A   1      33.867  26.099  21.435  1.00  0.00    +0.000 H 
ATOM    103  H13 UNL A   1      32.435  26.121  22.791  1.00  0.00    +0.000 H 
BRANCH   11   10
ATOM     10  C9  UNL A   1      33.625  27.720  22.771  1.00  0.00    +0.000 C 
ATOM    100  H10 UNL A   1      33.989  27.694  23.777  1.00  0.00    +0.000 H 
ATOM    101  H11 UNL A   1      34.121  27.976  21.859  1.00  0.00    +0.000 H 
BRANCH   10    9
ATOM      9  C8  UNL A   1      32.649  28.977  22.773  1.00  0.00    +0.000 C 
ATOM     98  H8  UNL A   1      33.282  29.825  22.929  1.00  0.00    +0.000 H 
ATOM     99  H9  UNL A   1      32.130  28.811  21.853  1.00  0.00    +0.000 H 
BRANCH    9    8
ATOM      8  O1  UNL A   1      31.533  29.168  23.659  1.00  0.00    +0.000 O 
BRANCH    8    7
ATOM      2  C2  UNL A   1      31.111  24.529  25.459  1.00  0.00    +0.000 C 
ATOM      3  C3  UNL A   1      30.220  25.009  24.503  1.00  0.00    +0.000 C 
ATOM      4  C4  UNL A   1      29.974  26.390  24.370  1.00  0.00    +0.000 C 
ATOM      6  C6  UNL A   1      30.866  27.190  25.054  1.00  0.00    +0.000 C 
ATOM      7  C7  UNL A   1      31.372  28.489  24.823  1.00  0.00    +0.000 C 
ATOM     87  N7  UNL A   1      31.910  29.084  25.888  1.00  0.00    +0.000 N 
ATOM     88  S1  UNL A   1      32.100  27.922  27.083  1.00  0.00    +0.000 S 
ATOM     89  C63 UNL A   1      31.516  26.631  26.141  1.00  0.00    +0.000 C 
ATOM     90  N8  UNL A   1      31.643  25.317  26.417  1.00  0.00    +0.000 N 
ATOM     94  H4  UNL A   1      29.732  24.344  23.882  1.00  0.00    +0.000 H 
BRANCH    2    1
ATOM      1  C1  UNL A   1      31.511  23.077  25.439  1.00  0.00    +0.000 C 
ATOM     91  H1  UNL A   1      30.647  22.472  25.259  1.00  0.00    +0.000 H 
ATOM     92  H2  UNL A   1      31.940  22.812  26.383  1.00  0.00    +0.000 H 
ATOM     93  H3  UNL A   1      32.228  22.915  24.662  1.00  0.00    +0.000 H 
ENDBRANCH    2    1
BRANCH    4    5
ATOM     97  H7  UNL A   1      28.110  27.333  24.194  1.00  0.00    +0.000 H 
ATOM      5  C5  UNL A   1      28.945  27.095  23.569  1.00  0.00    +0.000 C 
ATOM     95  H5  UNL A   1      28.624  26.465  22.767  1.00  0.00    +0.000 H 
ATOM     96  H6  UNL A   1      29.360  27.998  23.171  1.00  0.00    +0.000 H 
ENDBRANCH    4    5
ENDBRANCH    8    7
ENDBRANCH    9    8
ENDBRANCH   10    9
ENDBRANCH   11   10
ENDBRANCH   12   11
ENDBRANCH   14   12
ENDBRANCH   15   14
ENDBRANCH   16   15
ENDBRANCH   17   16
ENDBRANCH   18   17
ENDBRANCH   19   18
ENDBRANCH   20   19
ENDBRANCH   21   20
ENDBRANCH   22   21
ENDBRANCH   24   22
ENDBRANCH   28   27
BRANCH   32   33
ATOM     33  C27 UNL A   1      44.713  32.335  27.619  1.00  0.00    +0.000 C 
ATOM     34  C28 UNL A   1      45.895  32.478  26.862  1.00  0.00    +0.000 C 
ATOM     35  F1  UNL A   1      46.617  31.404  26.507  1.00  0.00    +0.000 F 
ATOM     36  C29 UNL A   1      46.422  33.731  26.540  1.00  0.00    +0.000 C 
ATOM     37  F2  UNL A   1      47.621  33.817  25.949  1.00  0.00    +0.000 F 
ATOM     38  C30 UNL A   1      45.751  34.884  26.899  1.00  0.00    +0.000 C 
ATOM     39  F3  UNL A   1      46.288  36.087  26.660  1.00  0.00    +0.000 F 
ATOM     40  C31 UNL A   1      44.540  34.785  27.550  1.00  0.00    +0.000 C 
ATOM     41  F4  UNL A   1      43.878  35.892  27.914  1.00  0.00    +0.000 F 
ATOM     42  C32 UNL A   1      44.037  33.537  27.918  1.00  0.00    +0.000 C 
ATOM     43  F5  UNL A   1      42.929  33.571  28.665  1.00  0.00    +0.000 F 
ENDBRANCH   32   33
BRANCH   49   50
ATOM     50  C38 UNL A   1      42.152  30.052  33.511  1.00  0.00    +0.000 C 
ATOM     51  C39 UNL A   1      41.698  28.725  33.422  1.00  0.00    +0.000 C 
ATOM     52  F6  UNL A   1      41.355  28.193  32.241  1.00  0.00    +0.000 F 
ATOM     53  C40 UNL A   1      41.659  27.897  34.545  1.00  0.00    +0.000 C 
ATOM     54  F7  UNL A   1      41.222  26.633  34.433  1.00  0.00    +0.000 F 
ATOM     55  C41 UNL A   1      42.111  28.364  35.767  1.00  0.00    +0.000 C 
ATOM     56  F8  UNL A   1      42.124  27.554  36.836  1.00  0.00    +0.000 F 
ATOM     57  C42 UNL A   1      42.581  29.662  35.876  1.00  0.00    +0.000 C 
ATOM     58  F9  UNL A   1      43.067  30.104  37.045  1.00  0.00    +0.000 F 
ATOM     59  C43 UNL A   1      42.587  30.501  34.764  1.00  0.00    +0.000 C 
ATOM     60  F10 UNL A   1      43.080  31.742  34.899  1.00  0.00    +0.000 F 
ENDBRANCH   49   50
BRANCH   64   65
ATOM     65  C47 UNL A   1      36.733  31.817  30.744  1.00  0.00    +0.000 C 
ATOM     66  C48 UNL A   1      35.861  32.025  31.825  1.00  0.00    +0.000 C 
ATOM     67  F11 UNL A   1      36.084  31.412  32.997  1.00  0.00    +0.000 F 
ATOM     68  C49 UNL A   1      34.794  32.925  31.744  1.00  0.00    +0.000 C 
ATOM     69  F12 UNL A   1      34.025  33.149  32.820  1.00  0.00    +0.000 F 
ATOM     70  C50 UNL A   1      34.562  33.634  30.578  1.00  0.00    +0.000 C 
ATOM     71  F13 UNL A   1      33.582  34.547  30.521  1.00  0.00    +0.000 F 
ATOM     72  C51 UNL A   1      35.377  33.423  29.481  1.00  0.00    +0.000 C 
ATOM     73  F14 UNL A   1      35.183  34.127  28.356  1.00  0.00    +0.000 F 
ATOM     74  C52 UNL A   1      36.445  32.528  29.561  1.00  0.00    +0.000 C 
ATOM     75  F15 UNL A   1      37.248  32.442  28.492  1.00  0.00    +0.000 F 
ENDBRANCH   64   65
TORSDOF 21
ENDMDL
MODEL 2
REMARK VINA RESULT:     -10.7      1.183      1.844
ROOT
ATOM    129  H39 UNL A   1      41.007  28.796  25.954  1.00  0.00    +0.000 H 
ATOM     28  C23 UNL A   1      40.588  27.931  28.676  1.00  0.00    +0.000 C 
ATOM     29  C24 UNL A   1      41.679  28.769  28.121  1.00  0.00    +0.000 C 
ATOM     30  N3  UNL A   1      42.723  29.190  28.753  1.00  0.00    +0.000 N 
ATOM     31  C25 UNL A   1      43.451  29.946  27.841  1.00  0.00    +0.000 C 
ATOM     32  C26 UNL A   1      44.340  30.882  28.277  1.00  0.00    +0.000 C 
ATOM     44  C33 UNL A   1      44.656  30.677  29.672  1.00  0.00    +0.000 C 
ATOM     45  C34 UNL A   1      45.225  29.645  30.392  1.00  0.00    +0.000 C 
ATOM     46  C35 UNL A   1      44.484  29.595  31.611  1.00  0.00    +0.000 C 
ATOM     47  C36 UNL A   1      43.561  30.641  31.591  1.00  0.00    +0.000 C 
ATOM     48  N4  UNL A   1      44.021  31.468  30.600  1.00  0.00    +0.000 N 
ATOM     49  C37 UNL A   1      42.334  30.874  32.317  1.00  0.00    +0.000 C 
ATOM     61  C44 UNL A   1      41.313  31.664  31.871  1.00  0.00    +0.000 C 
ATOM     62  N5  UNL A   1      40.022  31.514  32.356  1.00  0.00    +0.000 N 
ATOM     63  C45 UNL A   1      39.251  31.933  31.387  1.00  0.00    +0.000 C 
ATOM     64  C46 UNL A   1      37.978  31.257  31.016  1.00  0.00    +0.000 C 
ATOM     76  C53 UNL A   1      38.319  30.044  30.516  1.00  0.00    +0.000 C 
ATOM     77  C54 UNL A   1      37.550  28.827  30.405  1.00  0.00    +0.000 C 
ATOM     78  C55 UNL A   1      38.346  27.871  29.883  1.00  0.00    +0.000 C 
ATOM     79  C56 UNL A   1      39.614  28.464  29.445  1.00  0.00    +0.000 C 
ATOM     80  N6  UNL A   1      39.567  29.743  29.944  1.00  0.00    +0.000 N 
ATOM     81  C57 UNL A   1      39.901  32.753  30.378  1.00  0.00    +0.000 C 
ATOM     82  C58 UNL A   1      41.176  32.482  30.668  1.00  0.00    +0.000 C 
ATOM     83  C59 UNL A   1      42.866  29.685  26.551  1.00  0.00    +0.000 C 
ATOM     84  C60 UNL A   1      41.703  29.039  26.677  1.00  0.00    +0.000 C 
ATOM    120  H30 UNL A   1      46.014  29.041  30.112  1.00  0.00    +0.000 H 
ATOM    121  H31 UNL A   1      44.609  28.908  32.371  1.00  0.00    +0.000 H 
ATOM    122  H32 UNL A   1      43.918  32.447  30.560  1.00  0.00    +0.000 H 
ATOM    123  H33 UNL A   1      36.562  28.706  30.679  1.00  0.00    +0.000 H 
ATOM    124  H34 UNL A   1      38.101  26.872  29.804  1.00  0.00    +0.000 H 
ATOM    125  H35 UNL A   1      40.322  30.375  29.905  1.00  0.00    +0.000 H 
ATOM    126  H36 UNL A   1      39.496  33.364  29.651  1.00  0.00    +0.000 H 
ATOM    127  H37 UNL A   1      41.975  32.813  30.105  1.00  0.00    +0.000 H 
ATOM    128  H38 UNL A   1      43.287  29.961  25.650  1.00  0.00    +0.000 H 
ENDROOT
BRANCH   28   27
ATOM    130  H40 UNL A   1      38.843  26.803  27.074  1.00  0.00    +0.000 H 
ATOM    131  H41 UNL A   1      38.579  24.428  26.694  1.00  0.00    +0.000 H 
ATOM     27  C22 UNL A   1      40.589  26.548  28.221  1.00  0.00    +0.000 C 
ATOM     85  C61 UNL A   1      39.545  26.128  27.414  1.00  0.00    +0.000 C 
ATOM     86  C62 UNL A   1      39.460  24.805  27.077  1.00  0.00    +0.000 C 
ATOM    118  H28 UNL A   1      42.437  23.746  28.197  1.00  0.00    +0.000 H 
ATOM     24  C19 UNL A   1      40.555  23.968  27.248  1.00  0.00    +0.000 C 
ATOM     25  C20 UNL A   1      41.644  24.383  28.021  1.00  0.00    +0.000 C 
ATOM     26  C21 UNL A   1      41.638  25.673  28.550  1.00  0.00    +0.000 C 
ATOM    119  H29 UNL A   1      42.397  25.981  29.176  1.00  0.00    +0.000 H 
BRANCH   24   22
ATOM     22  C18 UNL A   1      40.545  22.642  26.588  1.00  0.00    +0.000 C 
ATOM     23  O3  UNL A   1      41.525  22.238  26.017  1.00  0.00    +0.000 O 
BRANCH   22   21
ATOM    117  H27 UNL A   1      39.041  21.668  27.535  1.00  0.00    +0.000 H 
ATOM     21  N2  UNL A   1      39.377  21.882  26.634  1.00  0.00    +0.000 N 
BRANCH   21   20
ATOM    116  H26 UNL A   1      38.072  20.498  25.885  1.00  0.00    +0.000 H 
ATOM    115  H25 UNL A   1      39.247  21.140  24.711  1.00  0.00    +0.000 H 
ATOM     20  C17 UNL A   1      38.584  21.363  25.520  1.00  0.00    +0.000 C 
BRANCH   20   19
ATOM    113  H23 UNL A   1      37.391  23.089  25.751  1.00  0.00    +0.000 H 
ATOM    114  H24 UNL A   1      37.876  22.676  24.068  1.00  0.00    +0.000 H 
ATOM     19  C16 UNL A   1      37.517  22.325  25.013  1.00  0.00    +0.000 C 
BRANCH   19   18
ATOM     18  C15 UNL A   1      36.130  21.719  24.725  1.00  0.00    +0.000 C 
ATOM    111  H21 UNL A   1      35.928  21.880  23.687  1.00  0.00    +0.000 H 
ATOM    112  H22 UNL A   1      36.228  20.702  25.046  1.00  0.00    +0.000 H 
BRANCH   18   17
ATOM     17  C14 UNL A   1      34.901  22.229  25.506  1.00  0.00    +0.000 C 
ATOM    109  H19 UNL A   1      35.257  22.933  26.228  1.00  0.00    +0.000 H 
ATOM    110  H20 UNL A   1      34.253  22.612  24.748  1.00  0.00    +0.000 H 
BRANCH   17   16
ATOM    107  H17 UNL A   1      34.658  20.394  26.553  1.00  0.00    +0.000 H 
ATOM    108  H18 UNL A   1      33.599  21.748  27.079  1.00  0.00    +0.000 H 
ATOM     16  C13 UNL A   1      34.029  21.208  26.262  1.00  0.00    +0.000 C 
BRANCH   16   15
ATOM    105  H15 UNL A   1      32.820  19.552  25.603  1.00  0.00    +0.000 H 
ATOM    106  H16 UNL A   1      31.941  21.091  25.863  1.00  0.00    +0.000 H 
ATOM     15  C12 UNL A   1      32.814  20.613  25.469  1.00  0.00    +0.000 C 
BRANCH   15   14
ATOM     14  N1  UNL A   1      32.809  20.903  23.951  1.00  0.00    +0.000 N 
ATOM    104  H14 UNL A   1      33.147  20.068  23.554  1.00  0.00    +0.000 H 
BRANCH   14   12
ATOM     12  C11 UNL A   1      32.582  21.711  22.868  1.00  0.00    +0.000 C 
ATOM     13  O2  UNL A   1      31.931  21.057  22.020  1.00  0.00    +0.000 O 
BRANCH   12   11
ATOM     11  C10 UNL A   1      33.065  23.179  22.333  1.00  0.00    +0.000 C 
ATOM    102  H12 UNL A   1      33.980  22.945  21.830  1.00  0.00    +0.000 H 
ATOM    103  H13 UNL A   1      32.084  23.461  22.009  1.00  0.00    +0.000 H 
BRANCH   11   10
ATOM     10  C9  UNL A   1      33.387  24.625  22.970  1.00  0.00    +0.000 C 
ATOM    100  H10 UNL A   1      33.324  24.444  24.023  1.00  0.00    +0.000 H 
ATOM    101  H11 UNL A   1      34.234  24.825  22.349  1.00  0.00    +0.000 H 
BRANCH   10    9
ATOM      9  C8  UNL A   1      32.736  26.068  22.811  1.00  0.00    +0.000 C 
ATOM     98  H8  UNL A   1      33.306  26.706  23.454  1.00  0.00    +0.000 H 
ATOM     99  H9  UNL A   1      32.754  26.165  21.746  1.00  0.00    +0.000 H 
BRANCH    9    8
ATOM      8  O1  UNL A   1      31.362  26.400  23.070  1.00  0.00    +0.000 O 
BRANCH    8    7
ATOM      2  C2  UNL A   1      32.919  29.601  26.573  1.00  0.00    +0.000 C 
ATOM      3  C3  UNL A   1      32.827  28.237  26.839  1.00  0.00    +0.000 C 
ATOM      4  C4  UNL A   1      31.939  27.416  26.117  1.00  0.00    +0.000 C 
ATOM      6  C6  UNL A   1      31.406  28.013  24.994  1.00  0.00    +0.000 C 
ATOM      7  C7  UNL A   1      30.970  27.509  23.747  1.00  0.00    +0.000 C 
ATOM     87  N7  UNL A   1      30.163  28.318  23.061  1.00  0.00    +0.000 N 
ATOM     88  S1  UNL A   1      30.212  29.829  23.789  1.00  0.00    +0.000 S 
ATOM     89  C63 UNL A   1      31.355  29.396  24.973  1.00  0.00    +0.000 C 
ATOM     90  N8  UNL A   1      32.057  30.241  25.755  1.00  0.00    +0.000 N 
ATOM     94  H4  UNL A   1      33.418  27.822  27.577  1.00  0.00    +0.000 H 
BRANCH    2    1
ATOM      1  C1  UNL A   1      34.019  30.410  27.209  1.00  0.00    +0.000 C 
ATOM     91  H1  UNL A   1      34.921  30.289  26.647  1.00  0.00    +0.000 H 
ATOM     92  H2  UNL A   1      34.175  30.071  28.212  1.00  0.00    +0.000 H 
ATOM     93  H3  UNL A   1      33.741  31.443  27.220  1.00  0.00    +0.000 H 
ENDBRANCH    2    1
BRANCH    4    5
ATOM     97  H7  UNL A   1      32.161  25.593  27.129  1.00  0.00    +0.000 H 
ATOM      5  C5  UNL A   1      31.545  26.008  26.358  1.00  0.00    +0.000 C 
ATOM     95  H5  UNL A   1      31.669  25.443  25.459  1.00  0.00    +0.000 H 
ATOM     96  H6  UNL A   1      30.520  25.972  26.665  1.00  0.00    +0.000 H 
ENDBRANCH    4    5
ENDBRANCH    8    7
ENDBRANCH    9    8
ENDBRANCH   10    9
ENDBRANCH   11   10
ENDBRANCH   12   11
ENDBRANCH   14   12
ENDBRANCH   15   14
ENDBRANCH   16   15
ENDBRANCH   17   16
ENDBRANCH   18   17
ENDBRANCH   19   18
ENDBRANCH   20   19
ENDBRANCH   21   20
ENDBRANCH   22   21
ENDBRANCH   24   22
ENDBRANCH   28   27
BRANCH   32   33
ATOM     33  C27 UNL A   1      44.639  32.188  27.581  1.00  0.00    +0.000 C 
ATOM     34  C28 UNL A   1      45.832  32.298  26.836  1.00  0.00    +0.000 C 
ATOM     35  F1  UNL A   1      46.530  31.205  26.492  1.00  0.00    +0.000 F 
ATOM     36  C29 UNL A   1      46.394  33.536  26.516  1.00  0.00    +0.000 C 
ATOM     37  F2  UNL A   1      47.602  33.589  25.938  1.00  0.00    +0.000 F 
ATOM     38  C30 UNL A   1      45.749  34.707  26.864  1.00  0.00    +0.000 C 
ATOM     39  F3  UNL A   1      46.320  35.895  26.627  1.00  0.00    +0.000 F 
ATOM     40  C31 UNL A   1      44.530  34.641  27.503  1.00  0.00    +0.000 C 
ATOM     41  F4  UNL A   1      43.893  35.766  27.856  1.00  0.00    +0.000 F 
ATOM     42  C32 UNL A   1      43.991  33.408  27.869  1.00  0.00    +0.000 C 
ATOM     43  F5  UNL A   1      42.876  33.473  28.605  1.00  0.00    +0.000 F 
ENDBRANCH   32   33
BRANCH   49   50
ATOM     50  C38 UNL A   1      42.089  29.993  33.511  1.00  0.00    +0.000 C 
ATOM     51  C39 UNL A   1      41.619  28.672  33.425  1.00  0.00    +0.000 C 
ATOM     52  F6  UNL A   1      41.272  28.141  32.245  1.00  0.00    +0.000 F 
ATOM     53  C40 UNL A   1      41.565  27.848  34.550  1.00  0.00    +0.000 C 
ATOM     54  F7  UNL A   1      41.113  26.589  34.441  1.00  0.00    +0.000 F 
ATOM     55  C41 UNL A   1      42.019  28.312  35.773  1.00  0.00    +0.000 C 
ATOM     56  F8  UNL A   1      42.019  27.505  36.843  1.00  0.00    +0.000 F 
ATOM     57  C42 UNL A   1      42.505  29.605  35.879  1.00  0.00    +0.000 C 
ATOM     58  F9  UNL A   1      42.992  30.044  37.048  1.00  0.00    +0.000 F 
ATOM     59  C43 UNL A   1      42.526  30.440  34.765  1.00  0.00    +0.000 C 
ATOM     60  F10 UNL A   1      43.033  31.676  34.897  1.00  0.00    +0.000 F 
ENDBRANCH   49   50
BRANCH   64   65
ATOM     65  C47 UNL A   1      36.699  31.983  30.842  1.00  0.00    +0.000 C 
ATOM     66  C48 UNL A   1      35.859  32.233  31.940  1.00  0.00    +0.000 C 
ATOM     67  F11 UNL A   1      36.082  31.615  33.110  1.00  0.00    +0.000 F 
ATOM     68  C49 UNL A   1      34.829  33.175  31.877  1.00  0.00    +0.000 C 
ATOM     69  F12 UNL A   1      34.094  33.436  32.967  1.00  0.00    +0.000 F 
ATOM     70  C50 UNL A   1      34.602  33.888  30.712  1.00  0.00    +0.000 C 
ATOM     71  F13 UNL A   1      33.659  34.841  30.671  1.00  0.00    +0.000 F 
ATOM     72  C51 UNL A   1      35.384  33.638  29.599  1.00  0.00    +0.000 C 
ATOM     73  F14 UNL A   1      35.196  34.345  28.475  1.00  0.00    +0.000 F 
ATOM     74  C52 UNL A   1      36.415  32.700  29.661  1.00  0.00    +0.000 C 
ATOM     75  F15 UNL A   1      37.191  32.576  28.576  1.00  0.00    +0.000 F 
ENDBRANCH   64   65
TORSDOF 21
ENDMDL
MODEL 3
REMARK VINA RESULT:     -10.7      1.244      2.090
ROOT
ATOM    129  H39 UNL A   1      41.440  28.805  26.245  1.00  0.00    +0.000 H 
ATOM     28  C23 UNL A   1      40.931  27.835  28.915  1.00  0.00    +0.000 C 
ATOM     29  C24 UNL A   1      42.058  28.664  28.423  1.00  0.00    +0.000 C 
ATOM     30  N3  UNL A   1      43.099  29.026  29.096  1.00  0.00    +0.000 N 
ATOM     31  C25 UNL A   1      43.870  29.799  28.235  1.00  0.00    +0.000 C 
ATOM     32  C26 UNL A   1      44.775  30.688  28.732  1.00  0.00    +0.000 C 
ATOM     44  C33 UNL A   1      45.052  30.414  30.123  1.00  0.00    +0.000 C 
ATOM     45  C34 UNL A   1      45.573  29.335  30.811  1.00  0.00    +0.000 C 
ATOM     46  C35 UNL A   1      44.802  29.254  32.008  1.00  0.00    +0.000 C 
ATOM     47  C36 UNL A   1      43.910  30.327  32.014  1.00  0.00    +0.000 C 
ATOM     48  N4  UNL A   1      44.418  31.182  31.070  1.00  0.00    +0.000 N 
ATOM     49  C37 UNL A   1      42.673  30.565  32.722  1.00  0.00    +0.000 C 
ATOM     61  C44 UNL A   1      41.687  31.403  32.287  1.00  0.00    +0.000 C 
ATOM     62  N5  UNL A   1      40.380  31.270  32.736  1.00  0.00    +0.000 N 
ATOM     63  C45 UNL A   1      39.645  31.754  31.769  1.00  0.00    +0.000 C 
ATOM     64  C46 UNL A   1      38.362  31.133  31.340  1.00  0.00    +0.000 C 
ATOM     76  C53 UNL A   1      38.681  29.933  30.795  1.00  0.00    +0.000 C 
ATOM     77  C54 UNL A   1      37.880  28.745  30.613  1.00  0.00    +0.000 C 
ATOM     78  C55 UNL A   1      38.660  27.790  30.067  1.00  0.00    +0.000 C 
ATOM     79  C56 UNL A   1      39.955  28.363  29.685  1.00  0.00    +0.000 C 
ATOM     80  N6  UNL A   1      39.933  29.620  30.238  1.00  0.00    +0.000 N 
ATOM     81  C57 UNL A   1      40.343  32.597  30.812  1.00  0.00    +0.000 C 
ATOM     82  C58 UNL A   1      41.602  32.276  31.119  1.00  0.00    +0.000 C 
ATOM     83  C59 UNL A   1      43.309  29.612  26.922  1.00  0.00    +0.000 C 
ATOM     84  C60 UNL A   1      42.125  28.996  26.993  1.00  0.00    +0.000 C 
ATOM    120  H30 UNL A   1      46.351  28.720  30.521  1.00  0.00    +0.000 H 
ATOM    121  H31 UNL A   1      44.889  28.531  32.740  1.00  0.00    +0.000 H 
ATOM    122  H32 UNL A   1      44.344  32.164  31.072  1.00  0.00    +0.000 H 
ATOM    123  H33 UNL A   1      36.883  28.643  30.859  1.00  0.00    +0.000 H 
ATOM    124  H34 UNL A   1      38.389  26.803  29.939  1.00  0.00    +0.000 H 
ATOM    125  H35 UNL A   1      40.706  30.231  30.244  1.00  0.00    +0.000 H 
ATOM    126  H36 UNL A   1      39.973  33.251  30.104  1.00  0.00    +0.000 H 
ATOM    127  H37 UNL A   1      42.424  32.608  30.589  1.00  0.00    +0.000 H 
ATOM    128  H38 UNL A   1      43.759  29.914  26.044  1.00  0.00    +0.000 H 
ENDROOT
BRANCH   28   27
ATOM    130  H40 UNL A   1      39.076  26.768  27.398  1.00  0.00    +0.000 H 
ATOM    131  H41 UNL A   1      38.793  24.410  26.933  1.00  0.00    +0.000 H 
ATOM     27  C22 UNL A   1      40.903  26.475  28.400  1.00  0.00    +0.000 C 
ATOM     85  C61 UNL A   1      39.804  26.084  27.655  1.00  0.00    +0.000 C 
ATOM     86  C62 UNL A   1      39.698  24.775  27.265  1.00  0.00    +0.000 C 
ATOM    118  H28 UNL A   1      42.754  23.689  28.113  1.00  0.00    +0.000 H 
ATOM     24  C19 UNL A   1      40.807  23.940  27.318  1.00  0.00    +0.000 C 
ATOM     25  C20 UNL A   1      41.948  24.327  28.025  1.00  0.00    +0.000 C 
ATOM     26  C21 UNL A   1      41.977  25.592  28.610  1.00  0.00    +0.000 C 
ATOM    119  H29 UNL A   1      42.780  25.878  29.192  1.00  0.00    +0.000 H 
BRANCH   24   22
ATOM     22  C18 UNL A   1      40.752  22.644  26.601  1.00  0.00    +0.000 C 
ATOM     23  O3  UNL A   1      41.689  22.271  25.944  1.00  0.00    +0.000 O 
BRANCH   22   21
ATOM    117  H27 UNL A   1      39.377  21.536  27.595  1.00  0.00    +0.000 H 
ATOM     21  N2  UNL A   1      39.592  21.877  26.697  1.00  0.00    +0.000 N 
BRANCH   21   20
ATOM    116  H26 UNL A   1      38.285  20.536  25.874  1.00  0.00    +0.000 H 
ATOM    115  H25 UNL A   1      39.170  21.545  24.702  1.00  0.00    +0.000 H 
ATOM     20  C17 UNL A   1      38.651  21.513  25.637  1.00  0.00    +0.000 C 
BRANCH   20   19
ATOM    113  H23 UNL A   1      37.578  23.231  26.233  1.00  0.00    +0.000 H 
ATOM    114  H24 UNL A   1      37.385  22.728  24.516  1.00  0.00    +0.000 H 
ATOM     19  C16 UNL A   1      37.435  22.426  25.542  1.00  0.00    +0.000 C 
BRANCH   19   18
ATOM     18  C15 UNL A   1      36.070  21.782  25.847  1.00  0.00    +0.000 C 
ATOM    111  H21 UNL A   1      35.689  21.406  24.921  1.00  0.00    +0.000 H 
ATOM    112  H22 UNL A   1      36.295  21.062  26.606  1.00  0.00    +0.000 H 
BRANCH   18   17
ATOM     17  C14 UNL A   1      34.952  22.637  26.479  1.00  0.00    +0.000 C 
ATOM    109  H19 UNL A   1      35.392  23.186  27.285  1.00  0.00    +0.000 H 
ATOM    110  H20 UNL A   1      34.573  23.214  25.663  1.00  0.00    +0.000 H 
BRANCH   17   16
ATOM    107  H17 UNL A   1      33.769  20.894  26.772  1.00  0.00    +0.000 H 
ATOM    108  H18 UNL A   1      33.726  22.108  28.097  1.00  0.00    +0.000 H 
ATOM     16  C13 UNL A   1      33.706  21.927  27.043  1.00  0.00    +0.000 C 
BRANCH   16   15
ATOM    105  H15 UNL A   1      31.958  21.808  25.790  1.00  0.00    +0.000 H 
ATOM    106  H16 UNL A   1      31.691  22.504  27.419  1.00  0.00    +0.000 H 
ATOM     15  C12 UNL A   1      32.318  22.467  26.552  1.00  0.00    +0.000 C 
BRANCH   15   14
ATOM     14  N1  UNL A   1      32.333  23.900  25.975  1.00  0.00    +0.000 N 
ATOM    104  H14 UNL A   1      32.286  23.760  25.002  1.00  0.00    +0.000 H 
BRANCH   14   12
ATOM     12  C11 UNL A   1      32.378  25.263  26.106  1.00  0.00    +0.000 C 
ATOM     13  O2  UNL A   1      31.219  25.712  25.938  1.00  0.00    +0.000 O 
BRANCH   12   11
ATOM     11  C10 UNL A   1      33.518  26.428  26.243  1.00  0.00    +0.000 C 
ATOM    102  H12 UNL A   1      34.061  26.110  27.109  1.00  0.00    +0.000 H 
ATOM    103  H13 UNL A   1      33.728  26.443  25.193  1.00  0.00    +0.000 H 
BRANCH   11   10
ATOM     10  C9  UNL A   1      33.561  28.033  26.384  1.00  0.00    +0.000 C 
ATOM    100  H10 UNL A   1      33.880  28.178  27.395  1.00  0.00    +0.000 H 
ATOM    101  H11 UNL A   1      34.076  28.204  25.462  1.00  0.00    +0.000 H 
BRANCH   10    9
ATOM      9  C8  UNL A   1      32.485  29.187  26.176  1.00  0.00    +0.000 C 
ATOM     98  H8  UNL A   1      31.572  28.795  26.575  1.00  0.00    +0.000 H 
ATOM     99  H9  UNL A   1      33.002  30.007  26.628  1.00  0.00    +0.000 H 
BRANCH    9    8
ATOM      8  O1  UNL A   1      32.126  29.779  24.917  1.00  0.00    +0.000 O 
BRANCH    8    7
ATOM      2  C2  UNL A   1      32.347  25.420  22.489  1.00  0.00    +0.000 C 
ATOM      3  C3  UNL A   1      33.456  26.260  22.554  1.00  0.00    +0.000 C 
ATOM      4  C4  UNL A   1      33.303  27.648  22.744  1.00  0.00    +0.000 C 
ATOM      6  C6  UNL A   1      32.031  28.030  23.118  1.00  0.00    +0.000 C 
ATOM      7  C7  UNL A   1      31.535  29.093  23.905  1.00  0.00    +0.000 C 
ATOM     87  N7  UNL A   1      30.243  29.370  23.732  1.00  0.00    +0.000 N 
ATOM     88  S1  UNL A   1      29.562  28.110  22.858  1.00  0.00    +0.000 S 
ATOM     89  C63 UNL A   1      30.989  27.187  22.775  1.00  0.00    +0.000 C 
ATOM     90  N8  UNL A   1      31.083  25.889  22.421  1.00  0.00    +0.000 N 
ATOM     94  H4  UNL A   1      34.402  25.860  22.463  1.00  0.00    +0.000 H 
BRANCH    2    1
ATOM      1  C1  UNL A   1      32.544  23.927  22.498  1.00  0.00    +0.000 C 
ATOM     91  H1  UNL A   1      31.964  23.486  21.714  1.00  0.00    +0.000 H 
ATOM     92  H2  UNL A   1      32.229  23.531  23.441  1.00  0.00    +0.000 H 
ATOM     93  H3  UNL A   1      33.579  23.703  22.345  1.00  0.00    +0.000 H 
ENDBRANCH    2    1
BRANCH    4    5
ATOM     97  H7  UNL A   1      34.984  28.524  21.846  1.00  0.00    +0.000 H 
ATOM      5  C5  UNL A   1      34.310  28.731  22.652  1.00  0.00    +0.000 C 
ATOM     95  H5  UNL A   1      34.858  28.788  23.569  1.00  0.00    +0.000 H 
ATOM     96  H6  UNL A   1      33.817  29.663  22.472  1.00  0.00    +0.000 H 
ENDBRANCH    4    5
ENDBRANCH    8    7
ENDBRANCH    9    8
ENDBRANCH   10    9
ENDBRANCH   11   10
ENDBRANCH   12   11
ENDBRANCH   14   12
ENDBRANCH   15   14
ENDBRANCH   16   15
ENDBRANCH   17   16
ENDBRANCH   18   17
ENDBRANCH   19   18
ENDBRANCH   20   19
ENDBRANCH   21   20
ENDBRANCH   22   21
ENDBRANCH   24   22
ENDBRANCH   28   27
BRANCH   32   33
ATOM     33  C27 UNL A   1      45.128  32.013  28.102  1.00  0.00    +0.000 C 
ATOM     34  C28 UNL A   1      44.094  32.943  27.859  1.00  0.00    +0.000 C 
ATOM     35  F1  UNL A   1      42.893  32.799  28.440  1.00  0.00    +0.000 F 
ATOM     36  C29 UNL A   1      44.232  33.981  26.935  1.00  0.00    +0.000 C 
ATOM     37  F2  UNL A   1      43.175  34.746  26.631  1.00  0.00    +0.000 F 
ATOM     38  C30 UNL A   1      45.430  34.173  26.274  1.00  0.00    +0.000 C 
ATOM     39  F3  UNL A   1      45.545  35.118  25.333  1.00  0.00    +0.000 F 
ATOM     40  C31 UNL A   1      46.497  33.349  26.560  1.00  0.00    +0.000 C 
ATOM     41  F4  UNL A   1      47.665  33.514  25.923  1.00  0.00    +0.000 F 
ATOM     42  C32 UNL A   1      46.347  32.281  27.443  1.00  0.00    +0.000 C 
ATOM     43  F5  UNL A   1      47.405  31.468  27.536  1.00  0.00    +0.000 F 
ENDBRANCH   32   33
BRANCH   49   50
ATOM     50  C38 UNL A   1      42.374  29.640  33.869  1.00  0.00    +0.000 C 
ATOM     51  C39 UNL A   1      41.796  28.368  33.720  1.00  0.00    +0.000 C 
ATOM     52  F6  UNL A   1      41.390  27.935  32.519  1.00  0.00    +0.000 F 
ATOM     53  C40 UNL A   1      41.692  27.489  34.798  1.00  0.00    +0.000 C 
ATOM     54  F7  UNL A   1      41.136  26.279  34.629  1.00  0.00    +0.000 F 
ATOM     55  C41 UNL A   1      42.201  27.845  36.036  1.00  0.00    +0.000 C 
ATOM     56  F8  UNL A   1      42.149  26.982  37.060  1.00  0.00    +0.000 F 
ATOM     57  C42 UNL A   1      42.792  29.086  36.204  1.00  0.00    +0.000 C 
ATOM     58  F9  UNL A   1      43.331  29.417  37.386  1.00  0.00    +0.000 F 
ATOM     59  C43 UNL A   1      42.865  29.979  35.137  1.00  0.00    +0.000 C 
ATOM     60  F10 UNL A   1      43.474  31.159  35.328  1.00  0.00    +0.000 F 
ENDBRANCH   49   50
BRANCH   64   65
ATOM     65  C47 UNL A   1      37.109  31.904  31.169  1.00  0.00    +0.000 C 
ATOM     66  C48 UNL A   1      36.266  32.155  32.263  1.00  0.00    +0.000 C 
ATOM     67  F11 UNL A   1      36.456  31.505  33.421  1.00  0.00    +0.000 F 
ATOM     68  C49 UNL A   1      35.267  33.132  32.211  1.00  0.00    +0.000 C 
ATOM     69  F12 UNL A   1      34.528  33.392  33.299  1.00  0.00    +0.000 F 
ATOM     70  C50 UNL A   1      35.077  33.878  31.060  1.00  0.00    +0.000 C 
ATOM     71  F13 UNL A   1      34.165  34.862  31.032  1.00  0.00    +0.000 F 
ATOM     72  C51 UNL A   1      35.863  33.628  29.951  1.00  0.00    +0.000 C 
ATOM     73  F14 UNL A   1      35.710  34.366  28.841  1.00  0.00    +0.000 F 
ATOM     74  C52 UNL A   1      36.862  32.656  30.002  1.00  0.00    +0.000 C 
ATOM     75  F15 UNL A   1      37.646  32.532  28.923  1.00  0.00    +0.000 F 
ENDBRANCH   64   65
TORSDOF 21
ENDMDL
MODEL 4
REMARK VINA RESULT:     -10.5      3.163      8.822
ROOT
ATOM    129  H39 UNL A   1      38.480  27.358  30.990  1.00  0.00    +0.000 H 
ATOM     28  C23 UNL A   1      39.930  28.972  29.087  1.00  0.00    +0.000 C 
ATOM     29  C24 UNL A   1      40.238  28.710  30.514  1.00  0.00    +0.000 C 
ATOM     30  N3  UNL A   1      41.179  29.254  31.210  1.00  0.00    +0.000 N 
ATOM     31  C25 UNL A   1      41.096  28.696  32.481  1.00  0.00    +0.000 C 
ATOM     32  C26 UNL A   1      42.178  28.701  33.308  1.00  0.00    +0.000 C 
ATOM     44  C33 UNL A   1      43.171  29.643  32.846  1.00  0.00    +0.000 C 
ATOM     45  C34 UNL A   1      43.187  31.009  32.641  1.00  0.00    +0.000 C 
ATOM     46  C35 UNL A   1      43.940  31.193  31.444  1.00  0.00    +0.000 C 
ATOM     47  C36 UNL A   1      44.398  29.941  31.032  1.00  0.00    +0.000 C 
ATOM     48  N4  UNL A   1      44.247  29.153  32.144  1.00  0.00    +0.000 N 
ATOM     49  C37 UNL A   1      44.861  29.441  29.758  1.00  0.00    +0.000 C 
ATOM     61  C44 UNL A   1      44.817  28.129  29.384  1.00  0.00    +0.000 C 
ATOM     62  N5  UNL A   1      44.845  27.760  28.047  1.00  0.00    +0.000 N 
ATOM     63  C45 UNL A   1      44.222  26.611  28.005  1.00  0.00    +0.000 C 
ATOM     64  C46 UNL A   1      43.277  26.244  26.915  1.00  0.00    +0.000 C 
ATOM     76  C53 UNL A   1      42.209  27.069  27.039  1.00  0.00    +0.000 C 
ATOM     77  C54 UNL A   1      41.221  27.475  26.067  1.00  0.00    +0.000 C 
ATOM     78  C55 UNL A   1      40.383  28.351  26.659  1.00  0.00    +0.000 C 
ATOM     79  C56 UNL A   1      40.661  28.413  28.097  1.00  0.00    +0.000 C 
ATOM     80  N6  UNL A   1      41.825  27.698  28.237  1.00  0.00    +0.000 N 
ATOM     81  C57 UNL A   1      44.088  25.922  29.278  1.00  0.00    +0.000 C 
ATOM     82  C58 UNL A   1      44.384  26.931  30.101  1.00  0.00    +0.000 C 
ATOM     83  C59 UNL A   1      39.841  27.989  32.523  1.00  0.00    +0.000 C 
ATOM     84  C60 UNL A   1      39.313  27.882  31.301  1.00  0.00    +0.000 C 
ATOM    120  H30 UNL A   1      42.749  31.738  33.227  1.00  0.00    +0.000 H 
ATOM    121  H31 UNL A   1      44.115  32.092  30.968  1.00  0.00    +0.000 H 
ATOM    122  H32 UNL A   1      44.805  28.381  32.393  1.00  0.00    +0.000 H 
ATOM    123  H33 UNL A   1      41.166  27.153  25.088  1.00  0.00    +0.000 H 
ATOM    124  H34 UNL A   1      39.655  28.898  26.172  1.00  0.00    +0.000 H 
ATOM    125  H35 UNL A   1      42.332  27.634  29.079  1.00  0.00    +0.000 H 
ATOM    126  H36 UNL A   1      43.838  24.942  29.484  1.00  0.00    +0.000 H 
ATOM    127  H37 UNL A   1      44.315  26.871  31.130  1.00  0.00    +0.000 H 
ATOM    128  H38 UNL A   1      39.409  27.615  33.382  1.00  0.00    +0.000 H 
ENDROOT
BRANCH   28   27
ATOM    130  H40 UNL A   1      37.684  28.124  28.030  1.00  0.00    +0.000 H 
ATOM    131  H41 UNL A   1      35.871  29.511  27.227  1.00  0.00    +0.000 H 
ATOM     27  C22 UNL A   1      38.727  29.755  28.855  1.00  0.00    +0.000 C 
ATOM     85  C61 UNL A   1      37.656  29.135  28.235  1.00  0.00    +0.000 C 
ATOM     86  C62 UNL A   1      36.561  29.884  27.897  1.00  0.00    +0.000 C 
ATOM    118  H28 UNL A   1      37.315  32.734  29.492  1.00  0.00    +0.000 H 
ATOM     24  C19 UNL A   1      36.378  31.144  28.452  1.00  0.00    +0.000 C 
ATOM     25  C20 UNL A   1      37.428  31.776  29.124  1.00  0.00    +0.000 C 
ATOM     26  C21 UNL A   1      38.630  31.089  29.287  1.00  0.00    +0.000 C 
ATOM    119  H29 UNL A   1      39.440  31.557  29.722  1.00  0.00    +0.000 H 
BRANCH   24   22
ATOM     22  C18 UNL A   1      35.050  31.788  28.325  1.00  0.00    +0.000 C 
ATOM     23  O3  UNL A   1      34.714  32.649  29.097  1.00  0.00    +0.000 O 
BRANCH   22   21
ATOM    117  H27 UNL A   1      34.196  31.928  26.493  1.00  0.00    +0.000 H 
ATOM     21  N2  UNL A   1      34.200  31.369  27.303  1.00  0.00    +0.000 N 
BRANCH   21   20
ATOM    116  H26 UNL A   1      32.482  30.439  27.909  1.00  0.00    +0.000 H 
ATOM    115  H25 UNL A   1      33.864  29.355  27.617  1.00  0.00    +0.000 H 
ATOM     20  C17 UNL A   1      33.313  30.205  27.277  1.00  0.00    +0.000 C 
BRANCH   20   19
ATOM    113  H23 UNL A   1      31.702  29.669  26.021  1.00  0.00    +0.000 H 
ATOM    114  H24 UNL A   1      32.946  30.751  25.302  1.00  0.00    +0.000 H 
ATOM     19  C16 UNL A   1      32.742  29.888  25.900  1.00  0.00    +0.000 C 
BRANCH   19   18
ATOM     18  C15 UNL A   1      33.385  28.707  25.149  1.00  0.00    +0.000 C 
ATOM    111  H21 UNL A   1      34.295  28.471  25.659  1.00  0.00    +0.000 H 
ATOM    112  H22 UNL A   1      32.620  27.959  25.153  1.00  0.00    +0.000 H 
BRANCH   18   17
ATOM     17  C14 UNL A   1      33.735  28.859  23.654  1.00  0.00    +0.000 C 
ATOM    109  H19 UNL A   1      33.631  29.895  23.409  1.00  0.00    +0.000 H 
ATOM    110  H20 UNL A   1      34.719  28.449  23.574  1.00  0.00    +0.000 H 
BRANCH   17   16
ATOM    107  H17 UNL A   1      33.211  28.397  21.645  1.00  0.00    +0.000 H 
ATOM    108  H18 UNL A   1      33.124  27.035  22.816  1.00  0.00    +0.000 H 
ATOM     16  C13 UNL A   1      32.915  28.065  22.618  1.00  0.00    +0.000 C 
BRANCH   16   15
ATOM    105  H15 UNL A   1      31.136  29.116  23.226  1.00  0.00    +0.000 H 
ATOM    106  H16 UNL A   1      30.993  28.175  21.708  1.00  0.00    +0.000 H 
ATOM     15  C12 UNL A   1      31.356  28.202  22.716  1.00  0.00    +0.000 C 
BRANCH   15   14
ATOM     14  N1  UNL A   1      30.637  27.054  23.459  1.00  0.00    +0.000 N 
ATOM    104  H14 UNL A   1      29.709  27.115  23.137  1.00  0.00    +0.000 H 
BRANCH   14   12
ATOM     12  C11 UNL A   1      30.611  25.997  24.330  1.00  0.00    +0.000 C 
ATOM     13  O2  UNL A   1      29.554  26.066  25.000  1.00  0.00    +0.000 O 
BRANCH   12   11
ATOM     11  C10 UNL A   1      31.629  24.820  24.832  1.00  0.00    +0.000 C 
ATOM    102  H12 UNL A   1      31.677  24.998  25.886  1.00  0.00    +0.000 H 
ATOM    103  H13 UNL A   1      31.174  24.068  24.221  1.00  0.00    +0.000 H 
BRANCH   11   10
ATOM     10  C9  UNL A   1      33.130  24.331  24.502  1.00  0.00    +0.000 C 
ATOM    100  H10 UNL A   1      33.154  23.339  24.903  1.00  0.00    +0.000 H 
ATOM    101  H11 UNL A   1      33.128  24.670  23.488  1.00  0.00    +0.000 H 
BRANCH   10    9
ATOM      9  C8  UNL A   1      34.575  24.897  24.852  1.00  0.00    +0.000 C 
ATOM     98  H8  UNL A   1      35.107  24.903  23.923  1.00  0.00    +0.000 H 
ATOM     99  H9  UNL A   1      34.304  25.797  25.363  1.00  0.00    +0.000 H 
BRANCH    9    8
ATOM      8  O1  UNL A   1      35.487  24.331  25.808  1.00  0.00    +0.000 O 
BRANCH    8    7
ATOM      2  C2  UNL A   1      33.763  19.707  25.039  1.00  0.00    +0.000 C 
ATOM      3  C3  UNL A   1      33.215  20.520  26.028  1.00  0.00    +0.000 C 
ATOM      4  C4  UNL A   1      33.968  21.557  26.613  1.00  0.00    +0.000 C 
ATOM      6  C6  UNL A   1      35.140  21.848  25.947  1.00  0.00    +0.000 C 
ATOM      7  C7  UNL A   1      35.890  23.034  25.786  1.00  0.00    +0.000 C 
ATOM     87  N7  UNL A   1      37.156  22.857  25.408  1.00  0.00    +0.000 N 
ATOM     88  S1  UNL A   1      37.327  21.260  24.926  1.00  0.00    +0.000 S 
ATOM     89  C63 UNL A   1      35.696  20.845  25.172  1.00  0.00    +0.000 C 
ATOM     90  N8  UNL A   1      35.074  19.739  24.716  1.00  0.00    +0.000 N 
ATOM     94  H4  UNL A   1      32.243  20.360  26.336  1.00  0.00    +0.000 H 
BRANCH    2    1
ATOM      1  C1  UNL A   1      32.876  18.750  24.287  1.00  0.00    +0.000 C 
ATOM     91  H1  UNL A   1      31.865  19.097  24.325  1.00  0.00    +0.000 H 
ATOM     92  H2  UNL A   1      32.937  17.780  24.734  1.00  0.00    +0.000 H 
ATOM     93  H3  UNL A   1      33.195  18.694  23.267  1.00  0.00    +0.000 H 
ENDBRANCH    2    1
BRANCH    4    5
ATOM     97  H7  UNL A   1      34.474  22.359  28.483  1.00  0.00    +0.000 H 
ATOM      5  C5  UNL A   1      33.658  22.401  27.791  1.00  0.00    +0.000 C 
ATOM     95  H5  UNL A   1      32.769  22.041  28.264  1.00  0.00    +0.000 H 
ATOM     96  H6  UNL A   1      33.511  23.413  27.476  1.00  0.00    +0.000 H 
ENDBRANCH    4    5
ENDBRANCH    8    7
ENDBRANCH    9    8
ENDBRANCH   10    9
ENDBRANCH   11   10
ENDBRANCH   12   11
ENDBRANCH   14   12
ENDBRANCH   15   14
ENDBRANCH   16   15
ENDBRANCH   17   16
ENDBRANCH   18   17
ENDBRANCH   19   18
ENDBRANCH   20   19
ENDBRANCH   21   20
ENDBRANCH   22   21
ENDBRANCH   24   22
ENDBRANCH   28   27
BRANCH   32   33
ATOM     33  C27 UNL A   1      42.518  27.617  34.303  1.00  0.00    +0.000 C 
ATOM     34  C28 UNL A   1      43.131  26.436  33.831  1.00  0.00    +0.000 C 
ATOM     35  F1  UNL A   1      43.678  26.389  32.607  1.00  0.00    +0.000 F 
ATOM     36  C29 UNL A   1      43.105  25.246  34.561  1.00  0.00    +0.000 C 
ATOM     37  F2  UNL A   1      43.570  24.117  34.008  1.00  0.00    +0.000 F 
ATOM     38  C30 UNL A   1      42.532  25.209  35.817  1.00  0.00    +0.000 C 
ATOM     39  F3  UNL A   1      42.437  24.054  36.489  1.00  0.00    +0.000 F 
ATOM     40  C31 UNL A   1      42.013  26.366  36.356  1.00  0.00    +0.000 C 
ATOM     41  F4  UNL A   1      41.445  26.348  37.570  1.00  0.00    +0.000 F 
ATOM     42  C32 UNL A   1      41.991  27.544  35.609  1.00  0.00    +0.000 C 
ATOM     43  F5  UNL A   1      41.340  28.564  36.179  1.00  0.00    +0.000 F 
ENDBRANCH   32   33
BRANCH   49   50
ATOM     50  C38 UNL A   1      45.174  30.474  28.711  1.00  0.00    +0.000 C 
ATOM     51  C39 UNL A   1      44.213  31.034  27.852  1.00  0.00    +0.000 C 
ATOM     52  F6  UNL A   1      42.945  30.600  27.863  1.00  0.00    +0.000 F 
ATOM     53  C40 UNL A   1      44.527  32.103  27.013  1.00  0.00    +0.000 C 
ATOM     54  F7  UNL A   1      43.591  32.620  26.202  1.00  0.00    +0.000 F 
ATOM     55  C41 UNL A   1      45.793  32.663  27.047  1.00  0.00    +0.000 C 
ATOM     56  F8  UNL A   1      46.082  33.725  26.280  1.00  0.00    +0.000 F 
ATOM     57  C42 UNL A   1      46.752  32.141  27.899  1.00  0.00    +0.000 C 
ATOM     58  F9  UNL A   1      47.964  32.710  27.972  1.00  0.00    +0.000 F 
ATOM     59  C43 UNL A   1      46.450  31.051  28.710  1.00  0.00    +0.000 C 
ATOM     60  F10 UNL A   1      47.394  30.593  29.548  1.00  0.00    +0.000 F 
ENDBRANCH   49   50
BRANCH   64   65
ATOM     65  C47 UNL A   1      43.351  24.959  26.181  1.00  0.00    +0.000 C 
ATOM     66  C48 UNL A   1      44.364  24.731  25.235  1.00  0.00    +0.000 C 
ATOM     67  F11 UNL A   1      45.129  25.748  24.811  1.00  0.00    +0.000 F 
ATOM     68  C49 UNL A   1      44.658  23.446  24.771  1.00  0.00    +0.000 C 
ATOM     69  F12 UNL A   1      45.678  23.258  23.921  1.00  0.00    +0.000 F 
ATOM     70  C50 UNL A   1      43.941  22.354  25.231  1.00  0.00    +0.000 C 
ATOM     71  F13 UNL A   1      44.267  21.113  24.839  1.00  0.00    +0.000 F 
ATOM     72  C51 UNL A   1      42.910  22.548  26.131  1.00  0.00    +0.000 C 
ATOM     73  F14 UNL A   1      42.230  21.496  26.609  1.00  0.00    +0.000 F 
ATOM     74  C52 UNL A   1      42.618  23.830  26.599  1.00  0.00    +0.000 C 
ATOM     75  F15 UNL A   1      41.669  23.933  27.539  1.00  0.00    +0.000 F 
ENDBRANCH   64   65
TORSDOF 21
ENDMDL
MODEL 5
REMARK VINA RESULT:     -10.5      1.233      2.337
ROOT
ATOM    129  H39 UNL A   1      41.436  28.527  25.999  1.00  0.00    +0.000 H 
ATOM     28  C23 UNL A   1      40.920  27.731  28.725  1.00  0.00    +0.000 C 
ATOM     29  C24 UNL A   1      42.086  28.461  28.171  1.00  0.00    +0.000 C 
ATOM     30  N3  UNL A   1      43.160  28.791  28.808  1.00  0.00    +0.000 N 
ATOM     31  C25 UNL A   1      43.961  29.468  27.895  1.00  0.00    +0.000 C 
ATOM     32  C26 UNL A   1      44.928  30.323  28.329  1.00  0.00    +0.000 C 
ATOM     44  C33 UNL A   1      45.215  30.105  29.728  1.00  0.00    +0.000 C 
ATOM     45  C34 UNL A   1      45.681  29.033  30.463  1.00  0.00    +0.000 C 
ATOM     46  C35 UNL A   1      44.930  29.064  31.676  1.00  0.00    +0.000 C 
ATOM     47  C36 UNL A   1      44.106  30.189  31.639  1.00  0.00    +0.000 C 
ATOM     48  N4  UNL A   1      44.648  30.961  30.643  1.00  0.00    +0.000 N 
ATOM     49  C37 UNL A   1      42.901  30.541  32.353  1.00  0.00    +0.000 C 
ATOM     61  C44 UNL A   1      41.960  31.416  31.891  1.00  0.00    +0.000 C 
ATOM     62  N5  UNL A   1      40.657  31.389  32.367  1.00  0.00    +0.000 N 
ATOM     63  C45 UNL A   1      39.935  31.867  31.388  1.00  0.00    +0.000 C 
ATOM     64  C46 UNL A   1      38.608  31.306  31.013  1.00  0.00    +0.000 C 
ATOM     76  C53 UNL A   1      38.841  30.062  30.528  1.00  0.00    +0.000 C 
ATOM     77  C54 UNL A   1      37.964  28.919  30.422  1.00  0.00    +0.000 C 
ATOM     78  C55 UNL A   1      38.673  27.889  29.915  1.00  0.00    +0.000 C 
ATOM     79  C56 UNL A   1      39.994  28.359  29.482  1.00  0.00    +0.000 C 
ATOM     80  N6  UNL A   1      40.060  29.642  29.968  1.00  0.00    +0.000 N 
ATOM     81  C57 UNL A   1      40.664  32.613  30.376  1.00  0.00    +0.000 C 
ATOM     82  C58 UNL A   1      41.907  32.230  30.678  1.00  0.00    +0.000 C 
ATOM     83  C59 UNL A   1      43.363  29.249  26.603  1.00  0.00    +0.000 C 
ATOM     84  C60 UNL A   1      42.146  28.713  26.725  1.00  0.00    +0.000 C 
ATOM    120  H30 UNL A   1      46.414  28.357  30.195  1.00  0.00    +0.000 H 
ATOM    121  H31 UNL A   1      44.987  28.376  32.443  1.00  0.00    +0.000 H 
ATOM    122  H32 UNL A   1      44.635  31.944  30.594  1.00  0.00    +0.000 H 
ATOM    123  H33 UNL A   1      36.967  28.892  30.689  1.00  0.00    +0.000 H 
ATOM    124  H34 UNL A   1      38.338  26.916  29.844  1.00  0.00    +0.000 H 
ATOM    125  H35 UNL A   1      40.869  30.202  29.929  1.00  0.00    +0.000 H 
ATOM    126  H36 UNL A   1      40.322  33.251  29.640  1.00  0.00    +0.000 H 
ATOM    127  H37 UNL A   1      42.737  32.481  30.119  1.00  0.00    +0.000 H 
ATOM    128  H38 UNL A   1      43.815  29.476  25.703  1.00  0.00    +0.000 H 
ENDROOT
BRANCH   28   27
ATOM    130  H40 UNL A   1      39.074  26.746  27.143  1.00  0.00    +0.000 H 
ATOM    131  H41 UNL A   1      38.602  24.399  26.787  1.00  0.00    +0.000 H 
ATOM     27  C22 UNL A   1      40.797  26.350  28.284  1.00  0.00    +0.000 C 
ATOM     85  C61 UNL A   1      39.717  26.015  27.487  1.00  0.00    +0.000 C 
ATOM     86  C62 UNL A   1      39.515  24.701  27.162  1.00  0.00    +0.000 C 
ATOM    118  H28 UNL A   1      42.394  23.397  28.278  1.00  0.00    +0.000 H 
ATOM     24  C19 UNL A   1      40.534  23.774  27.337  1.00  0.00    +0.000 C 
ATOM     25  C20 UNL A   1      41.658  24.099  28.100  1.00  0.00    +0.000 C 
ATOM     26  C21 UNL A   1      41.768  25.389  28.616  1.00  0.00    +0.000 C 
ATOM    119  H29 UNL A   1      42.555  25.636  29.236  1.00  0.00    +0.000 H 
BRANCH   24   22
ATOM     22  C18 UNL A   1      40.404  22.448  26.689  1.00  0.00    +0.000 C 
ATOM     23  O3  UNL A   1      41.376  21.883  26.257  1.00  0.00    +0.000 O 
BRANCH   22   21
ATOM    117  H27 UNL A   1      38.723  21.592  27.429  1.00  0.00    +0.000 H 
ATOM     21  N2  UNL A   1      39.136  21.878  26.583  1.00  0.00    +0.000 N 
BRANCH   21   20
ATOM    116  H26 UNL A   1      38.210  20.592  25.290  1.00  0.00    +0.000 H 
ATOM    115  H25 UNL A   1      38.860  22.072  24.545  1.00  0.00    +0.000 H 
ATOM     20  C17 UNL A   1      38.339  21.650  25.377  1.00  0.00    +0.000 C 
BRANCH   20   19
ATOM    113  H23 UNL A   1      36.592  22.183  26.436  1.00  0.00    +0.000 H 
ATOM    114  H24 UNL A   1      37.059  23.264  25.075  1.00  0.00    +0.000 H 
ATOM     19  C16 UNL A   1      36.944  22.261  25.428  1.00  0.00    +0.000 C 
BRANCH   19   18
ATOM     18  C15 UNL A   1      35.884  21.623  24.511  1.00  0.00    +0.000 C 
ATOM    111  H21 UNL A   1      35.179  22.390  24.267  1.00  0.00    +0.000 H 
ATOM    112  H22 UNL A   1      36.460  21.220  23.703  1.00  0.00    +0.000 H 
BRANCH   18   17
ATOM     17  C14 UNL A   1      35.072  20.412  25.016  1.00  0.00    +0.000 C 
ATOM    109  H19 UNL A   1      34.905  19.772  24.176  1.00  0.00    +0.000 H 
ATOM    110  H20 UNL A   1      35.670  20.010  25.807  1.00  0.00    +0.000 H 
BRANCH   17   16
ATOM    107  H17 UNL A   1      33.539  19.885  26.393  1.00  0.00    +0.000 H 
ATOM    108  H18 UNL A   1      33.761  21.644  26.094  1.00  0.00    +0.000 H 
ATOM     16  C13 UNL A   1      33.702  20.661  25.675  1.00  0.00    +0.000 C 
BRANCH   16   15
ATOM    105  H15 UNL A   1      32.762  20.259  23.779  1.00  0.00    +0.000 H 
ATOM    106  H16 UNL A   1      31.690  20.143  25.210  1.00  0.00    +0.000 H 
ATOM     15  C12 UNL A   1      32.465  20.690  24.713  1.00  0.00    +0.000 C 
BRANCH   15   14
ATOM     14  N1  UNL A   1      31.880  22.091  24.427  1.00  0.00    +0.000 N 
ATOM    104  H14 UNL A   1      32.001  22.201  23.457  1.00  0.00    +0.000 H 
BRANCH   14   12
ATOM     12  C11 UNL A   1      31.283  23.262  24.815  1.00  0.00    +0.000 C 
ATOM     13  O2  UNL A   1      31.233  23.281  26.068  1.00  0.00    +0.000 O 
BRANCH   12   11
ATOM     11  C10 UNL A   1      30.494  24.508  24.108  1.00  0.00    +0.000 C 
ATOM    102  H12 UNL A   1      29.533  24.081  23.909  1.00  0.00    +0.000 H 
ATOM    103  H13 UNL A   1      30.860  25.229  24.809  1.00  0.00    +0.000 H 
BRANCH   11   10
ATOM     10  C9  UNL A   1      30.706  25.477  22.837  1.00  0.00    +0.000 C 
ATOM    100  H10 UNL A   1      29.897  25.206  22.190  1.00  0.00    +0.000 H 
ATOM    101  H11 UNL A   1      30.869  26.365  23.411  1.00  0.00    +0.000 H 
BRANCH   10    9
ATOM      9  C8  UNL A   1      31.911  25.721  21.827  1.00  0.00    +0.000 C 
ATOM     98  H8  UNL A   1      31.733  25.053  21.010  1.00  0.00    +0.000 H 
ATOM     99  H9  UNL A   1      31.852  26.784  21.721  1.00  0.00    +0.000 H 
BRANCH    9    8
ATOM      8  O1  UNL A   1      33.306  25.577  22.138  1.00  0.00    +0.000 O 
BRANCH    8    7
ATOM      2  C2  UNL A   1      32.694  28.431  26.191  1.00  0.00    +0.000 C 
ATOM      3  C3  UNL A   1      32.918  29.002  24.940  1.00  0.00    +0.000 C 
ATOM      4  C4  UNL A   1      33.594  28.290  23.929  1.00  0.00    +0.000 C 
ATOM      6  C6  UNL A   1      33.751  26.946  24.196  1.00  0.00    +0.000 C 
ATOM      7  C7  UNL A   1      33.829  25.801  23.372  1.00  0.00    +0.000 C 
ATOM     87  N7  UNL A   1      34.366  24.725  23.946  1.00  0.00    +0.000 N 
ATOM     88  S1  UNL A   1      34.465  25.021  25.595  1.00  0.00    +0.000 S 
ATOM     89  C63 UNL A   1      33.734  26.556  25.524  1.00  0.00    +0.000 C 
ATOM     90  N8  UNL A   1      33.253  27.262  26.567  1.00  0.00    +0.000 N 
ATOM     94  H4  UNL A   1      32.585  29.961  24.752  1.00  0.00    +0.000 H 
BRANCH    2    1
ATOM      1  C1  UNL A   1      31.792  29.129  27.175  1.00  0.00    +0.000 C 
ATOM     91  H1  UNL A   1      31.050  28.444  27.526  1.00  0.00    +0.000 H 
ATOM     92  H2  UNL A   1      31.314  29.958  26.695  1.00  0.00    +0.000 H 
ATOM     93  H3  UNL A   1      32.372  29.482  28.002  1.00  0.00    +0.000 H 
ENDBRANCH    2    1
BRANCH    4    5
ATOM     97  H7  UNL A   1      35.170  28.700  22.609  1.00  0.00    +0.000 H 
ATOM      5  C5  UNL A   1      34.101  28.761  22.619  1.00  0.00    +0.000 C 
ATOM     95  H5  UNL A   1      33.800  29.775  22.463  1.00  0.00    +0.000 H 
ATOM     96  H6  UNL A   1      33.703  28.146  21.840  1.00  0.00    +0.000 H 
ENDBRANCH    4    5
ENDBRANCH    8    7
ENDBRANCH    9    8
ENDBRANCH   10    9
ENDBRANCH   11   10
ENDBRANCH   12   11
ENDBRANCH   14   12
ENDBRANCH   15   14
ENDBRANCH   16   15
ENDBRANCH   17   16
ENDBRANCH   18   17
ENDBRANCH   19   18
ENDBRANCH   20   19
ENDBRANCH   21   20
ENDBRANCH   22   21
ENDBRANCH   24   22
ENDBRANCH   28   27
BRANCH   32   33
ATOM     33  C27 UNL A   1      45.350  31.590  27.623  1.00  0.00    +0.000 C 
ATOM     34  C28 UNL A   1      46.658  31.666  27.097  1.00  0.00    +0.000 C 
ATOM     35  F1  UNL A   1      47.402  30.559  26.946  1.00  0.00    +0.000 F 
ATOM     36  C29 UNL A   1      47.271  32.887  26.811  1.00  0.00    +0.000 C 
ATOM     37  F2  UNL A   1      48.563  32.915  26.454  1.00  0.00    +0.000 F 
ATOM     38  C30 UNL A   1      46.579  34.071  26.971  1.00  0.00    +0.000 C 
ATOM     39  F3  UNL A   1      47.186  35.248  26.771  1.00  0.00    +0.000 F 
ATOM     40  C31 UNL A   1      45.265  34.033  27.385  1.00  0.00    +0.000 C 
ATOM     41  F4  UNL A   1      44.579  35.173  27.554  1.00  0.00    +0.000 F 
ATOM     42  C32 UNL A   1      44.666  32.820  27.720  1.00  0.00    +0.000 C 
ATOM     43  F5  UNL A   1      43.438  32.918  28.241  1.00  0.00    +0.000 F 
ENDBRANCH   32   33
BRANCH   49   50
ATOM     50  C38 UNL A   1      42.568  29.698  33.553  1.00  0.00    +0.000 C 
ATOM     51  C39 UNL A   1      41.945  28.441  33.478  1.00  0.00    +0.000 C 
ATOM     52  F6  UNL A   1      41.524  27.951  32.303  1.00  0.00    +0.000 F 
ATOM     53  C40 UNL A   1      41.808  27.632  34.607  1.00  0.00    +0.000 C 
ATOM     54  F7  UNL A   1      41.209  26.435  34.508  1.00  0.00    +0.000 F 
ATOM     55  C41 UNL A   1      42.328  28.043  35.822  1.00  0.00    +0.000 C 
ATOM     56  F8  UNL A   1      42.244  27.245  36.896  1.00  0.00    +0.000 F 
ATOM     57  C42 UNL A   1      42.964  29.270  35.917  1.00  0.00    +0.000 C 
ATOM     58  F9  UNL A   1      43.512  29.652  37.079  1.00  0.00    +0.000 F 
ATOM     59  C43 UNL A   1      43.069  30.094  34.800  1.00  0.00    +0.000 C 
ATOM     60  F10 UNL A   1      43.720  31.261  34.922  1.00  0.00    +0.000 F 
ENDBRANCH   49   50
BRANCH   64   65
ATOM     65  C47 UNL A   1      37.402  32.144  30.821  1.00  0.00    +0.000 C 
ATOM     66  C48 UNL A   1      37.136  32.746  29.580  1.00  0.00    +0.000 C 
ATOM     67  F11 UNL A   1      38.081  32.769  28.628  1.00  0.00    +0.000 F 
ATOM     68  C49 UNL A   1      35.875  33.262  29.270  1.00  0.00    +0.000 C 
ATOM     69  F12 UNL A   1      35.639  33.765  28.049  1.00  0.00    +0.000 F 
ATOM     70  C50 UNL A   1      34.846  33.200  30.194  1.00  0.00    +0.000 C 
ATOM     71  F13 UNL A   1      33.617  33.632  29.873  1.00  0.00    +0.000 F 
ATOM     72  C51 UNL A   1      35.084  32.651  31.441  1.00  0.00    +0.000 C 
ATOM     73  F14 UNL A   1      34.088  32.556  32.333  1.00  0.00    +0.000 F 
ATOM     74  C52 UNL A   1      36.342  32.132  31.751  1.00  0.00    +0.000 C 
ATOM     75  F15 UNL A   1      36.476  31.533  32.942  1.00  0.00    +0.000 F 
ENDBRANCH   64   65
TORSDOF 21
ENDMDL
MODEL 6
REMARK VINA RESULT:     -10.4      1.253      2.448
ROOT
ATOM    129  H39 UNL A   1      41.663  28.870  26.112  1.00  0.00    +0.000 H 
ATOM     28  C23 UNL A   1      41.023  27.984  28.783  1.00  0.00    +0.000 C 
ATOM     29  C24 UNL A   1      42.209  28.739  28.309  1.00  0.00    +0.000 C 
ATOM     30  N3  UNL A   1      43.248  29.057  29.007  1.00  0.00    +0.000 N 
ATOM     31  C25 UNL A   1      44.086  29.768  28.155  1.00  0.00    +0.000 C 
ATOM     32  C26 UNL A   1      45.024  30.616  28.662  1.00  0.00    +0.000 C 
ATOM     44  C33 UNL A   1      45.245  30.356  30.065  1.00  0.00    +0.000 C 
ATOM     45  C34 UNL A   1      45.685  29.264  30.788  1.00  0.00    +0.000 C 
ATOM     46  C35 UNL A   1      44.876  29.250  31.964  1.00  0.00    +0.000 C 
ATOM     47  C36 UNL A   1      44.046  30.370  31.922  1.00  0.00    +0.000 C 
ATOM     48  N4  UNL A   1      44.628  31.177  30.979  1.00  0.00    +0.000 N 
ATOM     49  C37 UNL A   1      42.805  30.690  32.589  1.00  0.00    +0.000 C 
ATOM     61  C44 UNL A   1      41.879  31.573  32.109  1.00  0.00    +0.000 C 
ATOM     62  N5  UNL A   1      40.555  31.521  32.521  1.00  0.00    +0.000 N 
ATOM     63  C45 UNL A   1      39.876  32.025  31.524  1.00  0.00    +0.000 C 
ATOM     64  C46 UNL A   1      38.574  31.467  31.069  1.00  0.00    +0.000 C 
ATOM     76  C53 UNL A   1      38.840  30.240  30.556  1.00  0.00    +0.000 C 
ATOM     77  C54 UNL A   1      37.980  29.095  30.373  1.00  0.00    +0.000 C 
ATOM     78  C55 UNL A   1      38.722  28.087  29.868  1.00  0.00    +0.000 C 
ATOM     79  C56 UNL A   1      40.057  28.581  29.514  1.00  0.00    +0.000 C 
ATOM     80  N6  UNL A   1      40.089  29.848  30.043  1.00  0.00    +0.000 N 
ATOM     81  C57 UNL A   1      40.647  32.809  30.572  1.00  0.00    +0.000 C 
ATOM     82  C58 UNL A   1      41.877  32.425  30.922  1.00  0.00    +0.000 C 
ATOM     83  C59 UNL A   1      43.553  29.586  26.829  1.00  0.00    +0.000 C 
ATOM     84  C60 UNL A   1      42.335  29.038  26.876  1.00  0.00    +0.000 C 
ATOM    120  H30 UNL A   1      46.436  28.602  30.534  1.00  0.00    +0.000 H 
ATOM    121  H31 UNL A   1      44.902  28.539  32.711  1.00  0.00    +0.000 H 
ATOM    122  H32 UNL A   1      44.609  32.161  30.960  1.00  0.00    +0.000 H 
ATOM    123  H33 UNL A   1      36.972  29.053  30.590  1.00  0.00    +0.000 H 
ATOM    124  H34 UNL A   1      38.399  27.115  29.750  1.00  0.00    +0.000 H 
ATOM    125  H35 UNL A   1      40.894  30.415  30.061  1.00  0.00    +0.000 H 
ATOM    126  H36 UNL A   1      40.334  33.467  29.842  1.00  0.00    +0.000 H 
ATOM    127  H37 UNL A   1      42.731  32.700  30.412  1.00  0.00    +0.000 H 
ATOM    128  H38 UNL A   1      44.044  29.844  25.960  1.00  0.00    +0.000 H 
ENDROOT
BRANCH   28   27
ATOM    130  H40 UNL A   1      39.250  27.030  27.101  1.00  0.00    +0.000 H 
ATOM    131  H41 UNL A   1      38.821  24.692  26.652  1.00  0.00    +0.000 H 
ATOM     27  C22 UNL A   1      40.935  26.617  28.294  1.00  0.00    +0.000 C 
ATOM     85  C61 UNL A   1      39.889  26.296  27.445  1.00  0.00    +0.000 C 
ATOM     86  C62 UNL A   1      39.715  24.991  27.071  1.00  0.00    +0.000 C 
ATOM    118  H28 UNL A   1      42.566  23.683  28.253  1.00  0.00    +0.000 H 
ATOM     24  C19 UNL A   1      40.738  24.070  27.254  1.00  0.00    +0.000 C 
ATOM     25  C20 UNL A   1      41.829  24.382  28.069  1.00  0.00    +0.000 C 
ATOM     26  C21 UNL A   1      41.904  25.656  28.631  1.00  0.00    +0.000 C 
ATOM    119  H29 UNL A   1      42.664  25.891  29.288  1.00  0.00    +0.000 H 
BRANCH   24   22
ATOM     22  C18 UNL A   1      40.649  22.764  26.559  1.00  0.00    +0.000 C 
ATOM     23  O3  UNL A   1      41.583  22.346  25.926  1.00  0.00    +0.000 O 
BRANCH   22   21
ATOM    117  H27 UNL A   1      39.189  21.771  27.556  1.00  0.00    +0.000 H 
ATOM     21  N2  UNL A   1      39.460  22.041  26.648  1.00  0.00    +0.000 N 
BRANCH   21   20
ATOM    116  H26 UNL A   1      38.303  20.609  25.757  1.00  0.00    +0.000 H 
ATOM    115  H25 UNL A   1      39.072  21.762  24.639  1.00  0.00    +0.000 H 
ATOM     20  C17 UNL A   1      38.562  21.630  25.569  1.00  0.00    +0.000 C 
BRANCH   20   19
ATOM    113  H23 UNL A   1      36.837  22.416  26.499  1.00  0.00    +0.000 H 
ATOM    114  H24 UNL A   1      37.519  23.380  25.141  1.00  0.00    +0.000 H 
ATOM     19  C16 UNL A   1      37.255  22.412  25.514  1.00  0.00    +0.000 C 
BRANCH   19   18
ATOM     18  C15 UNL A   1      36.179  21.880  24.550  1.00  0.00    +0.000 C 
ATOM    111  H21 UNL A   1      35.636  22.728  24.189  1.00  0.00    +0.000 H 
ATOM    112  H22 UNL A   1      36.741  21.322  23.829  1.00  0.00    +0.000 H 
BRANCH   18   17
ATOM     17  C14 UNL A   1      35.137  20.864  25.062  1.00  0.00    +0.000 C 
ATOM    109  H19 UNL A   1      34.477  20.651  24.247  1.00  0.00    +0.000 H 
ATOM    110  H20 UNL A   1      35.726  20.046  25.421  1.00  0.00    +0.000 H 
BRANCH   17   16
ATOM    107  H17 UNL A   1      34.381  20.492  27.015  1.00  0.00    +0.000 H 
ATOM    108  H18 UNL A   1      34.590  22.221  26.565  1.00  0.00    +0.000 H 
ATOM     16  C13 UNL A   1      34.258  21.248  26.268  1.00  0.00    +0.000 C 
BRANCH   16   15
ATOM    105  H15 UNL A   1      32.265  20.443  26.136  1.00  0.00    +0.000 H 
ATOM    106  H16 UNL A   1      32.371  22.153  26.660  1.00  0.00    +0.000 H 
ATOM     15  C12 UNL A   1      32.723  21.398  25.987  1.00  0.00    +0.000 C 
BRANCH   15   14
ATOM     14  N1  UNL A   1      32.355  21.887  24.568  1.00  0.00    +0.000 N 
ATOM    104  H14 UNL A   1      31.926  21.104  24.156  1.00  0.00    +0.000 H 
BRANCH   14   12
ATOM     12  C11 UNL A   1      32.312  22.838  23.583  1.00  0.00    +0.000 C 
ATOM     13  O2  UNL A   1      31.450  22.492  22.740  1.00  0.00    +0.000 O 
BRANCH   12   11
ATOM     11  C10 UNL A   1      33.169  24.158  23.138  1.00  0.00    +0.000 C 
ATOM    102  H12 UNL A   1      33.817  23.761  22.384  1.00  0.00    +0.000 H 
ATOM    103  H13 UNL A   1      32.311  24.797  23.124  1.00  0.00    +0.000 H 
BRANCH   11   10
ATOM     10  C9  UNL A   1      34.110  25.256  23.852  1.00  0.00    +0.000 C 
ATOM    100  H10 UNL A   1      35.088  25.000  23.500  1.00  0.00    +0.000 H 
ATOM    101  H11 UNL A   1      33.485  26.092  23.621  1.00  0.00    +0.000 H 
BRANCH   10    9
ATOM      9  C8  UNL A   1      34.367  25.668  25.367  1.00  0.00    +0.000 C 
ATOM     98  H8  UNL A   1      34.994  24.899  25.766  1.00  0.00    +0.000 H 
ATOM     99  H9  UNL A   1      34.709  26.673  25.231  1.00  0.00    +0.000 H 
BRANCH    9    8
ATOM      8  O1  UNL A   1      33.350  25.882  26.360  1.00  0.00    +0.000 O 
BRANCH    8    7
ATOM      2  C2  UNL A   1      30.419  28.776  23.536  1.00  0.00    +0.000 C 
ATOM      3  C3  UNL A   1      31.297  29.334  24.462  1.00  0.00    +0.000 C 
ATOM      4  C4  UNL A   1      31.722  28.603  25.589  1.00  0.00    +0.000 C 
ATOM      6  C6  UNL A   1      31.418  27.259  25.537  1.00  0.00    +0.000 C 
ATOM      7  C7  UNL A   1      32.044  26.107  26.063  1.00  0.00    +0.000 C 
ATOM     87  N7  UNL A   1      31.267  25.026  26.142  1.00  0.00    +0.000 N 
ATOM     88  S1  UNL A   1      29.874  25.333  25.260  1.00  0.00    +0.000 S 
ATOM     89  C63 UNL A   1      30.355  26.879  24.737  1.00  0.00    +0.000 C 
ATOM     90  N8  UNL A   1      29.790  27.601  23.748  1.00  0.00    +0.000 N 
ATOM     94  H4  UNL A   1      31.642  30.296  24.320  1.00  0.00    +0.000 H 
BRANCH    2    1
ATOM      1  C1  UNL A   1      30.149  29.496  22.241  1.00  0.00    +0.000 C 
ATOM     91  H1  UNL A   1      29.194  29.200  21.861  1.00  0.00    +0.000 H 
ATOM     92  H2  UNL A   1      30.908  29.247  21.529  1.00  0.00    +0.000 H 
ATOM     93  H3  UNL A   1      30.153  30.552  22.412  1.00  0.00    +0.000 H 
ENDBRANCH    2    1
BRANCH    4    5
ATOM     97  H7  UNL A   1      33.049  29.929  26.527  1.00  0.00    +0.000 H 
ATOM      5  C5  UNL A   1      32.483  29.056  26.777  1.00  0.00    +0.000 C 
ATOM     95  H5  UNL A   1      33.147  28.279  27.094  1.00  0.00    +0.000 H 
ATOM     96  H6  UNL A   1      31.802  29.289  27.570  1.00  0.00    +0.000 H 
ENDBRANCH    4    5
ENDBRANCH    8    7
ENDBRANCH    9    8
ENDBRANCH   10    9
ENDBRANCH   11   10
ENDBRANCH   12   11
ENDBRANCH   14   12
ENDBRANCH   15   14
ENDBRANCH   16   15
ENDBRANCH   17   16
ENDBRANCH   18   17
ENDBRANCH   19   18
ENDBRANCH   20   19
ENDBRANCH   21   20
ENDBRANCH   22   21
ENDBRANCH   24   22
ENDBRANCH   28   27
BRANCH   32   33
ATOM     33  C27 UNL A   1      45.468  31.907  28.017  1.00  0.00    +0.000 C 
ATOM     34  C28 UNL A   1      44.486  32.854  27.656  1.00  0.00    +0.000 C 
ATOM     35  F1  UNL A   1      43.237  32.765  28.137  1.00  0.00    +0.000 F 
ATOM     36  C29 UNL A   1      44.732  33.853  26.711  1.00  0.00    +0.000 C 
ATOM     37  F2  UNL A   1      43.728  34.634  26.292  1.00  0.00    +0.000 F 
ATOM     38  C30 UNL A   1      45.986  33.988  26.148  1.00  0.00    +0.000 C 
ATOM     39  F3  UNL A   1      46.208  34.894  25.187  1.00  0.00    +0.000 F 
ATOM     40  C31 UNL A   1      47.001  33.147  26.551  1.00  0.00    +0.000 C 
ATOM     41  F4  UNL A   1      48.222  33.256  26.010  1.00  0.00    +0.000 F 
ATOM     42  C32 UNL A   1      46.745  32.116  27.455  1.00  0.00    +0.000 C 
ATOM     43  F5  UNL A   1      47.767  31.280  27.666  1.00  0.00    +0.000 F 
ENDBRANCH   32   33
BRANCH   49   50
ATOM     50  C38 UNL A   1      42.422  29.808  33.744  1.00  0.00    +0.000 C 
ATOM     51  C39 UNL A   1      41.836  28.538  33.599  1.00  0.00    +0.000 C 
ATOM     52  F6  UNL A   1      41.499  28.071  32.389  1.00  0.00    +0.000 F 
ATOM     53  C40 UNL A   1      41.652  27.696  34.696  1.00  0.00    +0.000 C 
ATOM     54  F7  UNL A   1      41.091  26.488  34.530  1.00  0.00    +0.000 F 
ATOM     55  C41 UNL A   1      42.089  28.086  35.951  1.00  0.00    +0.000 C 
ATOM     56  F8  UNL A   1      41.962  27.257  36.997  1.00  0.00    +0.000 F 
ATOM     57  C42 UNL A   1      42.687  29.325  36.116  1.00  0.00    +0.000 C 
ATOM     58  F9  UNL A   1      43.156  29.687  37.319  1.00  0.00    +0.000 F 
ATOM     59  C43 UNL A   1      42.838  30.181  35.029  1.00  0.00    +0.000 C 
ATOM     60  F10 UNL A   1      43.451  31.359  35.220  1.00  0.00    +0.000 F 
ENDBRANCH   49   50
BRANCH   64   65
ATOM     65  C47 UNL A   1      37.371  32.302  30.846  1.00  0.00    +0.000 C 
ATOM     66  C48 UNL A   1      37.110  32.861  29.584  1.00  0.00    +0.000 C 
ATOM     67  F11 UNL A   1      38.057  32.848  28.634  1.00  0.00    +0.000 F 
ATOM     68  C49 UNL A   1      35.851  33.370  29.253  1.00  0.00    +0.000 C 
ATOM     69  F12 UNL A   1      35.619  33.831  28.016  1.00  0.00    +0.000 F 
ATOM     70  C50 UNL A   1      34.820  33.344  30.178  1.00  0.00    +0.000 C 
ATOM     71  F13 UNL A   1      33.593  33.768  29.840  1.00  0.00    +0.000 F 
ATOM     72  C51 UNL A   1      35.054  32.838  31.443  1.00  0.00    +0.000 C 
ATOM     73  F14 UNL A   1      34.056  32.777  32.336  1.00  0.00    +0.000 F 
ATOM     74  C52 UNL A   1      36.310  32.326  31.773  1.00  0.00    +0.000 C 
ATOM     75  F15 UNL A   1      36.439  31.768  32.985  1.00  0.00    +0.000 F 
ENDBRANCH   64   65
TORSDOF 21
ENDMDL
MODEL 7
REMARK VINA RESULT:     -10.3      3.238      8.833
ROOT
ATOM    129  H39 UNL A   1      38.752  27.472  31.458  1.00  0.00    +0.000 H 
ATOM     28  C23 UNL A   1      40.118  28.922  29.369  1.00  0.00    +0.000 C 
ATOM     29  C24 UNL A   1      40.523  28.718  30.782  1.00  0.00    +0.000 C 
ATOM     30  N3  UNL A   1      41.535  29.254  31.376  1.00  0.00    +0.000 N 
ATOM     31  C25 UNL A   1      41.526  28.765  32.678  1.00  0.00    +0.000 C 
ATOM     32  C26 UNL A   1      42.667  28.764  33.421  1.00  0.00    +0.000 C 
ATOM     44  C33 UNL A   1      43.660  29.636  32.838  1.00  0.00    +0.000 C 
ATOM     45  C34 UNL A   1      43.715  30.988  32.560  1.00  0.00    +0.000 C 
ATOM     46  C35 UNL A   1      44.382  31.078  31.302  1.00  0.00    +0.000 C 
ATOM     47  C36 UNL A   1      44.756  29.788  30.925  1.00  0.00    +0.000 C 
ATOM     48  N4  UNL A   1      44.658  29.064  32.085  1.00  0.00    +0.000 N 
ATOM     49  C37 UNL A   1      45.100  29.205  29.649  1.00  0.00    +0.000 C 
ATOM     61  C44 UNL A   1      44.975  27.878  29.350  1.00  0.00    +0.000 C 
ATOM     62  N5  UNL A   1      44.886  27.442  28.035  1.00  0.00    +0.000 N 
ATOM     63  C45 UNL A   1      44.216  26.322  28.101  1.00  0.00    +0.000 C 
ATOM     64  C46 UNL A   1      43.176  25.942  27.105  1.00  0.00    +0.000 C 
ATOM     76  C53 UNL A   1      42.155  26.820  27.263  1.00  0.00    +0.000 C 
ATOM     77  C54 UNL A   1      41.114  27.220  26.346  1.00  0.00    +0.000 C 
ATOM     78  C55 UNL A   1      40.359  28.161  26.951  1.00  0.00    +0.000 C 
ATOM     79  C56 UNL A   1      40.748  28.282  28.360  1.00  0.00    +0.000 C 
ATOM     80  N6  UNL A   1      41.889  27.524  28.450  1.00  0.00    +0.000 N 
ATOM     81  C57 UNL A   1      44.151  25.704  29.415  1.00  0.00    +0.000 C 
ATOM     82  C58 UNL A   1      44.549  26.738  30.159  1.00  0.00    +0.000 C 
ATOM     83  C59 UNL A   1      40.250  28.118  32.850  1.00  0.00    +0.000 C 
ATOM     84  C60 UNL A   1      39.627  27.973  31.677  1.00  0.00    +0.000 C 
ATOM    120  H30 UNL A   1      43.353  31.764  33.136  1.00  0.00    +0.000 H 
ATOM    121  H31 UNL A   1      44.556  31.943  30.767  1.00  0.00    +0.000 H 
ATOM    122  H32 UNL A   1      45.202  28.282  32.333  1.00  0.00    +0.000 H 
ATOM    123  H33 UNL A   1      40.971  26.852  25.393  1.00  0.00    +0.000 H 
ATOM    124  H34 UNL A   1      39.619  28.714  26.490  1.00  0.00    +0.000 H 
ATOM    125  H35 UNL A   1      42.456  27.480  29.255  1.00  0.00    +0.000 H 
ATOM    126  H36 UNL A   1      43.878  24.748  29.691  1.00  0.00    +0.000 H 
ATOM    127  H37 UNL A   1      44.556  26.734  31.192  1.00  0.00    +0.000 H 
ATOM    128  H38 UNL A   1      39.869  27.807  33.757  1.00  0.00    +0.000 H 
ENDROOT
BRANCH   28   27
ATOM    130  H40 UNL A   1      39.998  31.541  29.448  1.00  0.00    +0.000 H 
ATOM    131  H41 UNL A   1      37.986  32.875  29.606  1.00  0.00    +0.000 H 
ATOM     27  C22 UNL A   1      38.933  29.745  29.185  1.00  0.00    +0.000 C 
ATOM     85  C61 UNL A   1      39.067  31.117  29.317  1.00  0.00    +0.000 C 
ATOM     86  C62 UNL A   1      37.946  31.900  29.271  1.00  0.00    +0.000 C 
ATOM    118  H28 UNL A   1      35.705  29.616  28.270  1.00  0.00    +0.000 H 
ATOM     24  C19 UNL A   1      36.755  31.386  28.774  1.00  0.00    +0.000 C 
ATOM     25  C20 UNL A   1      36.606  30.009  28.588  1.00  0.00    +0.000 C 
ATOM     26  C21 UNL A   1      37.695  29.177  28.840  1.00  0.00    +0.000 C 
ATOM    119  H29 UNL A   1      37.592  28.152  28.773  1.00  0.00    +0.000 H 
BRANCH   24   22
ATOM     22  C18 UNL A   1      35.662  32.328  28.438  1.00  0.00    +0.000 C 
ATOM     23  O3  UNL A   1      35.913  33.446  28.065  1.00  0.00    +0.000 O 
BRANCH   22   21
ATOM    117  H27 UNL A   1      34.021  31.785  29.496  1.00  0.00    +0.000 H 
ATOM     21  N2  UNL A   1      34.344  31.896  28.572  1.00  0.00    +0.000 N 
BRANCH   21   20
ATOM    116  H26 UNL A   1      33.516  32.314  26.749  1.00  0.00    +0.000 H 
ATOM    115  H25 UNL A   1      32.395  31.618  27.945  1.00  0.00    +0.000 H 
ATOM     20  C17 UNL A   1      33.376  31.586  27.519  1.00  0.00    +0.000 C 
BRANCH   20   19
ATOM    113  H23 UNL A   1      33.409  30.330  25.822  1.00  0.00    +0.000 H 
ATOM    114  H24 UNL A   1      34.566  29.921  27.139  1.00  0.00    +0.000 H 
ATOM     19  C16 UNL A   1      33.573  30.220  26.874  1.00  0.00    +0.000 C 
BRANCH   19   18
ATOM     18  C15 UNL A   1      32.657  29.087  27.376  1.00  0.00    +0.000 C 
ATOM    111  H21 UNL A   1      33.281  28.380  27.879  1.00  0.00    +0.000 H 
ATOM    112  H22 UNL A   1      31.927  29.598  27.970  1.00  0.00    +0.000 H 
BRANCH   18   17
ATOM     17  C14 UNL A   1      31.806  28.294  26.362  1.00  0.00    +0.000 C 
ATOM    109  H19 UNL A   1      32.415  27.495  25.996  1.00  0.00    +0.000 H 
ATOM    110  H20 UNL A   1      30.937  28.012  26.917  1.00  0.00    +0.000 H 
BRANCH   17   16
ATOM    107  H17 UNL A   1      30.386  28.487  24.790  1.00  0.00    +0.000 H 
ATOM    108  H18 UNL A   1      31.026  30.024  25.468  1.00  0.00    +0.000 H 
ATOM     16  C13 UNL A   1      31.240  29.032  25.133  1.00  0.00    +0.000 C 
BRANCH   16   15
ATOM    105  H15 UNL A   1      31.627  29.359  23.039  1.00  0.00    +0.000 H 
ATOM    106  H16 UNL A   1      32.851  30.031  24.162  1.00  0.00    +0.000 H 
ATOM     15  C12 UNL A   1      32.217  29.203  23.917  1.00  0.00    +0.000 C 
BRANCH   15   14
ATOM     14  N1  UNL A   1      33.160  28.008  23.653  1.00  0.00    +0.000 N 
ATOM    104  H14 UNL A   1      33.738  28.326  22.922  1.00  0.00    +0.000 H 
BRANCH   14   12
ATOM     12  C11 UNL A   1      33.615  26.740  23.901  1.00  0.00    +0.000 C 
ATOM     13  O2  UNL A   1      34.022  26.251  22.820  1.00  0.00    +0.000 O 
BRANCH   12   11
ATOM     11  C10 UNL A   1      33.607  25.674  25.140  1.00  0.00    +0.000 C 
ATOM    102  H12 UNL A   1      34.272  24.913  24.787  1.00  0.00    +0.000 H 
ATOM    103  H13 UNL A   1      33.673  26.436  25.889  1.00  0.00    +0.000 H 
BRANCH   11   10
ATOM     10  C9  UNL A   1      32.514  24.815  25.958  1.00  0.00    +0.000 C 
ATOM    100  H10 UNL A   1      33.114  24.113  26.499  1.00  0.00    +0.000 H 
ATOM    101  H11 UNL A   1      31.955  25.660  26.301  1.00  0.00    +0.000 H 
BRANCH   10    9
ATOM      9  C8  UNL A   1      31.246  23.954  25.532  1.00  0.00    +0.000 C 
ATOM     98  H8  UNL A   1      30.902  23.494  26.434  1.00  0.00    +0.000 H 
ATOM     99  H9  UNL A   1      30.678  24.700  25.017  1.00  0.00    +0.000 H 
BRANCH    9    8
ATOM      8  O1  UNL A   1      31.238  22.908  24.546  1.00  0.00    +0.000 O 
BRANCH    8    7
ATOM      2  C2  UNL A   1      36.171  22.160  24.329  1.00  0.00    +0.000 C 
ATOM      3  C3  UNL A   1      35.516  22.906  23.352  1.00  0.00    +0.000 C 
ATOM      4  C4  UNL A   1      34.148  22.706  23.083  1.00  0.00    +0.000 C 
ATOM      6  C6  UNL A   1      33.494  21.938  24.024  1.00  0.00    +0.000 C 
ATOM      7  C7  UNL A   1      32.162  21.915  24.495  1.00  0.00    +0.000 C 
ATOM     87  N7  UNL A   1      31.802  20.794  25.121  1.00  0.00    +0.000 N 
ATOM     88  S1  UNL A   1      33.195  19.909  25.426  1.00  0.00    +0.000 S 
ATOM     89  C63 UNL A   1      34.261  21.063  24.773  1.00  0.00    +0.000 C 
ATOM     90  N8  UNL A   1      35.599  21.099  24.937  1.00  0.00    +0.000 N 
ATOM     94  H4  UNL A   1      36.041  23.616  22.817  1.00  0.00    +0.000 H 
BRANCH    2    1
ATOM      1  C1  UNL A   1      37.570  22.537  24.739  1.00  0.00    +0.000 C 
ATOM     91  H1  UNL A   1      37.666  23.603  24.740  1.00  0.00    +0.000 H 
ATOM     92  H2  UNL A   1      38.270  22.117  24.046  1.00  0.00    +0.000 H 
ATOM     93  H3  UNL A   1      37.768  22.160  25.720  1.00  0.00    +0.000 H 
ENDBRANCH    2    1
BRANCH    4    5
ATOM     97  H7  UNL A   1      33.799  23.052  21.045  1.00  0.00    +0.000 H 
ATOM      5  C5  UNL A   1      33.313  23.239  21.980  1.00  0.00    +0.000 C 
ATOM     95  H5  UNL A   1      33.180  24.292  22.110  1.00  0.00    +0.000 H 
ATOM     96  H6  UNL A   1      32.359  22.754  21.989  1.00  0.00    +0.000 H 
ENDBRANCH    4    5
ENDBRANCH    8    7
ENDBRANCH    9    8
ENDBRANCH   10    9
ENDBRANCH   11   10
ENDBRANCH   12   11
ENDBRANCH   14   12
ENDBRANCH   15   14
ENDBRANCH   16   15
ENDBRANCH   17   16
ENDBRANCH   18   17
ENDBRANCH   19   18
ENDBRANCH   20   19
ENDBRANCH   21   20
ENDBRANCH   22   21
ENDBRANCH   24   22
ENDBRANCH   28   27
BRANCH   32   33
ATOM     33  C27 UNL A   1      43.037  27.716  34.444  1.00  0.00    +0.000 C 
ATOM     34  C28 UNL A   1      43.267  28.125  35.776  1.00  0.00    +0.000 C 
ATOM     35  F1  UNL A   1      42.874  29.336  36.199  1.00  0.00    +0.000 F 
ATOM     36  C29 UNL A   1      43.995  27.343  36.675  1.00  0.00    +0.000 C 
ATOM     37  F2  UNL A   1      44.313  27.838  37.879  1.00  0.00    +0.000 F 
ATOM     38  C30 UNL A   1      44.459  26.097  36.301  1.00  0.00    +0.000 C 
ATOM     39  F3  UNL A   1      45.223  25.377  37.133  1.00  0.00    +0.000 F 
ATOM     40  C31 UNL A   1      44.168  25.619  35.042  1.00  0.00    +0.000 C 
ATOM     41  F4  UNL A   1      44.616  24.415  34.658  1.00  0.00    +0.000 F 
ATOM     42  C32 UNL A   1      43.485  26.417  34.125  1.00  0.00    +0.000 C 
ATOM     43  F5  UNL A   1      43.381  25.905  32.894  1.00  0.00    +0.000 F 
ENDBRANCH   32   33
BRANCH   49   50
ATOM     50  C38 UNL A   1      45.374  30.169  28.528  1.00  0.00    +0.000 C 
ATOM     51  C39 UNL A   1      44.370  30.772  27.751  1.00  0.00    +0.000 C 
ATOM     52  F6  UNL A   1      43.082  30.444  27.917  1.00  0.00    +0.000 F 
ATOM     53  C40 UNL A   1      44.672  31.781  26.835  1.00  0.00    +0.000 C 
ATOM     54  F7  UNL A   1      43.694  32.341  26.106  1.00  0.00    +0.000 F 
ATOM     55  C41 UNL A   1      45.973  32.236  26.708  1.00  0.00    +0.000 C 
ATOM     56  F8  UNL A   1      46.256  33.242  25.867  1.00  0.00    +0.000 F 
ATOM     57  C42 UNL A   1      46.977  31.671  27.476  1.00  0.00    +0.000 C 
ATOM     58  F9  UNL A   1      48.229  32.141  27.394  1.00  0.00    +0.000 F 
ATOM     59  C43 UNL A   1      46.684  30.639  28.364  1.00  0.00    +0.000 C 
ATOM     60  F10 UNL A   1      47.676  30.138  29.117  1.00  0.00    +0.000 F 
ENDBRANCH   49   50
BRANCH   64   65
ATOM     65  C47 UNL A   1      43.142  24.621  26.437  1.00  0.00    +0.000 C 
ATOM     66  C48 UNL A   1      43.896  24.384  25.275  1.00  0.00    +0.000 C 
ATOM     67  F11 UNL A   1      44.463  25.409  24.622  1.00  0.00    +0.000 F 
ATOM     68  C49 UNL A   1      44.142  23.089  24.811  1.00  0.00    +0.000 C 
ATOM     69  F12 UNL A   1      44.924  22.899  23.739  1.00  0.00    +0.000 F 
ATOM     70  C50 UNL A   1      43.634  21.994  25.490  1.00  0.00    +0.000 C 
ATOM     71  F13 UNL A   1      43.927  20.749  25.086  1.00  0.00    +0.000 F 
ATOM     72  C51 UNL A   1      42.854  22.192  26.614  1.00  0.00    +0.000 C 
ATOM     73  F14 UNL A   1      42.384  21.139  27.298  1.00  0.00    +0.000 F 
ATOM     74  C52 UNL A   1      42.610  23.485  27.080  1.00  0.00    +0.000 C 
ATOM     75  F15 UNL A   1      41.925  23.599  28.226  1.00  0.00    +0.000 F 
ENDBRANCH   64   65
TORSDOF 21
ENDMDL
MODEL 8
REMARK VINA RESULT:     -10.2     34.382     41.226
ROOT
ATOM    129  H39 UNL A   1       6.167   9.176  35.686  1.00  0.00    +0.000 H 
ATOM     28  C23 UNL A   1       5.221   9.527  38.390  1.00  0.00    +0.000 C 
ATOM     29  C24 UNL A   1       6.184  10.355  37.623  1.00  0.00    +0.000 C 
ATOM     30  N3  UNL A   1       6.871  11.351  38.074  1.00  0.00    +0.000 N 
ATOM     31  C25 UNL A   1       7.619  11.825  37.001  1.00  0.00    +0.000 C 
ATOM     32  C26 UNL A   1       8.090  13.102  37.002  1.00  0.00    +0.000 C 
ATOM     44  C33 UNL A   1       8.040  13.667  38.330  1.00  0.00    +0.000 C 
ATOM     45  C34 UNL A   1       8.617  13.340  39.542  1.00  0.00    +0.000 C 
ATOM     46  C35 UNL A   1       7.597  13.579  40.511  1.00  0.00    +0.000 C 
ATOM     47  C36 UNL A   1       6.491  14.105  39.844  1.00  0.00    +0.000 C 
ATOM     48  N4  UNL A   1       6.995  14.507  38.635  1.00  0.00    +0.000 N 
ATOM     49  C37 UNL A   1       5.091  14.188  40.191  1.00  0.00    +0.000 C 
ATOM     61  C44 UNL A   1       4.077  14.278  39.281  1.00  0.00    +0.000 C 
ATOM     62  N5  UNL A   1       2.779  13.915  39.610  1.00  0.00    +0.000 N 
ATOM     63  C45 UNL A   1       2.235  13.556  38.477  1.00  0.00    +0.000 C 
ATOM     64  C46 UNL A   1       1.324  12.385  38.352  1.00  0.00    +0.000 C 
ATOM     76  C53 UNL A   1       2.080  11.285  38.591  1.00  0.00    +0.000 C 
ATOM     77  C54 UNL A   1       1.696   9.962  39.026  1.00  0.00    +0.000 C 
ATOM     78  C55 UNL A   1       2.816   9.225  39.170  1.00  0.00    +0.000 C 
ATOM     79  C56 UNL A   1       3.970   9.965  38.651  1.00  0.00    +0.000 C 
ATOM     80  N6  UNL A   1       3.472  11.223  38.413  1.00  0.00    +0.000 N 
ATOM     81  C57 UNL A   1       2.922  14.010  37.279  1.00  0.00    +0.000 C 
ATOM     82  C58 UNL A   1       4.089  14.367  37.822  1.00  0.00    +0.000 C 
ATOM     83  C59 UNL A   1       7.504  10.829  35.967  1.00  0.00    +0.000 C 
ATOM     84  C60 UNL A   1       6.548   9.943  36.261  1.00  0.00    +0.000 C 
ATOM    120  H30 UNL A   1       9.576  12.996  39.710  1.00  0.00    +0.000 H 
ATOM    121  H31 UNL A   1       7.667  13.397  41.524  1.00  0.00    +0.000 H 
ATOM    122  H32 UNL A   1       6.671  15.258  38.087  1.00  0.00    +0.000 H 
ATOM    123  H33 UNL A   1       0.732   9.637  39.199  1.00  0.00    +0.000 H 
ATOM    124  H34 UNL A   1       2.856   8.281  39.585  1.00  0.00    +0.000 H 
ATOM    125  H35 UNL A   1       4.028  11.992  38.149  1.00  0.00    +0.000 H 
ATOM    126  H36 UNL A   1       2.602  14.047  36.299  1.00  0.00    +0.000 H 
ATOM    127  H37 UNL A   1       4.908  14.671  37.272  1.00  0.00    +0.000 H 
ATOM    128  H38 UNL A   1       8.082  10.803  35.112  1.00  0.00    +0.000 H 
ENDROOT
BRANCH   28   27
ATOM    130  H40 UNL A   1       7.705   8.682  38.363  1.00  0.00    +0.000 H 
ATOM    131  H41 UNL A   1       8.429   6.375  38.444  1.00  0.00    +0.000 H 
ATOM     27  C22 UNL A   1       5.689   8.188  38.713  1.00  0.00    +0.000 C 
ATOM     85  C61 UNL A   1       7.042   7.924  38.588  1.00  0.00    +0.000 C 
ATOM     86  C62 UNL A   1       7.487   6.641  38.767  1.00  0.00    +0.000 C 
ATOM    118  H28 UNL A   1       4.689   5.239  39.970  1.00  0.00    +0.000 H 
ATOM     24  C19 UNL A   1       6.672   5.699  39.382  1.00  0.00    +0.000 C 
ATOM     25  C20 UNL A   1       5.310   5.957  39.563  1.00  0.00    +0.000 C 
ATOM     26  C21 UNL A   1       4.806   7.199  39.181  1.00  0.00    +0.000 C 
ATOM    119  H29 UNL A   1       3.795   7.391  39.244  1.00  0.00    +0.000 H 
BRANCH   24   22
ATOM     22  C18 UNL A   1       7.281   4.432  39.848  1.00  0.00    +0.000 C 
ATOM     23  O3  UNL A   1       8.443   4.198  39.632  1.00  0.00    +0.000 O 
BRANCH   22   21
ATOM    117  H27 UNL A   1       5.610   3.859  40.842  1.00  0.00    +0.000 H 
ATOM     21  N2  UNL A   1       6.480   3.518  40.530  1.00  0.00    +0.000 N 
BRANCH   21   20
ATOM    116  H26 UNL A   1       7.570   1.817  40.209  1.00  0.00    +0.000 H 
ATOM    115  H25 UNL A   1       5.871   1.549  40.671  1.00  0.00    +0.000 H 
ATOM     20  C17 UNL A   1       6.761   2.116  40.842  1.00  0.00    +0.000 C 
BRANCH   20   19
ATOM    113  H23 UNL A   1       7.062   2.784  42.823  1.00  0.00    +0.000 H 
ATOM    114  H24 UNL A   1       6.633   1.047  42.624  1.00  0.00    +0.000 H 
ATOM     19  C16 UNL A   1       7.214   1.876  42.277  1.00  0.00    +0.000 C 
BRANCH   19   18
ATOM     18  C15 UNL A   1       8.683   1.454  42.469  1.00  0.00    +0.000 C 
ATOM    111  H21 UNL A   1       8.748   0.972  43.421  1.00  0.00    +0.000 H 
ATOM    112  H22 UNL A   1       8.888   0.853  41.607  1.00  0.00    +0.000 H 
BRANCH   18   17
ATOM     17  C14 UNL A   1       9.792   2.527  42.433  1.00  0.00    +0.000 C 
ATOM    109  H19 UNL A   1      10.475   2.249  41.658  1.00  0.00    +0.000 H 
ATOM    110  H20 UNL A   1       9.261   3.444  42.289  1.00  0.00    +0.000 H 
BRANCH   17   16
ATOM    107  H17 UNL A   1      11.627   2.456  43.505  1.00  0.00    +0.000 H 
ATOM    108  H18 UNL A   1      10.527   3.818  43.914  1.00  0.00    +0.000 H 
ATOM     16  C13 UNL A   1      10.625   2.774  43.705  1.00  0.00    +0.000 C 
BRANCH   16   15
ATOM    105  H15 UNL A   1      10.179   2.741  45.812  1.00  0.00    +0.000 H 
ATOM    106  H16 UNL A   1       9.154   1.683  44.791  1.00  0.00    +0.000 H 
ATOM     15  C12 UNL A   1      10.141   2.041  45.004  1.00  0.00    +0.000 C 
BRANCH   15   14
ATOM     14  N1  UNL A   1      10.965   0.798  45.408  1.00  0.00    +0.000 N 
ATOM    104  H14 UNL A   1      10.824   0.732  46.380  1.00  0.00    +0.000 H 
BRANCH   14   12
ATOM     12  C11 UNL A   1      11.790  -0.258  45.126  1.00  0.00    +0.000 C 
ATOM     13  O2  UNL A   1      11.116  -1.313  45.198  1.00  0.00    +0.000 O 
BRANCH   12   11
ATOM     11  C10 UNL A   1      13.390  -0.518  44.904  1.00  0.00    +0.000 C 
ATOM    102  H12 UNL A   1      13.760   0.476  44.757  1.00  0.00    +0.000 H 
ATOM    103  H13 UNL A   1      13.457  -1.230  45.700  1.00  0.00    +0.000 H 
BRANCH   11   10
ATOM     10  C9  UNL A   1      14.324  -1.379  43.911  1.00  0.00    +0.000 C 
ATOM    100  H10 UNL A   1      15.183  -0.753  43.784  1.00  0.00    +0.000 H 
ATOM    101  H11 UNL A   1      14.209  -2.303  44.437  1.00  0.00    +0.000 H 
BRANCH   10    9
ATOM      9  C8  UNL A   1      14.112  -1.999  42.461  1.00  0.00    +0.000 C 
ATOM     98  H8  UNL A   1      13.568  -1.257  41.914  1.00  0.00    +0.000 H 
ATOM     99  H9  UNL A   1      15.121  -2.261  42.221  1.00  0.00    +0.000 H 
BRANCH    9    8
ATOM      8  O1  UNL A   1      13.454  -3.243  42.171  1.00  0.00    +0.000 O 
BRANCH    8    7
ATOM      2  C2  UNL A   1      10.691  -6.269  39.314  1.00  0.00    +0.000 C 
ATOM      3  C3  UNL A   1      11.933  -5.810  38.880  1.00  0.00    +0.000 C 
ATOM      4  C4  UNL A   1      12.474  -4.606  39.372  1.00  0.00    +0.000 C 
ATOM      6  C6  UNL A   1      11.814  -4.100  40.473  1.00  0.00    +0.000 C 
ATOM      7  C7  UNL A   1      12.234  -3.329  41.580  1.00  0.00    +0.000 C 
ATOM     87  N7  UNL A   1      11.258  -2.705  42.238  1.00  0.00    +0.000 N 
ATOM     88  S1  UNL A   1       9.797  -3.334  41.705  1.00  0.00    +0.000 S 
ATOM     89  C63 UNL A   1      10.492  -4.472  40.648  1.00  0.00    +0.000 C 
ATOM     90  N8  UNL A   1       9.866  -5.519  40.074  1.00  0.00    +0.000 N 
ATOM     94  H4  UNL A   1      12.465  -6.361  38.188  1.00  0.00    +0.000 H 
BRANCH    2    1
ATOM      1  C1  UNL A   1      10.236  -7.653  38.934  1.00  0.00    +0.000 C 
ATOM     91  H1  UNL A   1       9.195  -7.632  38.692  1.00  0.00    +0.000 H 
ATOM     92  H2  UNL A   1      10.397  -8.320  39.757  1.00  0.00    +0.000 H 
ATOM     93  H3  UNL A   1      10.793  -7.992  38.086  1.00  0.00    +0.000 H 
ENDBRANCH    2    1
BRANCH    4    5
ATOM     97  H7  UNL A   1      13.418  -2.806  38.857  1.00  0.00    +0.000 H 
ATOM      5  C5  UNL A   1      13.662  -3.847  38.916  1.00  0.00    +0.000 C 
ATOM     95  H5  UNL A   1      13.961  -4.199  37.951  1.00  0.00    +0.000 H 
ATOM     96  H6  UNL A   1      14.463  -3.986  39.612  1.00  0.00    +0.000 H 
ENDBRANCH    4    5
ENDBRANCH    8    7
ENDBRANCH    9    8
ENDBRANCH   10    9
ENDBRANCH   11   10
ENDBRANCH   12   11
ENDBRANCH   14   12
ENDBRANCH   15   14
ENDBRANCH   16   15
ENDBRANCH   17   16
ENDBRANCH   18   17
ENDBRANCH   19   18
ENDBRANCH   20   19
ENDBRANCH   21   20
ENDBRANCH   22   21
ENDBRANCH   24   22
ENDBRANCH   28   27
BRANCH   32   33
ATOM     33  C27 UNL A   1       8.244  13.973  35.777  1.00  0.00    +0.000 C 
ATOM     34  C28 UNL A   1       9.263  14.950  35.767  1.00  0.00    +0.000 C 
ATOM     35  F1  UNL A   1      10.258  14.913  36.667  1.00  0.00    +0.000 F 
ATOM     36  C29 UNL A   1       9.230  16.046  34.902  1.00  0.00    +0.000 C 
ATOM     37  F2  UNL A   1      10.139  17.022  35.031  1.00  0.00    +0.000 F 
ATOM     38  C30 UNL A   1       8.220  16.169  33.969  1.00  0.00    +0.000 C 
ATOM     39  F3  UNL A   1       8.141  17.255  33.189  1.00  0.00    +0.000 F 
ATOM     40  C31 UNL A   1       7.262  15.182  33.878  1.00  0.00    +0.000 C 
ATOM     41  F4  UNL A   1       6.268  15.288  32.984  1.00  0.00    +0.000 F 
ATOM     42  C32 UNL A   1       7.263  14.113  34.774  1.00  0.00    +0.000 C 
ATOM     43  F5  UNL A   1       6.210  13.295  34.681  1.00  0.00    +0.000 F 
ENDBRANCH   32   33
BRANCH   49   50
ATOM     50  C38 UNL A   1       4.742  13.908  41.626  1.00  0.00    +0.000 C 
ATOM     51  C39 UNL A   1       4.317  14.892  42.535  1.00  0.00    +0.000 C 
ATOM     52  F6  UNL A   1       4.283  16.184  42.182  1.00  0.00    +0.000 F 
ATOM     53  C40 UNL A   1       3.850  14.552  43.805  1.00  0.00    +0.000 C 
ATOM     54  F7  UNL A   1       3.450  15.511  44.654  1.00  0.00    +0.000 F 
ATOM     55  C41 UNL A   1       3.757  13.221  44.177  1.00  0.00    +0.000 C 
ATOM     56  F8  UNL A   1       3.259  12.889  45.377  1.00  0.00    +0.000 F 
ATOM     57  C42 UNL A   1       4.152  12.231  43.291  1.00  0.00    +0.000 C 
ATOM     58  F9  UNL A   1       4.018  10.941  43.627  1.00  0.00    +0.000 F 
ATOM     59  C43 UNL A   1       4.652  12.571  42.037  1.00  0.00    +0.000 C 
ATOM     60  F10 UNL A   1       4.993  11.585  41.193  1.00  0.00    +0.000 F 
ENDBRANCH   49   50
BRANCH   64   65
ATOM     65  C47 UNL A   1       0.009  12.454  37.673  1.00  0.00    +0.000 C 
ATOM     66  C48 UNL A   1      -0.951  13.401  38.064  1.00  0.00    +0.000 C 
ATOM     67  F11 UNL A   1      -0.790  14.092  39.202  1.00  0.00    +0.000 F 
ATOM     68  C49 UNL A   1      -2.049  13.708  37.256  1.00  0.00    +0.000 C 
ATOM     69  F12 UNL A   1      -2.907  14.669  37.630  1.00  0.00    +0.000 F 
ATOM     70  C50 UNL A   1      -2.224  13.071  36.039  1.00  0.00    +0.000 C 
ATOM     71  F13 UNL A   1      -3.238  13.415  35.231  1.00  0.00    +0.000 F 
ATOM     72  C51 UNL A   1      -1.319  12.104  35.642  1.00  0.00    +0.000 C 
ATOM     73  F14 UNL A   1      -1.458  11.503  34.452  1.00  0.00    +0.000 F 
ATOM     74  C52 UNL A   1      -0.220  11.798  36.446  1.00  0.00    +0.000 C 
ATOM     75  F15 UNL A   1       0.666  10.919  35.958  1.00  0.00    +0.000 F 
ENDBRANCH   64   65
TORSDOF 21
ENDMDL
MODEL 9
REMARK VINA RESULT:     -10.0      4.203      7.228
ROOT
ATOM    129  H39 UNL A   1      41.026  28.957  25.923  1.00  0.00    +0.000 H 
ATOM     28  C23 UNL A   1      40.655  28.116  28.659  1.00  0.00    +0.000 C 
ATOM     29  C24 UNL A   1      41.806  28.826  28.048  1.00  0.00    +0.000 C 
ATOM     30  N3  UNL A   1      42.926  29.113  28.624  1.00  0.00    +0.000 N 
ATOM     31  C25 UNL A   1      43.688  29.788  27.676  1.00  0.00    +0.000 C 
ATOM     32  C26 UNL A   1      44.704  30.606  28.067  1.00  0.00    +0.000 C 
ATOM     44  C33 UNL A   1      45.070  30.350  29.440  1.00  0.00    +0.000 C 
ATOM     45  C34 UNL A   1      45.550  29.250  30.124  1.00  0.00    +0.000 C 
ATOM     46  C35 UNL A   1      44.876  29.274  31.381  1.00  0.00    +0.000 C 
ATOM     47  C36 UNL A   1      44.084  30.422  31.417  1.00  0.00    +0.000 C 
ATOM     48  N4  UNL A   1      44.585  31.200  30.406  1.00  0.00    +0.000 N 
ATOM     49  C37 UNL A   1      42.936  30.791  32.212  1.00  0.00    +0.000 C 
ATOM     61  C44 UNL A   1      41.993  31.701  31.827  1.00  0.00    +0.000 C 
ATOM     62  N5  UNL A   1      40.722  31.699  32.382  1.00  0.00    +0.000 N 
ATOM     63  C45 UNL A   1      39.954  32.218  31.460  1.00  0.00    +0.000 C 
ATOM     64  C46 UNL A   1      38.591  31.702  31.157  1.00  0.00    +0.000 C 
ATOM     76  C53 UNL A   1      38.759  30.463  30.633  1.00  0.00    +0.000 C 
ATOM     77  C54 UNL A   1      37.845  29.346  30.559  1.00  0.00    +0.000 C 
ATOM     78  C55 UNL A   1      38.492  28.309  29.989  1.00  0.00    +0.000 C 
ATOM     79  C56 UNL A   1      39.796  28.753  29.484  1.00  0.00    +0.000 C 
ATOM     80  N6  UNL A   1      39.929  30.022  29.991  1.00  0.00    +0.000 N 
ATOM     81  C57 UNL A   1      40.641  32.966  30.420  1.00  0.00    +0.000 C 
ATOM     82  C58 UNL A   1      41.889  32.543  30.637  1.00  0.00    +0.000 C 
ATOM     83  C59 UNL A   1      43.006  29.612  26.420  1.00  0.00    +0.000 C 
ATOM     84  C60 UNL A   1      41.784  29.108  26.607  1.00  0.00    +0.000 C 
ATOM    120  H30 UNL A   1      46.245  28.560  29.797  1.00  0.00    +0.000 H 
ATOM    121  H31 UNL A   1      44.960  28.569  32.129  1.00  0.00    +0.000 H 
ATOM    122  H32 UNL A   1      44.598  32.184  30.377  1.00  0.00    +0.000 H 
ATOM    123  H33 UNL A   1      36.866  29.341  30.887  1.00  0.00    +0.000 H 
ATOM    124  H34 UNL A   1      38.126  27.347  29.919  1.00  0.00    +0.000 H 
ATOM    125  H35 UNL A   1      40.750  30.561  29.913  1.00  0.00    +0.000 H 
ATOM    126  H36 UNL A   1      40.273  33.629  29.720  1.00  0.00    +0.000 H 
ATOM    127  H37 UNL A   1      42.690  32.784  30.032  1.00  0.00    +0.000 H 
ATOM    128  H38 UNL A   1      43.408  29.846  25.498  1.00  0.00    +0.000 H 
ENDROOT
BRANCH   28   27
ATOM    130  H40 UNL A   1      42.419  26.176  28.736  1.00  0.00    +0.000 H 
ATOM    131  H41 UNL A   1      42.271  24.063  27.566  1.00  0.00    +0.000 H 
ATOM     27  C22 UNL A   1      40.467  26.749  28.199  1.00  0.00    +0.000 C 
ATOM     85  C61 UNL A   1      41.543  25.882  28.278  1.00  0.00    +0.000 C 
ATOM     86  C62 UNL A   1      41.426  24.629  27.739  1.00  0.00    +0.000 C 
ATOM    118  H28 UNL A   1      38.136  24.599  27.095  1.00  0.00    +0.000 H 
ATOM     24  C19 UNL A   1      40.173  24.119  27.424  1.00  0.00    +0.000 C 
ATOM     25  C20 UNL A   1      39.060  24.962  27.380  1.00  0.00    +0.000 C 
ATOM     26  C21 UNL A   1      39.220  26.302  27.729  1.00  0.00    +0.000 C 
ATOM    119  H29 UNL A   1      38.430  26.960  27.642  1.00  0.00    +0.000 H 
BRANCH   24   22
ATOM     22  C18 UNL A   1      40.048  22.668  27.150  1.00  0.00    +0.000 C 
ATOM     23  O3  UNL A   1      39.318  22.273  26.277  1.00  0.00    +0.000 O 
BRANCH   22   21
ATOM    117  H27 UNL A   1      41.207  22.157  28.732  1.00  0.00    +0.000 H 
ATOM     21  N2  UNL A   1      40.782  21.776  27.930  1.00  0.00    +0.000 N 
BRANCH   21   20
ATOM    116  H26 UNL A   1      40.339  20.048  26.929  1.00  0.00    +0.000 H 
ATOM    115  H25 UNL A   1      40.813  19.833  28.632  1.00  0.00    +0.000 H 
ATOM     20  C17 UNL A   1      41.003  20.346  27.713  1.00  0.00    +0.000 C 
BRANCH   20   19
ATOM    113  H23 UNL A   1      43.006  20.885  27.315  1.00  0.00    +0.000 H 
ATOM    114  H24 UNL A   1      42.734  19.203  27.894  1.00  0.00    +0.000 H 
ATOM     19  C16 UNL A   1      42.413  19.996  27.251  1.00  0.00    +0.000 C 
BRANCH   19   18
ATOM     18  C15 UNL A   1      42.547  19.444  25.820  1.00  0.00    +0.000 C 
ATOM    111  H21 UNL A   1      41.614  18.983  25.574  1.00  0.00    +0.000 H 
ATOM    112  H22 UNL A   1      42.829  20.302  25.245  1.00  0.00    +0.000 H 
BRANCH   18   17
ATOM     17  C14 UNL A   1      43.654  18.417  25.503  1.00  0.00    +0.000 C 
ATOM    109  H19 UNL A   1      43.733  17.768  26.350  1.00  0.00    +0.000 H 
ATOM    110  H20 UNL A   1      43.334  17.965  24.588  1.00  0.00    +0.000 H 
BRANCH   17   16
ATOM    107  H17 UNL A   1      45.467  19.365  26.085  1.00  0.00    +0.000 H 
ATOM    108  H18 UNL A   1      45.614  18.077  24.839  1.00  0.00    +0.000 H 
ATOM     16  C13 UNL A   1      45.073  18.929  25.191  1.00  0.00    +0.000 C 
BRANCH   16   15
ATOM    105  H15 UNL A   1      45.867  19.623  23.312  1.00  0.00    +0.000 H 
ATOM    106  H16 UNL A   1      44.193  20.145  23.680  1.00  0.00    +0.000 H 
ATOM     15  C12 UNL A   1      45.188  19.998  24.049  1.00  0.00    +0.000 C 
BRANCH   15   14
ATOM     14  N1  UNL A   1      45.686  21.391  24.494  1.00  0.00    +0.000 N 
ATOM    104  H14 UNL A   1      46.445  21.569  23.893  1.00  0.00    +0.000 H 
BRANCH   14   12
ATOM     12  C11 UNL A   1      45.629  22.508  25.285  1.00  0.00    +0.000 C 
ATOM     13  O2  UNL A   1      44.455  22.628  25.709  1.00  0.00    +0.000 O 
BRANCH   12   11
ATOM     11  C10 UNL A   1      46.595  23.770  25.667  1.00  0.00    +0.000 C 
ATOM    102  H12 UNL A   1      47.081  23.421  26.554  1.00  0.00    +0.000 H 
ATOM    103  H13 UNL A   1      46.910  23.926  24.655  1.00  0.00    +0.000 H 
BRANCH   11   10
ATOM     10  C9  UNL A   1      46.425  25.345  25.969  1.00  0.00    +0.000 C 
ATOM    100  H10 UNL A   1      47.161  25.793  25.335  1.00  0.00    +0.000 H 
ATOM    101  H11 UNL A   1      45.357  25.347  25.905  1.00  0.00    +0.000 H 
BRANCH   10    9
ATOM      9  C8  UNL A   1      46.501  26.227  27.291  1.00  0.00    +0.000 C 
ATOM     98  H8  UNL A   1      47.414  25.940  27.769  1.00  0.00    +0.000 H 
ATOM     99  H9  UNL A   1      46.354  27.201  26.874  1.00  0.00    +0.000 H 
BRANCH    9    8
ATOM      8  O1  UNL A   1      45.517  26.252  28.339  1.00  0.00    +0.000 O 
BRANCH    8    7
ATOM      2  C2  UNL A   1      44.909  25.402  33.223  1.00  0.00    +0.000 C 
ATOM      3  C3  UNL A   1      46.035  26.070  32.747  1.00  0.00    +0.000 C 
ATOM      4  C4  UNL A   1      46.493  25.871  31.429  1.00  0.00    +0.000 C 
ATOM      6  C6  UNL A   1      45.602  25.201  30.618  1.00  0.00    +0.000 C 
ATOM      7  C7  UNL A   1      45.341  25.242  29.230  1.00  0.00    +0.000 C 
ATOM     87  N7  UNL A   1      44.687  24.187  28.745  1.00  0.00    +0.000 N 
ATOM     88  S1  UNL A   1      44.097  23.308  30.047  1.00  0.00    +0.000 S 
ATOM     89  C63 UNL A   1      44.674  24.381  31.235  1.00  0.00    +0.000 C 
ATOM     90  N8  UNL A   1      44.309  24.408  32.533  1.00  0.00    +0.000 N 
ATOM     94  H4  UNL A   1      46.540  26.721  33.368  1.00  0.00    +0.000 H 
BRANCH    2    1
ATOM      1  C1  UNL A   1      44.323  25.789  34.555  1.00  0.00    +0.000 C 
ATOM     91  H1  UNL A   1      45.013  25.541  35.334  1.00  0.00    +0.000 H 
ATOM     92  H2  UNL A   1      43.406  25.258  34.708  1.00  0.00    +0.000 H 
ATOM     93  H3  UNL A   1      44.132  26.842  34.568  1.00  0.00    +0.000 H 
ENDBRANCH    2    1
BRANCH    4    5
ATOM     97  H7  UNL A   1      48.486  26.514  31.543  1.00  0.00    +0.000 H 
ATOM      5  C5  UNL A   1      47.752  26.320  30.789  1.00  0.00    +0.000 C 
ATOM     95  H5  UNL A   1      47.569  27.213  30.229  1.00  0.00    +0.000 H 
ATOM     96  H6  UNL A   1      48.110  25.554  30.132  1.00  0.00    +0.000 H 
ENDBRANCH    4    5
ENDBRANCH    8    7
ENDBRANCH    9    8
ENDBRANCH   10    9
ENDBRANCH   11   10
ENDBRANCH   12   11
ENDBRANCH   14   12
ENDBRANCH   15   14
ENDBRANCH   16   15
ENDBRANCH   17   16
ENDBRANCH   18   17
ENDBRANCH   19   18
ENDBRANCH   20   19
ENDBRANCH   21   20
ENDBRANCH   22   21
ENDBRANCH   24   22
ENDBRANCH   28   27
BRANCH   32   33
ATOM     33  C27 UNL A   1      45.118  31.876  27.361  1.00  0.00    +0.000 C 
ATOM     34  C28 UNL A   1      46.415  31.949  26.809  1.00  0.00    +0.000 C 
ATOM     35  F1  UNL A   1      47.150  30.840  26.635  1.00  0.00    +0.000 F 
ATOM     36  C29 UNL A   1      47.029  33.169  26.519  1.00  0.00    +0.000 C 
ATOM     37  F2  UNL A   1      48.313  33.194  26.136  1.00  0.00    +0.000 F 
ATOM     38  C30 UNL A   1      46.345  34.356  26.702  1.00  0.00    +0.000 C 
ATOM     39  F3  UNL A   1      46.954  35.531  26.498  1.00  0.00    +0.000 F 
ATOM     40  C31 UNL A   1      45.040  34.321  27.143  1.00  0.00    +0.000 C 
ATOM     41  F4  UNL A   1      44.363  35.463  27.334  1.00  0.00    +0.000 F 
ATOM     42  C32 UNL A   1      44.442  33.108  27.482  1.00  0.00    +0.000 C 
ATOM     43  F5  UNL A   1      43.226  33.209  28.028  1.00  0.00    +0.000 F 
ENDBRANCH   32   33
BRANCH   49   50
ATOM     50  C38 UNL A   1      42.653  29.932  33.413  1.00  0.00    +0.000 C 
ATOM     51  C39 UNL A   1      42.879  30.340  34.739  1.00  0.00    +0.000 C 
ATOM     52  F6  UNL A   1      43.458  31.520  35.005  1.00  0.00    +0.000 F 
ATOM     53  C40 UNL A   1      42.447  29.569  35.818  1.00  0.00    +0.000 C 
ATOM     54  F7  UNL A   1      42.675  29.983  37.074  1.00  0.00    +0.000 F 
ATOM     55  C41 UNL A   1      41.743  28.398  35.596  1.00  0.00    +0.000 C 
ATOM     56  F8  UNL A   1      41.280  27.683  36.631  1.00  0.00    +0.000 F 
ATOM     57  C42 UNL A   1      41.490  27.984  34.298  1.00  0.00    +0.000 C 
ATOM     58  F9  UNL A   1      40.766  26.878  34.078  1.00  0.00    +0.000 F 
ATOM     59  C43 UNL A   1      41.952  28.734  33.221  1.00  0.00    +0.000 C 
ATOM     60  F10 UNL A   1      41.661  28.320  31.978  1.00  0.00    +0.000 F 
ENDBRANCH   49   50
BRANCH   64   65
ATOM     65  C47 UNL A   1      37.400  32.577  31.057  1.00  0.00    +0.000 C 
ATOM     66  C48 UNL A   1      37.103  33.250  29.861  1.00  0.00    +0.000 C 
ATOM     67  F11 UNL A   1      38.011  33.302  28.875  1.00  0.00    +0.000 F 
ATOM     68  C49 UNL A   1      35.844  33.810  29.628  1.00  0.00    +0.000 C 
ATOM     69  F12 UNL A   1      35.575  34.383  28.446  1.00  0.00    +0.000 F 
ATOM     70  C50 UNL A   1      34.849  33.723  30.588  1.00  0.00    +0.000 C 
ATOM     71  F13 UNL A   1      33.621  34.199  30.339  1.00  0.00    +0.000 F 
ATOM     72  C51 UNL A   1      35.121  33.102  31.793  1.00  0.00    +0.000 C 
ATOM     73  F14 UNL A   1      34.158  32.982  32.718  1.00  0.00    +0.000 F 
ATOM     74  C52 UNL A   1      36.377  32.539  32.026  1.00  0.00    +0.000 C 
ATOM     75  F15 UNL A   1      36.541  31.873  33.177  1.00  0.00    +0.000 F 
ENDBRANCH   64   65
TORSDOF 21
ENDMDL
MODEL 10
REMARK VINA RESULT:      -9.9     23.955     30.817
ROOT
ATOM    129  H39 UNL A   1      24.076  21.052   4.398  1.00  0.00    +0.000 H 
ATOM     28  C23 UNL A   1      23.241  18.338   3.880  1.00  0.00    +0.000 C 
ATOM     29  C24 UNL A   1      24.247  18.836   4.851  1.00  0.00    +0.000 C 
ATOM     30  N3  UNL A   1      25.026  18.118   5.587  1.00  0.00    +0.000 N 
ATOM     31  C25 UNL A   1      25.779  19.010   6.343  1.00  0.00    +0.000 C 
ATOM     32  C26 UNL A   1      26.355  18.608   7.510  1.00  0.00    +0.000 C 
ATOM     44  C33 UNL A   1      26.390  17.167   7.595  1.00  0.00    +0.000 C 
ATOM     45  C34 UNL A   1      26.972  16.168   6.840  1.00  0.00    +0.000 C 
ATOM     46  C35 UNL A   1      26.005  15.120   6.807  1.00  0.00    +0.000 C 
ATOM     47  C36 UNL A   1      24.927  15.510   7.601  1.00  0.00    +0.000 C 
ATOM     48  N4  UNL A   1      25.427  16.542   8.352  1.00  0.00    +0.000 N 
ATOM     49  C37 UNL A   1      23.549  15.080   7.657  1.00  0.00    +0.000 C 
ATOM     61  C44 UNL A   1      22.520  15.850   8.118  1.00  0.00    +0.000 C 
ATOM     62  N5  UNL A   1      21.206  15.589   7.754  1.00  0.00    +0.000 N 
ATOM     63  C45 UNL A   1      20.602  16.745   7.837  1.00  0.00    +0.000 C 
ATOM     64  C46 UNL A   1      19.595  17.204   6.841  1.00  0.00    +0.000 C 
ATOM     76  C53 UNL A   1      20.263  17.388   5.676  1.00  0.00    +0.000 C 
ATOM     77  C54 UNL A   1      19.784  17.400   4.314  1.00  0.00    +0.000 C 
ATOM     78  C55 UNL A   1      20.843  17.573   3.496  1.00  0.00    +0.000 C 
ATOM     79  C56 UNL A   1      22.039  17.878   4.288  1.00  0.00    +0.000 C 
ATOM     80  N6  UNL A   1      21.640  17.654   5.583  1.00  0.00    +0.000 N 
ATOM     81  C57 UNL A   1      21.289  17.758   8.621  1.00  0.00    +0.000 C 
ATOM     82  C58 UNL A   1      22.497  17.193   8.693  1.00  0.00    +0.000 C 
ATOM     83  C59 UNL A   1      25.553  20.310   5.765  1.00  0.00    +0.000 C 
ATOM     84  C60 UNL A   1      24.536  20.276   4.898  1.00  0.00    +0.000 C 
ATOM    120  H30 UNL A   1      27.904  16.177   6.395  1.00  0.00    +0.000 H 
ATOM    121  H31 UNL A   1      26.089  14.231   6.289  1.00  0.00    +0.000 H 
ATOM    122  H32 UNL A   1      25.151  16.788   9.264  1.00  0.00    +0.000 H 
ATOM    123  H33 UNL A   1      18.802  17.293   4.016  1.00  0.00    +0.000 H 
ATOM    124  H34 UNL A   1      20.816  17.500   2.468  1.00  0.00    +0.000 H 
ATOM    125  H35 UNL A   1      22.250  17.676   6.357  1.00  0.00    +0.000 H 
ATOM    126  H36 UNL A   1      20.945  18.651   9.007  1.00  0.00    +0.000 H 
ATOM    127  H37 UNL A   1      23.322  17.654   9.108  1.00  0.00    +0.000 H 
ATOM    128  H38 UNL A   1      26.101  21.154   5.990  1.00  0.00    +0.000 H 
ENDROOT
BRANCH   28   27
ATOM    130  H40 UNL A   1      23.061  20.541   2.466  1.00  0.00    +0.000 H 
ATOM    131  H41 UNL A   1      23.223  20.709   0.058  1.00  0.00    +0.000 H 
ATOM     27  C22 UNL A   1      23.606  18.508   2.481  1.00  0.00    +0.000 C 
ATOM     85  C61 UNL A   1      23.386  19.744   1.897  1.00  0.00    +0.000 C 
ATOM     86  C62 UNL A   1      23.606  19.891   0.554  1.00  0.00    +0.000 C 
ATOM    118  H28 UNL A   1      25.121  16.970  -0.090  1.00  0.00    +0.000 H 
ATOM     24  C19 UNL A   1      24.344  18.941  -0.140  1.00  0.00    +0.000 C 
ATOM     25  C20 UNL A   1      24.620  17.700   0.441  1.00  0.00    +0.000 C 
ATOM     26  C21 UNL A   1      24.206  17.467   1.752  1.00  0.00    +0.000 C 
ATOM    119  H29 UNL A   1      24.340  16.539   2.182  1.00  0.00    +0.000 H 
BRANCH   24   22
ATOM     22  C18 UNL A   1      24.835  19.278  -1.497  1.00  0.00    +0.000 C 
ATOM     23  O3  UNL A   1      24.110  19.821  -2.290  1.00  0.00    +0.000 O 
BRANCH   22   21
ATOM    117  H27 UNL A   1      26.256  18.117  -2.358  1.00  0.00    +0.000 H 
ATOM     21  N2  UNL A   1      26.146  18.944  -1.834  1.00  0.00    +0.000 N 
BRANCH   21   20
ATOM    116  H26 UNL A   1      27.132  20.701  -1.485  1.00  0.00    +0.000 H 
ATOM    115  H25 UNL A   1      28.108  19.429  -2.259  1.00  0.00    +0.000 H 
ATOM     20  C17 UNL A   1      27.380  19.661  -1.511  1.00  0.00    +0.000 C 
BRANCH   20   19
ATOM    113  H23 UNL A   1      27.539  18.381   0.160  1.00  0.00    +0.000 H 
ATOM    114  H24 UNL A   1      29.025  19.289  -0.291  1.00  0.00    +0.000 H 
ATOM     19  C16 UNL A   1      27.965  19.313  -0.148  1.00  0.00    +0.000 C 
BRANCH   19   18
ATOM     18  C15 UNL A   1      27.726  20.334   0.980  1.00  0.00    +0.000 C 
ATOM    111  H21 UNL A   1      28.682  20.733   1.247  1.00  0.00    +0.000 H 
ATOM    112  H22 UNL A   1      27.018  21.017   0.556  1.00  0.00    +0.000 H 
BRANCH   18   17
ATOM     17  C14 UNL A   1      27.049  19.876   2.288  1.00  0.00    +0.000 C 
ATOM    109  H19 UNL A   1      27.168  20.666   2.999  1.00  0.00    +0.000 H 
ATOM    110  H20 UNL A   1      26.045  19.649   1.995  1.00  0.00    +0.000 H 
BRANCH   17   16
ATOM    107  H17 UNL A   1      26.682  18.045   3.307  1.00  0.00    +0.000 H 
ATOM    108  H18 UNL A   1      28.112  18.069   2.217  1.00  0.00    +0.000 H 
ATOM     16  C13 UNL A   1      27.541  18.581   2.962  1.00  0.00    +0.000 C 
BRANCH   16   15
ATOM    105  H15 UNL A   1      28.764  19.798   4.253  1.00  0.00    +0.000 H 
ATOM    106  H16 UNL A   1      27.986  18.387   5.036  1.00  0.00    +0.000 H 
ATOM     15  C12 UNL A   1      28.512  18.761   4.181  1.00  0.00    +0.000 C 
BRANCH   15   14
ATOM     14  N1  UNL A   1      29.827  17.954   4.104  1.00  0.00    +0.000 N 
ATOM    104  H14 UNL A   1      29.743  17.452   3.262  1.00  0.00    +0.000 H 
BRANCH   14   12
ATOM     12  C11 UNL A   1      31.048  17.569   4.592  1.00  0.00    +0.000 C 
ATOM     13  O2  UNL A   1      31.244  16.375   4.263  1.00  0.00    +0.000 O 
BRANCH   12   11
ATOM     11  C10 UNL A   1      32.192  18.167   5.596  1.00  0.00    +0.000 C 
ATOM    102  H12 UNL A   1      31.953  19.210   5.613  1.00  0.00    +0.000 H 
ATOM    103  H13 UNL A   1      32.093  17.367   6.300  1.00  0.00    +0.000 H 
BRANCH   11   10
ATOM     10  C9  UNL A   1      33.802  18.186   5.681  1.00  0.00    +0.000 C 
ATOM    100  H10 UNL A   1      34.002  19.058   6.269  1.00  0.00    +0.000 H 
ATOM    101  H11 UNL A   1      33.905  17.149   5.918  1.00  0.00    +0.000 H 
BRANCH   10    9
ATOM      9  C8  UNL A   1      34.962  18.211   4.592  1.00  0.00    +0.000 C 
ATOM     98  H8  UNL A   1      35.053  17.199   4.255  1.00  0.00    +0.000 H 
ATOM     99  H9  UNL A   1      34.606  18.995   3.958  1.00  0.00    +0.000 H 
BRANCH    9    8
ATOM      8  O1  UNL A   1      36.309  18.660   4.814  1.00  0.00    +0.000 O 
BRANCH    8    7
ATOM      2  C2  UNL A   1      38.677  20.664   0.900  1.00  0.00    +0.000 C 
ATOM      3  C3  UNL A   1      39.245  19.615   1.620  1.00  0.00    +0.000 C 
ATOM      4  C4  UNL A   1      38.899  19.390   2.967  1.00  0.00    +0.000 C 
ATOM      6  C6  UNL A   1      37.795  20.100   3.392  1.00  0.00    +0.000 C 
ATOM      7  C7  UNL A   1      36.793  19.842   4.354  1.00  0.00    +0.000 C 
ATOM     87  N7  UNL A   1      36.114  20.913   4.766  1.00  0.00    +0.000 N 
ATOM     88  S1  UNL A   1      36.477  22.179   3.727  1.00  0.00    +0.000 S 
ATOM     89  C63 UNL A   1      37.487  21.264   2.709  1.00  0.00    +0.000 C 
ATOM     90  N8  UNL A   1      37.920  21.618   1.482  1.00  0.00    +0.000 N 
ATOM     94  H4  UNL A   1      39.928  18.994   1.160  1.00  0.00    +0.000 H 
BRANCH    2    1
ATOM      1  C1  UNL A   1      38.904  20.754  -0.586  1.00  0.00    +0.000 C 
ATOM     91  H1  UNL A   1      38.024  20.428  -1.101  1.00  0.00    +0.000 H 
ATOM     92  H2  UNL A   1      39.729  20.129  -0.859  1.00  0.00    +0.000 H 
ATOM     93  H3  UNL A   1      39.119  21.767  -0.854  1.00  0.00    +0.000 H 
ENDBRANCH    2    1
BRANCH    4    5
ATOM     97  H7  UNL A   1      38.847  18.361   4.793  1.00  0.00    +0.000 H 
ATOM      5  C5  UNL A   1      39.508  18.474   3.959  1.00  0.00    +0.000 C 
ATOM     95  H5  UNL A   1      40.440  18.879   4.294  1.00  0.00    +0.000 H 
ATOM     96  H6  UNL A   1      39.676  17.519   3.507  1.00  0.00    +0.000 H 
ENDBRANCH    4    5
ENDBRANCH    8    7
ENDBRANCH    9    8
ENDBRANCH   10    9
ENDBRANCH   11   10
ENDBRANCH   12   11
ENDBRANCH   14   12
ENDBRANCH   15   14
ENDBRANCH   16   15
ENDBRANCH   17   16
ENDBRANCH   18   17
ENDBRANCH   19   18
ENDBRANCH   20   19
ENDBRANCH   21   20
ENDBRANCH   22   21
ENDBRANCH   24   22
ENDBRANCH   28   27
BRANCH   32   33
ATOM     33  C27 UNL A   1      26.545  19.478   8.730  1.00  0.00    +0.000 C 
ATOM     34  C28 UNL A   1      27.823  19.538   9.324  1.00  0.00    +0.000 C 
ATOM     35  F1  UNL A   1      28.906  19.096   8.667  1.00  0.00    +0.000 F 
ATOM     36  C29 UNL A   1      28.008  19.955  10.644  1.00  0.00    +0.000 C 
ATOM     37  F2  UNL A   1      29.219  19.854  11.210  1.00  0.00    +0.000 F 
ATOM     38  C30 UNL A   1      26.935  20.394  11.395  1.00  0.00    +0.000 C 
ATOM     39  F3  UNL A   1      27.094  20.723  12.683  1.00  0.00    +0.000 F 
ATOM     40  C31 UNL A   1      25.685  20.448  10.817  1.00  0.00    +0.000 C 
ATOM     41  F4  UNL A   1      24.630  20.864  11.532  1.00  0.00    +0.000 F 
ATOM     42  C32 UNL A   1      25.489  19.985   9.517  1.00  0.00    +0.000 C 
ATOM     43  F5  UNL A   1      24.214  19.955   9.112  1.00  0.00    +0.000 F 
ENDBRANCH   32   33
BRANCH   49   50
ATOM     50  C38 UNL A   1      23.220  13.803   6.933  1.00  0.00    +0.000 C 
ATOM     51  C39 UNL A   1      23.186  13.683   5.533  1.00  0.00    +0.000 C 
ATOM     52  F6  UNL A   1      23.366  14.753   4.747  1.00  0.00    +0.000 F 
ATOM     53  C40 UNL A   1      23.037  12.441   4.917  1.00  0.00    +0.000 C 
ATOM     54  F7  UNL A   1      23.008  12.353   3.578  1.00  0.00    +0.000 F 
ATOM     55  C41 UNL A   1      22.962  11.290   5.683  1.00  0.00    +0.000 C 
ATOM     56  F8  UNL A   1      22.871  10.090   5.091  1.00  0.00    +0.000 F 
ATOM     57  C42 UNL A   1      23.012  11.380   7.064  1.00  0.00    +0.000 C 
ATOM     58  F9  UNL A   1      22.990  10.267   7.810  1.00  0.00    +0.000 F 
ATOM     59  C43 UNL A   1      23.125  12.623   7.682  1.00  0.00    +0.000 C 
ATOM     60  F10 UNL A   1      23.204  12.670   9.021  1.00  0.00    +0.000 F 
ENDBRANCH   49   50
BRANCH   64   65
ATOM     65  C47 UNL A   1      18.271  17.747   7.224  1.00  0.00    +0.000 C 
ATOM     66  C48 UNL A   1      17.443  17.054   8.122  1.00  0.00    +0.000 C 
ATOM     67  F11 UNL A   1      17.729  15.787   8.458  1.00  0.00    +0.000 F 
ATOM     68  C49 UNL A   1      16.357  17.673   8.747  1.00  0.00    +0.000 C 
ATOM     69  F12 UNL A   1      15.632  16.999   9.651  1.00  0.00    +0.000 F 
ATOM     70  C50 UNL A   1      16.061  19.000   8.485  1.00  0.00    +0.000 C 
ATOM     71  F13 UNL A   1      15.063  19.615   9.135  1.00  0.00    +0.000 F 
ATOM     72  C51 UNL A   1      16.831  19.701   7.575  1.00  0.00    +0.000 C 
ATOM     73  F14 UNL A   1      16.576  20.996   7.337  1.00  0.00    +0.000 F 
ATOM     74  C52 UNL A   1      17.918  19.085   6.953  1.00  0.00    +0.000 C 
ATOM     75  F15 UNL A   1      18.676  19.850   6.155  1.00  0.00    +0.000 F 
ENDBRANCH   64   65
TORSDOF 21
ENDMDL
