MODEL 1
REMARK VINA RESULT:      -8.8      0.000      0.000
ROOT
ATOM    136  H33 UNL A   1      18.487  50.661  -2.419  1.00  0.00    +0.000 H 
ATOM    137  H34 UNL A   1      19.120  53.176  -2.149  1.00  0.00    +0.000 H 
ATOM    138  H35 UNL A   1      16.050  52.315   0.493  1.00  0.00    +0.000 H 
ATOM    139  H36 UNL A   1      11.818  54.284   4.834  1.00  0.00    +0.000 H 
ATOM    140  H37 UNL A   1      11.343  51.793   4.719  1.00  0.00    +0.000 H 
ATOM    141  H38 UNL A   1      14.404  52.624   2.033  1.00  0.00    +0.000 H 
ATOM    142  H39 UNL A   1      15.459  57.500   2.634  1.00  0.00    +0.000 H 
ATOM    143  H40 UNL A   1      17.201  57.215   0.780  1.00  0.00    +0.000 H 
ATOM    144  H41 UNL A   1      15.032  47.415   0.110  1.00  0.00    +0.000 H 
ATOM    145  H42 UNL A   1      13.101  47.733   1.762  1.00  0.00    +0.000 H 
ATOM     45  C32 UNL A   1      12.894  50.388   2.789  1.00  0.00    +0.000 C 
ATOM     46  C33 UNL A   1      13.856  49.872   1.759  1.00  0.00    +0.000 C 
ATOM     47  N9  UNL A   1      14.792  50.518   1.108  1.00  0.00    +0.000 N 
ATOM     48  C34 UNL A   1      15.408  49.577   0.293  1.00  0.00    +0.000 C 
ATOM     49  C35 UNL A   1      16.418  49.761  -0.591  1.00  0.00    +0.000 C 
ATOM     61  C42 UNL A   1      17.051  51.030  -0.852  1.00  0.00    +0.000 C 
ATOM     62  C43 UNL A   1      18.055  51.325  -1.758  1.00  0.00    +0.000 C 
ATOM     63  C44 UNL A   1      18.384  52.679  -1.624  1.00  0.00    +0.000 C 
ATOM     64  C45 UNL A   1      17.552  53.239  -0.668  1.00  0.00    +0.000 C 
ATOM     65  N10 UNL A   1      16.741  52.216  -0.200  1.00  0.00    +0.000 N 
ATOM     66  C46 UNL A   1      17.503  54.605  -0.212  1.00  0.00    +0.000 C 
ATOM     78  C53 UNL A   1      16.637  55.087   0.713  1.00  0.00    +0.000 C 
ATOM     79  N11 UNL A   1      15.648  54.414   1.414  1.00  0.00    +0.000 N 
ATOM     80  C54 UNL A   1      15.100  55.303   2.205  1.00  0.00    +0.000 C 
ATOM     81  C55 UNL A   1      13.972  55.134   3.180  1.00  0.00    +0.000 C 
ATOM     93  C62 UNL A   1      13.409  53.921   3.324  1.00  0.00    +0.000 C 
ATOM     94  C63 UNL A   1      12.312  53.607   4.233  1.00  0.00    +0.000 C 
ATOM     95  C64 UNL A   1      12.049  52.294   4.158  1.00  0.00    +0.000 C 
ATOM     96  C65 UNL A   1      12.923  51.685   3.153  1.00  0.00    +0.000 C 
ATOM     97  N12 UNL A   1      13.703  52.725   2.717  1.00  0.00    +0.000 N 
ATOM     98  C66 UNL A   1      15.691  56.644   2.105  1.00  0.00    +0.000 C 
ATOM     99  C67 UNL A   1      16.598  56.466   1.155  1.00  0.00    +0.000 C 
ATOM    100  C68 UNL A   1      14.757  48.309   0.548  1.00  0.00    +0.000 C 
ATOM    101  C69 UNL A   1      13.764  48.444   1.417  1.00  0.00    +0.000 C 
ENDROOT
BRANCH   45   44
ATOM    102  C70 UNL A   1      10.600  49.354   2.861  1.00  0.00    +0.000 C 
ATOM    103  C71 UNL A   1       9.673  48.493   3.454  1.00  0.00    +0.000 C 
ATOM    134  H31 UNL A   1      11.632  47.204   5.851  1.00  0.00    +0.000 H 
ATOM     41  C28 UNL A   1      10.035  47.745   4.579  1.00  0.00    +0.000 C 
ATOM     42  C29 UNL A   1      11.337  47.824   5.081  1.00  0.00    +0.000 C 
ATOM     43  C30 UNL A   1      12.234  48.739   4.539  1.00  0.00    +0.000 C 
ATOM    135  H32 UNL A   1      13.166  48.858   4.967  1.00  0.00    +0.000 H 
ATOM     44  C31 UNL A   1      11.880  49.501   3.413  1.00  0.00    +0.000 C 
ATOM    146  H43 UNL A   1      10.341  49.883   2.013  1.00  0.00    +0.000 H 
ATOM    147  H44 UNL A   1       8.721  48.407   3.062  1.00  0.00    +0.000 H 
BRANCH   41    2
ATOM      1  O1  UNL A   1       9.109  45.649   5.075  1.00  0.00    +0.000 O 
ATOM      2  C1  UNL A   1       9.028  46.867   5.213  1.00  0.00    +0.000 C 
BRANCH    2    3
ATOM      3  N1  UNL A   1       7.992  47.415   5.929  1.00  0.00    +0.000 N 
ATOM    104  H1  UNL A   1       7.365  47.969   5.411  1.00  0.00    +0.000 H 
BRANCH    3    4
ATOM    105  H2  UNL A   1       7.944  46.302   7.663  1.00  0.00    +0.000 H 
ATOM    106  H3  UNL A   1       6.649  47.498   7.469  1.00  0.00    +0.000 H 
ATOM      4  C2  UNL A   1       7.691  47.292   7.345  1.00  0.00    +0.000 C 
BRANCH    4    5
ATOM    107  H4  UNL A   1       7.866  48.492   9.077  1.00  0.00    +0.000 H 
ATOM    108  H5  UNL A   1       8.621  49.146   7.588  1.00  0.00    +0.000 H 
ATOM      5  C3  UNL A   1       8.455  48.289   8.207  1.00  0.00    +0.000 C 
BRANCH    5    6
ATOM    110  H7  UNL A   1      10.524  48.195   7.933  1.00  0.00    +0.000 H 
ATOM    109  H6  UNL A   1      10.002  48.232   9.651  1.00  0.00    +0.000 H 
ATOM      6  C4  UNL A   1       9.838  47.834   8.671  1.00  0.00    +0.000 C 
BRANCH    6    7
ATOM    111  H8  UNL A   1       9.260  45.851   8.201  1.00  0.00    +0.000 H 
ATOM      7  C5  UNL A   1      10.058  46.320   8.737  1.00  0.00    +0.000 C 
ATOM    112  H9  UNL A   1      10.090  46.081   9.779  1.00  0.00    +0.000 H 
BRANCH    7    8
ATOM    113  H10 UNL A   1      11.324  45.880   7.092  1.00  0.00    +0.000 H 
ATOM    114  H11 UNL A   1      11.480  44.798   8.516  1.00  0.00    +0.000 H 
ATOM      8  C6  UNL A   1      11.379  45.802   8.158  1.00  0.00    +0.000 C 
BRANCH    8    9
ATOM      9  C7  UNL A   1      12.638  46.533   8.617  1.00  0.00    +0.000 C 
ATOM    115  H12 UNL A   1      13.118  45.947   9.373  1.00  0.00    +0.000 H 
ATOM    116  H13 UNL A   1      12.340  47.490   8.991  1.00  0.00    +0.000 H 
BRANCH    9   10
ATOM     10  N2  UNL A   1      13.578  46.756   7.533  1.00  0.00    +0.000 N 
ATOM    117  H14 UNL A   1      13.279  46.467   6.642  1.00  0.00    +0.000 H 
BRANCH   10   11
ATOM     11  C8  UNL A   1      14.830  47.318   7.587  1.00  0.00    +0.000 C 
ATOM     12  O2  UNL A   1      15.606  47.013   8.490  1.00  0.00    +0.000 O 
BRANCH   11   13
ATOM     13  C9  UNL A   1      15.273  48.264   6.542  1.00  0.00    +0.000 C 
ATOM     14  C10 UNL A   1      16.018  47.725   5.483  1.00  0.00    +0.000 C 
ATOM     15  C11 UNL A   1      16.471  48.553   4.458  1.00  0.00    +0.000 C 
ATOM     16  C12 UNL A   1      16.175  49.911   4.488  1.00  0.00    +0.000 C 
ATOM     17  C13 UNL A   1      15.447  50.452   5.554  1.00  0.00    +0.000 C 
ATOM     18  C14 UNL A   1      15.007  49.646   6.617  1.00  0.00    +0.000 C 
ATOM    118  H15 UNL A   1      16.231  46.716   5.463  1.00  0.00    +0.000 H 
ATOM    119  H16 UNL A   1      17.023  48.158   3.681  1.00  0.00    +0.000 H 
ATOM    120  H17 UNL A   1      16.495  50.524   3.722  1.00  0.00    +0.000 H 
ATOM    121  H18 UNL A   1      15.230  51.461   5.559  1.00  0.00    +0.000 H 
BRANCH   18   19
ATOM    122  H19 UNL A   1      13.371  50.225   7.695  1.00  0.00    +0.000 H 
ATOM     19  N3  UNL A   1      14.354  50.195   7.741  1.00  0.00    +0.000 N 
BRANCH   19   20
ATOM     40  N8  UNL A   1      14.330  51.769   9.427  1.00  0.00    +0.000 N 
ATOM     20  C15 UNL A   1      14.922  50.699   8.910  1.00  0.00    +0.000 C 
ATOM     21  N4  UNL A   1      16.002  50.129   9.418  1.00  0.00    +0.000 N 
ATOM     22  C16 UNL A   1      16.457  50.733  10.503  1.00  0.00    +0.000 C 
ATOM     23 Cl1  UNL A   1      17.854  50.049  11.210  1.00  0.00    +0.000 Cl
ATOM     24  N5  UNL A   1      15.947  51.784  11.118  1.00  0.00    +0.000 N 
ATOM     25  C17 UNL A   1      14.855  52.263  10.545  1.00  0.00    +0.000 C 
BRANCH   25   26
ATOM     26  N6  UNL A   1      14.123  53.297  11.140  1.00  0.00    +0.000 N 
ATOM    123  H20 UNL A   1      14.267  53.459  12.100  1.00  0.00    +0.000 H 
BRANCH   26   27
ATOM    132  H29 UNL A   1       9.899  54.680  10.218  1.00  0.00    +0.000 H 
ATOM    133  H30 UNL A   1      11.490  53.279  11.380  1.00  0.00    +0.000 H 
ATOM     38  C26 UNL A   1      10.907  54.768  10.008  1.00  0.00    +0.000 C 
ATOM     39  C27 UNL A   1      11.828  53.977  10.700  1.00  0.00    +0.000 C 
ATOM    124  H21 UNL A   1      14.639  55.138   9.322  1.00  0.00    +0.000 H 
ATOM    125  H22 UNL A   1      13.039  56.440   8.053  1.00  0.00    +0.000 H 
ATOM     27  C18 UNL A   1      13.198  54.119  10.478  1.00  0.00    +0.000 C 
ATOM     28  C19 UNL A   1      13.630  55.028   9.506  1.00  0.00    +0.000 C 
ATOM     29  C20 UNL A   1      12.706  55.790   8.782  1.00  0.00    +0.000 C 
ATOM     30  C21 UNL A   1      11.333  55.679   9.037  1.00  0.00    +0.000 C 
BRANCH   30   31
ATOM     33  C23 UNL A   1       9.168  58.603   7.958  1.00  0.00    +0.000 C 
ATOM    129  H26 UNL A   1       8.260  58.222   8.378  1.00  0.00    +0.000 H 
ATOM     35  C24 UNL A   1       9.016  56.989   6.287  1.00  0.00    +0.000 C 
ATOM     36  C25 UNL A   1       9.876  55.986   7.077  1.00  0.00    +0.000 C 
ATOM     37  O4  UNL A   1       9.971  54.823   6.679  1.00  0.00    +0.000 O 
ATOM     34  O3  UNL A   1       9.178  58.372   6.553  1.00  0.00    +0.000 O 
ATOM    130  H27 UNL A   1       9.228  56.839   5.250  1.00  0.00    +0.000 H 
ATOM    131  H28 UNL A   1       8.014  56.778   6.598  1.00  0.00    +0.000 H 
ATOM    127  H24 UNL A   1      10.271  58.002   9.650  1.00  0.00    +0.000 H 
ATOM    128  H25 UNL A   1       9.231  59.654   8.149  1.00  0.00    +0.000 H 
ATOM    126  H23 UNL A   1      11.257  58.345   8.218  1.00  0.00    +0.000 H 
ATOM     31  N7  UNL A   1      10.397  56.458   8.292  1.00  0.00    +0.000 N 
ATOM     32  C22 UNL A   1      10.360  57.896   8.589  1.00  0.00    +0.000 C 
ENDBRANCH   30   31
ENDBRANCH   26   27
ENDBRANCH   25   26
ENDBRANCH   19   20
ENDBRANCH   18   19
ENDBRANCH   11   13
ENDBRANCH   10   11
ENDBRANCH    9   10
ENDBRANCH    8    9
ENDBRANCH    7    8
ENDBRANCH    6    7
ENDBRANCH    5    6
ENDBRANCH    4    5
ENDBRANCH    3    4
ENDBRANCH    2    3
ENDBRANCH   41    2
ENDBRANCH   45   44
BRANCH   49   50
ATOM     50  C36 UNL A   1      16.919  48.561  -1.341  1.00  0.00    +0.000 C 
ATOM     51  C37 UNL A   1      16.380  48.191  -2.583  1.00  0.00    +0.000 C 
ATOM     52  F1  UNL A   1      15.349  48.874  -3.103  1.00  0.00    +0.000 F 
ATOM     53  C38 UNL A   1      16.885  47.099  -3.286  1.00  0.00    +0.000 C 
ATOM     54  F2  UNL A   1      16.333  46.744  -4.455  1.00  0.00    +0.000 F 
ATOM     55  C39 UNL A   1      17.953  46.375  -2.778  1.00  0.00    +0.000 C 
ATOM     56  F3  UNL A   1      18.445  45.333  -3.461  1.00  0.00    +0.000 F 
ATOM     57  C40 UNL A   1      18.509  46.731  -1.559  1.00  0.00    +0.000 C 
ATOM     58  F4  UNL A   1      19.550  46.042  -1.071  1.00  0.00    +0.000 F 
ATOM     59  C41 UNL A   1      17.991  47.806  -0.842  1.00  0.00    +0.000 C 
ATOM     60  F5  UNL A   1      18.548  48.123   0.337  1.00  0.00    +0.000 F 
ENDBRANCH   49   50
BRANCH   66   67
ATOM     67  C47 UNL A   1      18.465  55.584  -0.816  1.00  0.00    +0.000 C 
ATOM     68  C48 UNL A   1      19.648  55.951  -0.159  1.00  0.00    +0.000 C 
ATOM     69  F6  UNL A   1      19.925  55.454   1.057  1.00  0.00    +0.000 F 
ATOM     70  C49 UNL A   1      20.529  56.865  -0.729  1.00  0.00    +0.000 C 
ATOM     71  F7  UNL A   1      21.628  57.239  -0.060  1.00  0.00    +0.000 F 
ATOM     72  C50 UNL A   1      20.260  57.403  -1.979  1.00  0.00    +0.000 C 
ATOM     73  F8  UNL A   1      21.111  58.283  -2.526  1.00  0.00    +0.000 F 
ATOM     74  C51 UNL A   1      19.107  57.039  -2.656  1.00  0.00    +0.000 C 
ATOM     75  F9  UNL A   1      18.851  57.552  -3.867  1.00  0.00    +0.000 F 
ATOM     76  C52 UNL A   1      18.210  56.146  -2.077  1.00  0.00    +0.000 C 
ATOM     77  F10 UNL A   1      17.093  55.824  -2.747  1.00  0.00    +0.000 F 
ENDBRANCH   66   67
BRANCH   81   82
ATOM     82  C56 UNL A   1      13.469  56.276   3.983  1.00  0.00    +0.000 C 
ATOM     83  C57 UNL A   1      14.063  56.616   5.206  1.00  0.00    +0.000 C 
ATOM     84  F11 UNL A   1      15.078  55.880   5.684  1.00  0.00    +0.000 F 
ATOM     85  C58 UNL A   1      13.597  57.693   5.957  1.00  0.00    +0.000 C 
ATOM     86  F12 UNL A   1      14.159  57.974   7.141  1.00  0.00    +0.000 F 
ATOM     87  C59 UNL A   1      12.548  58.468   5.485  1.00  0.00    +0.000 C 
ATOM     88  F13 UNL A   1      12.108  59.511   6.203  1.00  0.00    +0.000 F 
ATOM     89  C60 UNL A   1      11.953  58.158   4.272  1.00  0.00    +0.000 C 
ATOM     90  F14 UNL A   1      10.950  58.914   3.804  1.00  0.00    +0.000 F 
ATOM     91  C61 UNL A   1      12.398  57.064   3.535  1.00  0.00    +0.000 C 
ATOM     92  F15 UNL A   1      11.800  56.783   2.368  1.00  0.00    +0.000 F 
ENDBRANCH   81   82
TORSDOF 20
ENDMDL
MODEL 2
REMARK VINA RESULT:      -8.8      2.604      3.754
ROOT
ATOM    136  H33 UNL A   1      18.525  50.680  -2.166  1.00  0.00    +0.000 H 
ATOM    137  H34 UNL A   1      19.115  53.195  -1.811  1.00  0.00    +0.000 H 
ATOM    138  H35 UNL A   1      16.145  52.161   0.883  1.00  0.00    +0.000 H 
ATOM    139  H36 UNL A   1      12.008  53.860   5.425  1.00  0.00    +0.000 H 
ATOM    140  H37 UNL A   1      11.580  51.365   5.221  1.00  0.00    +0.000 H 
ATOM    141  H38 UNL A   1      14.541  52.371   2.483  1.00  0.00    +0.000 H 
ATOM    142  H39 UNL A   1      15.515  57.240   3.253  1.00  0.00    +0.000 H 
ATOM    143  H40 UNL A   1      17.205  57.068   1.338  1.00  0.00    +0.000 H 
ATOM    144  H41 UNL A   1      15.215  47.259   0.328  1.00  0.00    +0.000 H 
ATOM    145  H42 UNL A   1      13.329  47.468   2.049  1.00  0.00    +0.000 H 
ATOM     45  C32 UNL A   1      13.101  50.075   3.190  1.00  0.00    +0.000 C 
ATOM     46  C33 UNL A   1      14.041  49.621   2.111  1.00  0.00    +0.000 C 
ATOM     47  N9  UNL A   1      14.943  50.313   1.460  1.00  0.00    +0.000 N 
ATOM     48  C34 UNL A   1      15.553  49.420   0.589  1.00  0.00    +0.000 C 
ATOM     49  C35 UNL A   1      16.532  49.661  -0.317  1.00  0.00    +0.000 C 
ATOM     61  C42 UNL A   1      17.131  50.953  -0.543  1.00  0.00    +0.000 C 
ATOM     62  C43 UNL A   1      18.100  51.307  -1.466  1.00  0.00    +0.000 C 
ATOM     63  C44 UNL A   1      18.405  52.661  -1.286  1.00  0.00    +0.000 C 
ATOM     64  C45 UNL A   1      17.592  53.163  -0.283  1.00  0.00    +0.000 C 
ATOM     65  N10 UNL A   1      16.817  52.104   0.167  1.00  0.00    +0.000 N 
ATOM     66  C46 UNL A   1      17.529  54.508   0.230  1.00  0.00    +0.000 C 
ATOM     78  C53 UNL A   1      16.682  54.933   1.200  1.00  0.00    +0.000 C 
ATOM     79  N11 UNL A   1      15.729  54.211   1.901  1.00  0.00    +0.000 N 
ATOM     80  C54 UNL A   1      15.188  55.056   2.744  1.00  0.00    +0.000 C 
ATOM     81  C55 UNL A   1      14.094  54.822   3.744  1.00  0.00    +0.000 C 
ATOM     93  C62 UNL A   1      13.560  53.592   3.855  1.00  0.00    +0.000 C 
ATOM     94  C63 UNL A   1      12.497  53.218   4.782  1.00  0.00    +0.000 C 
ATOM     95  C64 UNL A   1      12.259  51.905   4.661  1.00  0.00    +0.000 C 
ATOM     96  C65 UNL A   1      13.114  51.356   3.607  1.00  0.00    +0.000 C 
ATOM     97  N12 UNL A   1      13.859  52.429   3.191  1.00  0.00    +0.000 N 
ATOM     98  C66 UNL A   1      15.747  56.412   2.683  1.00  0.00    +0.000 C 
ATOM     99  C67 UNL A   1      16.628  56.292   1.700  1.00  0.00    +0.000 C 
ATOM    100  C68 UNL A   1      14.936  48.128   0.811  1.00  0.00    +0.000 C 
ATOM    101  C69 UNL A   1      13.967  48.207   1.713  1.00  0.00    +0.000 C 
ENDROOT
BRANCH   45   44
ATOM    102  C70 UNL A   1      10.850  48.948   3.255  1.00  0.00    +0.000 C 
ATOM    103  C71 UNL A   1       9.959  48.045   3.841  1.00  0.00    +0.000 C 
ATOM    134  H31 UNL A   1      11.974  46.811   6.220  1.00  0.00    +0.000 H 
ATOM     41  C28 UNL A   1      10.354  47.301   4.958  1.00  0.00    +0.000 C 
ATOM     42  C29 UNL A   1      11.652  47.427   5.457  1.00  0.00    +0.000 C 
ATOM     43  C30 UNL A   1      12.511  48.382   4.924  1.00  0.00    +0.000 C 
ATOM    135  H32 UNL A   1      13.438  48.534   5.351  1.00  0.00    +0.000 H 
ATOM     44  C31 UNL A   1      12.124  49.141   3.807  1.00  0.00    +0.000 C 
ATOM    146  H43 UNL A   1      10.568  49.475   2.413  1.00  0.00    +0.000 H 
ATOM    147  H44 UNL A   1       9.011  47.925   3.450  1.00  0.00    +0.000 H 
BRANCH   41    2
ATOM      1  O1  UNL A   1       9.523  45.164   5.447  1.00  0.00    +0.000 O 
ATOM      2  C1  UNL A   1       9.383  46.376   5.584  1.00  0.00    +0.000 C 
BRANCH    2    3
ATOM      3  N1  UNL A   1       8.318  46.875   6.292  1.00  0.00    +0.000 N 
ATOM    104  H1  UNL A   1       7.611  47.298   5.753  1.00  0.00    +0.000 H 
BRANCH    3    4
ATOM    105  H2  UNL A   1       8.468  45.952   8.129  1.00  0.00    +0.000 H 
ATOM    106  H3  UNL A   1       7.032  46.963   7.880  1.00  0.00    +0.000 H 
ATOM      4  C2  UNL A   1       8.086  46.867   7.727  1.00  0.00    +0.000 C 
BRANCH    4    5
ATOM    107  H4  UNL A   1       8.147  48.293   9.286  1.00  0.00    +0.000 H 
ATOM    108  H5  UNL A   1       8.851  48.810   7.720  1.00  0.00    +0.000 H 
ATOM      5  C3  UNL A   1       8.757  48.030   8.447  1.00  0.00    +0.000 C 
BRANCH    5    6
ATOM    110  H7  UNL A   1      10.826  48.052   8.163  1.00  0.00    +0.000 H 
ATOM    109  H6  UNL A   1      10.304  48.319   9.861  1.00  0.00    +0.000 H 
ATOM      6  C4  UNL A   1      10.171  47.761   8.958  1.00  0.00    +0.000 C 
BRANCH    6    7
ATOM    111  H8  UNL A   1       9.778  45.687   8.767  1.00  0.00    +0.000 H 
ATOM      7  C5  UNL A   1      10.508  46.297   9.258  1.00  0.00    +0.000 C 
ATOM    112  H9  UNL A   1      10.506  46.216  10.324  1.00  0.00    +0.000 H 
BRANCH    7    8
ATOM    113  H10 UNL A   1      11.895  45.761   7.744  1.00  0.00    +0.000 H 
ATOM    114  H11 UNL A   1      12.044  44.873   9.297  1.00  0.00    +0.000 H 
ATOM      8  C6  UNL A   1      11.894  45.816   8.812  1.00  0.00    +0.000 C 
BRANCH    8    9
ATOM      9  C7  UNL A   1      13.069  46.692   9.238  1.00  0.00    +0.000 C 
ATOM    115  H12 UNL A   1      13.612  46.187  10.009  1.00  0.00    +0.000 H 
ATOM    116  H13 UNL A   1      12.672  47.624   9.583  1.00  0.00    +0.000 H 
BRANCH    9   10
ATOM     10  N2  UNL A   1      13.976  46.979   8.141  1.00  0.00    +0.000 N 
ATOM    117  H14 UNL A   1      13.698  46.643   7.258  1.00  0.00    +0.000 H 
BRANCH   10   11
ATOM     11  C8  UNL A   1      15.170  47.655   8.170  1.00  0.00    +0.000 C 
ATOM     12  O2  UNL A   1      16.009  47.391   9.027  1.00  0.00    +0.000 O 
BRANCH   11   13
ATOM     13  C9  UNL A   1      15.476  48.682   7.152  1.00  0.00    +0.000 C 
ATOM     14  C10 UNL A   1      16.229  48.263   6.046  1.00  0.00    +0.000 C 
ATOM     15  C11 UNL A   1      16.557  49.172   5.043  1.00  0.00    +0.000 C 
ATOM     16  C12 UNL A   1      16.128  50.491   5.141  1.00  0.00    +0.000 C 
ATOM     17  C13 UNL A   1      15.392  50.913   6.253  1.00  0.00    +0.000 C 
ATOM     18  C14 UNL A   1      15.075  50.026   7.295  1.00  0.00    +0.000 C 
ATOM    118  H15 UNL A   1      16.541  47.282   5.975  1.00  0.00    +0.000 H 
ATOM    119  H16 UNL A   1      17.115  48.866   4.230  1.00  0.00    +0.000 H 
ATOM    120  H17 UNL A   1      16.356  51.163   4.390  1.00  0.00    +0.000 H 
ATOM    121  H18 UNL A   1      15.075  51.894   6.308  1.00  0.00    +0.000 H 
BRANCH   18   19
ATOM    122  H19 UNL A   1      13.431  50.449   8.430  1.00  0.00    +0.000 H 
ATOM     19  N3  UNL A   1      14.415  50.462   8.463  1.00  0.00    +0.000 N 
BRANCH   19   20
ATOM     40  N8  UNL A   1      14.245  51.766  10.358  1.00  0.00    +0.000 N 
ATOM     20  C15 UNL A   1      14.976  50.906   9.659  1.00  0.00    +0.000 C 
ATOM     21  N4  UNL A   1      16.179  50.490  10.019  1.00  0.00    +0.000 N 
ATOM     22  C16 UNL A   1      16.605  51.021  11.152  1.00  0.00    +0.000 C 
ATOM     23 Cl1  UNL A   1      18.155  50.528  11.674  1.00  0.00    +0.000 Cl
ATOM     24  N5  UNL A   1      15.965  51.865  11.940  1.00  0.00    +0.000 N 
ATOM     25  C17 UNL A   1      14.762  52.199  11.504  1.00  0.00    +0.000 C 
BRANCH   25   26
ATOM     26  N6  UNL A   1      13.907  52.988  12.282  1.00  0.00    +0.000 N 
ATOM    123  H20 UNL A   1      13.854  53.947  12.067  1.00  0.00    +0.000 H 
BRANCH   26   27
ATOM    132  H29 UNL A   1      13.111  50.229  15.799  1.00  0.00    +0.000 H 
ATOM    133  H30 UNL A   1      14.483  51.047  13.982  1.00  0.00    +0.000 H 
ATOM     38  C26 UNL A   1      12.753  50.979  15.185  1.00  0.00    +0.000 C 
ATOM     39  C27 UNL A   1      13.557  51.469  14.152  1.00  0.00    +0.000 C 
ATOM    124  H21 UNL A   1      11.494  53.809  12.962  1.00  0.00    +0.000 H 
ATOM    125  H22 UNL A   1      10.061  52.895  14.688  1.00  0.00    +0.000 H 
ATOM     27  C18 UNL A   1      13.120  52.521  13.346  1.00  0.00    +0.000 C 
ATOM     28  C19 UNL A   1      11.837  53.038  13.555  1.00  0.00    +0.000 C 
ATOM     29  C20 UNL A   1      11.014  52.518  14.561  1.00  0.00    +0.000 C 
ATOM     30  C21 UNL A   1      11.470  51.492  15.398  1.00  0.00    +0.000 C 
BRANCH   30   31
ATOM     33  C23 UNL A   1      10.164  50.571  18.840  1.00  0.00    +0.000 C 
ATOM    129  H26 UNL A   1      10.464  49.545  18.795  1.00  0.00    +0.000 H 
ATOM     35  C24 UNL A   1       8.469  50.092  17.317  1.00  0.00    +0.000 C 
ATOM     36  C25 UNL A   1       9.349  50.467  16.110  1.00  0.00    +0.000 C 
ATOM     37  O4  UNL A   1       8.952  50.217  14.970  1.00  0.00    +0.000 O 
ATOM     34  O3  UNL A   1       8.768  50.673  18.575  1.00  0.00    +0.000 O 
ATOM    130  H27 UNL A   1       7.465  50.366  17.073  1.00  0.00    +0.000 H 
ATOM    131  H28 UNL A   1       8.651  49.048  17.460  1.00  0.00    +0.000 H 
ATOM    127  H24 UNL A   1      11.973  51.199  17.959  1.00  0.00    +0.000 H 
ATOM    128  H25 UNL A   1      10.373  50.958  19.816  1.00  0.00    +0.000 H 
ATOM    126  H23 UNL A   1      10.677  52.408  17.910  1.00  0.00    +0.000 H 
ATOM     31  N7  UNL A   1      10.624  50.966  16.420  1.00  0.00    +0.000 N 
ATOM     32  C22 UNL A   1      10.930  51.375  17.797  1.00  0.00    +0.000 C 
ENDBRANCH   30   31
ENDBRANCH   26   27
ENDBRANCH   25   26
ENDBRANCH   19   20
ENDBRANCH   18   19
ENDBRANCH   11   13
ENDBRANCH   10   11
ENDBRANCH    9   10
ENDBRANCH    8    9
ENDBRANCH    7    8
ENDBRANCH    6    7
ENDBRANCH    5    6
ENDBRANCH    4    5
ENDBRANCH    3    4
ENDBRANCH    2    3
ENDBRANCH   41    2
ENDBRANCH   45   44
BRANCH   49   50
ATOM     50  C36 UNL A   1      17.034  48.504  -1.130  1.00  0.00    +0.000 C 
ATOM     51  C37 UNL A   1      18.131  47.734  -0.716  1.00  0.00    +0.000 C 
ATOM     52  F1  UNL A   1      18.804  48.061   0.398  1.00  0.00    +0.000 F 
ATOM     53  C38 UNL A   1      18.559  46.637  -1.461  1.00  0.00    +0.000 C 
ATOM     54  F2  UNL A   1      19.630  45.935  -1.063  1.00  0.00    +0.000 F 
ATOM     55  C39 UNL A   1      17.882  46.271  -2.614  1.00  0.00    +0.000 C 
ATOM     56  F3  UNL A   1      18.287  45.208  -3.323  1.00  0.00    +0.000 F 
ATOM     57  C40 UNL A   1      16.787  47.010  -3.035  1.00  0.00    +0.000 C 
ATOM     58  F4  UNL A   1      16.123  46.650  -4.143  1.00  0.00    +0.000 F 
ATOM     59  C41 UNL A   1      16.373  48.121  -2.307  1.00  0.00    +0.000 C 
ATOM     60  F5  UNL A   1      15.312  48.819  -2.742  1.00  0.00    +0.000 F 
ENDBRANCH   49   50
BRANCH   66   67
ATOM     67  C47 UNL A   1      18.452  55.531  -0.361  1.00  0.00    +0.000 C 
ATOM     68  C48 UNL A   1      18.172  56.150  -1.588  1.00  0.00    +0.000 C 
ATOM     69  F6  UNL A   1      17.076  55.805  -2.283  1.00  0.00    +0.000 F 
ATOM     70  C49 UNL A   1      19.041  57.094  -2.127  1.00  0.00    +0.000 C 
ATOM     71  F7  UNL A   1      18.778  57.636  -3.325  1.00  0.00    +0.000 F 
ATOM     72  C50 UNL A   1      20.187  57.459  -1.437  1.00  0.00    +0.000 C 
ATOM     73  F8  UNL A   1      21.022  58.369  -1.958  1.00  0.00    +0.000 F 
ATOM     74  C51 UNL A   1      20.473  56.875  -0.213  1.00  0.00    +0.000 C 
ATOM     75  F9  UNL A   1      21.576  57.234   0.459  1.00  0.00    +0.000 F 
ATOM     76  C52 UNL A   1      19.620  55.911   0.317  1.00  0.00    +0.000 C 
ATOM     77  F10 UNL A   1      19.931  55.349   1.495  1.00  0.00    +0.000 F 
ENDBRANCH   66   67
BRANCH   81   82
ATOM     82  C56 UNL A   1      13.592  55.920   4.609  1.00  0.00    +0.000 C 
ATOM     83  C57 UNL A   1      14.172  56.177   5.858  1.00  0.00    +0.000 C 
ATOM     84  F11 UNL A   1      15.171  55.401   6.305  1.00  0.00    +0.000 F 
ATOM     85  C58 UNL A   1      13.708  57.212   6.667  1.00  0.00    +0.000 C 
ATOM     86  F12 UNL A   1      14.255  57.414   7.873  1.00  0.00    +0.000 F 
ATOM     87  C59 UNL A   1      12.674  58.027   6.229  1.00  0.00    +0.000 C 
ATOM     88  F13 UNL A   1      12.236  59.030   7.003  1.00  0.00    +0.000 F 
ATOM     89  C60 UNL A   1      12.094  57.799   4.991  1.00  0.00    +0.000 C 
ATOM     90  F14 UNL A   1      11.107  58.595   4.556  1.00  0.00    +0.000 F 
ATOM     91  C61 UNL A   1      12.537  56.746   4.195  1.00  0.00    +0.000 C 
ATOM     92  F15 UNL A   1      11.953  56.544   3.005  1.00  0.00    +0.000 F 
ENDBRANCH   81   82
TORSDOF 20
ENDMDL
MODEL 3
REMARK VINA RESULT:      -8.6     63.745     69.635
ROOT
ATOM    136  H33 UNL A   1      48.576   6.350  54.219  1.00  0.00    +0.000 H 
ATOM    137  H34 UNL A   1      50.739   7.629  54.916  1.00  0.00    +0.000 H 
ATOM    138  H35 UNL A   1      49.046   9.595  51.689  1.00  0.00    +0.000 H 
ATOM    139  H36 UNL A   1      49.320  14.214  47.304  1.00  0.00    +0.000 H 
ATOM    140  H37 UNL A   1      47.109  13.092  46.758  1.00  0.00    +0.000 H 
ATOM    141  H38 UNL A   1      48.793  11.073  49.978  1.00  0.00    +0.000 H 
ATOM    142  H39 UNL A   1      52.964  13.616  51.152  1.00  0.00    +0.000 H 
ATOM    143  H40 UNL A   1      53.359  11.865  52.977  1.00  0.00    +0.000 H 
ATOM    144  H41 UNL A   1      44.763   7.242  50.539  1.00  0.00    +0.000 H 
ATOM    145  H42 UNL A   1      44.489   8.816  48.537  1.00  0.00    +0.000 H 
ATOM     45  C32 UNL A   1      46.519  10.815  48.362  1.00  0.00    +0.000 C 
ATOM     46  C33 UNL A   1      46.411   9.698  49.358  1.00  0.00    +0.000 C 
ATOM     47  N9  UNL A   1      47.216   9.393  50.346  1.00  0.00    +0.000 N 
ATOM     48  C34 UNL A   1      46.651   8.290  50.973  1.00  0.00    +0.000 C 
ATOM     49  C35 UNL A   1      47.123   7.590  52.032  1.00  0.00    +0.000 C 
ATOM     61  C42 UNL A   1      48.358   7.883  52.717  1.00  0.00    +0.000 C 
ATOM     62  C43 UNL A   1      48.941   7.207  53.775  1.00  0.00    +0.000 C 
ATOM     63  C44 UNL A   1      50.111   7.884  54.139  1.00  0.00    +0.000 C 
ATOM     64  C45 UNL A   1      50.281   8.955  53.277  1.00  0.00    +0.000 C 
ATOM     65  N10 UNL A   1      49.197   8.945  52.412  1.00  0.00    +0.000 N 
ATOM     66  C46 UNL A   1      51.352   9.919  53.247  1.00  0.00    +0.000 C 
ATOM     78  C53 UNL A   1      51.466  10.930  52.350  1.00  0.00    +0.000 C 
ATOM     79  N11 UNL A   1      50.618  11.267  51.307  1.00  0.00    +0.000 N 
ATOM     80  C54 UNL A   1      51.143  12.329  50.747  1.00  0.00    +0.000 C 
ATOM     81  C55 UNL A   1      50.653  13.115  49.566  1.00  0.00    +0.000 C 
ATOM     93  C62 UNL A   1      49.513  12.741  48.959  1.00  0.00    +0.000 C 
ATOM     94  C63 UNL A   1      48.916  13.408  47.807  1.00  0.00    +0.000 C 
ATOM     95  C64 UNL A   1      47.758  12.804  47.508  1.00  0.00    +0.000 C 
ATOM     96  C65 UNL A   1      47.559  11.670  48.412  1.00  0.00    +0.000 C 
ATOM     97  N12 UNL A   1      48.647  11.715  49.245  1.00  0.00    +0.000 N 
ATOM     98  C66 UNL A   1      52.381  12.797  51.384  1.00  0.00    +0.000 C 
ATOM     99  C67 UNL A   1      52.553  11.887  52.332  1.00  0.00    +0.000 C 
ATOM    100  C68 UNL A   1      45.420   7.993  50.271  1.00  0.00    +0.000 C 
ATOM    101  C69 UNL A   1      45.245   8.808  49.239  1.00  0.00    +0.000 C 
ENDROOT
BRANCH   45   44
ATOM    102  C70 UNL A   1      44.448  11.903  47.431  1.00  0.00    +0.000 C 
ATOM    103  C71 UNL A   1      43.524  12.072  46.396  1.00  0.00    +0.000 C 
ATOM    134  H31 UNL A   1      44.947  10.075  44.109  1.00  0.00    +0.000 H 
ATOM     41  C28 UNL A   1      43.679  11.363  45.200  1.00  0.00    +0.000 C 
ATOM     42  C29 UNL A   1      44.782  10.524  45.023  1.00  0.00    +0.000 C 
ATOM     43  C30 UNL A   1      45.656  10.296  46.080  1.00  0.00    +0.000 C 
ATOM    135  H32 UNL A   1      46.418   9.608  45.976  1.00  0.00    +0.000 H 
ATOM     44  C31 UNL A   1      45.507  10.995  47.290  1.00  0.00    +0.000 C 
ATOM    146  H43 UNL A   1      44.350  12.448  48.301  1.00  0.00    +0.000 H 
ATOM    147  H44 UNL A   1      42.728  12.720  46.513  1.00  0.00    +0.000 H 
BRANCH   41    2
ATOM      1  O1  UNL A   1      41.994  10.567  43.777  1.00  0.00    +0.000 O 
ATOM      2  C1  UNL A   1      42.670  11.530  44.131  1.00  0.00    +0.000 C 
BRANCH    2    3
ATOM      3  N1  UNL A   1      42.512  12.749  43.519  1.00  0.00    +0.000 N 
ATOM    104  H1  UNL A   1      43.234  13.400  43.678  1.00  0.00    +0.000 H 
BRANCH    3    4
ATOM    105  H2  UNL A   1      41.338  14.276  42.785  1.00  0.00    +0.000 H 
ATOM    106  H3  UNL A   1      40.541  12.703  42.976  1.00  0.00    +0.000 H 
ATOM      4  C2  UNL A   1      41.429  13.215  42.671  1.00  0.00    +0.000 C 
BRANCH    4    5
ATOM    107  H4  UNL A   1      40.998  12.098  40.929  1.00  0.00    +0.000 H 
ATOM    108  H5  UNL A   1      42.688  12.671  41.097  1.00  0.00    +0.000 H 
ATOM      5  C3  UNL A   1      41.649  12.904  41.196  1.00  0.00    +0.000 C 
BRANCH    5    6
ATOM    110  H7  UNL A   1      41.039  13.609  39.326  1.00  0.00    +0.000 H 
ATOM    109  H6  UNL A   1      40.678  14.716  40.693  1.00  0.00    +0.000 H 
ATOM      6  C4  UNL A   1      41.386  14.060  40.232  1.00  0.00    +0.000 C 
BRANCH    6    7
ATOM    111  H8  UNL A   1      42.412  15.328  38.879  1.00  0.00    +0.000 H 
ATOM      7  C5  UNL A   1      42.609  14.894  39.837  1.00  0.00    +0.000 C 
ATOM    112  H9  UNL A   1      43.435  14.215  39.852  1.00  0.00    +0.000 H 
BRANCH    7    8
ATOM    113  H10 UNL A   1      43.404  15.587  41.679  1.00  0.00    +0.000 H 
ATOM    114  H11 UNL A   1      42.094  16.585  40.962  1.00  0.00    +0.000 H 
ATOM      8  C6  UNL A   1      42.994  16.028  40.794  1.00  0.00    +0.000 C 
BRANCH    8    9
ATOM      9  C7  UNL A   1      44.009  17.033  40.258  1.00  0.00    +0.000 C 
ATOM    115  H12 UNL A   1      43.484  17.896  39.904  1.00  0.00    +0.000 H 
ATOM    116  H13 UNL A   1      44.556  16.556  39.473  1.00  0.00    +0.000 H 
BRANCH    9   10
ATOM     10  N2  UNL A   1      44.964  17.454  41.268  1.00  0.00    +0.000 N 
ATOM    117  H14 UNL A   1      45.829  17.777  40.930  1.00  0.00    +0.000 H 
BRANCH   10   11
ATOM     11  C8  UNL A   1      44.819  17.460  42.633  1.00  0.00    +0.000 C 
ATOM     12  O2  UNL A   1      44.025  18.231  43.167  1.00  0.00    +0.000 O 
BRANCH   11   13
ATOM     13  C9  UNL A   1      45.586  16.517  43.474  1.00  0.00    +0.000 C 
ATOM     14  C10 UNL A   1      44.974  15.288  43.757  1.00  0.00    +0.000 C 
ATOM     15  C11 UNL A   1      45.634  14.345  44.541  1.00  0.00    +0.000 C 
ATOM     16  C12 UNL A   1      46.903  14.626  45.035  1.00  0.00    +0.000 C 
ATOM     17  C13 UNL A   1      47.507  15.860  44.766  1.00  0.00    +0.000 C 
ATOM     18  C14 UNL A   1      46.851  16.841  44.007  1.00  0.00    +0.000 C 
ATOM    118  H15 UNL A   1      44.034  15.082  43.384  1.00  0.00    +0.000 H 
ATOM    119  H16 UNL A   1      45.182  13.442  44.754  1.00  0.00    +0.000 H 
ATOM    120  H17 UNL A   1      47.402  13.923  45.602  1.00  0.00    +0.000 H 
ATOM    121  H18 UNL A   1      48.452  16.051  45.134  1.00  0.00    +0.000 H 
BRANCH   18   19
ATOM    122  H19 UNL A   1      47.003  18.852  44.328  1.00  0.00    +0.000 H 
ATOM     19  N3  UNL A   1      47.410  18.122  43.809  1.00  0.00    +0.000 N 
BRANCH   19   20
ATOM     40  N8  UNL A   1      49.605  18.791  43.581  1.00  0.00    +0.000 N 
ATOM     20  C15 UNL A   1      48.465  18.484  42.973  1.00  0.00    +0.000 C 
ATOM     21  N4  UNL A   1      48.285  18.531  41.664  1.00  0.00    +0.000 N 
ATOM     22  C16 UNL A   1      49.356  18.928  40.998  1.00  0.00    +0.000 C 
ATOM     23 Cl1  UNL A   1      49.191  19.015  39.299  1.00  0.00    +0.000 Cl
ATOM     24  N5  UNL A   1      50.543  19.240  41.485  1.00  0.00    +0.000 N 
ATOM     25  C17 UNL A   1      50.626  19.136  42.801  1.00  0.00    +0.000 C 
BRANCH   25   26
ATOM     26  N6  UNL A   1      51.847  19.311  43.462  1.00  0.00    +0.000 N 
ATOM    123  H20 UNL A   1      51.902  20.035  44.127  1.00  0.00    +0.000 H 
BRANCH   26   27
ATOM    132  H29 UNL A   1      54.639  15.880  44.477  1.00  0.00    +0.000 H 
ATOM    133  H30 UNL A   1      52.638  17.190  44.828  1.00  0.00    +0.000 H 
ATOM     38  C26 UNL A   1      54.462  16.709  43.888  1.00  0.00    +0.000 C 
ATOM     39  C27 UNL A   1      53.292  17.451  44.074  1.00  0.00    +0.000 C 
ATOM    124  H21 UNL A   1      53.735  19.721  41.667  1.00  0.00    +0.000 H 
ATOM    125  H22 UNL A   1      55.810  18.498  41.408  1.00  0.00    +0.000 H 
ATOM     27  C18 UNL A   1      53.000  18.540  43.252  1.00  0.00    +0.000 C 
ATOM     28  C19 UNL A   1      53.930  18.912  42.276  1.00  0.00    +0.000 C 
ATOM     29  C20 UNL A   1      55.123  18.197  42.118  1.00  0.00    +0.000 C 
ATOM     30  C21 UNL A   1      55.395  17.077  42.914  1.00  0.00    +0.000 C 
BRANCH   30   31
ATOM     33  C23 UNL A   1      58.167  15.062  41.285  1.00  0.00    +0.000 C 
ATOM    129  H26 UNL A   1      57.859  14.117  41.684  1.00  0.00    +0.000 H 
ATOM     35  C24 UNL A   1      58.915  15.659  43.406  1.00  0.00    +0.000 C 
ATOM     36  C25 UNL A   1      57.574  16.322  43.772  1.00  0.00    +0.000 C 
ATOM     37  O4  UNL A   1      57.371  16.679  44.934  1.00  0.00    +0.000 O 
ATOM     34  O3  UNL A   1      59.268  15.562  42.037  1.00  0.00    +0.000 O 
ATOM    130  H27 UNL A   1      59.687  16.218  43.893  1.00  0.00    +0.000 H 
ATOM    131  H28 UNL A   1      58.800  14.644  43.721  1.00  0.00    +0.000 H 
ATOM    127  H24 UNL A   1      56.172  15.608  40.880  1.00  0.00    +0.000 H 
ATOM    128  H25 UNL A   1      58.460  14.935  40.263  1.00  0.00    +0.000 H 
ATOM    126  H23 UNL A   1      57.314  16.964  40.892  1.00  0.00    +0.000 H 
ATOM     31  N7  UNL A   1      56.615  16.354  42.748  1.00  0.00    +0.000 N 
ATOM     32  C22 UNL A   1      57.014  16.054  41.367  1.00  0.00    +0.000 C 
ENDBRANCH   30   31
ENDBRANCH   26   27
ENDBRANCH   25   26
ENDBRANCH   19   20
ENDBRANCH   18   19
ENDBRANCH   11   13
ENDBRANCH   10   11
ENDBRANCH    9   10
ENDBRANCH    8    9
ENDBRANCH    7    8
ENDBRANCH    6    7
ENDBRANCH    5    6
ENDBRANCH    4    5
ENDBRANCH    3    4
ENDBRANCH    2    3
ENDBRANCH   41    2
ENDBRANCH   45   44
BRANCH   49   50
ATOM     50  C36 UNL A   1      46.300   6.439  52.533  1.00  0.00    +0.000 C 
ATOM     51  C37 UNL A   1      45.313   6.612  53.515  1.00  0.00    +0.000 C 
ATOM     52  F1  UNL A   1      45.126   7.814  54.081  1.00  0.00    +0.000 F 
ATOM     53  C38 UNL A   1      44.528   5.541  53.939  1.00  0.00    +0.000 C 
ATOM     54  F2  UNL A   1      43.614   5.723  54.902  1.00  0.00    +0.000 F 
ATOM     55  C39 UNL A   1      44.694   4.287  53.370  1.00  0.00    +0.000 C 
ATOM     56  F3  UNL A   1      43.930   3.261  53.770  1.00  0.00    +0.000 F 
ATOM     57  C40 UNL A   1      45.654   4.097  52.389  1.00  0.00    +0.000 C 
ATOM     58  F4  UNL A   1      45.808   2.888  51.828  1.00  0.00    +0.000 F 
ATOM     59  C41 UNL A   1      46.457   5.158  51.981  1.00  0.00    +0.000 C 
ATOM     60  F5  UNL A   1      47.381   4.941  51.033  1.00  0.00    +0.000 F 
ENDBRANCH   49   50
BRANCH   66   67
ATOM     67  C47 UNL A   1      52.442   9.792  54.269  1.00  0.00    +0.000 C 
ATOM     68  C48 UNL A   1      52.319  10.358  55.547  1.00  0.00    +0.000 C 
ATOM     69  F6  UNL A   1      51.224  11.065  55.869  1.00  0.00    +0.000 F 
ATOM     70  C49 UNL A   1      53.342  10.237  56.483  1.00  0.00    +0.000 C 
ATOM     71  F7  UNL A   1      53.224  10.828  57.680  1.00  0.00    +0.000 F 
ATOM     72  C50 UNL A   1      54.489   9.523  56.172  1.00  0.00    +0.000 C 
ATOM     73  F8  UNL A   1      55.472   9.407  57.076  1.00  0.00    +0.000 F 
ATOM     74  C51 UNL A   1      54.623   8.939  54.922  1.00  0.00    +0.000 C 
ATOM     75  F9  UNL A   1      55.728   8.241  54.623  1.00  0.00    +0.000 F 
ATOM     76  C52 UNL A   1      53.614   9.080  53.974  1.00  0.00    +0.000 C 
ATOM     77  F10 UNL A   1      53.778   8.519  52.766  1.00  0.00    +0.000 F 
ENDBRANCH   66   67
BRANCH   81   82
ATOM     82  C56 UNL A   1      51.402  14.292  49.059  1.00  0.00    +0.000 C 
ATOM     83  C57 UNL A   1      51.165  15.574  49.571  1.00  0.00    +0.000 C 
ATOM     84  F11 UNL A   1      50.222  15.757  50.508  1.00  0.00    +0.000 F 
ATOM     85  C58 UNL A   1      51.873  16.678  49.102  1.00  0.00    +0.000 C 
ATOM     86  F12 UNL A   1      51.602  17.900  49.582  1.00  0.00    +0.000 F 
ATOM     87  C59 UNL A   1      52.852  16.516  48.132  1.00  0.00    +0.000 C 
ATOM     88  F13 UNL A   1      53.541  17.577  47.689  1.00  0.00    +0.000 F 
ATOM     89  C60 UNL A   1      53.112  15.255  47.619  1.00  0.00    +0.000 C 
ATOM     90  F14 UNL A   1      54.069  15.091  46.695  1.00  0.00    +0.000 F 
ATOM     91  C61 UNL A   1      52.384  14.156  48.067  1.00  0.00    +0.000 C 
ATOM     92  F15 UNL A   1      52.652  12.948  47.549  1.00  0.00    +0.000 F 
ENDBRANCH   81   82
TORSDOF 20
ENDMDL
MODEL 4
REMARK VINA RESULT:      -8.6      4.584      8.545
ROOT
ATOM    136  H33 UNL A   1      13.470  46.915   3.018  1.00  0.00    +0.000 H 
ATOM    137  H34 UNL A   1      15.128  46.953   1.006  1.00  0.00    +0.000 H 
ATOM    138  H35 UNL A   1      14.963  50.759   2.629  1.00  0.00    +0.000 H 
ATOM    139  H36 UNL A   1      16.644  56.904   2.417  1.00  0.00    +0.000 H 
ATOM    140  H37 UNL A   1      15.193  56.820   4.499  1.00  0.00    +0.000 H 
ATOM    141  H38 UNL A   1      15.308  52.993   2.881  1.00  0.00    +0.000 H 
ATOM    142  H39 UNL A   1      18.482  53.251  -1.006  1.00  0.00    +0.000 H 
ATOM    143  H40 UNL A   1      17.978  50.775  -1.411  1.00  0.00    +0.000 H 
ATOM    144  H41 UNL A   1      11.953  50.581   6.642  1.00  0.00    +0.000 H 
ATOM    145  H42 UNL A   1      12.226  53.114   6.903  1.00  0.00    +0.000 H 
ATOM     45  C32 UNL A   1      14.031  54.274   5.021  1.00  0.00    +0.000 C 
ATOM     46  C33 UNL A   1      13.587  52.843   5.109  1.00  0.00    +0.000 C 
ATOM     47  N9  UNL A   1      13.918  51.828   4.349  1.00  0.00    +0.000 N 
ATOM     48  C34 UNL A   1      13.251  50.727   4.870  1.00  0.00    +0.000 C 
ATOM     49  C35 UNL A   1      13.250  49.451   4.416  1.00  0.00    +0.000 C 
ATOM     61  C42 UNL A   1      13.974  49.000   3.253  1.00  0.00    +0.000 C 
ATOM     62  C43 UNL A   1      14.003  47.735   2.690  1.00  0.00    +0.000 C 
ATOM     63  C44 UNL A   1      14.881  47.759   1.600  1.00  0.00    +0.000 C 
ATOM     64  C45 UNL A   1      15.362  49.050   1.455  1.00  0.00    +0.000 C 
ATOM     65  N10 UNL A   1      14.800  49.801   2.477  1.00  0.00    +0.000 N 
ATOM     66  C46 UNL A   1      16.269  49.562   0.459  1.00  0.00    +0.000 C 
ATOM     78  C53 UNL A   1      16.674  50.852   0.363  1.00  0.00    +0.000 C 
ATOM     79  N11 UNL A   1      16.338  51.932   1.164  1.00  0.00    +0.000 N 
ATOM     80  C54 UNL A   1      17.002  52.955   0.685  1.00  0.00    +0.000 C 
ATOM     81  C55 UNL A   1      17.011  54.380   1.155  1.00  0.00    +0.000 C 
ATOM     93  C62 UNL A   1      16.268  54.721   2.223  1.00  0.00    +0.000 C 
ATOM     94  C63 UNL A   1      16.180  56.062   2.792  1.00  0.00    +0.000 C 
ATOM     95  C64 UNL A   1      15.399  56.020   3.881  1.00  0.00    +0.000 C 
ATOM     96  C65 UNL A   1      14.885  54.660   4.052  1.00  0.00    +0.000 C 
ATOM     97  N12 UNL A   1      15.460  53.956   3.027  1.00  0.00    +0.000 N 
ATOM     98  C66 UNL A   1      17.849  52.636  -0.471  1.00  0.00    +0.000 C 
ATOM     99  C67 UNL A   1      17.584  51.350  -0.649  1.00  0.00    +0.000 C 
ATOM    100  C68 UNL A   1      12.515  51.191   6.028  1.00  0.00    +0.000 C 
ATOM    101  C69 UNL A   1      12.657  52.499   6.196  1.00  0.00    +0.000 C 
ENDROOT
BRANCH   45   44
ATOM    102  C70 UNL A   1      12.310  55.955   5.762  1.00  0.00    +0.000 C 
ATOM    103  C71 UNL A   1      11.850  56.898   6.686  1.00  0.00    +0.000 C 
ATOM    134  H31 UNL A   1      14.259  56.566   8.995  1.00  0.00    +0.000 H 
ATOM     41  C28 UNL A   1      12.591  57.158   7.844  1.00  0.00    +0.000 C 
ATOM     42  C29 UNL A   1      13.764  56.443   8.099  1.00  0.00    +0.000 C 
ATOM     43  C30 UNL A   1      14.261  55.564   7.143  1.00  0.00    +0.000 C 
ATOM    135  H32 UNL A   1      15.172  55.103   7.294  1.00  0.00    +0.000 H 
ATOM     44  C31 UNL A   1      13.531  55.299   5.972  1.00  0.00    +0.000 C 
ATOM    146  H43 UNL A   1      11.748  55.742   4.923  1.00  0.00    +0.000 H 
ATOM    147  H44 UNL A   1      10.965  57.401   6.516  1.00  0.00    +0.000 H 
BRANCH   41    2
ATOM      1  O1  UNL A   1      12.806  59.161   9.043  1.00  0.00    +0.000 O 
ATOM      2  C1  UNL A   1      12.104  58.184   8.792  1.00  0.00    +0.000 C 
BRANCH    2    3
ATOM      3  N1  UNL A   1      10.887  58.030   9.407  1.00  0.00    +0.000 N 
ATOM    104  H1  UNL A   1      10.157  58.586   9.049  1.00  0.00    +0.000 H 
BRANCH    3    4
ATOM    105  H2  UNL A   1       9.767  57.647  11.094  1.00  0.00    +0.000 H 
ATOM    106  H3  UNL A   1      11.409  56.977  11.080  1.00  0.00    +0.000 H 
ATOM      4  C2  UNL A   1      10.522  57.160  10.512  1.00  0.00    +0.000 C 
BRANCH    4    5
ATOM    107  H4  UNL A   1       9.673  55.904   9.039  1.00  0.00    +0.000 H 
ATOM    108  H5  UNL A   1       9.193  55.565  10.732  1.00  0.00    +0.000 H 
ATOM      5  C3  UNL A   1       9.987  55.808  10.057  1.00  0.00    +0.000 C 
BRANCH    5    6
ATOM    110  H7  UNL A   1      10.471  53.874  10.681  1.00  0.00    +0.000 H 
ATOM    109  H6  UNL A   1      11.245  54.375   9.139  1.00  0.00    +0.000 H 
ATOM      6  C4  UNL A   1      10.976  54.647  10.139  1.00  0.00    +0.000 C 
BRANCH    6    7
ATOM    111  H8  UNL A   1      12.059  55.681  11.639  1.00  0.00    +0.000 H 
ATOM      7  C5  UNL A   1      12.268  54.921  10.915  1.00  0.00    +0.000 C 
ATOM    112  H9  UNL A   1      12.990  55.201  10.177  1.00  0.00    +0.000 H 
BRANCH    7    8
ATOM    113  H10 UNL A   1      12.439  52.834  11.260  1.00  0.00    +0.000 H 
ATOM    114  H11 UNL A   1      12.675  53.890  12.692  1.00  0.00    +0.000 H 
ATOM      8  C6  UNL A   1      12.880  53.726  11.654  1.00  0.00    +0.000 C 
BRANCH    8    9
ATOM      9  C7  UNL A   1      14.396  53.586  11.549  1.00  0.00    +0.000 C 
ATOM    115  H12 UNL A   1      14.832  54.563  11.552  1.00  0.00    +0.000 H 
ATOM    116  H13 UNL A   1      14.612  53.061  10.642  1.00  0.00    +0.000 H 
BRANCH    9   10
ATOM     10  N2  UNL A   1      14.962  52.821  12.646  1.00  0.00    +0.000 N 
ATOM    117  H14 UNL A   1      15.270  53.348  13.419  1.00  0.00    +0.000 H 
BRANCH   10   11
ATOM     11  C8  UNL A   1      15.126  51.463  12.750  1.00  0.00    +0.000 C 
ATOM     12  O2  UNL A   1      14.770  50.873  13.767  1.00  0.00    +0.000 O 
BRANCH   11   13
ATOM     13  C9  UNL A   1      15.695  50.688  11.627  1.00  0.00    +0.000 C 
ATOM     14  C10 UNL A   1      17.076  50.810  11.416  1.00  0.00    +0.000 C 
ATOM     15  C11 UNL A   1      17.687  50.110  10.379  1.00  0.00    +0.000 C 
ATOM     16  C12 UNL A   1      16.923  49.285   9.560  1.00  0.00    +0.000 C 
ATOM     17  C13 UNL A   1      15.542  49.177   9.760  1.00  0.00    +0.000 C 
ATOM     18  C14 UNL A   1      14.895  49.897  10.777  1.00  0.00    +0.000 C 
ATOM    118  H15 UNL A   1      17.639  51.419  12.029  1.00  0.00    +0.000 H 
ATOM    119  H16 UNL A   1      18.702  50.202  10.220  1.00  0.00    +0.000 H 
ATOM    120  H17 UNL A   1      17.376  48.752   8.801  1.00  0.00    +0.000 H 
ATOM    121  H18 UNL A   1      14.990  48.556   9.148  1.00  0.00    +0.000 H 
BRANCH   18   19
ATOM    122  H19 UNL A   1      13.021  50.707  10.725  1.00  0.00    +0.000 H 
ATOM     19  N3  UNL A   1      13.492  49.868  10.928  1.00  0.00    +0.000 N 
BRANCH   19   20
ATOM     40  N8  UNL A   1      12.960  48.285  12.519  1.00  0.00    +0.000 N 
ATOM     20  C15 UNL A   1      12.688  48.802  11.326  1.00  0.00    +0.000 C 
ATOM     21  N4  UNL A   1      11.743  48.349  10.519  1.00  0.00    +0.000 N 
ATOM     22  C16 UNL A   1      11.085  47.311  11.007  1.00  0.00    +0.000 C 
ATOM     23 Cl1  UNL A   1       9.850  46.673  10.012  1.00  0.00    +0.000 Cl
ATOM     24  N5  UNL A   1      11.250  46.726  12.179  1.00  0.00    +0.000 N 
ATOM     25  C17 UNL A   1      12.201  47.269  12.920  1.00  0.00    +0.000 C 
BRANCH   25   26
ATOM     26  N6  UNL A   1      12.420  46.846  14.236  1.00  0.00    +0.000 N 
ATOM    123  H20 UNL A   1      13.036  46.091  14.372  1.00  0.00    +0.000 H 
BRANCH   26   27
ATOM    132  H29 UNL A   1      10.473  46.557  18.326  1.00  0.00    +0.000 H 
ATOM    133  H30 UNL A   1      11.514  45.582  16.373  1.00  0.00    +0.000 H 
ATOM     38  C26 UNL A   1      10.757  47.165  17.541  1.00  0.00    +0.000 C 
ATOM     39  C27 UNL A   1      11.382  46.604  16.424  1.00  0.00    +0.000 C 
ATOM    124  H21 UNL A   1      11.900  49.396  14.668  1.00  0.00    +0.000 H 
ATOM    125  H22 UNL A   1      10.729  50.358  16.557  1.00  0.00    +0.000 H 
ATOM     27  C18 UNL A   1      11.829  47.410  15.376  1.00  0.00    +0.000 C 
ATOM     28  C19 UNL A   1      11.586  48.787  15.439  1.00  0.00    +0.000 C 
ATOM     29  C20 UNL A   1      10.921  49.344  16.536  1.00  0.00    +0.000 C 
ATOM     30  C21 UNL A   1      10.512  48.540  17.608  1.00  0.00    +0.000 C 
BRANCH   30   31
ATOM     33  C23 UNL A   1       9.918  50.239  20.949  1.00  0.00    +0.000 C 
ATOM    129  H26 UNL A   1       9.677  49.341  21.481  1.00  0.00    +0.000 H 
ATOM     35  C24 UNL A   1       7.855  50.098  19.879  1.00  0.00    +0.000 C 
ATOM     36  C25 UNL A   1       8.442  49.311  18.693  1.00  0.00    +0.000 C 
ATOM     37  O4  UNL A   1       7.682  48.810  17.862  1.00  0.00    +0.000 O 
ATOM     34  O3  UNL A   1       8.720  50.938  20.626  1.00  0.00    +0.000 O 
ATOM    130  H27 UNL A   1       7.072  50.715  19.492  1.00  0.00    +0.000 H 
ATOM    131  H28 UNL A   1       7.558  49.342  20.575  1.00  0.00    +0.000 H 
ATOM    127  H24 UNL A   1      11.494  49.281  19.929  1.00  0.00    +0.000 H 
ATOM    128  H25 UNL A   1      10.539  50.858  21.562  1.00  0.00    +0.000 H 
ATOM    126  H23 UNL A   1      10.956  50.797  19.185  1.00  0.00    +0.000 H 
ATOM     31  N7  UNL A   1       9.831  49.116  18.722  1.00  0.00    +0.000 N 
ATOM     32  C22 UNL A   1      10.655  49.889  19.663  1.00  0.00    +0.000 C 
ENDBRANCH   30   31
ENDBRANCH   26   27
ENDBRANCH   25   26
ENDBRANCH   19   20
ENDBRANCH   18   19
ENDBRANCH   11   13
ENDBRANCH   10   11
ENDBRANCH    9   10
ENDBRANCH    8    9
ENDBRANCH    7    8
ENDBRANCH    6    7
ENDBRANCH    5    6
ENDBRANCH    4    5
ENDBRANCH    3    4
ENDBRANCH    2    3
ENDBRANCH   41    2
ENDBRANCH   45   44
BRANCH   49   50
ATOM     50  C36 UNL A   1      12.451  48.436   5.182  1.00  0.00    +0.000 C 
ATOM     51  C37 UNL A   1      11.144  48.093   4.806  1.00  0.00    +0.000 C 
ATOM     52  F1  UNL A   1      10.549  48.719   3.780  1.00  0.00    +0.000 F 
ATOM     53  C38 UNL A   1      10.431  47.119   5.503  1.00  0.00    +0.000 C 
ATOM     54  F2  UNL A   1       9.171  46.830   5.147  1.00  0.00    +0.000 F 
ATOM     55  C39 UNL A   1      11.020  46.451   6.565  1.00  0.00    +0.000 C 
ATOM     56  F3  UNL A   1      10.337  45.505   7.226  1.00  0.00    +0.000 F 
ATOM     57  C40 UNL A   1      12.315  46.765   6.945  1.00  0.00    +0.000 C 
ATOM     58  F4  UNL A   1      12.892  46.111   7.964  1.00  0.00    +0.000 F 
ATOM     59  C41 UNL A   1      13.021  47.755   6.268  1.00  0.00    +0.000 C 
ATOM     60  F5  UNL A   1      14.272  48.040   6.662  1.00  0.00    +0.000 F 
ENDBRANCH   49   50
BRANCH   66   67
ATOM     67  C47 UNL A   1      16.796  48.606  -0.570  1.00  0.00    +0.000 C 
ATOM     68  C48 UNL A   1      18.040  47.976  -0.417  1.00  0.00    +0.000 C 
ATOM     69  F6  UNL A   1      18.807  48.250   0.650  1.00  0.00    +0.000 F 
ATOM     70  C49 UNL A   1      18.518  47.096  -1.382  1.00  0.00    +0.000 C 
ATOM     71  F7  UNL A   1      19.732  46.544  -1.239  1.00  0.00    +0.000 F 
ATOM     72  C50 UNL A   1      17.752  46.805  -2.501  1.00  0.00    +0.000 C 
ATOM     73  F8  UNL A   1      18.215  45.957  -3.429  1.00  0.00    +0.000 F 
ATOM     74  C51 UNL A   1      16.511  47.401  -2.662  1.00  0.00    +0.000 C 
ATOM     75  F9  UNL A   1      15.764  47.114  -3.738  1.00  0.00    +0.000 F 
ATOM     76  C52 UNL A   1      16.040  48.302  -1.712  1.00  0.00    +0.000 C 
ATOM     77  F10 UNL A   1      14.843  48.877  -1.903  1.00  0.00    +0.000 F 
ENDBRANCH   66   67
BRANCH   81   82
ATOM     82  C56 UNL A   1      17.821  55.415   0.464  1.00  0.00    +0.000 C 
ATOM     83  C57 UNL A   1      19.085  55.781   0.944  1.00  0.00    +0.000 C 
ATOM     84  F11 UNL A   1      19.563  55.222   2.066  1.00  0.00    +0.000 F 
ATOM     85  C58 UNL A   1      19.849  56.746   0.292  1.00  0.00    +0.000 C 
ATOM     86  F12 UNL A   1      21.040  57.106   0.793  1.00  0.00    +0.000 F 
ATOM     87  C59 UNL A   1      19.376  57.341  -0.868  1.00  0.00    +0.000 C 
ATOM     88  F13 UNL A   1      20.117  58.262  -1.501  1.00  0.00    +0.000 F 
ATOM     89  C60 UNL A   1      18.134  56.985  -1.369  1.00  0.00    +0.000 C 
ATOM     90  F14 UNL A   1      17.680  57.545  -2.499  1.00  0.00    +0.000 F 
ATOM     91  C61 UNL A   1      17.356  56.043  -0.701  1.00  0.00    +0.000 C 
ATOM     92  F15 UNL A   1      16.155  55.722  -1.204  1.00  0.00    +0.000 F 
ENDBRANCH   81   82
TORSDOF 20
ENDMDL
MODEL 5
REMARK VINA RESULT:      -8.4      4.403      8.700
ROOT
ATOM    136  H33 UNL A   1      13.565  46.702   2.258  1.00  0.00    +0.000 H 
ATOM    137  H34 UNL A   1      15.258  47.063   0.309  1.00  0.00    +0.000 H 
ATOM    138  H35 UNL A   1      14.949  50.601   2.438  1.00  0.00    +0.000 H 
ATOM    139  H36 UNL A   1      16.449  56.760   3.115  1.00  0.00    +0.000 H 
ATOM    140  H37 UNL A   1      14.961  56.349   5.131  1.00  0.00    +0.000 H 
ATOM    141  H38 UNL A   1      15.221  52.788   3.003  1.00  0.00    +0.000 H 
ATOM    142  H39 UNL A   1      18.461  53.668  -0.737  1.00  0.00    +0.000 H 
ATOM    143  H40 UNL A   1      18.038  51.258  -1.491  1.00  0.00    +0.000 H 
ATOM    144  H41 UNL A   1      11.869  49.788   6.318  1.00  0.00    +0.000 H 
ATOM    145  H42 UNL A   1      12.061  52.267   6.932  1.00  0.00    +0.000 H 
ATOM     45  C32 UNL A   1      13.866  53.725   5.269  1.00  0.00    +0.000 C 
ATOM     46  C33 UNL A   1      13.464  52.284   5.149  1.00  0.00    +0.000 C 
ATOM     47  N9  UNL A   1      13.840  51.394   4.264  1.00  0.00    +0.000 N 
ATOM     48  C34 UNL A   1      13.196  50.213   4.612  1.00  0.00    +0.000 C 
ATOM     49  C35 UNL A   1      13.242  49.013   3.987  1.00  0.00    +0.000 C 
ATOM     61  C42 UNL A   1      14.001  48.747   2.790  1.00  0.00    +0.000 C 
ATOM     62  C43 UNL A   1      14.079  47.574   2.059  1.00  0.00    +0.000 C 
ATOM     63  C44 UNL A   1      14.976  47.772   1.003  1.00  0.00    +0.000 C 
ATOM     64  C45 UNL A   1      15.421  49.084   1.048  1.00  0.00    +0.000 C 
ATOM     65  N10 UNL A   1      14.817  49.670   2.151  1.00  0.00    +0.000 N 
ATOM     66  C46 UNL A   1      16.331  49.752   0.154  1.00  0.00    +0.000 C 
ATOM     78  C53 UNL A   1      16.700  51.054   0.246  1.00  0.00    +0.000 C 
ATOM     79  N11 UNL A   1      16.316  52.003   1.181  1.00  0.00    +0.000 N 
ATOM     80  C54 UNL A   1      16.958  53.100   0.863  1.00  0.00    +0.000 C 
ATOM     81  C55 UNL A   1      16.915  54.446   1.524  1.00  0.00    +0.000 C 
ATOM     93  C62 UNL A   1      16.142  54.616   2.612  1.00  0.00    +0.000 C 
ATOM     94  C63 UNL A   1      16.003  55.861   3.359  1.00  0.00    +0.000 C 
ATOM     95  C64 UNL A   1      15.203  55.648   4.413  1.00  0.00    +0.000 C 
ATOM     96  C65 UNL A   1      14.727  54.264   4.383  1.00  0.00    +0.000 C 
ATOM     97  N12 UNL A   1      15.342  53.725   3.284  1.00  0.00    +0.000 N 
ATOM     98  C66 UNL A   1      17.836  52.967  -0.307  1.00  0.00    +0.000 C 
ATOM     99  C67 UNL A   1      17.613  51.711  -0.666  1.00  0.00    +0.000 C 
ATOM    100  C68 UNL A   1      12.424  50.492   5.806  1.00  0.00    +0.000 C 
ATOM    101  C69 UNL A   1      12.523  51.768   6.156  1.00  0.00    +0.000 C 
ENDROOT
BRANCH   45   44
ATOM    102  C70 UNL A   1      13.941  54.692   7.593  1.00  0.00    +0.000 C 
ATOM    103  C71 UNL A   1      13.418  55.537   8.575  1.00  0.00    +0.000 C 
ATOM    134  H31 UNL A   1      10.951  56.935   6.786  1.00  0.00    +0.000 H 
ATOM     41  C28 UNL A   1      12.293  56.319   8.295  1.00  0.00    +0.000 C 
ATOM     42  C29 UNL A   1      11.721  56.290   7.021  1.00  0.00    +0.000 C 
ATOM     43  C30 UNL A   1      12.192  55.391   6.070  1.00  0.00    +0.000 C 
ATOM    135  H32 UNL A   1      11.713  55.309   5.160  1.00  0.00    +0.000 H 
ATOM     44  C31 UNL A   1      13.318  54.594   6.341  1.00  0.00    +0.000 C 
ATOM    146  H43 UNL A   1      14.789  54.137   7.790  1.00  0.00    +0.000 H 
ATOM    147  H44 UNL A   1      13.862  55.585   9.506  1.00  0.00    +0.000 H 
BRANCH   41    2
ATOM      1  O1  UNL A   1      12.048  58.366   9.411  1.00  0.00    +0.000 O 
ATOM      2  C1  UNL A   1      11.734  57.180   9.361  1.00  0.00    +0.000 C 
BRANCH    2    3
ATOM      3  N1  UNL A   1      10.891  56.646  10.304  1.00  0.00    +0.000 N 
ATOM    104  H1  UNL A   1       9.929  56.753  10.121  1.00  0.00    +0.000 H 
BRANCH    3    4
ATOM    105  H2  UNL A   1      10.814  56.497  12.358  1.00  0.00    +0.000 H 
ATOM    106  H3  UNL A   1      12.283  55.871  11.586  1.00  0.00    +0.000 H 
ATOM      4  C2  UNL A   1      11.218  55.945  11.534  1.00  0.00    +0.000 C 
BRANCH    4    5
ATOM    107  H4  UNL A   1      10.724  54.117  10.595  1.00  0.00    +0.000 H 
ATOM    108  H5  UNL A   1       9.659  54.619  11.947  1.00  0.00    +0.000 H 
ATOM      5  C3  UNL A   1      10.661  54.529  11.581  1.00  0.00    +0.000 C 
BRANCH    5    6
ATOM    110  H7  UNL A   1      10.644  53.306  13.274  1.00  0.00    +0.000 H 
ATOM    109  H6  UNL A   1      11.735  52.745  11.962  1.00  0.00    +0.000 H 
ATOM      6  C4  UNL A   1      11.372  53.572  12.536  1.00  0.00    +0.000 C 
BRANCH    6    7
ATOM    111  H8  UNL A   1      12.356  54.028  14.357  1.00  0.00    +0.000 H 
ATOM      7  C5  UNL A   1      12.555  54.158  13.313  1.00  0.00    +0.000 C 
ATOM    112  H9  UNL A   1      12.624  55.179  13.002  1.00  0.00    +0.000 H 
BRANCH    7    8
ATOM    113  H10 UNL A   1      13.882  52.504  13.257  1.00  0.00    +0.000 H 
ATOM    114  H11 UNL A   1      14.627  54.098  13.615  1.00  0.00    +0.000 H 
ATOM      8  C6  UNL A   1      13.929  53.546  13.019  1.00  0.00    +0.000 C 
BRANCH    8    9
ATOM      9  C7  UNL A   1      14.419  53.677  11.579  1.00  0.00    +0.000 C 
ATOM    115  H12 UNL A   1      15.224  54.381  11.554  1.00  0.00    +0.000 H 
ATOM    116  H13 UNL A   1      13.593  54.001  10.983  1.00  0.00    +0.000 H 
BRANCH    9   10
ATOM     10  N2  UNL A   1      14.888  52.415  11.035  1.00  0.00    +0.000 N 
ATOM    117  H14 UNL A   1      15.787  52.134  11.322  1.00  0.00    +0.000 H 
BRANCH   10   11
ATOM     11  C8  UNL A   1      14.245  51.562  10.173  1.00  0.00    +0.000 C 
ATOM     12  O2  UNL A   1      13.018  51.533  10.133  1.00  0.00    +0.000 O 
BRANCH   11   13
ATOM     13  C9  UNL A   1      15.018  50.697   9.256  1.00  0.00    +0.000 C 
ATOM     14  C10 UNL A   1      15.393  51.261   8.028  1.00  0.00    +0.000 C 
ATOM     15  C11 UNL A   1      16.125  50.510   7.112  1.00  0.00    +0.000 C 
ATOM     16  C12 UNL A   1      16.486  49.203   7.423  1.00  0.00    +0.000 C 
ATOM     17  C13 UNL A   1      16.097  48.636   8.642  1.00  0.00    +0.000 C 
ATOM     18  C14 UNL A   1      15.331  49.359   9.570  1.00  0.00    +0.000 C 
ATOM    118  H15 UNL A   1      15.127  52.232   7.804  1.00  0.00    +0.000 H 
ATOM    119  H16 UNL A   1      16.397  50.922   6.206  1.00  0.00    +0.000 H 
ATOM    120  H17 UNL A   1      17.042  48.650   6.753  1.00  0.00    +0.000 H 
ATOM    121  H18 UNL A   1      16.378  47.667   8.861  1.00  0.00    +0.000 H 
BRANCH   18   19
ATOM    122  H19 UNL A   1      15.494  48.728  11.506  1.00  0.00    +0.000 H 
ATOM     19  N3  UNL A   1      14.854  48.766  10.759  1.00  0.00    +0.000 N 
BRANCH   19   20
ATOM     40  N8  UNL A   1      13.049  48.553  12.179  1.00  0.00    +0.000 N 
ATOM     20  C15 UNL A   1      13.593  48.230  11.011  1.00  0.00    +0.000 C 
ATOM     21  N4  UNL A   1      13.025  47.431  10.124  1.00  0.00    +0.000 N 
ATOM     22  C16 UNL A   1      11.850  46.964  10.510  1.00  0.00    +0.000 C 
ATOM     23 Cl1  UNL A   1      11.061  45.920   9.410  1.00  0.00    +0.000 Cl
ATOM     24  N5  UNL A   1      11.203  47.226  11.630  1.00  0.00    +0.000 N 
ATOM     25  C17 UNL A   1      11.843  48.055  12.437  1.00  0.00    +0.000 C 
BRANCH   25   26
ATOM     26  N6  UNL A   1      11.241  48.531  13.608  1.00  0.00    +0.000 N 
ATOM    123  H20 UNL A   1      11.283  49.500  13.777  1.00  0.00    +0.000 H 
BRANCH   26   27
ATOM    132  H29 UNL A   1      11.112  45.153  16.637  1.00  0.00    +0.000 H 
ATOM    133  H30 UNL A   1      12.254  46.534  15.014  1.00  0.00    +0.000 H 
ATOM     38  C26 UNL A   1      10.588  45.886  16.131  1.00  0.00    +0.000 C 
ATOM     39  C27 UNL A   1      11.255  46.702  15.213  1.00  0.00    +0.000 C 
ATOM    124  H21 UNL A   1       8.705  48.662  14.319  1.00  0.00    +0.000 H 
ATOM    125  H22 UNL A   1       7.525  47.187  15.836  1.00  0.00    +0.000 H 
ATOM     27  C18 UNL A   1      10.585  47.738  14.561  1.00  0.00    +0.000 C 
ATOM     28  C19 UNL A   1       9.218  47.907  14.801  1.00  0.00    +0.000 C 
ATOM     29  C20 UNL A   1       8.539  47.064  15.687  1.00  0.00    +0.000 C 
ATOM     30  C21 UNL A   1       9.222  46.052  16.375  1.00  0.00    +0.000 C 
BRANCH   30   31
ATOM     33  C23 UNL A   1       7.162  43.140  17.670  1.00  0.00    +0.000 C 
ATOM    129  H26 UNL A   1       6.243  43.685  17.743  1.00  0.00    +0.000 H 
ATOM     35  C24 UNL A   1       7.943  44.303  19.529  1.00  0.00    +0.000 C 
ATOM     36  C25 UNL A   1       8.595  45.396  18.662  1.00  0.00    +0.000 C 
ATOM     37  O4  UNL A   1       9.036  46.414  19.200  1.00  0.00    +0.000 O 
ATOM     34  O3  UNL A   1       7.749  43.019  18.962  1.00  0.00    +0.000 O 
ATOM    130  H27 UNL A   1       8.558  44.178  20.395  1.00  0.00    +0.000 H 
ATOM    131  H28 UNL A   1       6.951  44.665  19.705  1.00  0.00    +0.000 H 
ATOM    127  H24 UNL A   1       7.620  44.044  15.823  1.00  0.00    +0.000 H 
ATOM    128  H25 UNL A   1       6.964  42.166  17.274  1.00  0.00    +0.000 H 
ATOM    126  H23 UNL A   1       9.004  43.283  16.628  1.00  0.00    +0.000 H 
ATOM     31  N7  UNL A   1       8.522  45.194  17.276  1.00  0.00    +0.000 N 
ATOM     32  C22 UNL A   1       8.126  43.880  16.751  1.00  0.00    +0.000 C 
ENDBRANCH   30   31
ENDBRANCH   26   27
ENDBRANCH   25   26
ENDBRANCH   19   20
ENDBRANCH   18   19
ENDBRANCH   11   13
ENDBRANCH   10   11
ENDBRANCH    9   10
ENDBRANCH    8    9
ENDBRANCH    7    8
ENDBRANCH    6    7
ENDBRANCH    5    6
ENDBRANCH    4    5
ENDBRANCH    3    4
ENDBRANCH    2    3
ENDBRANCH   41    2
ENDBRANCH   45   44
BRANCH   49   50
ATOM     50  C36 UNL A   1      12.460  47.881   4.587  1.00  0.00    +0.000 C 
ATOM     51  C37 UNL A   1      13.004  47.057   5.585  1.00  0.00    +0.000 C 
ATOM     52  F1  UNL A   1      14.273  47.226   5.982  1.00  0.00    +0.000 F 
ATOM     53  C38 UNL A   1      12.249  46.037   6.161  1.00  0.00    +0.000 C 
ATOM     54  F2  UNL A   1      12.800  45.242   7.089  1.00  0.00    +0.000 F 
ATOM     55  C39 UNL A   1      10.933  45.840   5.775  1.00  0.00    +0.000 C 
ATOM     56  F3  UNL A   1      10.205  44.866   6.339  1.00  0.00    +0.000 F 
ATOM     57  C40 UNL A   1      10.371  46.650   4.800  1.00  0.00    +0.000 C 
ATOM     58  F4  UNL A   1       9.094  46.470   4.434  1.00  0.00    +0.000 F 
ATOM     59  C41 UNL A   1      11.129  47.654   4.204  1.00  0.00    +0.000 C 
ATOM     60  F5  UNL A   1      10.559  48.419   3.261  1.00  0.00    +0.000 F 
ENDBRANCH   49   50
BRANCH   66   67
ATOM     67  C47 UNL A   1      16.907  48.963  -0.984  1.00  0.00    +0.000 C 
ATOM     68  C48 UNL A   1      16.277  48.916  -2.237  1.00  0.00    +0.000 C 
ATOM     69  F6  UNL A   1      15.112  49.554  -2.430  1.00  0.00    +0.000 F 
ATOM     70  C49 UNL A   1      16.820  48.174  -3.282  1.00  0.00    +0.000 C 
ATOM     71  F7  UNL A   1      16.174  48.102  -4.455  1.00  0.00    +0.000 F 
ATOM     72  C50 UNL A   1      18.016  47.495  -3.106  1.00  0.00    +0.000 C 
ATOM     73  F8  UNL A   1      18.537  46.782  -4.114  1.00  0.00    +0.000 F 
ATOM     74  C51 UNL A   1      18.666  47.544  -1.882  1.00  0.00    +0.000 C 
ATOM     75  F9  UNL A   1      19.826  46.896  -1.713  1.00  0.00    +0.000 F 
ATOM     76  C52 UNL A   1      18.113  48.263  -0.826  1.00  0.00    +0.000 C 
ATOM     77  F10 UNL A   1      18.754  48.279   0.352  1.00  0.00    +0.000 F 
ENDBRANCH   66   67
BRANCH   81   82
ATOM     82  C56 UNL A   1      17.706  55.588   1.002  1.00  0.00    +0.000 C 
ATOM     83  C57 UNL A   1      17.173  56.455   0.039  1.00  0.00    +0.000 C 
ATOM     84  F11 UNL A   1      15.944  56.236  -0.452  1.00  0.00    +0.000 F 
ATOM     85  C58 UNL A   1      17.911  57.532  -0.446  1.00  0.00    +0.000 C 
ATOM     86  F12 UNL A   1      17.393  58.325  -1.393  1.00  0.00    +0.000 F 
ATOM     87  C59 UNL A   1      19.186  57.779   0.044  1.00  0.00    +0.000 C 
ATOM     88  F13 UNL A   1      19.891  58.822  -0.415  1.00  0.00    +0.000 F 
ATOM     89  C60 UNL A   1      19.729  56.942   1.006  1.00  0.00    +0.000 C 
ATOM     90  F14 UNL A   1      20.953  57.187   1.495  1.00  0.00    +0.000 F 
ATOM     91  C61 UNL A   1      19.003  55.848   1.469  1.00  0.00    +0.000 C 
ATOM     92  F15 UNL A   1      19.555  55.050   2.395  1.00  0.00    +0.000 F 
ENDBRANCH   81   82
TORSDOF 20
ENDMDL
MODEL 6
REMARK VINA RESULT:      -8.4     24.370     31.048
ROOT
ATOM    136  H33 UNL A   1      22.725  21.214   2.930  1.00  0.00    +0.000 H 
ATOM    137  H34 UNL A   1      23.370  19.070   4.265  1.00  0.00    +0.000 H 
ATOM    138  H35 UNL A   1      19.455  20.052   5.190  1.00  0.00    +0.000 H 
ATOM    139  H36 UNL A   1      14.178  18.983   8.603  1.00  0.00    +0.000 H 
ATOM    140  H37 UNL A   1      13.484  20.945   7.149  1.00  0.00    +0.000 H 
ATOM    141  H38 UNL A   1      17.425  20.010   6.216  1.00  0.00    +0.000 H 
ATOM    142  H39 UNL A   1      18.527  15.912   8.907  1.00  0.00    +0.000 H 
ATOM    143  H40 UNL A   1      20.874  16.040   7.893  1.00  0.00    +0.000 H 
ATOM    144  H41 UNL A   1      18.181  24.037   2.416  1.00  0.00    +0.000 H 
ATOM    145  H42 UNL A   1      15.920  24.094   3.619  1.00  0.00    +0.000 H 
ATOM     45  C32 UNL A   1      15.550  21.954   5.471  1.00  0.00    +0.000 C 
ATOM     46  C33 UNL A   1      16.771  22.264   4.654  1.00  0.00    +0.000 C 
ATOM     47  N9  UNL A   1      17.921  21.636   4.618  1.00  0.00    +0.000 N 
ATOM     48  C34 UNL A   1      18.696  22.313   3.686  1.00  0.00    +0.000 C 
ATOM     49  C35 UNL A   1      19.974  22.062   3.314  1.00  0.00    +0.000 C 
ATOM     61  C42 UNL A   1      20.787  21.001   3.854  1.00  0.00    +0.000 C 
ATOM     62  C43 UNL A   1      22.106  20.693   3.570  1.00  0.00    +0.000 C 
ATOM     63  C44 UNL A   1      22.458  19.551   4.299  1.00  0.00    +0.000 C 
ATOM     64  C45 UNL A   1      21.372  19.176   5.074  1.00  0.00    +0.000 C 
ATOM     65  N10 UNL A   1      20.353  20.072   4.789  1.00  0.00    +0.000 N 
ATOM     66  C46 UNL A   1      21.271  18.079   6.003  1.00  0.00    +0.000 C 
ATOM     78  C53 UNL A   1      20.178  17.790   6.751  1.00  0.00    +0.000 C 
ATOM     79  N11 UNL A   1      18.955  18.441   6.793  1.00  0.00    +0.000 N 
ATOM     80  C54 UNL A   1      18.221  17.771   7.647  1.00  0.00    +0.000 C 
ATOM     81  C55 UNL A   1      16.812  18.033   8.092  1.00  0.00    +0.000 C 
ATOM     93  C62 UNL A   1      16.143  19.076   7.567  1.00  0.00    +0.000 C 
ATOM     94  C63 UNL A   1      14.773  19.449   7.900  1.00  0.00    +0.000 C 
ATOM     95  C64 UNL A   1      14.413  20.497   7.145  1.00  0.00    +0.000 C 
ATOM     96  C65 UNL A   1      15.549  20.904   6.315  1.00  0.00    +0.000 C 
ATOM     97  N12 UNL A   1      16.529  19.999   6.627  1.00  0.00    +0.000 N 
ATOM     98  C66 UNL A   1      18.893  16.607   8.237  1.00  0.00    +0.000 C 
ATOM     99  C67 UNL A   1      20.096  16.685   7.685  1.00  0.00    +0.000 C 
ATOM    100  C68 UNL A   1      17.879  23.386   3.159  1.00  0.00    +0.000 C 
ATOM    101  C69 UNL A   1      16.694  23.425   3.753  1.00  0.00    +0.000 C 
ENDROOT
BRANCH   45   44
ATOM    102  C70 UNL A   1      13.388  22.622   4.368  1.00  0.00    +0.000 C 
ATOM    103  C71 UNL A   1      12.236  23.413   4.330  1.00  0.00    +0.000 C 
ATOM    134  H31 UNL A   1      12.680  25.100   7.194  1.00  0.00    +0.000 H 
ATOM     41  C28 UNL A   1      12.004  24.356   5.337  1.00  0.00    +0.000 C 
ATOM     42  C29 UNL A   1      12.898  24.473   6.404  1.00  0.00    +0.000 C 
ATOM     43  C30 UNL A   1      14.081  23.743   6.400  1.00  0.00    +0.000 C 
ATOM    135  H32 UNL A   1      14.781  23.895   7.143  1.00  0.00    +0.000 H 
ATOM     44  C31 UNL A   1      14.331  22.798   5.390  1.00  0.00    +0.000 C 
ATOM    146  H43 UNL A   1      13.544  21.907   3.641  1.00  0.00    +0.000 H 
ATOM    147  H44 UNL A   1      11.557  23.302   3.560  1.00  0.00    +0.000 H 
BRANCH   41    2
ATOM      1  O1  UNL A   1       9.947  25.141   6.143  1.00  0.00    +0.000 O 
ATOM      2  C1  UNL A   1      10.797  25.207   5.259  1.00  0.00    +0.000 C 
BRANCH    2    3
ATOM      3  N1  UNL A   1      10.617  26.047   4.187  1.00  0.00    +0.000 N 
ATOM    104  H1  UNL A   1      10.871  25.676   3.311  1.00  0.00    +0.000 H 
BRANCH    3    4
ATOM    105  H2  UNL A   1      10.762  28.029   4.734  1.00  0.00    +0.000 H 
ATOM    106  H3  UNL A   1       9.118  27.382   4.576  1.00  0.00    +0.000 H 
ATOM      4  C2  UNL A   1      10.104  27.406   4.164  1.00  0.00    +0.000 C 
BRANCH    4    5
ATOM    107  H4  UNL A   1       9.183  28.677   2.748  1.00  0.00    +0.000 H 
ATOM    108  H5  UNL A   1       9.848  27.140   2.109  1.00  0.00    +0.000 H 
ATOM      5  C3  UNL A   1       9.994  27.979   2.757  1.00  0.00    +0.000 C 
BRANCH    5    6
ATOM    110  H7  UNL A   1      12.065  28.254   2.756  1.00  0.00    +0.000 H 
ATOM    109  H6  UNL A   1      11.271  28.570   1.176  1.00  0.00    +0.000 H 
ATOM      6  C4  UNL A   1      11.239  28.696   2.238  1.00  0.00    +0.000 C 
BRANCH    6    7
ATOM    111  H8  UNL A   1      12.337  30.428   2.772  1.00  0.00    +0.000 H 
ATOM      7  C5  UNL A   1      11.320  30.197   2.534  1.00  0.00    +0.000 C 
ATOM    112  H9  UNL A   1      10.630  30.368   3.333  1.00  0.00    +0.000 H 
BRANCH    7    8
ATOM    113  H10 UNL A   1      10.856  32.131   1.794  1.00  0.00    +0.000 H 
ATOM    114  H11 UNL A   1       9.926  30.772   1.080  1.00  0.00    +0.000 H 
ATOM      8  C6  UNL A   1      10.879  31.135   1.404  1.00  0.00    +0.000 C 
BRANCH    8    9
ATOM      9  C7  UNL A   1      11.765  31.139   0.161  1.00  0.00    +0.000 C 
ATOM    115  H12 UNL A   1      11.170  30.865  -0.685  1.00  0.00    +0.000 H 
ATOM    116  H13 UNL A   1      12.560  30.442   0.326  1.00  0.00    +0.000 H 
BRANCH    9   10
ATOM     10  N2  UNL A   1      12.364  32.437  -0.092  1.00  0.00    +0.000 N 
ATOM    117  H14 UNL A   1      13.048  32.725   0.554  1.00  0.00    +0.000 H 
BRANCH   10   11
ATOM     11  C8  UNL A   1      12.102  33.317  -1.112  1.00  0.00    +0.000 C 
ATOM     12  O2  UNL A   1      12.728  34.371  -1.196  1.00  0.00    +0.000 O 
BRANCH   11   13
ATOM     13  C9  UNL A   1      11.095  32.992  -2.144  1.00  0.00    +0.000 C 
ATOM     14  C10 UNL A   1       9.760  33.290  -1.833  1.00  0.00    +0.000 C 
ATOM     15  C11 UNL A   1       8.752  33.015  -2.754  1.00  0.00    +0.000 C 
ATOM     16  C12 UNL A   1       9.077  32.451  -3.983  1.00  0.00    +0.000 C 
ATOM     17  C13 UNL A   1      10.407  32.137  -4.286  1.00  0.00    +0.000 C 
ATOM     18  C14 UNL A   1      11.438  32.373  -3.363  1.00  0.00    +0.000 C 
ATOM    118  H15 UNL A   1       9.525  33.713  -0.922  1.00  0.00    +0.000 H 
ATOM    119  H16 UNL A   1       7.769  33.230  -2.525  1.00  0.00    +0.000 H 
ATOM    120  H17 UNL A   1       8.334  32.261  -4.674  1.00  0.00    +0.000 H 
ATOM    121  H18 UNL A   1      10.633  31.725  -5.204  1.00  0.00    +0.000 H 
BRANCH   18   19
ATOM    122  H19 UNL A   1      13.318  32.618  -4.123  1.00  0.00    +0.000 H 
ATOM     19  N3  UNL A   1      12.768  31.976  -3.620  1.00  0.00    +0.000 N 
BRANCH   19   20
ATOM     40  N8  UNL A   1      14.401  30.914  -2.385  1.00  0.00    +0.000 N 
ATOM     20  C15 UNL A   1      13.402  30.791  -3.251  1.00  0.00    +0.000 C 
ATOM     21  N4  UNL A   1      13.015  29.642  -3.780  1.00  0.00    +0.000 N 
ATOM     22  C16 UNL A   1      13.728  28.606  -3.372  1.00  0.00    +0.000 C 
ATOM     23 Cl1  UNL A   1      13.282  27.089  -4.021  1.00  0.00    +0.000 Cl
ATOM     24  N5  UNL A   1      14.724  28.600  -2.507  1.00  0.00    +0.000 N 
ATOM     25  C17 UNL A   1      15.016  29.793  -2.017  1.00  0.00    +0.000 C 
BRANCH   25   26
ATOM     26  N6  UNL A   1      15.964  29.943  -0.998  1.00  0.00    +0.000 N 
ATOM    123  H20 UNL A   1      15.631  30.167  -0.100  1.00  0.00    +0.000 H 
BRANCH   26   27
ATOM    132  H29 UNL A   1      19.648  27.728  -2.459  1.00  0.00    +0.000 H 
ATOM    133  H30 UNL A   1      17.255  27.981  -2.213  1.00  0.00    +0.000 H 
ATOM     38  C26 UNL A   1      19.270  28.531  -1.931  1.00  0.00    +0.000 C 
ATOM     39  C27 UNL A   1      17.887  28.692  -1.812  1.00  0.00    +0.000 C 
ATOM    124  H21 UNL A   1      17.847  31.538  -0.068  1.00  0.00    +0.000 H 
ATOM    125  H22 UNL A   1      20.244  31.211  -0.188  1.00  0.00    +0.000 H 
ATOM     27  C18 UNL A   1      17.351  29.800  -1.155  1.00  0.00    +0.000 C 
ATOM     28  C19 UNL A   1      18.227  30.719  -0.566  1.00  0.00    +0.000 C 
ATOM     29  C20 UNL A   1      19.612  30.536  -0.647  1.00  0.00    +0.000 C 
ATOM     30  C21 UNL A   1      20.150  29.447  -1.344  1.00  0.00    +0.000 C 
BRANCH   30   31
ATOM     33  C23 UNL A   1      23.738  28.824  -0.281  1.00  0.00    +0.000 C 
ATOM    129  H26 UNL A   1      24.038  29.852  -0.315  1.00  0.00    +0.000 H 
ATOM     35  C24 UNL A   1      23.704  28.807  -2.609  1.00  0.00    +0.000 C 
ATOM     36  C25 UNL A   1      22.210  29.176  -2.662  1.00  0.00    +0.000 C 
ATOM     37  O4  UNL A   1      21.697  29.473  -3.742  1.00  0.00    +0.000 O 
ATOM     34  O3  UNL A   1      24.197  28.154  -1.451  1.00  0.00    +0.000 O 
ATOM    130  H27 UNL A   1      23.901  28.165  -3.442  1.00  0.00    +0.000 H 
ATOM    131  H28 UNL A   1      24.208  29.751  -2.612  1.00  0.00    +0.000 H 
ATOM    127  H24 UNL A   1      21.898  29.330   0.613  1.00  0.00    +0.000 H 
ATOM    128  H25 UNL A   1      24.162  28.362   0.586  1.00  0.00    +0.000 H 
ATOM    126  H23 UNL A   1      21.943  27.708  -0.103  1.00  0.00    +0.000 H 
ATOM     31  N7  UNL A   1      21.563  29.266  -1.420  1.00  0.00    +0.000 N 
ATOM     32  C22 UNL A   1      22.219  28.735  -0.217  1.00  0.00    +0.000 C 
ENDBRANCH   30   31
ENDBRANCH   26   27
ENDBRANCH   25   26
ENDBRANCH   19   20
ENDBRANCH   18   19
ENDBRANCH   11   13
ENDBRANCH   10   11
ENDBRANCH    9   10
ENDBRANCH    8    9
ENDBRANCH    7    8
ENDBRANCH    6    7
ENDBRANCH    5    6
ENDBRANCH    4    5
ENDBRANCH    3    4
ENDBRANCH    2    3
ENDBRANCH   41    2
ENDBRANCH   45   44
BRANCH   49   50
ATOM     50  C36 UNL A   1      20.580  22.942   2.259  1.00  0.00    +0.000 C 
ATOM     51  C37 UNL A   1      20.275  22.778   0.899  1.00  0.00    +0.000 C 
ATOM     52  F1  UNL A   1      19.476  21.777   0.502  1.00  0.00    +0.000 F 
ATOM     53  C38 UNL A   1      20.814  23.630  -0.064  1.00  0.00    +0.000 C 
ATOM     54  F2  UNL A   1      20.535  23.434  -1.360  1.00  0.00    +0.000 F 
ATOM     55  C39 UNL A   1      21.641  24.676   0.315  1.00  0.00    +0.000 C 
ATOM     56  F3  UNL A   1      22.148  25.502  -0.610  1.00  0.00    +0.000 F 
ATOM     57  C40 UNL A   1      21.945  24.865   1.654  1.00  0.00    +0.000 C 
ATOM     58  F4  UNL A   1      22.734  25.884   2.025  1.00  0.00    +0.000 F 
ATOM     59  C41 UNL A   1      21.429  24.001   2.616  1.00  0.00    +0.000 C 
ATOM     60  F5  UNL A   1      21.745  24.206   3.904  1.00  0.00    +0.000 F 
ENDBRANCH   49   50
BRANCH   66   67
ATOM     67  C47 UNL A   1      22.468  17.194   6.180  1.00  0.00    +0.000 C 
ATOM     68  C48 UNL A   1      23.458  17.481   7.132  1.00  0.00    +0.000 C 
ATOM     69  F6  UNL A   1      23.369  18.589   7.884  1.00  0.00    +0.000 F 
ATOM     70  C49 UNL A   1      24.567  16.653   7.281  1.00  0.00    +0.000 C 
ATOM     71  F7  UNL A   1      25.525  16.974   8.162  1.00  0.00    +0.000 F 
ATOM     72  C50 UNL A   1      24.691  15.509   6.508  1.00  0.00    +0.000 C 
ATOM     73  F8  UNL A   1      25.759  14.713   6.654  1.00  0.00    +0.000 F 
ATOM     74  C51 UNL A   1      23.714  15.195   5.575  1.00  0.00    +0.000 C 
ATOM     75  F9  UNL A   1      23.828  14.085   4.833  1.00  0.00    +0.000 F 
ATOM     76  C52 UNL A   1      22.617  16.034   5.404  1.00  0.00    +0.000 C 
ATOM     77  F10 UNL A   1      21.696  15.716   4.482  1.00  0.00    +0.000 F 
ENDBRANCH   66   67
BRANCH   81   82
ATOM     82  C56 UNL A   1      16.146  17.166   9.096  1.00  0.00    +0.000 C 
ATOM     83  C57 UNL A   1      16.058  17.554  10.440  1.00  0.00    +0.000 C 
ATOM     84  F11 UNL A   1      16.615  18.707  10.841  1.00  0.00    +0.000 F 
ATOM     85  C58 UNL A   1      15.427  16.746  11.382  1.00  0.00    +0.000 C 
ATOM     86  F12 UNL A   1      15.388  17.122  12.667  1.00  0.00    +0.000 F 
ATOM     87  C59 UNL A   1      14.846  15.547  10.992  1.00  0.00    +0.000 C 
ATOM     88  F13 UNL A   1      14.228  14.775  11.898  1.00  0.00    +0.000 F 
ATOM     89  C60 UNL A   1      14.909  15.149   9.666  1.00  0.00    +0.000 C 
ATOM     90  F14 UNL A   1      14.334  14.001   9.283  1.00  0.00    +0.000 F 
ATOM     91  C61 UNL A   1      15.566  15.942   8.730  1.00  0.00    +0.000 C 
ATOM     92  F15 UNL A   1      15.619  15.530   7.455  1.00  0.00    +0.000 F 
ENDBRANCH   81   82
TORSDOF 20
ENDMDL
MODEL 7
REMARK VINA RESULT:      -8.2      4.159     10.496
ROOT
ATOM    136  H33 UNL A   1      14.827  52.683   8.805  1.00  0.00    +0.000 H 
ATOM    137  H34 UNL A   1      13.905  55.084   8.376  1.00  0.00    +0.000 H 
ATOM    138  H35 UNL A   1      14.948  53.420   4.731  1.00  0.00    +0.000 H 
ATOM    139  H36 UNL A   1      15.662  54.002  -1.577  1.00  0.00    +0.000 H 
ATOM    140  H37 UNL A   1      16.364  51.594  -1.181  1.00  0.00    +0.000 H 
ATOM    141  H38 UNL A   1      15.357  53.240   2.500  1.00  0.00    +0.000 H 
ATOM    142  H39 UNL A   1      13.666  57.867   1.509  1.00  0.00    +0.000 H 
ATOM    143  H40 UNL A   1      13.357  58.152   4.034  1.00  0.00    +0.000 H 
ATOM    144  H41 UNL A   1      16.485  48.717   5.581  1.00  0.00    +0.000 H 
ATOM    145  H42 UNL A   1      17.060  48.504   3.094  1.00  0.00    +0.000 H 
ATOM     45  C32 UNL A   1      16.366  50.804   1.554  1.00  0.00    +0.000 C 
ATOM     46  C33 UNL A   1      16.236  50.616   3.038  1.00  0.00    +0.000 C 
ATOM     47  N9  UNL A   1      15.790  51.456   3.939  1.00  0.00    +0.000 N 
ATOM     48  C34 UNL A   1      15.858  50.784   5.153  1.00  0.00    +0.000 C 
ATOM     49  C35 UNL A   1      15.534  51.240   6.387  1.00  0.00    +0.000 C 
ATOM     61  C42 UNL A   1      15.045  52.568   6.662  1.00  0.00    +0.000 C 
ATOM     62  C43 UNL A   1      14.727  53.136   7.884  1.00  0.00    +0.000 C 
ATOM     63  C44 UNL A   1      14.248  54.431   7.655  1.00  0.00    +0.000 C 
ATOM     64  C45 UNL A   1      14.311  54.687   6.295  1.00  0.00    +0.000 C 
ATOM     65  N10 UNL A   1      14.799  53.535   5.697  1.00  0.00    +0.000 N 
ATOM     66  C46 UNL A   1      13.950  55.892   5.592  1.00  0.00    +0.000 C 
ATOM     78  C53 UNL A   1      14.067  56.079   4.254  1.00  0.00    +0.000 C 
ATOM     79  N11 UNL A   1      14.529  55.197   3.289  1.00  0.00    +0.000 N 
ATOM     80  C54 UNL A   1      14.425  55.829   2.146  1.00  0.00    +0.000 C 
ATOM     81  C55 UNL A   1      14.790  55.358   0.769  1.00  0.00    +0.000 C 
ATOM     93  C62 UNL A   1      15.284  54.117   0.612  1.00  0.00    +0.000 C 
ATOM     94  C63 UNL A   1      15.679  53.525  -0.662  1.00  0.00    +0.000 C 
ATOM     95  C64 UNL A   1      16.066  52.259  -0.450  1.00  0.00    +0.000 C 
ATOM     96  C65 UNL A   1      16.001  51.970   0.984  1.00  0.00    +0.000 C 
ATOM     97  N12 UNL A   1      15.519  53.128   1.535  1.00  0.00    +0.000 N 
ATOM     98  C66 UNL A   1      13.870  57.184   2.255  1.00  0.00    +0.000 C 
ATOM     99  C67 UNL A   1      13.704  57.300   3.564  1.00  0.00    +0.000 C 
ATOM    100  C68 UNL A   1      16.364  49.457   4.871  1.00  0.00    +0.000 C 
ATOM    101  C69 UNL A   1      16.652  49.315   3.584  1.00  0.00    +0.000 C 
ENDROOT
BRANCH   45   44
ATOM    102  C70 UNL A   1      16.082  48.766   0.104  1.00  0.00    +0.000 C 
ATOM    103  C71 UNL A   1      16.621  47.783  -0.731  1.00  0.00    +0.000 C 
ATOM    134  H31 UNL A   1      19.795  48.863  -0.808  1.00  0.00    +0.000 H 
ATOM     41  C28 UNL A   1      17.989  47.790  -1.023  1.00  0.00    +0.000 C 
ATOM     42  C29 UNL A   1      18.806  48.803  -0.517  1.00  0.00    +0.000 C 
ATOM     43  C30 UNL A   1      18.286  49.733   0.376  1.00  0.00    +0.000 C 
ATOM    135  H32 UNL A   1      18.910  50.427   0.817  1.00  0.00    +0.000 H 
ATOM     44  C31 UNL A   1      16.914  49.733   0.684  1.00  0.00    +0.000 C 
ATOM    146  H43 UNL A   1      15.068  48.778   0.295  1.00  0.00    +0.000 H 
ATOM    147  H44 UNL A   1      16.010  47.054  -1.134  1.00  0.00    +0.000 H 
BRANCH   41    2
ATOM      1  O1  UNL A   1      19.745  46.463  -1.831  1.00  0.00    +0.000 O 
ATOM      2  C1  UNL A   1      18.545  46.720  -1.881  1.00  0.00    +0.000 C 
BRANCH    2    3
ATOM      3  N1  UNL A   1      17.726  46.039  -2.747  1.00  0.00    +0.000 N 
ATOM    104  H1  UNL A   1      16.857  45.760  -2.378  1.00  0.00    +0.000 H 
BRANCH    3    4
ATOM    105  H2  UNL A   1      17.152  45.053  -4.463  1.00  0.00    +0.000 H 
ATOM    106  H3  UNL A   1      18.899  45.161  -4.174  1.00  0.00    +0.000 H 
ATOM      4  C2  UNL A   1      17.960  45.673  -4.134  1.00  0.00    +0.000 C 
BRANCH    4    5
ATOM    107  H4  UNL A   1      19.071  47.222  -5.047  1.00  0.00    +0.000 H 
ATOM    108  H5  UNL A   1      17.353  47.591  -4.691  1.00  0.00    +0.000 H 
ATOM      5  C3  UNL A   1      18.058  46.876  -5.062  1.00  0.00    +0.000 C 
BRANCH    5    6
ATOM    110  H7  UNL A   1      18.258  45.783  -6.830  1.00  0.00    +0.000 H 
ATOM    109  H6  UNL A   1      16.614  46.448  -6.548  1.00  0.00    +0.000 H 
ATOM      6  C4  UNL A   1      17.670  46.620  -6.516  1.00  0.00    +0.000 C 
BRANCH    6    7
ATOM    111  H8  UNL A   1      18.405  47.299  -8.384  1.00  0.00    +0.000 H 
ATOM      7  C5  UNL A   1      17.991  47.746  -7.504  1.00  0.00    +0.000 C 
ATOM    112  H9  UNL A   1      18.660  48.399  -6.985  1.00  0.00    +0.000 H 
BRANCH    7    8
ATOM    113  H10 UNL A   1      16.620  48.431  -8.971  1.00  0.00    +0.000 H 
ATOM    114  H11 UNL A   1      17.110  49.632  -7.730  1.00  0.00    +0.000 H 
ATOM      8  C6  UNL A   1      16.812  48.625  -7.937  1.00  0.00    +0.000 C 
BRANCH    8    9
ATOM      9  C7  UNL A   1      15.510  48.412  -7.170  1.00  0.00    +0.000 C 
ATOM    115  H12 UNL A   1      15.572  47.486  -6.638  1.00  0.00    +0.000 H 
ATOM    116  H13 UNL A   1      14.711  48.404  -7.881  1.00  0.00    +0.000 H 
BRANCH    9   10
ATOM     10  N2  UNL A   1      15.243  49.477  -6.219  1.00  0.00    +0.000 N 
ATOM    117  H14 UNL A   1      14.746  50.250  -6.572  1.00  0.00    +0.000 H 
BRANCH   10   11
ATOM     11  C8  UNL A   1      15.593  49.550  -4.894  1.00  0.00    +0.000 C 
ATOM     12  O2  UNL A   1      15.184  48.706  -4.100  1.00  0.00    +0.000 O 
BRANCH   11   13
ATOM     13  C9  UNL A   1      16.493  50.618  -4.412  1.00  0.00    +0.000 C 
ATOM     14  C10 UNL A   1      17.696  50.205  -3.822  1.00  0.00    +0.000 C 
ATOM     15  C11 UNL A   1      18.599  51.153  -3.345  1.00  0.00    +0.000 C 
ATOM     16  C12 UNL A   1      18.303  52.507  -3.463  1.00  0.00    +0.000 C 
ATOM     17  C13 UNL A   1      17.095  52.918  -4.036  1.00  0.00    +0.000 C 
ATOM     18  C14 UNL A   1      16.153  51.984  -4.495  1.00  0.00    +0.000 C 
ATOM    118  H15 UNL A   1      17.913  49.200  -3.740  1.00  0.00    +0.000 H 
ATOM    119  H16 UNL A   1      19.482  50.851  -2.906  1.00  0.00    +0.000 H 
ATOM    120  H17 UNL A   1      18.978  53.212  -3.125  1.00  0.00    +0.000 H 
ATOM    121  H18 UNL A   1      16.893  53.926  -4.123  1.00  0.00    +0.000 H 
BRANCH   18   19
ATOM    122  H19 UNL A   1      14.900  52.862  -5.849  1.00  0.00    +0.000 H 
ATOM     19  N3  UNL A   1      14.892  52.384  -4.989  1.00  0.00    +0.000 N 
BRANCH   19   20
ATOM     40  N8  UNL A   1      13.571  52.349  -3.099  1.00  0.00    +0.000 N 
ATOM     20  C15 UNL A   1      13.638  52.187  -4.415  1.00  0.00    +0.000 C 
ATOM     21  N4  UNL A   1      12.613  51.834  -5.173  1.00  0.00    +0.000 N 
ATOM     22  C16 UNL A   1      11.495  51.642  -4.494  1.00  0.00    +0.000 C 
ATOM     23 Cl1  UNL A   1      10.130  51.180  -5.412  1.00  0.00    +0.000 Cl
ATOM     24  N5  UNL A   1      11.301  51.790  -3.196  1.00  0.00    +0.000 N 
ATOM     25  C17 UNL A   1      12.381  52.169  -2.533  1.00  0.00    +0.000 C 
BRANCH   25   26
ATOM     26  N6  UNL A   1      12.316  52.488  -1.172  1.00  0.00    +0.000 N 
ATOM    123  H20 UNL A   1      12.477  53.426  -0.918  1.00  0.00    +0.000 H 
BRANCH   26   27
ATOM    132  H29 UNL A   1      13.112  48.671   1.152  1.00  0.00    +0.000 H 
ATOM    133  H30 UNL A   1      13.604  50.249  -0.614  1.00  0.00    +0.000 H 
ATOM     38  C26 UNL A   1      12.507  49.498   1.022  1.00  0.00    +0.000 C 
ATOM     39  C27 UNL A   1      12.808  50.423   0.018  1.00  0.00    +0.000 C 
ATOM    124  H21 UNL A   1      10.347  52.608   0.580  1.00  0.00    +0.000 H 
ATOM    125  H22 UNL A   1       9.766  50.957   2.255  1.00  0.00    +0.000 H 
ATOM     27  C18 UNL A   1      12.042  51.579  -0.139  1.00  0.00    +0.000 C 
ATOM     28  C19 UNL A   1      10.930  51.765   0.690  1.00  0.00    +0.000 C 
ATOM     29  C20 UNL A   1      10.602  50.817   1.666  1.00  0.00    +0.000 C 
ATOM     30  C21 UNL A   1      11.398  49.679   1.853  1.00  0.00    +0.000 C 
BRANCH   30   31
ATOM     33  C23 UNL A   1       9.473  46.998   3.726  1.00  0.00    +0.000 C 
ATOM    129  H26 UNL A   1       9.066  47.658   4.464  1.00  0.00    +0.000 H 
ATOM     35  C24 UNL A   1      11.548  47.197   4.762  1.00  0.00    +0.000 C 
ATOM     36  C25 UNL A   1      11.969  48.369   3.857  1.00  0.00    +0.000 C 
ATOM     37  O4  UNL A   1      12.997  48.998   4.117  1.00  0.00    +0.000 O 
ATOM     34  O3  UNL A   1      10.576  46.286   4.277  1.00  0.00    +0.000 O 
ATOM    130  H27 UNL A   1      12.431  46.633   4.978  1.00  0.00    +0.000 H 
ATOM    131  H28 UNL A   1      11.074  47.668   5.597  1.00  0.00    +0.000 H 
ATOM    127  H24 UNL A   1       9.126  48.405   2.195  1.00  0.00    +0.000 H 
ATOM    128  H25 UNL A   1       8.718  46.306   3.416  1.00  0.00    +0.000 H 
ATOM    126  H23 UNL A   1      10.278  47.126   1.767  1.00  0.00    +0.000 H 
ATOM     31  N7  UNL A   1      11.055  48.717   2.850  1.00  0.00    +0.000 N 
ATOM     32  C22 UNL A   1       9.949  47.805   2.525  1.00  0.00    +0.000 C 
ENDBRANCH   30   31
ENDBRANCH   26   27
ENDBRANCH   25   26
ENDBRANCH   19   20
ENDBRANCH   18   19
ENDBRANCH   11   13
ENDBRANCH   10   11
ENDBRANCH    9   10
ENDBRANCH    8    9
ENDBRANCH    7    8
ENDBRANCH    6    7
ENDBRANCH    5    6
ENDBRANCH    4    5
ENDBRANCH    3    4
ENDBRANCH    2    3
ENDBRANCH   41    2
ENDBRANCH   45   44
BRANCH   49   50
ATOM     50  C36 UNL A   1      15.683  50.294   7.543  1.00  0.00    +0.000 C 
ATOM     51  C37 UNL A   1      16.829  50.296   8.352  1.00  0.00    +0.000 C 
ATOM     52  F1  UNL A   1      17.857  51.109   8.066  1.00  0.00    +0.000 F 
ATOM     53  C38 UNL A   1      16.934  49.440   9.448  1.00  0.00    +0.000 C 
ATOM     54  F2  UNL A   1      18.053  49.436  10.187  1.00  0.00    +0.000 F 
ATOM     55  C39 UNL A   1      15.888  48.591   9.772  1.00  0.00    +0.000 C 
ATOM     56  F3  UNL A   1      15.985  47.778  10.832  1.00  0.00    +0.000 F 
ATOM     57  C40 UNL A   1      14.741  48.582   8.994  1.00  0.00    +0.000 C 
ATOM     58  F4  UNL A   1      13.721  47.772   9.313  1.00  0.00    +0.000 F 
ATOM     59  C41 UNL A   1      14.642  49.417   7.884  1.00  0.00    +0.000 C 
ATOM     60  F5  UNL A   1      13.521  49.383   7.148  1.00  0.00    +0.000 F 
ENDBRANCH   49   50
BRANCH   66   67
ATOM     67  C47 UNL A   1      13.423  57.044   6.394  1.00  0.00    +0.000 C 
ATOM     68  C48 UNL A   1      12.048  57.218   6.613  1.00  0.00    +0.000 C 
ATOM     69  F6  UNL A   1      11.166  56.365   6.067  1.00  0.00    +0.000 F 
ATOM     70  C49 UNL A   1      11.573  58.295   7.355  1.00  0.00    +0.000 C 
ATOM     71  F7  UNL A   1      10.253  58.469   7.508  1.00  0.00    +0.000 F 
ATOM     72  C50 UNL A   1      12.462  59.198   7.918  1.00  0.00    +0.000 C 
ATOM     73  F8  UNL A   1      12.002  60.234   8.633  1.00  0.00    +0.000 F 
ATOM     74  C51 UNL A   1      13.826  59.034   7.732  1.00  0.00    +0.000 C 
ATOM     75  F9  UNL A   1      14.686  59.900   8.284  1.00  0.00    +0.000 F 
ATOM     76  C52 UNL A   1      14.304  57.973   6.969  1.00  0.00    +0.000 C 
ATOM     77  F10 UNL A   1      15.627  57.848   6.791  1.00  0.00    +0.000 F 
ENDBRANCH   66   67
BRANCH   81   82
ATOM     82  C56 UNL A   1      14.618  56.235  -0.417  1.00  0.00    +0.000 C 
ATOM     83  C57 UNL A   1      13.391  56.305  -1.089  1.00  0.00    +0.000 C 
ATOM     84  F11 UNL A   1      12.362  55.544  -0.687  1.00  0.00    +0.000 F 
ATOM     85  C58 UNL A   1      13.225  57.133  -2.197  1.00  0.00    +0.000 C 
ATOM     86  F12 UNL A   1      12.053  57.155  -2.846  1.00  0.00    +0.000 F 
ATOM     87  C59 UNL A   1      14.275  57.928  -2.635  1.00  0.00    +0.000 C 
ATOM     88  F13 UNL A   1      14.111  58.733  -3.694  1.00  0.00    +0.000 F 
ATOM     89  C60 UNL A   1      15.494  57.884  -1.977  1.00  0.00    +0.000 C 
ATOM     90  F14 UNL A   1      16.505  58.663  -2.386  1.00  0.00    +0.000 F 
ATOM     91  C61 UNL A   1      15.669  57.034  -0.888  1.00  0.00    +0.000 C 
ATOM     92  F15 UNL A   1      16.861  57.007  -0.274  1.00  0.00    +0.000 F 
ENDBRANCH   81   82
TORSDOF 20
ENDMDL
MODEL 8
REMARK VINA RESULT:      -8.2      9.448     15.316
ROOT
ATOM    136  H33 UNL A   1      31.034  65.729   2.297  1.00  0.00    +0.000 H 
ATOM    137  H34 UNL A   1      29.801  67.214   4.049  1.00  0.00    +0.000 H 
ATOM    138  H35 UNL A   1      27.056  64.580   2.413  1.00  0.00    +0.000 H 
ATOM    139  H36 UNL A   1      21.046  62.521   1.894  1.00  0.00    +0.000 H 
ATOM    140  H37 UNL A   1      22.287  60.940   0.342  1.00  0.00    +0.000 H 
ATOM    141  H38 UNL A   1      25.066  63.586   1.939  1.00  0.00    +0.000 H 
ATOM    142  H39 UNL A   1      22.527  66.404   5.235  1.00  0.00    +0.000 H 
ATOM    143  H40 UNL A   1      24.722  67.651   5.659  1.00  0.00    +0.000 H 
ATOM    144  H41 UNL A   1      29.523  61.584  -0.772  1.00  0.00    +0.000 H 
ATOM    145  H42 UNL A   1      27.291  60.506  -1.415  1.00  0.00    +0.000 H 
ATOM     45  C32 UNL A   1      25.066  61.494   0.076  1.00  0.00    +0.000 C 
ATOM     46  C33 UNL A   1      26.495  61.949   0.143  1.00  0.00    +0.000 C 
ATOM     47  N9  UNL A   1      27.026  62.891   0.883  1.00  0.00    +0.000 N 
ATOM     48  C34 UNL A   1      28.382  62.894   0.582  1.00  0.00    +0.000 C 
ATOM     49  C35 UNL A   1      29.351  63.706   1.069  1.00  0.00    +0.000 C 
ATOM     61  C42 UNL A   1      29.125  64.761   2.025  1.00  0.00    +0.000 C 
ATOM     62  C43 UNL A   1      30.036  65.663   2.548  1.00  0.00    +0.000 C 
ATOM     63  C44 UNL A   1      29.370  66.471   3.477  1.00  0.00    +0.000 C 
ATOM     64  C45 UNL A   1      28.034  66.104   3.498  1.00  0.00    +0.000 C 
ATOM     65  N10 UNL A   1      27.898  65.052   2.605  1.00  0.00    +0.000 N 
ATOM     66  C46 UNL A   1      26.962  66.669   4.278  1.00  0.00    +0.000 C 
ATOM     78  C53 UNL A   1      25.667  66.272   4.223  1.00  0.00    +0.000 C 
ATOM     79  N11 UNL A   1      25.093  65.274   3.452  1.00  0.00    +0.000 N 
ATOM     80  C54 UNL A   1      23.823  65.257   3.772  1.00  0.00    +0.000 C 
ATOM     81  C55 UNL A   1      22.725  64.383   3.240  1.00  0.00    +0.000 C 
ATOM     93  C62 UNL A   1      23.020  63.454   2.313  1.00  0.00    +0.000 C 
ATOM     94  C63 UNL A   1      22.062  62.535   1.710  1.00  0.00    +0.000 C 
ATOM     95  C64 UNL A   1      22.714  61.712   0.877  1.00  0.00    +0.000 C 
ATOM     96  C65 UNL A   1      24.130  62.084   0.845  1.00  0.00    +0.000 C 
ATOM     97  N12 UNL A   1      24.221  63.122   1.735  1.00  0.00    +0.000 N 
ATOM     98  C66 UNL A   1      23.447  66.238   4.798  1.00  0.00    +0.000 C 
ATOM     99  C67 UNL A   1      24.600  66.856   5.012  1.00  0.00    +0.000 C 
ATOM    100  C68 UNL A   1      28.599  61.842  -0.390  1.00  0.00    +0.000 C 
ATOM    101  C69 UNL A   1      27.458  61.254  -0.725  1.00  0.00    +0.000 C 
ENDROOT
BRANCH   45   44
ATOM    102  C70 UNL A   1      24.483  59.091  -0.397  1.00  0.00    +0.000 C 
ATOM    103  C71 UNL A   1      24.059  58.094  -1.280  1.00  0.00    +0.000 C 
ATOM    134  H31 UNL A   1      23.514  60.003  -3.983  1.00  0.00    +0.000 H 
ATOM     41  C28 UNL A   1      23.754  58.420  -2.606  1.00  0.00    +0.000 C 
ATOM     42  C29 UNL A   1      23.829  59.748  -3.034  1.00  0.00    +0.000 C 
ATOM     43  C30 UNL A   1      24.326  60.725  -2.178  1.00  0.00    +0.000 C 
ATOM    135  H32 UNL A   1      24.463  61.688  -2.523  1.00  0.00    +0.000 H 
ATOM     44  C31 UNL A   1      24.643  60.410  -0.846  1.00  0.00    +0.000 C 
ATOM    146  H43 UNL A   1      24.679  58.855   0.588  1.00  0.00    +0.000 H 
ATOM    147  H44 UNL A   1      23.969  57.118  -0.955  1.00  0.00    +0.000 H 
BRANCH   41    2
ATOM      1  O1  UNL A   1      23.810  57.306  -4.668  1.00  0.00    +0.000 O 
ATOM      2  C1  UNL A   1      23.341  57.344  -3.533  1.00  0.00    +0.000 C 
BRANCH    2    3
ATOM      3  N1  UNL A   1      22.418  56.410  -3.134  1.00  0.00    +0.000 N 
ATOM    104  H1  UNL A   1      22.737  55.754  -2.473  1.00  0.00    +0.000 H 
BRANCH    3    4
ATOM    105  H2  UNL A   1      20.733  57.136  -4.074  1.00  0.00    +0.000 H 
ATOM    106  H3  UNL A   1      20.452  56.095  -2.666  1.00  0.00    +0.000 H 
ATOM      4  C2  UNL A   1      21.034  56.253  -3.549  1.00  0.00    +0.000 C 
BRANCH    4    5
ATOM    107  H4  UNL A   1      21.674  54.416  -4.377  1.00  0.00    +0.000 H 
ATOM    108  H5  UNL A   1      20.665  55.449  -5.440  1.00  0.00    +0.000 H 
ATOM      5  C3  UNL A   1      20.816  55.051  -4.458  1.00  0.00    +0.000 C 
BRANCH    5    6
ATOM    110  H7  UNL A   1      19.434  54.280  -3.095  1.00  0.00    +0.000 H 
ATOM    109  H6  UNL A   1      18.765  54.602  -4.730  1.00  0.00    +0.000 H 
ATOM      6  C4  UNL A   1      19.577  54.211  -4.153  1.00  0.00    +0.000 C 
BRANCH    6    7
ATOM    111  H8  UNL A   1      20.726  52.491  -4.617  1.00  0.00    +0.000 H 
ATOM      7  C5  UNL A   1      19.691  52.714  -4.459  1.00  0.00    +0.000 C 
ATOM    112  H9  UNL A   1      19.069  52.549  -5.314  1.00  0.00    +0.000 H 
BRANCH    7    8
ATOM    113  H10 UNL A   1      19.111  52.303  -2.460  1.00  0.00    +0.000 H 
ATOM    114  H11 UNL A   1      19.853  50.938  -3.360  1.00  0.00    +0.000 H 
ATOM      8  C6  UNL A   1      19.167  51.760  -3.380  1.00  0.00    +0.000 C 
BRANCH    8    9
ATOM      9  C7  UNL A   1      17.794  51.147  -3.646  1.00  0.00    +0.000 C 
ATOM    115  H12 UNL A   1      17.281  51.754  -4.363  1.00  0.00    +0.000 H 
ATOM    116  H13 UNL A   1      17.269  51.108  -2.715  1.00  0.00    +0.000 H 
BRANCH    9   10
ATOM     10  N2  UNL A   1      17.880  49.792  -4.161  1.00  0.00    +0.000 N 
ATOM    117  H14 UNL A   1      18.429  49.677  -4.970  1.00  0.00    +0.000 H 
BRANCH   10   11
ATOM     11  C8  UNL A   1      17.298  48.650  -3.670  1.00  0.00    +0.000 C 
ATOM     12  O2  UNL A   1      16.115  48.412  -3.899  1.00  0.00    +0.000 O 
BRANCH   11   13
ATOM     13  C9  UNL A   1      18.093  47.677  -2.893  1.00  0.00    +0.000 C 
ATOM     14  C10 UNL A   1      18.942  46.834  -3.625  1.00  0.00    +0.000 C 
ATOM     15  C11 UNL A   1      19.726  45.891  -2.964  1.00  0.00    +0.000 C 
ATOM     16  C12 UNL A   1      19.666  45.794  -1.578  1.00  0.00    +0.000 C 
ATOM     17  C13 UNL A   1      18.806  46.624  -0.850  1.00  0.00    +0.000 C 
ATOM     18  C14 UNL A   1      17.981  47.560  -1.493  1.00  0.00    +0.000 C 
ATOM    118  H15 UNL A   1      18.987  46.912  -4.653  1.00  0.00    +0.000 H 
ATOM    119  H16 UNL A   1      20.348  45.267  -3.502  1.00  0.00    +0.000 H 
ATOM    120  H17 UNL A   1      20.258  45.108  -1.084  1.00  0.00    +0.000 H 
ATOM    121  H18 UNL A   1      18.778  46.545   0.179  1.00  0.00    +0.000 H 
BRANCH   18   19
ATOM    122  H19 UNL A   1      16.096  48.160  -0.982  1.00  0.00    +0.000 H 
ATOM     19  N3  UNL A   1      17.043  48.335  -0.778  1.00  0.00    +0.000 N 
BRANCH   19   20
ATOM     40  N8  UNL A   1      17.177  48.927   1.447  1.00  0.00    +0.000 N 
ATOM     20  C15 UNL A   1      17.285  49.316   0.182  1.00  0.00    +0.000 C 
ATOM     21  N4  UNL A   1      17.574  50.551  -0.193  1.00  0.00    +0.000 N 
ATOM     22  C16 UNL A   1      17.740  51.385   0.819  1.00  0.00    +0.000 C 
ATOM     23 Cl1  UNL A   1      18.112  53.001   0.404  1.00  0.00    +0.000 Cl
ATOM     24  N5  UNL A   1      17.678  51.114   2.109  1.00  0.00    +0.000 N 
ATOM     25  C17 UNL A   1      17.409  49.848   2.379  1.00  0.00    +0.000 C 
BRANCH   25   26
ATOM     26  N6  UNL A   1      17.429  49.371   3.695  1.00  0.00    +0.000 N 
ATOM    123  H20 UNL A   1      18.278  49.442   4.189  1.00  0.00    +0.000 H 
BRANCH   26   27
ATOM    132  H29 UNL A   1      13.721  49.611   6.301  1.00  0.00    +0.000 H 
ATOM    133  H30 UNL A   1      15.585  50.609   5.127  1.00  0.00    +0.000 H 
ATOM     38  C26 UNL A   1      14.392  49.007   5.800  1.00  0.00    +0.000 C 
ATOM     39  C27 UNL A   1      15.454  49.586   5.099  1.00  0.00    +0.000 C 
ATOM    124  H21 UNL A   1      16.830  46.808   3.861  1.00  0.00    +0.000 H 
ATOM    125  H22 UNL A   1      15.049  45.795   5.154  1.00  0.00    +0.000 H 
ATOM     27  C18 UNL A   1      16.339  48.796   4.364  1.00  0.00    +0.000 C 
ATOM     28  C19 UNL A   1      16.178  47.407   4.390  1.00  0.00    +0.000 C 
ATOM     29  C20 UNL A   1      15.141  46.823   5.127  1.00  0.00    +0.000 C 
ATOM     30  C21 UNL A   1      14.226  47.619   5.828  1.00  0.00    +0.000 C 
BRANCH   30   31
ATOM     33  C23 UNL A   1      10.898  45.995   6.656  1.00  0.00    +0.000 C 
ATOM    129  H26 UNL A   1      10.445  46.880   7.052  1.00  0.00    +0.000 H 
ATOM     35  C24 UNL A   1      12.214  45.869   8.572  1.00  0.00    +0.000 C 
ATOM     36  C25 UNL A   1      13.359  46.669   7.926  1.00  0.00    +0.000 C 
ATOM     37  O4  UNL A   1      14.300  47.052   8.625  1.00  0.00    +0.000 O 
ATOM     34  O3  UNL A   1      11.327  45.158   7.725  1.00  0.00    +0.000 O 
ATOM    130  H27 UNL A   1      12.660  45.156   9.233  1.00  0.00    +0.000 H 
ATOM    131  H28 UNL A   1      11.598  46.615   9.030  1.00  0.00    +0.000 H 
ATOM    127  H24 UNL A   1      11.769  47.079   5.072  1.00  0.00    +0.000 H 
ATOM    128  H25 UNL A   1      10.184  45.471   6.055  1.00  0.00    +0.000 H 
ATOM    126  H23 UNL A   1      12.493  45.485   5.353  1.00  0.00    +0.000 H 
ATOM     31  N7  UNL A   1      13.173  47.015   6.579  1.00  0.00    +0.000 N 
ATOM     32  C22 UNL A   1      12.103  46.373   5.804  1.00  0.00    +0.000 C 
ENDBRANCH   30   31
ENDBRANCH   26   27
ENDBRANCH   25   26
ENDBRANCH   19   20
ENDBRANCH   18   19
ENDBRANCH   11   13
ENDBRANCH   10   11
ENDBRANCH    9   10
ENDBRANCH    8    9
ENDBRANCH    7    8
ENDBRANCH    6    7
ENDBRANCH    5    6
ENDBRANCH    4    5
ENDBRANCH    3    4
ENDBRANCH    2    3
ENDBRANCH   41    2
ENDBRANCH   45   44
BRANCH   49   50
ATOM     50  C36 UNL A   1      30.756  63.484   0.589  1.00  0.00    +0.000 C 
ATOM     51  C37 UNL A   1      31.244  64.103  -0.573  1.00  0.00    +0.000 C 
ATOM     52  F1  UNL A   1      30.434  64.864  -1.323  1.00  0.00    +0.000 F 
ATOM     53  C38 UNL A   1      32.563  63.920  -0.982  1.00  0.00    +0.000 C 
ATOM     54  F2  UNL A   1      32.998  64.494  -2.113  1.00  0.00    +0.000 F 
ATOM     55  C39 UNL A   1      33.426  63.142  -0.225  1.00  0.00    +0.000 C 
ATOM     56  F3  UNL A   1      34.698  62.977  -0.614  1.00  0.00    +0.000 F 
ATOM     57  C40 UNL A   1      32.969  62.532   0.932  1.00  0.00    +0.000 C 
ATOM     58  F4  UNL A   1      33.806  61.790   1.673  1.00  0.00    +0.000 F 
ATOM     59  C41 UNL A   1      31.645  62.692   1.331  1.00  0.00    +0.000 C 
ATOM     60  F5  UNL A   1      31.232  62.085   2.454  1.00  0.00    +0.000 F 
ENDBRANCH   49   50
BRANCH   66   67
ATOM     67  C47 UNL A   1      27.288  67.798   5.210  1.00  0.00    +0.000 C 
ATOM     68  C48 UNL A   1      27.370  69.122   4.757  1.00  0.00    +0.000 C 
ATOM     69  F6  UNL A   1      27.193  69.402   3.456  1.00  0.00    +0.000 F 
ATOM     70  C49 UNL A   1      27.679  70.159   5.632  1.00  0.00    +0.000 C 
ATOM     71  F7  UNL A   1      27.801  71.411   5.168  1.00  0.00    +0.000 F 
ATOM     72  C50 UNL A   1      27.879  69.896   6.979  1.00  0.00    +0.000 C 
ATOM     73  F8  UNL A   1      28.176  70.896   7.820  1.00  0.00    +0.000 F 
ATOM     74  C51 UNL A   1      27.784  68.597   7.452  1.00  0.00    +0.000 C 
ATOM     75  F9  UNL A   1      27.968  68.342   8.755  1.00  0.00    +0.000 F 
ATOM     76  C52 UNL A   1      27.501  67.554   6.575  1.00  0.00    +0.000 C 
ATOM     77  F10 UNL A   1      27.431  66.304   7.057  1.00  0.00    +0.000 F 
ENDBRANCH   66   67
BRANCH   81   82
ATOM     82  C56 UNL A   1      21.326  64.526   3.715  1.00  0.00    +0.000 C 
ATOM     83  C57 UNL A   1      20.366  65.189   2.940  1.00  0.00    +0.000 C 
ATOM     84  F11 UNL A   1      20.714  65.739   1.767  1.00  0.00    +0.000 F 
ATOM     85  C58 UNL A   1      19.050  65.317   3.381  1.00  0.00    +0.000 C 
ATOM     86  F12 UNL A   1      18.159  65.988   2.639  1.00  0.00    +0.000 F 
ATOM     87  C59 UNL A   1      18.665  64.759   4.592  1.00  0.00    +0.000 C 
ATOM     88  F13 UNL A   1      17.397  64.873   5.010  1.00  0.00    +0.000 F 
ATOM     89  C60 UNL A   1      19.596  64.088   5.369  1.00  0.00    +0.000 C 
ATOM     90  F14 UNL A   1      19.224  63.532   6.531  1.00  0.00    +0.000 F 
ATOM     91  C61 UNL A   1      20.917  63.986   4.943  1.00  0.00    +0.000 C 
ATOM     92  F15 UNL A   1      21.799  63.337   5.718  1.00  0.00    +0.000 F 
ENDBRANCH   81   82
TORSDOF 20
ENDMDL
MODEL 9
REMARK VINA RESULT:      -8.1      4.150      8.263
ROOT
ATOM    136  H33 UNL A   1      13.167  46.505   2.758  1.00  0.00    +0.000 H 
ATOM    137  H34 UNL A   1      14.847  46.751   0.779  1.00  0.00    +0.000 H 
ATOM    138  H35 UNL A   1      14.502  50.425   2.658  1.00  0.00    +0.000 H 
ATOM    139  H36 UNL A   1      15.924  56.634   2.896  1.00  0.00    +0.000 H 
ATOM    140  H37 UNL A   1      14.451  56.346   4.944  1.00  0.00    +0.000 H 
ATOM    141  H38 UNL A   1      14.748  52.649   3.068  1.00  0.00    +0.000 H 
ATOM    142  H39 UNL A   1      17.958  53.307  -0.742  1.00  0.00    +0.000 H 
ATOM    143  H40 UNL A   1      17.563  50.846  -1.325  1.00  0.00    +0.000 H 
ATOM    144  H41 UNL A   1      11.451  49.845   6.602  1.00  0.00    +0.000 H 
ATOM    145  H42 UNL A   1      11.614  52.363   7.041  1.00  0.00    +0.000 H 
ATOM     45  C32 UNL A   1      13.392  53.724   5.271  1.00  0.00    +0.000 C 
ATOM     46  C33 UNL A   1      13.008  52.273   5.254  1.00  0.00    +0.000 C 
ATOM     47  N9  UNL A   1      13.391  51.328   4.431  1.00  0.00    +0.000 N 
ATOM     48  C34 UNL A   1      12.764  50.167   4.864  1.00  0.00    +0.000 C 
ATOM     49  C35 UNL A   1      12.823  48.926   4.323  1.00  0.00    +0.000 C 
ATOM     61  C42 UNL A   1      13.580  48.587   3.144  1.00  0.00    +0.000 C 
ATOM     62  C43 UNL A   1      13.670  47.367   2.495  1.00  0.00    +0.000 C 
ATOM     63  C44 UNL A   1      14.559  47.503   1.423  1.00  0.00    +0.000 C 
ATOM     64  C45 UNL A   1      14.987  48.820   1.375  1.00  0.00    +0.000 C 
ATOM     65  N10 UNL A   1      14.381  49.474   2.437  1.00  0.00    +0.000 N 
ATOM     66  C46 UNL A   1      15.884  49.436   0.431  1.00  0.00    +0.000 C 
ATOM     78  C53 UNL A   1      16.236  50.746   0.430  1.00  0.00    +0.000 C 
ATOM     79  N11 UNL A   1      15.844  51.753   1.299  1.00  0.00    +0.000 N 
ATOM     80  C54 UNL A   1      16.470  52.833   0.901  1.00  0.00    +0.000 C 
ATOM     81  C55 UNL A   1      16.413  54.221   1.468  1.00  0.00    +0.000 C 
ATOM     93  C62 UNL A   1      15.643  54.456   2.546  1.00  0.00    +0.000 C 
ATOM     94  C63 UNL A   1      15.492  55.749   3.205  1.00  0.00    +0.000 C 
ATOM     95  C64 UNL A   1      14.699  55.600   4.275  1.00  0.00    +0.000 C 
ATOM     96  C65 UNL A   1      14.241  54.211   4.345  1.00  0.00    +0.000 C 
ATOM     97  N12 UNL A   1      14.858  53.604   3.283  1.00  0.00    +0.000 N 
ATOM     98  C66 UNL A   1      17.345  52.630  -0.261  1.00  0.00    +0.000 C 
ATOM     99  C67 UNL A   1      17.136  51.350  -0.531  1.00  0.00    +0.000 C 
ATOM    100  C68 UNL A   1      11.995  50.518   6.040  1.00  0.00    +0.000 C 
ATOM    101  C69 UNL A   1      12.079  51.816   6.300  1.00  0.00    +0.000 C 
ENDROOT
BRANCH   45   44
ATOM    102  C70 UNL A   1      13.555  54.992   7.440  1.00  0.00    +0.000 C 
ATOM    103  C71 UNL A   1      13.021  55.894   8.364  1.00  0.00    +0.000 C 
ATOM    134  H31 UNL A   1      10.242  56.750   6.694  1.00  0.00    +0.000 H 
ATOM     41  C28 UNL A   1      11.784  56.498   8.114  1.00  0.00    +0.000 C 
ATOM     42  C29 UNL A   1      11.106  56.234   6.921  1.00  0.00    +0.000 C 
ATOM     43  C30 UNL A   1      11.599  55.278   6.040  1.00  0.00    +0.000 C 
ATOM    135  H32 UNL A   1      11.053  55.021   5.203  1.00  0.00    +0.000 H 
ATOM     44  C31 UNL A   1      12.837  54.659   6.283  1.00  0.00    +0.000 C 
ATOM    146  H43 UNL A   1      14.481  54.570   7.611  1.00  0.00    +0.000 H 
ATOM    147  H44 UNL A   1      13.538  56.116   9.230  1.00  0.00    +0.000 H 
BRANCH   41    2
ATOM      1  O1  UNL A   1      10.775  58.511   8.767  1.00  0.00    +0.000 O 
ATOM      2  C1  UNL A   1      11.219  57.422   9.122  1.00  0.00    +0.000 C 
BRANCH    2    3
ATOM      3  N1  UNL A   1      11.219  57.074  10.449  1.00  0.00    +0.000 N 
ATOM    104  H1  UNL A   1      12.076  57.191  10.919  1.00  0.00    +0.000 H 
BRANCH    3    4
ATOM    105  H2  UNL A   1       9.277  57.188  11.131  1.00  0.00    +0.000 H 
ATOM    106  H3  UNL A   1      10.467  56.540  12.275  1.00  0.00    +0.000 H 
ATOM      4  C2  UNL A   1      10.130  56.555  11.261  1.00  0.00    +0.000 C 
BRANCH    4    5
ATOM    107  H4  UNL A   1       9.184  55.168   9.976  1.00  0.00    +0.000 H 
ATOM    108  H5  UNL A   1       9.171  54.759  11.721  1.00  0.00    +0.000 H 
ATOM      5  C3  UNL A   1       9.736  55.131  10.892  1.00  0.00    +0.000 C 
BRANCH    5    6
ATOM    110  H7  UNL A   1      10.460  53.177  10.737  1.00  0.00    +0.000 H 
ATOM    109  H6  UNL A   1      11.374  54.388   9.776  1.00  0.00    +0.000 H 
ATOM      6  C4  UNL A   1      10.896  54.154  10.704  1.00  0.00    +0.000 C 
BRANCH    6    7
ATOM    111  H8  UNL A   1      12.076  55.177  12.137  1.00  0.00    +0.000 H 
ATOM      7  C5  UNL A   1      11.967  54.167  11.799  1.00  0.00    +0.000 C 
ATOM    112  H9  UNL A   1      12.844  53.757  11.345  1.00  0.00    +0.000 H 
BRANCH    7    8
ATOM    113  H10 UNL A   1      10.640  53.315  13.218  1.00  0.00    +0.000 H 
ATOM    114  H11 UNL A   1      12.288  53.702  13.816  1.00  0.00    +0.000 H 
ATOM      8  C6  UNL A   1      11.692  53.292  13.026  1.00  0.00    +0.000 C 
BRANCH    8    9
ATOM      9  C7  UNL A   1      12.114  51.829  12.906  1.00  0.00    +0.000 C 
ATOM    115  H12 UNL A   1      11.243  51.213  12.992  1.00  0.00    +0.000 H 
ATOM    116  H13 UNL A   1      12.817  51.628  13.687  1.00  0.00    +0.000 H 
BRANCH    9   10
ATOM     10  N2  UNL A   1      12.766  51.540  11.641  1.00  0.00    +0.000 N 
ATOM    117  H14 UNL A   1      12.180  51.539  10.850  1.00  0.00    +0.000 H 
BRANCH   10   11
ATOM     11  C8  UNL A   1      14.090  51.269  11.402  1.00  0.00    +0.000 C 
ATOM     12  O2  UNL A   1      14.885  51.201  12.336  1.00  0.00    +0.000 O 
BRANCH   11   13
ATOM     13  C9  UNL A   1      14.568  51.017  10.026  1.00  0.00    +0.000 C 
ATOM     14  C10 UNL A   1      15.087  52.118   9.331  1.00  0.00    +0.000 C 
ATOM     15  C11 UNL A   1      15.559  51.961   8.030  1.00  0.00    +0.000 C 
ATOM     16  C12 UNL A   1      15.519  50.708   7.429  1.00  0.00    +0.000 C 
ATOM     17  C13 UNL A   1      14.984  49.613   8.117  1.00  0.00    +0.000 C 
ATOM     18  C14 UNL A   1      14.471  49.749   9.416  1.00  0.00    +0.000 C 
ATOM    118  H15 UNL A   1      15.119  53.045   9.783  1.00  0.00    +0.000 H 
ATOM    119  H16 UNL A   1      15.937  52.772   7.516  1.00  0.00    +0.000 H 
ATOM    120  H17 UNL A   1      15.883  50.585   6.471  1.00  0.00    +0.000 H 
ATOM    121  H18 UNL A   1      14.967  48.688   7.660  1.00  0.00    +0.000 H 
BRANCH   18   19
ATOM    122  H19 UNL A   1      14.448  48.042  10.538  1.00  0.00    +0.000 H 
ATOM     19  N3  UNL A   1      13.846  48.674  10.083  1.00  0.00    +0.000 N 
BRANCH   19   20
ATOM     40  N8  UNL A   1      12.091  47.827  11.317  1.00  0.00    +0.000 N 
ATOM     20  C15 UNL A   1      12.484  48.393  10.182  1.00  0.00    +0.000 C 
ATOM     21  N4  UNL A   1      11.678  48.666   9.170  1.00  0.00    +0.000 N 
ATOM     22  C16 UNL A   1      10.423  48.312   9.384  1.00  0.00    +0.000 C 
ATOM     23 Cl1  UNL A   1       9.327  48.634   8.113  1.00  0.00    +0.000 Cl
ATOM     24  N5  UNL A   1       9.911  47.764  10.470  1.00  0.00    +0.000 N 
ATOM     25  C17 UNL A   1      10.794  47.555  11.432  1.00  0.00    +0.000 C 
BRANCH   25   26
ATOM     26  N6  UNL A   1      10.393  47.095  12.692  1.00  0.00    +0.000 N 
ATOM    123  H20 UNL A   1      10.124  46.150  12.764  1.00  0.00    +0.000 H 
BRANCH   26   27
ATOM    132  H29 UNL A   1       9.220  50.822  15.001  1.00  0.00    +0.000 H 
ATOM    133  H30 UNL A   1       9.285  49.476  12.993  1.00  0.00    +0.000 H 
ATOM     38  C26 UNL A   1       9.716  49.916  15.009  1.00  0.00    +0.000 C 
ATOM     39  C27 UNL A   1       9.730  49.126  13.856  1.00  0.00    +0.000 C 
ATOM    124  H21 UNL A   1      11.455  46.523  15.038  1.00  0.00    +0.000 H 
ATOM    125  H22 UNL A   1      11.516  47.933  17.007  1.00  0.00    +0.000 H 
ATOM     27  C18 UNL A   1      10.341  47.871  13.859  1.00  0.00    +0.000 C 
ATOM     28  C19 UNL A   1      10.990  47.444  15.022  1.00  0.00    +0.000 C 
ATOM     29  C20 UNL A   1      11.014  48.253  16.164  1.00  0.00    +0.000 C 
ATOM     30  C21 UNL A   1      10.362  49.493  16.174  1.00  0.00    +0.000 C 
BRANCH   30   31
ATOM     33  C23 UNL A   1       9.787  50.672  19.735  1.00  0.00    +0.000 C 
ATOM    129  H26 UNL A   1       8.980  51.334  19.497  1.00  0.00    +0.000 H 
ATOM     35  C24 UNL A   1      11.255  52.183  18.745  1.00  0.00    +0.000 C 
ATOM     36  C25 UNL A   1      11.166  51.484  17.377  1.00  0.00    +0.000 C 
ATOM     37  O4  UNL A   1      11.666  52.023  16.387  1.00  0.00    +0.000 O 
ATOM     34  O3  UNL A   1      10.985  51.422  19.910  1.00  0.00    +0.000 O 
ATOM    130  H27 UNL A   1      12.249  52.566  18.841  1.00  0.00    +0.000 H 
ATOM    131  H28 UNL A   1      10.470  52.910  18.719  1.00  0.00    +0.000 H 
ATOM    127  H24 UNL A   1       9.041  49.198  18.426  1.00  0.00    +0.000 H 
ATOM    128  H25 UNL A   1       9.558  50.146  20.639  1.00  0.00    +0.000 H 
ATOM    126  H23 UNL A   1      10.738  48.974  18.889  1.00  0.00    +0.000 H 
ATOM     31  N7  UNL A   1      10.394  50.313  17.342  1.00  0.00    +0.000 N 
ATOM     32  C22 UNL A   1       9.983  49.675  18.600  1.00  0.00    +0.000 C 
ENDBRANCH   30   31
ENDBRANCH   26   27
ENDBRANCH   25   26
ENDBRANCH   19   20
ENDBRANCH   18   19
ENDBRANCH   11   13
ENDBRANCH   10   11
ENDBRANCH    9   10
ENDBRANCH    8    9
ENDBRANCH    7    8
ENDBRANCH    6    7
ENDBRANCH    5    6
ENDBRANCH    4    5
ENDBRANCH    3    4
ENDBRANCH    2    3
ENDBRANCH   41    2
ENDBRANCH   45   44
BRANCH   49   50
ATOM     50  C36 UNL A   1      12.058  47.829   5.005  1.00  0.00    +0.000 C 
ATOM     51  C37 UNL A   1      12.615  47.089   6.060  1.00  0.00    +0.000 C 
ATOM     52  F1  UNL A   1      13.882  47.306   6.442  1.00  0.00    +0.000 F 
ATOM     53  C38 UNL A   1      11.877  46.102   6.710  1.00  0.00    +0.000 C 
ATOM     54  F2  UNL A   1      12.440  45.385   7.693  1.00  0.00    +0.000 F 
ATOM     55  C39 UNL A   1      10.563  45.857   6.340  1.00  0.00    +0.000 C 
ATOM     56  F3  UNL A   1       9.851  44.915   6.975  1.00  0.00    +0.000 F 
ATOM     57  C40 UNL A   1       9.989  46.584   5.310  1.00  0.00    +0.000 C 
ATOM     58  F4  UNL A   1       8.715  46.358   4.959  1.00  0.00    +0.000 F 
ATOM     59  C41 UNL A   1      10.732  47.554   4.641  1.00  0.00    +0.000 C 
ATOM     60  F5  UNL A   1      10.150  48.239   3.645  1.00  0.00    +0.000 F 
ENDBRANCH   49   50
BRANCH   66   67
ATOM     67  C47 UNL A   1      16.464  48.577  -0.653  1.00  0.00    +0.000 C 
ATOM     68  C48 UNL A   1      15.753  48.301  -1.830  1.00  0.00    +0.000 C 
ATOM     69  F6  UNL A   1      14.508  48.776  -1.993  1.00  0.00    +0.000 F 
ATOM     70  C49 UNL A   1      16.302  47.497  -2.824  1.00  0.00    +0.000 C 
ATOM     71  F7  UNL A   1      15.584  47.205  -3.919  1.00  0.00    +0.000 F 
ATOM     72  C50 UNL A   1      17.581  46.983  -2.677  1.00  0.00    +0.000 C 
ATOM     73  F8  UNL A   1      18.108  46.209  -3.636  1.00  0.00    +0.000 F 
ATOM     74  C51 UNL A   1      18.310  47.260  -1.530  1.00  0.00    +0.000 C 
ATOM     75  F9  UNL A   1      19.550  46.770  -1.390  1.00  0.00    +0.000 F 
ATOM     76  C52 UNL A   1      17.754  48.041  -0.521  1.00  0.00    +0.000 C 
ATOM     77  F10 UNL A   1      18.475  48.278   0.585  1.00  0.00    +0.000 F 
ENDBRANCH   66   67
BRANCH   81   82
ATOM     82  C56 UNL A   1      17.187  55.334   0.863  1.00  0.00    +0.000 C 
ATOM     83  C57 UNL A   1      16.632  56.135  -0.143  1.00  0.00    +0.000 C 
ATOM     84  F11 UNL A   1      15.397  55.877  -0.600  1.00  0.00    +0.000 F 
ATOM     85  C58 UNL A   1      17.354  57.185  -0.706  1.00  0.00    +0.000 C 
ATOM     86  F12 UNL A   1      16.814  57.914  -1.693  1.00  0.00    +0.000 F 
ATOM     87  C59 UNL A   1      18.634  57.471  -0.252  1.00  0.00    +0.000 C 
ATOM     88  F13 UNL A   1      19.323  58.489  -0.787  1.00  0.00    +0.000 F 
ATOM     89  C60 UNL A   1      19.198  56.700   0.751  1.00  0.00    +0.000 C 
ATOM     90  F14 UNL A   1      20.427  56.984   1.204  1.00  0.00    +0.000 F 
ATOM     91  C61 UNL A   1      18.489  55.632   1.293  1.00  0.00    +0.000 C 
ATOM     92  F15 UNL A   1      19.061  54.897   2.258  1.00  0.00    +0.000 F 
ENDBRANCH   81   82
TORSDOF 20
ENDMDL
MODEL 10
REMARK VINA RESULT:      -8.0     29.313     36.931
ROOT
ATOM    136  H33 UNL A   1      28.040  23.202  -6.985  1.00  0.00    +0.000 H 
ATOM    137  H34 UNL A   1      26.111  24.586  -5.908  1.00  0.00    +0.000 H 
ATOM    138  H35 UNL A   1      25.161  23.899  -9.879  1.00  0.00    +0.000 H 
ATOM    139  H36 UNL A   1      21.280  24.845 -14.848  1.00  0.00    +0.000 H 
ATOM    140  H37 UNL A   1      23.056  23.325 -15.840  1.00  0.00    +0.000 H 
ATOM    141  H38 UNL A   1      24.059  24.017 -11.867  1.00  0.00    +0.000 H 
ATOM    142  H39 UNL A   1      20.287  26.736  -9.961  1.00  0.00    +0.000 H 
ATOM    143  H40 UNL A   1      21.593  26.760  -7.760  1.00  0.00    +0.000 H 
ATOM    144  H41 UNL A   1      28.781  21.030 -11.844  1.00  0.00    +0.000 H 
ATOM    145  H42 UNL A   1      27.633  21.221 -14.125  1.00  0.00    +0.000 H 
ATOM     45  C32 UNL A   1      25.174  22.669 -14.054  1.00  0.00    +0.000 C 
ATOM     46  C33 UNL A   1      26.133  22.427 -12.925  1.00  0.00    +0.000 C 
ATOM     47  N9  UNL A   1      26.059  22.830 -11.680  1.00  0.00    +0.000 N 
ATOM     48  C34 UNL A   1      27.185  22.320 -11.047  1.00  0.00    +0.000 C 
ATOM     49  C35 UNL A   1      27.573  22.483  -9.760  1.00  0.00    +0.000 C 
ATOM     61  C42 UNL A   1      26.848  23.257  -8.782  1.00  0.00    +0.000 C 
ATOM     62  C43 UNL A   1      27.181  23.514  -7.464  1.00  0.00    +0.000 C 
ATOM     63  C44 UNL A   1      26.153  24.271  -6.890  1.00  0.00    +0.000 C 
ATOM     64  C45 UNL A   1      25.201  24.525  -7.864  1.00  0.00    +0.000 C 
ATOM     65  N10 UNL A   1      25.638  23.895  -9.019  1.00  0.00    +0.000 N 
ATOM     66  C46 UNL A   1      23.982  25.284  -7.749  1.00  0.00    +0.000 C 
ATOM     78  C53 UNL A   1      23.109  25.515  -8.760  1.00  0.00    +0.000 C 
ATOM     79  N11 UNL A   1      23.172  25.090 -10.078  1.00  0.00    +0.000 N 
ATOM     80  C54 UNL A   1      22.087  25.545 -10.654  1.00  0.00    +0.000 C 
ATOM     81  C55 UNL A   1      21.639  25.396 -12.079  1.00  0.00    +0.000 C 
ATOM     93  C62 UNL A   1      22.404  24.694 -12.935  1.00  0.00    +0.000 C 
ATOM     94  C63 UNL A   1      22.095  24.463 -14.342  1.00  0.00    +0.000 C 
ATOM     95  C64 UNL A   1      23.043  23.676 -14.870  1.00  0.00    +0.000 C 
ATOM     96  C65 UNL A   1      24.056  23.393 -13.851  1.00  0.00    +0.000 C 
ATOM     97  N12 UNL A   1      23.589  24.031 -12.732  1.00  0.00    +0.000 N 
ATOM     98  C66 UNL A   1      21.202  26.303  -9.760  1.00  0.00    +0.000 C 
ATOM     99  C67 UNL A   1      21.890  26.286  -8.627  1.00  0.00    +0.000 C 
ATOM    100  C68 UNL A   1      27.916  21.558 -12.038  1.00  0.00    +0.000 C 
ATOM    101  C69 UNL A   1      27.329  21.625 -13.226  1.00  0.00    +0.000 C 
ENDROOT
BRANCH   45   44
ATOM    102  C70 UNL A   1      25.976  22.956 -16.424  1.00  0.00    +0.000 C 
ATOM    103  C71 UNL A   1      26.237  22.429 -17.691  1.00  0.00    +0.000 C 
ATOM    134  H31 UNL A   1      25.455  19.226 -17.083  1.00  0.00    +0.000 H 
ATOM     41  C28 UNL A   1      25.997  21.074 -17.946  1.00  0.00    +0.000 C 
ATOM     42  C29 UNL A   1      25.542  20.241 -16.922  1.00  0.00    +0.000 C 
ATOM     43  C30 UNL A   1      25.208  20.782 -15.685  1.00  0.00    +0.000 C 
ATOM    135  H32 UNL A   1      24.789  20.180 -14.958  1.00  0.00    +0.000 H 
ATOM     44  C31 UNL A   1      25.436  22.142 -15.418  1.00  0.00    +0.000 C 
ATOM    146  H43 UNL A   1      26.181  23.949 -16.228  1.00  0.00    +0.000 H 
ATOM    147  H44 UNL A   1      26.608  23.037 -18.439  1.00  0.00    +0.000 H 
BRANCH   41    2
ATOM      1  O1  UNL A   1      27.285  20.839 -19.891  1.00  0.00    +0.000 O 
ATOM      2  C1  UNL A   1      26.247  20.544 -19.305  1.00  0.00    +0.000 C 
BRANCH    2    3
ATOM      3  N1  UNL A   1      25.308  19.750 -19.915  1.00  0.00    +0.000 N 
ATOM    104  H1  UNL A   1      25.666  19.054 -20.513  1.00  0.00    +0.000 H 
BRANCH    3    4
ATOM    105  H2  UNL A   1      23.464  20.262 -20.679  1.00  0.00    +0.000 H 
ATOM    106  H3  UNL A   1      23.624  20.337 -18.914  1.00  0.00    +0.000 H 
ATOM      4  C2  UNL A   1      23.860  19.791 -19.803  1.00  0.00    +0.000 C 
BRANCH    4    5
ATOM    107  H4  UNL A   1      23.861  17.711 -20.179  1.00  0.00    +0.000 H 
ATOM    108  H5  UNL A   1      22.250  18.493 -20.087  1.00  0.00    +0.000 H 
ATOM      5  C3  UNL A   1      23.232  18.410 -19.669  1.00  0.00    +0.000 C 
BRANCH    5    6
ATOM    110  H7  UNL A   1      23.999  17.571 -17.916  1.00  0.00    +0.000 H 
ATOM    109  H6  UNL A   1      22.645  18.722 -17.659  1.00  0.00    +0.000 H 
ATOM      6  C4  UNL A   1      23.037  17.912 -18.238  1.00  0.00    +0.000 C 
BRANCH    6    7
ATOM    111  H8  UNL A   1      22.483  15.909 -18.656  1.00  0.00    +0.000 H 
ATOM      7  C5  UNL A   1      22.096  16.715 -18.068  1.00  0.00    +0.000 C 
ATOM    112  H9  UNL A   1      21.132  17.063 -18.376  1.00  0.00    +0.000 H 
BRANCH    7    8
ATOM    113  H10 UNL A   1      22.261  16.956 -15.966  1.00  0.00    +0.000 H 
ATOM    114  H11 UNL A   1      22.453  15.281 -16.584  1.00  0.00    +0.000 H 
ATOM      8  C6  UNL A   1      21.907  16.200 -16.636  1.00  0.00    +0.000 C 
BRANCH    8    9
ATOM      9  C7  UNL A   1      20.474  15.855 -16.239  1.00  0.00    +0.000 C 
ATOM    115  H12 UNL A   1      20.395  15.896 -15.172  1.00  0.00    +0.000 H 
ATOM    116  H13 UNL A   1      20.260  14.876 -16.613  1.00  0.00    +0.000 H 
BRANCH    9   10
ATOM     10  N2  UNL A   1      19.502  16.769 -16.812  1.00  0.00    +0.000 N 
ATOM    117  H14 UNL A   1      19.048  16.453 -17.626  1.00  0.00    +0.000 H 
BRANCH   10   11
ATOM     11  C8  UNL A   1      19.131  18.014 -16.369  1.00  0.00    +0.000 C 
ATOM     12  O2  UNL A   1      18.101  18.156 -15.714  1.00  0.00    +0.000 O 
BRANCH   11   13
ATOM     13  C9  UNL A   1      19.982  19.191 -16.640  1.00  0.00    +0.000 C 
ATOM     14  C10 UNL A   1      19.823  19.805 -17.891  1.00  0.00    +0.000 C 
ATOM     15  C11 UNL A   1      20.588  20.922 -18.221  1.00  0.00    +0.000 C 
ATOM     16  C12 UNL A   1      21.503  21.426 -17.302  1.00  0.00    +0.000 C 
ATOM     17  C13 UNL A   1      21.673  20.803 -16.062  1.00  0.00    +0.000 C 
ATOM     18  C14 UNL A   1      20.940  19.657 -15.716  1.00  0.00    +0.000 C 
ATOM    118  H15 UNL A   1      19.140  19.431 -18.567  1.00  0.00    +0.000 H 
ATOM    119  H16 UNL A   1      20.475  21.372 -19.142  1.00  0.00    +0.000 H 
ATOM    120  H17 UNL A   1      22.059  22.264 -17.538  1.00  0.00    +0.000 H 
ATOM    121  H18 UNL A   1      22.352  21.193 -15.388  1.00  0.00    +0.000 H 
BRANCH   18   19
ATOM    122  H19 UNL A   1      20.515  18.267 -14.280  1.00  0.00    +0.000 H 
ATOM     19  N3  UNL A   1      21.170  18.966 -14.507  1.00  0.00    +0.000 N 
BRANCH   19   20
ATOM     40  N8  UNL A   1      23.149  18.207 -13.597  1.00  0.00    +0.000 N 
ATOM     20  C15 UNL A   1      22.208  19.144 -13.594  1.00  0.00    +0.000 C 
ATOM     21  N4  UNL A   1      22.198  20.184 -12.777  1.00  0.00    +0.000 N 
ATOM     22  C16 UNL A   1      23.220  20.207 -11.939  1.00  0.00    +0.000 C 
ATOM     23 Cl1  UNL A   1      23.267  21.524 -10.851  1.00  0.00    +0.000 Cl
ATOM     24  N5  UNL A   1      24.221  19.350 -11.860  1.00  0.00    +0.000 N 
ATOM     25  C17 UNL A   1      24.151  18.362 -12.736  1.00  0.00    +0.000 C 
BRANCH   25   26
ATOM     26  N6  UNL A   1      25.195  17.438 -12.866  1.00  0.00    +0.000 N 
ATOM    123  H20 UNL A   1      24.950  16.498 -13.023  1.00  0.00    +0.000 H 
BRANCH   26   27
ATOM    132  H29 UNL A   1      29.181  18.575 -14.715  1.00  0.00    +0.000 H 
ATOM    133  H30 UNL A   1      26.820  18.074 -14.852  1.00  0.00    +0.000 H 
ATOM     38  C26 UNL A   1      28.665  18.310 -13.860  1.00  0.00    +0.000 C 
ATOM     39  C27 UNL A   1      27.294  18.046 -13.936  1.00  0.00    +0.000 C 
ATOM    124  H21 UNL A   1      26.712  17.421 -10.709  1.00  0.00    +0.000 H 
ATOM    125  H22 UNL A   1      29.105  17.781 -10.591  1.00  0.00    +0.000 H 
ATOM     27  C18 UNL A   1      26.562  17.744 -12.787  1.00  0.00    +0.000 C 
ATOM     28  C19 UNL A   1      27.237  17.653 -11.566  1.00  0.00    +0.000 C 
ATOM     29  C20 UNL A   1      28.617  17.875 -11.496  1.00  0.00    +0.000 C 
ATOM     30  C21 UNL A   1      29.344  18.221 -12.642  1.00  0.00    +0.000 C 
BRANCH   30   31
ATOM     33  C23 UNL A   1      32.673  20.022 -12.364  1.00  0.00    +0.000 C 
ATOM    129  H26 UNL A   1      32.911  19.963 -13.406  1.00  0.00    +0.000 H 
ATOM     35  C24 UNL A   1      33.113  17.743 -12.184  1.00  0.00    +0.000 C 
ATOM     36  C25 UNL A   1      31.642  17.365 -12.435  1.00  0.00    +0.000 C 
ATOM     37  O4  UNL A   1      31.343  16.183 -12.619  1.00  0.00    +0.000 O 
ATOM     34  O3  UNL A   1      33.398  19.026 -11.651  1.00  0.00    +0.000 O 
ATOM    130  H27 UNL A   1      33.513  17.022 -11.503  1.00  0.00    +0.000 H 
ATOM    131  H28 UNL A   1      33.550  17.762 -13.160  1.00  0.00    +0.000 H 
ATOM    127  H24 UNL A   1      30.662  20.489 -12.791  1.00  0.00    +0.000 H 
ATOM    128  H25 UNL A   1      32.938  20.991 -11.995  1.00  0.00    +0.000 H 
ATOM    126  H23 UNL A   1      30.948  19.932 -11.132  1.00  0.00    +0.000 H 
ATOM     31  N7  UNL A   1      30.752  18.443 -12.563  1.00  0.00    +0.000 N 
ATOM     32  C22 UNL A   1      31.180  19.791 -12.166  1.00  0.00    +0.000 C 
ENDBRANCH   30   31
ENDBRANCH   26   27
ENDBRANCH   25   26
ENDBRANCH   19   20
ENDBRANCH   18   19
ENDBRANCH   11   13
ENDBRANCH   10   11
ENDBRANCH    9   10
ENDBRANCH    8    9
ENDBRANCH    7    8
ENDBRANCH    6    7
ENDBRANCH    5    6
ENDBRANCH    4    5
ENDBRANCH    3    4
ENDBRANCH    2    3
ENDBRANCH   41    2
ENDBRANCH   45   44
BRANCH   49   50
ATOM     50  C36 UNL A   1      28.836  21.803  -9.318  1.00  0.00    +0.000 C 
ATOM     51  C37 UNL A   1      28.854  20.447  -8.956  1.00  0.00    +0.000 C 
ATOM     52  F1  UNL A   1      27.716  19.739  -8.933  1.00  0.00    +0.000 F 
ATOM     53  C38 UNL A   1      30.043  19.820  -8.588  1.00  0.00    +0.000 C 
ATOM     54  F2  UNL A   1      30.032  18.532  -8.214  1.00  0.00    +0.000 F 
ATOM     55  C39 UNL A   1      31.237  20.524  -8.605  1.00  0.00    +0.000 C 
ATOM     56  F3  UNL A   1      32.382  19.916  -8.264  1.00  0.00    +0.000 F 
ATOM     57  C40 UNL A   1      31.245  21.861  -8.972  1.00  0.00    +0.000 C 
ATOM     58  F4  UNL A   1      32.400  22.541  -9.003  1.00  0.00    +0.000 F 
ATOM     59  C41 UNL A   1      30.055  22.498  -9.316  1.00  0.00    +0.000 C 
ATOM     60  F5  UNL A   1      30.094  23.793  -9.662  1.00  0.00    +0.000 F 
ENDBRANCH   49   50
BRANCH   66   67
ATOM     67  C47 UNL A   1      23.653  25.889  -6.417  1.00  0.00    +0.000 C 
ATOM     68  C48 UNL A   1      23.958  27.226  -6.122  1.00  0.00    +0.000 C 
ATOM     69  F6  UNL A   1      24.594  27.987  -7.026  1.00  0.00    +0.000 F 
ATOM     70  C49 UNL A   1      23.651  27.771  -4.879  1.00  0.00    +0.000 C 
ATOM     71  F7  UNL A   1      23.998  29.037  -4.602  1.00  0.00    +0.000 F 
ATOM     72  C50 UNL A   1      23.006  27.003  -3.922  1.00  0.00    +0.000 C 
ATOM     73  F8  UNL A   1      22.711  27.532  -2.726  1.00  0.00    +0.000 F 
ATOM     74  C51 UNL A   1      22.676  25.686  -4.199  1.00  0.00    +0.000 C 
ATOM     75  F9  UNL A   1      22.044  24.945  -3.278  1.00  0.00    +0.000 F 
ATOM     76  C52 UNL A   1      23.005  25.128  -5.431  1.00  0.00    +0.000 C 
ATOM     77  F10 UNL A   1      22.690  23.846  -5.666  1.00  0.00    +0.000 F 
ENDBRANCH   66   67
BRANCH   81   82
ATOM     82  C56 UNL A   1      20.374  26.007 -12.558  1.00  0.00    +0.000 C 
ATOM     83  C57 UNL A   1      20.316  27.361 -12.912  1.00  0.00    +0.000 C 
ATOM     84  F11 UNL A   1      21.404  28.134 -12.784  1.00  0.00    +0.000 F 
ATOM     85  C58 UNL A   1      19.131  27.934 -13.369  1.00  0.00    +0.000 C 
ATOM     86  F12 UNL A   1      19.091  29.240 -13.667  1.00  0.00    +0.000 F 
ATOM     87  C59 UNL A   1      17.990  27.156 -13.509  1.00  0.00    +0.000 C 
ATOM     88  F13 UNL A   1      16.854  27.706 -13.960  1.00  0.00    +0.000 F 
ATOM     89  C60 UNL A   1      18.028  25.811 -13.176  1.00  0.00    +0.000 C 
ATOM     90  F14 UNL A   1      16.933  25.052 -13.326  1.00  0.00    +0.000 F 
ATOM     91  C61 UNL A   1      19.204  25.245 -12.690  1.00  0.00    +0.000 C 
ATOM     92  F15 UNL A   1      19.210  23.943 -12.370  1.00  0.00    +0.000 F 
ENDBRANCH   81   82
TORSDOF 20
ENDMDL
