MODEL 1
REMARK VINA RESULT:      -6.3      0.000      0.000
ROOT
ATOM    138  H39 UNL A   1      59.431  15.612  -1.104  1.00  0.00    +0.000 H 
ATOM    139  H40 UNL A   1      61.518  15.368   0.441  1.00  0.00    +0.000 H 
ATOM    140  H41 UNL A   1      58.133  15.414   2.826  1.00  0.00    +0.000 H 
ATOM    141  H42 UNL A   1      55.481  15.469   8.634  1.00  0.00    +0.000 H 
ATOM    142  H43 UNL A   1      53.453  15.696   7.121  1.00  0.00    +0.000 H 
ATOM    143  H44 UNL A   1      56.827  15.511   4.702  1.00  0.00    +0.000 H 
ATOM    144  H45 UNL A   1      60.742  15.001   7.805  1.00  0.00    +0.000 H 
ATOM    145  H46 UNL A   1      62.237  15.153   5.733  1.00  0.00    +0.000 H 
ATOM    146  H47 UNL A   1      54.142  15.659  -0.190  1.00  0.00    +0.000 H 
ATOM    147  H48 UNL A   1      52.667  16.038   1.868  1.00  0.00    +0.000 H 
ATOM     41  C29 UNL A   1      54.071  15.809   4.340  1.00  0.00    +0.000 C 
ATOM     42  C30 UNL A   1      54.643  15.773   2.951  1.00  0.00    +0.000 C 
ATOM     43  N7  UNL A   1      55.888  15.636   2.572  1.00  0.00    +0.000 N 
ATOM     44  C31 UNL A   1      55.862  15.624   1.184  1.00  0.00    +0.000 C 
ATOM     45  C32 UNL A   1      56.904  15.567   0.320  1.00  0.00    +0.000 C 
ATOM     57  C39 UNL A   1      58.284  15.512   0.721  1.00  0.00    +0.000 C 
ATOM     58  C40 UNL A   1      59.415  15.529  -0.075  1.00  0.00    +0.000 C 
ATOM     59  C41 UNL A   1      60.536  15.414   0.756  1.00  0.00    +0.000 C 
ATOM     60  C42 UNL A   1      60.104  15.372   2.072  1.00  0.00    +0.000 C 
ATOM     61  N8  UNL A   1      58.720  15.430   2.036  1.00  0.00    +0.000 N 
ATOM     62  C43 UNL A   1      60.893  15.284   3.273  1.00  0.00    +0.000 C 
ATOM     74  C50 UNL A   1      60.394  15.261   4.533  1.00  0.00    +0.000 C 
ATOM     75  N9  UNL A   1      59.072  15.313   4.951  1.00  0.00    +0.000 N 
ATOM     76  C51 UNL A   1      59.103  15.240   6.258  1.00  0.00    +0.000 C 
ATOM     77  C52 UNL A   1      57.962  15.278   7.239  1.00  0.00    +0.000 C 
ATOM     89  C59 UNL A   1      56.706  15.425   6.778  1.00  0.00    +0.000 C 
ATOM     90  C60 UNL A   1      55.503  15.505   7.603  1.00  0.00    +0.000 C 
ATOM     91  C61 UNL A   1      54.433  15.633   6.803  1.00  0.00    +0.000 C 
ATOM     92  C62 UNL A   1      54.878  15.671   5.410  1.00  0.00    +0.000 C 
ATOM     93  N10 UNL A   1      56.240  15.532   5.491  1.00  0.00    +0.000 N 
ATOM     94  C63 UNL A   1      60.454  15.110   6.820  1.00  0.00    +0.000 C 
ATOM     95  C64 UNL A   1      61.205  15.170   5.730  1.00  0.00    +0.000 C 
ATOM     96  C65 UNL A   1      54.475  15.714   0.786  1.00  0.00    +0.000 C 
ATOM     97  C66 UNL A   1      53.686  15.878   1.838  1.00  0.00    +0.000 C 
ENDROOT
BRANCH   41   40
ATOM     98  C67 UNL A   1      52.044  17.219   4.725  1.00  0.00    +0.000 C 
ATOM     99  C68 UNL A   1      50.679  17.353   4.962  1.00  0.00    +0.000 C 
ATOM     37  C25 UNL A   1      49.849  16.229   4.915  1.00  0.00    +0.000 C 
ATOM     38  C26 UNL A   1      50.399  14.957   4.737  1.00  0.00    +0.000 C 
ATOM     39  C27 UNL A   1      51.777  14.816   4.570  1.00  0.00    +0.000 C 
ATOM    136  H37 UNL A   1      49.788  14.125   4.732  1.00  0.00    +0.000 H 
ATOM     40  C28 UNL A   1      52.608  15.947   4.540  1.00  0.00    +0.000 C 
ATOM    137  H38 UNL A   1      52.188  13.875   4.467  1.00  0.00    +0.000 H 
ATOM    148  H49 UNL A   1      52.644  18.058   4.684  1.00  0.00    +0.000 H 
ATOM    149  H50 UNL A   1      50.280  18.281   5.174  1.00  0.00    +0.000 H 
BRANCH   37   35
ATOM     35  C24 UNL A   1      48.383  16.349   5.075  1.00  0.00    +0.000 C 
ATOM     36  O5  UNL A   1      47.758  15.468   5.645  1.00  0.00    +0.000 O 
BRANCH   35   34
ATOM     34  N6  UNL A   1      47.730  17.444   4.569  1.00  0.00    +0.000 N 
ATOM    135  H36 UNL A   1      47.740  17.525   3.588  1.00  0.00    +0.000 H 
BRANCH   34   33
ATOM     33  C23 UNL A   1      47.025  18.498   5.274  1.00  0.00    +0.000 C 
ATOM    133  H34 UNL A   1      45.986  18.445   5.024  1.00  0.00    +0.000 H 
ATOM    134  H35 UNL A   1      47.182  18.354   6.323  1.00  0.00    +0.000 H 
BRANCH   33   32
ATOM    131  H32 UNL A   1      48.383  19.761   4.256  1.00  0.00    +0.000 H 
ATOM    132  H33 UNL A   1      46.726  20.402   4.460  1.00  0.00    +0.000 H 
ATOM     32  C22 UNL A   1      47.546  19.883   4.911  1.00  0.00    +0.000 C 
BRANCH   32   31
ATOM    129  H30 UNL A   1      48.946  21.162   5.860  1.00  0.00    +0.000 H 
ATOM    130  H31 UNL A   1      47.221  21.469   6.239  1.00  0.00    +0.000 H 
ATOM     31  C21 UNL A   1      47.991  20.739   6.098  1.00  0.00    +0.000 C 
BRANCH   31   30
ATOM     30  C20 UNL A   1      48.121  20.000   7.432  1.00  0.00    +0.000 C 
ATOM    127  H28 UNL A   1      47.980  20.711   8.219  1.00  0.00    +0.000 H 
ATOM    128  H29 UNL A   1      47.383  19.227   7.414  1.00  0.00    +0.000 H 
BRANCH   30   29
ATOM    125  H26 UNL A   1      49.503  18.989   8.688  1.00  0.00    +0.000 H 
ATOM     29  C19 UNL A   1      49.462  19.300   7.664  1.00  0.00    +0.000 C 
ATOM    126  H27 UNL A   1      49.499  18.484   6.974  1.00  0.00    +0.000 H 
BRANCH   29   28
ATOM    124  H25 UNL A   1      50.475  21.157   7.695  1.00  0.00    +0.000 H 
ATOM    123  H24 UNL A   1      50.903  20.120   6.332  1.00  0.00    +0.000 H 
ATOM     28  C18 UNL A   1      50.689  20.158   7.380  1.00  0.00    +0.000 C 
BRANCH   28   27
ATOM    122  H23 UNL A   1      52.647  20.273   8.044  1.00  0.00    +0.000 H 
ATOM     27  N5  UNL A   1      51.851  19.697   8.111  1.00  0.00    +0.000 N 
BRANCH   27   25
ATOM     25  C17 UNL A   1      52.003  18.582   8.877  1.00  0.00    +0.000 C 
ATOM     26  O4  UNL A   1      52.027  17.494   8.292  1.00  0.00    +0.000 O 
BRANCH   25   22
ATOM    118  H19 UNL A   1      52.044  17.609  10.734  1.00  0.00    +0.000 H 
ATOM     22  C15 UNL A   1      52.078  18.627  10.409  1.00  0.00    +0.000 C 
BRANCH   22   21
ATOM    117  H18 UNL A   1      53.456  20.122  11.043  1.00  0.00    +0.000 H 
ATOM     21  N4  UNL A   1      53.351  19.152  10.912  1.00  0.00    +0.000 N 
BRANCH   21   19
ATOM     19  C14 UNL A   1      54.387  18.322  11.199  1.00  0.00    +0.000 C 
ATOM     20  O2  UNL A   1      54.231  17.131  10.922  1.00  0.00    +0.000 O 
BRANCH   19   16
ATOM    113  H14 UNL A   1      56.457  18.159  11.556  1.00  0.00    +0.000 H 
ATOM     16  C12 UNL A   1      55.691  18.854  11.830  1.00  0.00    +0.000 C 
BRANCH   16   15
ATOM     15  N3  UNL A   1      56.004  20.148  11.243  1.00  0.00    +0.000 N 
ATOM    112  H13 UNL A   1      55.666  20.955  11.693  1.00  0.00    +0.000 H 
BRANCH   15   13
ATOM     13  C11 UNL A   1      56.744  20.306  10.096  1.00  0.00    +0.000 C 
ATOM     14  O1  UNL A   1      57.970  20.227  10.214  1.00  0.00    +0.000 O 
BRANCH   13    2
ATOM      2  C1  UNL A   1      56.076  20.489   8.703  1.00  0.00    +0.000 C 
ATOM    103  H4  UNL A   1      55.059  20.761   8.892  1.00  0.00    +0.000 H 
BRANCH    2    1
ATOM      1  N1  UNL A   1      56.668  21.637   7.982  1.00  0.00    +0.000 N 
ATOM    100  H1  UNL A   1      57.164  22.233   8.645  1.00  0.00    +0.000 H 
ATOM    101  H2  UNL A   1      55.926  22.173   7.531  1.00  0.00    +0.000 H 
ATOM    102  H3  UNL A   1      57.320  21.295   7.277  1.00  0.00    +0.000 H 
ENDBRANCH    2    1
BRANCH    2    3
ATOM    105  H6  UNL A   1      56.481  18.509   8.296  1.00  0.00    +0.000 H 
ATOM      3  C2  UNL A   1      55.781  19.207   7.887  1.00  0.00    +0.000 C 
ATOM    104  H5  UNL A   1      54.737  19.011   8.000  1.00  0.00    +0.000 H 
BRANCH    3    4
ATOM      4  C3  UNL A   1      56.074  19.130   6.403  1.00  0.00    +0.000 C 
ATOM      5  C4  UNL A   1      55.205  19.092   5.325  1.00  0.00    +0.000 C 
ATOM      6  N2  UNL A   1      55.937  19.168   4.168  1.00  0.00    +0.000 N 
ATOM      7  C5  UNL A   1      57.277  19.096   4.451  1.00  0.00    +0.000 C 
ATOM      8  C6  UNL A   1      58.382  19.087   3.588  1.00  0.00    +0.000 C 
ATOM      9  C7  UNL A   1      59.645  18.912   4.158  1.00  0.00    +0.000 C 
ATOM    106  H7  UNL A   1      54.177  19.020   5.384  1.00  0.00    +0.000 H 
ATOM     11  C9  UNL A   1      58.684  18.837   6.384  1.00  0.00    +0.000 C 
ATOM     12  C10 UNL A   1      57.395  19.007   5.838  1.00  0.00    +0.000 C 
ATOM     10  C8  UNL A   1      59.796  18.770   5.535  1.00  0.00    +0.000 C 
ATOM    107  H8  UNL A   1      55.555  19.260   3.265  1.00  0.00    +0.000 H 
ATOM    111  H12 UNL A   1      58.809  18.762   7.405  1.00  0.00    +0.000 H 
ATOM    108  H9  UNL A   1      58.265  19.204   2.569  1.00  0.00    +0.000 H 
ATOM    110  H11 UNL A   1      60.735  18.615   5.932  1.00  0.00    +0.000 H 
ATOM    109  H10 UNL A   1      60.478  18.887   3.549  1.00  0.00    +0.000 H 
ENDBRANCH    3    4
ENDBRANCH    2    3
ENDBRANCH   13    2
ENDBRANCH   15   13
ENDBRANCH   16   15
BRANCH   16   17
ATOM     17  C13 UNL A   1      55.919  18.690  13.340  1.00  0.00    +0.000 C 
ATOM    114  H15 UNL A   1      55.004  18.948  13.830  1.00  0.00    +0.000 H 
ATOM    115  H16 UNL A   1      56.752  19.324  13.558  1.00  0.00    +0.000 H 
BRANCH   17   18
ATOM     18  S1  UNL A   1      56.419  17.046  13.949  1.00  0.00    +0.000 S 
ATOM    116  H17 UNL A   1      57.604  17.148  14.608  1.00  0.00    +0.000 H 
ENDBRANCH   17   18
ENDBRANCH   16   17
ENDBRANCH   19   16
ENDBRANCH   21   19
ENDBRANCH   22   21
BRANCH   22   23
ATOM    119  H20 UNL A   1      50.231  18.587  11.483  1.00  0.00    +0.000 H 
ATOM     23  C16 UNL A   1      50.858  19.327  11.031  1.00  0.00    +0.000 C 
ATOM    120  H21 UNL A   1      50.347  19.850  10.250  1.00  0.00    +0.000 H 
BRANCH   23   24
ATOM    121  H22 UNL A   1      50.453  20.511  12.559  1.00  0.00    +0.000 H 
ATOM     24  O3  UNL A   1      51.229  20.282  12.025  1.00  0.00    +0.000 O 
ENDBRANCH   23   24
ENDBRANCH   22   23
ENDBRANCH   25   22
ENDBRANCH   27   25
ENDBRANCH   28   27
ENDBRANCH   29   28
ENDBRANCH   30   29
ENDBRANCH   31   30
ENDBRANCH   32   31
ENDBRANCH   33   32
ENDBRANCH   34   33
ENDBRANCH   35   34
ENDBRANCH   37   35
ENDBRANCH   41   40
BRANCH   45   46
ATOM     46  C33 UNL A   1      56.590  15.570  -1.148  1.00  0.00    +0.000 C 
ATOM     47  C34 UNL A   1      56.169  14.406  -1.811  1.00  0.00    +0.000 C 
ATOM     48  F1  UNL A   1      56.083  13.244  -1.148  1.00  0.00    +0.000 F 
ATOM     49  C35 UNL A   1      55.871  14.426  -3.172  1.00  0.00    +0.000 C 
ATOM     50  F2  UNL A   1      55.517  13.293  -3.794  1.00  0.00    +0.000 F 
ATOM     51  C36 UNL A   1      55.952  15.611  -3.886  1.00  0.00    +0.000 C 
ATOM     52  F3  UNL A   1      55.660  15.630  -5.193  1.00  0.00    +0.000 F 
ATOM     53  C37 UNL A   1      56.347  16.776  -3.246  1.00  0.00    +0.000 C 
ATOM     54  F4  UNL A   1      56.416  17.926  -3.932  1.00  0.00    +0.000 F 
ATOM     55  C38 UNL A   1      56.673  16.755  -1.892  1.00  0.00    +0.000 C 
ATOM     56  F5  UNL A   1      57.067  17.896  -1.305  1.00  0.00    +0.000 F 
ENDBRANCH   45   46
BRANCH   62   63
ATOM     65  F6  UNL A   1      62.571  17.604   3.172  1.00  0.00    +0.000 F 
ATOM     66  C46 UNL A   1      64.546  16.337   2.983  1.00  0.00    +0.000 C 
ATOM     67  F7  UNL A   1      65.264  17.467   2.921  1.00  0.00    +0.000 F 
ATOM     68  C47 UNL A   1      65.182  15.107   2.908  1.00  0.00    +0.000 C 
ATOM     69  F8  UNL A   1      66.516  15.048   2.795  1.00  0.00    +0.000 F 
ATOM     70  C48 UNL A   1      64.436  13.939   2.944  1.00  0.00    +0.000 C 
ATOM     71  F9  UNL A   1      65.051  12.750   2.884  1.00  0.00    +0.000 F 
ATOM     72  C49 UNL A   1      63.049  14.000   3.039  1.00  0.00    +0.000 C 
ATOM     73  F10 UNL A   1      62.352  12.854   3.059  1.00  0.00    +0.000 F 
ATOM     63  C44 UNL A   1      62.385  15.233   3.126  1.00  0.00    +0.000 C 
ATOM     64  C45 UNL A   1      63.161  16.401   3.108  1.00  0.00    +0.000 C 
ENDBRANCH   62   63
BRANCH   77   78
ATOM     78  C53 UNL A   1      58.210  15.188   8.701  1.00  0.00    +0.000 C 
ATOM     79  C54 UNL A   1      58.331  16.346   9.483  1.00  0.00    +0.000 C 
ATOM     80  F11 UNL A   1      58.244  17.554   8.906  1.00  0.00    +0.000 F 
ATOM     81  C55 UNL A   1      58.584  16.268  10.850  1.00  0.00    +0.000 C 
ATOM     82  F12 UNL A   1      58.740  17.390  11.566  1.00  0.00    +0.000 F 
ATOM     83  C56 UNL A   1      58.691  15.030  11.468  1.00  0.00    +0.000 C 
ATOM     84  F13 UNL A   1      58.931  14.956  12.784  1.00  0.00    +0.000 F 
ATOM     85  C57 UNL A   1      58.556  13.872  10.718  1.00  0.00    +0.000 C 
ATOM     86  F14 UNL A   1      58.644  12.674  11.314  1.00  0.00    +0.000 F 
ATOM     87  C58 UNL A   1      58.329  13.949   9.345  1.00  0.00    +0.000 C 
ATOM     88  F15 UNL A   1      58.213  12.812   8.644  1.00  0.00    +0.000 F 
ENDBRANCH   77   78
TORSDOF 28
ENDMDL
MODEL 2
REMARK VINA RESULT:      -6.3     47.951     54.425
ROOT
ATOM    138  H39 UNL A   1      33.690  29.230  50.522  1.00  0.00    +0.000 H 
ATOM    139  H40 UNL A   1      35.592  30.377  49.156  1.00  0.00    +0.000 H 
ATOM    140  H41 UNL A   1      31.954  31.637  47.631  1.00  0.00    +0.000 H 
ATOM    141  H42 UNL A   1      28.645  34.894  43.248  1.00  0.00    +0.000 H 
ATOM    142  H43 UNL A   1      26.797  33.780  44.591  1.00  0.00    +0.000 H 
ATOM    143  H44 UNL A   1      30.436  32.613  46.226  1.00  0.00    +0.000 H 
ATOM    144  H45 UNL A   1      33.983  34.927  43.528  1.00  0.00    +0.000 H 
ATOM    145  H46 UNL A   1      35.700  33.640  44.924  1.00  0.00    +0.000 H 
ATOM    146  H47 UNL A   1      28.336  29.587  50.420  1.00  0.00    +0.000 H 
ATOM    147  H48 UNL A   1      26.613  30.435  48.726  1.00  0.00    +0.000 H 
ATOM     41  C29 UNL A   1      27.729  32.091  46.690  1.00  0.00    +0.000 C 
ATOM     42  C30 UNL A   1      28.460  31.329  47.760  1.00  0.00    +0.000 C 
ATOM     43  N7  UNL A   1      29.746  31.253  47.988  1.00  0.00    +0.000 N 
ATOM     44  C31 UNL A   1      29.883  30.456  49.118  1.00  0.00    +0.000 C 
ATOM     45  C32 UNL A   1      31.020  30.028  49.716  1.00  0.00    +0.000 C 
ATOM     57  C39 UNL A   1      32.345  30.341  49.252  1.00  0.00    +0.000 C 
ATOM     58  C40 UNL A   1      33.559  29.893  49.743  1.00  0.00    +0.000 C 
ATOM     59  C41 UNL A   1      34.580  30.498  48.999  1.00  0.00    +0.000 C 
ATOM     60  C42 UNL A   1      33.999  31.285  48.016  1.00  0.00    +0.000 C 
ATOM     61  N8  UNL A   1      32.629  31.181  48.185  1.00  0.00    +0.000 N 
ATOM     62  C43 UNL A   1      34.647  32.072  47.000  1.00  0.00    +0.000 C 
ATOM     74  C50 UNL A   1      34.006  32.809  46.060  1.00  0.00    +0.000 C 
ATOM     75  N9  UNL A   1      32.643  32.976  45.859  1.00  0.00    +0.000 N 
ATOM     76  C51 UNL A   1      32.525  33.794  44.842  1.00  0.00    +0.000 C 
ATOM     77  C52 UNL A   1      31.278  34.303  44.173  1.00  0.00    +0.000 C 
ATOM     89  C59 UNL A   1      30.078  33.885  44.617  1.00  0.00    +0.000 C 
ATOM     90  C60 UNL A   1      28.785  34.267  44.056  1.00  0.00    +0.000 C 
ATOM     91  C61 UNL A   1      27.810  33.672  44.760  1.00  0.00    +0.000 C 
ATOM     92  C62 UNL A   1      28.411  32.844  45.806  1.00  0.00    +0.000 C 
ATOM     93  N10 UNL A   1      29.760  33.038  45.651  1.00  0.00    +0.000 N 
ATOM     94  C63 UNL A   1      33.807  34.260  44.295  1.00  0.00    +0.000 C 
ATOM     95  C64 UNL A   1      34.676  33.598  45.046  1.00  0.00    +0.000 C 
ATOM     96  C65 UNL A   1      28.549  30.117  49.560  1.00  0.00    +0.000 C 
ATOM     97  C66 UNL A   1      27.635  30.573  48.716  1.00  0.00    +0.000 C 
ENDROOT
BRANCH   41   40
ATOM     98  C67 UNL A   1      25.499  33.039  47.299  1.00  0.00    +0.000 C 
ATOM     99  C68 UNL A   1      24.108  32.986  47.290  1.00  0.00    +0.000 C 
ATOM     37  C25 UNL A   1      23.451  32.013  46.530  1.00  0.00    +0.000 C 
ATOM     38  C26 UNL A   1      24.185  31.027  45.866  1.00  0.00    +0.000 C 
ATOM     39  C27 UNL A   1      25.579  31.039  45.933  1.00  0.00    +0.000 C 
ATOM    136  H37 UNL A   1      23.698  30.293  45.329  1.00  0.00    +0.000 H 
ATOM     40  C28 UNL A   1      26.247  32.057  46.632  1.00  0.00    +0.000 C 
ATOM    137  H38 UNL A   1      26.121  30.296  45.466  1.00  0.00    +0.000 H 
ATOM    148  H49 UNL A   1      25.981  33.803  47.798  1.00  0.00    +0.000 H 
ATOM    149  H50 UNL A   1      23.561  33.663  47.846  1.00  0.00    +0.000 H 
BRANCH   37   35
ATOM     35  C24 UNL A   1      21.975  31.983  46.429  1.00  0.00    +0.000 C 
ATOM     36  O5  UNL A   1      21.295  32.567  47.259  1.00  0.00    +0.000 O 
BRANCH   35   34
ATOM     34  N6  UNL A   1      21.376  31.287  45.410  1.00  0.00    +0.000 N 
ATOM    135  H36 UNL A   1      21.403  30.306  45.497  1.00  0.00    +0.000 H 
BRANCH   34   33
ATOM     33  C23 UNL A   1      20.707  31.789  44.225  1.00  0.00    +0.000 C 
ATOM    133  H34 UNL A   1      21.220  32.664  43.884  1.00  0.00    +0.000 H 
ATOM    134  H35 UNL A   1      20.724  31.014  43.486  1.00  0.00    +0.000 H 
BRANCH   33   32
ATOM    131  H32 UNL A   1      18.643  31.331  44.160  1.00  0.00    +0.000 H 
ATOM    132  H33 UNL A   1      19.177  32.333  45.542  1.00  0.00    +0.000 H 
ATOM     32  C22 UNL A   1      19.251  32.147  44.491  1.00  0.00    +0.000 C 
BRANCH   32   31
ATOM    129  H30 UNL A   1      19.519  34.164  43.896  1.00  0.00    +0.000 H 
ATOM    130  H31 UNL A   1      18.558  33.140  42.783  1.00  0.00    +0.000 H 
ATOM     31  C21 UNL A   1      18.758  33.418  43.797  1.00  0.00    +0.000 C 
BRANCH   31   30
ATOM     30  C20 UNL A   1      17.451  34.001  44.340  1.00  0.00    +0.000 C 
ATOM    127  H28 UNL A   1      16.819  34.228  43.506  1.00  0.00    +0.000 H 
ATOM    128  H29 UNL A   1      17.047  33.259  44.995  1.00  0.00    +0.000 H 
BRANCH   30   29
ATOM    125  H26 UNL A   1      18.298  35.072  45.966  1.00  0.00    +0.000 H 
ATOM     29  C19 UNL A   1      17.600  35.271  45.180  1.00  0.00    +0.000 C 
ATOM    126  H27 UNL A   1      17.927  36.039  44.510  1.00  0.00    +0.000 H 
BRANCH   29   28
ATOM    124  H25 UNL A   1      15.748  34.927  46.143  1.00  0.00    +0.000 H 
ATOM    123  H24 UNL A   1      15.761  36.337  45.081  1.00  0.00    +0.000 H 
ATOM     28  C18 UNL A   1      16.307  35.775  45.811  1.00  0.00    +0.000 C 
BRANCH   28   27
ATOM    122  H23 UNL A   1      16.720  37.572  46.753  1.00  0.00    +0.000 H 
ATOM     27  N5  UNL A   1      16.561  36.622  46.958  1.00  0.00    +0.000 N 
BRANCH   27   25
ATOM     25  C17 UNL A   1      16.612  36.295  48.278  1.00  0.00    +0.000 C 
ATOM     26  O4  UNL A   1      17.560  35.595  48.650  1.00  0.00    +0.000 O 
BRANCH   25   22
ATOM    118  H19 UNL A   1      15.616  36.025  50.103  1.00  0.00    +0.000 H 
ATOM     22  C15 UNL A   1      15.524  36.701  49.280  1.00  0.00    +0.000 C 
BRANCH   22   21
ATOM    117  H18 UNL A   1      15.262  38.808  49.457  1.00  0.00    +0.000 H 
ATOM     21  N4  UNL A   1      15.730  38.036  49.850  1.00  0.00    +0.000 N 
BRANCH   21   19
ATOM     19  C14 UNL A   1      16.557  38.226  50.911  1.00  0.00    +0.000 C 
ATOM     20  O2  UNL A   1      16.243  37.663  51.962  1.00  0.00    +0.000 O 
BRANCH   19   16
ATOM    113  H14 UNL A   1      18.472  38.783  51.588  1.00  0.00    +0.000 H 
ATOM     16  C12 UNL A   1      17.828  39.093  50.793  1.00  0.00    +0.000 C 
BRANCH   16   15
ATOM     15  N3  UNL A   1      18.479  38.804  49.525  1.00  0.00    +0.000 N 
ATOM    112  H13 UNL A   1      17.928  38.449  48.791  1.00  0.00    +0.000 H 
BRANCH   15   13
ATOM     13  C11 UNL A   1      19.820  39.000  49.295  1.00  0.00    +0.000 C 
ATOM     14  O1  UNL A   1      20.166  40.144  48.984  1.00  0.00    +0.000 O 
BRANCH   13    2
ATOM      2  C1  UNL A   1      20.865  37.865  49.495  1.00  0.00    +0.000 C 
ATOM    103  H4  UNL A   1      21.824  38.340  49.508  1.00  0.00    +0.000 H 
BRANCH    2    1
ATOM      1  N1  UNL A   1      20.712  37.239  50.826  1.00  0.00    +0.000 N 
ATOM    100  H1  UNL A   1      19.958  37.701  51.334  1.00  0.00    +0.000 H 
ATOM    101  H2  UNL A   1      21.583  37.335  51.348  1.00  0.00    +0.000 H 
ATOM    102  H3  UNL A   1      20.490  36.250  50.712  1.00  0.00    +0.000 H 
ENDBRANCH    2    1
BRANCH    2    3
ATOM    105  H6  UNL A   1      21.147  35.964  48.749  1.00  0.00    +0.000 H 
ATOM      3  C2  UNL A   1      21.132  36.931  48.291  1.00  0.00    +0.000 C 
ATOM    104  H5  UNL A   1      20.372  37.143  47.569  1.00  0.00    +0.000 H 
BRANCH    3    4
ATOM      4  C3  UNL A   1      22.450  36.958  47.546  1.00  0.00    +0.000 C 
ATOM      5  C4  UNL A   1      23.613  37.658  47.821  1.00  0.00    +0.000 C 
ATOM      6  N2  UNL A   1      24.588  37.252  46.945  1.00  0.00    +0.000 N 
ATOM      7  C5  UNL A   1      24.054  36.416  45.999  1.00  0.00    +0.000 C 
ATOM      8  C6  UNL A   1      24.658  35.804  44.892  1.00  0.00    +0.000 C 
ATOM      9  C7  UNL A   1      23.838  35.065  44.035  1.00  0.00    +0.000 C 
ATOM    106  H7  UNL A   1      23.728  38.367  48.562  1.00  0.00    +0.000 H 
ATOM     11  C9  UNL A   1      21.902  35.505  45.428  1.00  0.00    +0.000 C 
ATOM     12  C10 UNL A   1      22.703  36.262  46.309  1.00  0.00    +0.000 C 
ATOM     10  C8  UNL A   1      22.476  34.931  44.287  1.00  0.00    +0.000 C 
ATOM    107  H8  UNL A   1      25.534  37.522  46.990  1.00  0.00    +0.000 H 
ATOM    111  H12 UNL A   1      20.897  35.374  45.623  1.00  0.00    +0.000 H 
ATOM    108  H9  UNL A   1      25.671  35.897  44.717  1.00  0.00    +0.000 H 
ATOM    110  H11 UNL A   1      21.884  34.403  43.627  1.00  0.00    +0.000 H 
ATOM    109  H10 UNL A   1      24.250  34.612  43.203  1.00  0.00    +0.000 H 
ENDBRANCH    3    4
ENDBRANCH    2    3
ENDBRANCH   13    2
ENDBRANCH   15   13
ENDBRANCH   16   15
BRANCH   16   17
ATOM     17  C13 UNL A   1      17.782  40.560  51.245  1.00  0.00    +0.000 C 
ATOM    114  H15 UNL A   1      16.803  40.744  51.633  1.00  0.00    +0.000 H 
ATOM    115  H16 UNL A   1      18.044  41.120  50.372  1.00  0.00    +0.000 H 
BRANCH   17   18
ATOM     18  S1  UNL A   1      18.979  41.097  52.511  1.00  0.00    +0.000 S 
ATOM    116  H17 UNL A   1      19.574  40.006  53.064  1.00  0.00    +0.000 H 
ENDBRANCH   17   18
ENDBRANCH   16   17
ENDBRANCH   19   16
ENDBRANCH   21   19
ENDBRANCH   22   21
BRANCH   22   23
ATOM    119  H20 UNL A   1      13.737  35.556  49.027  1.00  0.00    +0.000 H 
ATOM     23  C16 UNL A   1      14.108  36.509  48.712  1.00  0.00    +0.000 C 
ATOM    120  H21 UNL A   1      14.172  36.572  47.646  1.00  0.00    +0.000 H 
BRANCH   23   24
ATOM    121  H22 UNL A   1      13.112  38.197  48.466  1.00  0.00    +0.000 H 
ATOM     24  O3  UNL A   1      13.204  37.522  49.155  1.00  0.00    +0.000 O 
ENDBRANCH   23   24
ENDBRANCH   22   23
ENDBRANCH   25   22
ENDBRANCH   27   25
ENDBRANCH   28   27
ENDBRANCH   29   28
ENDBRANCH   30   29
ENDBRANCH   31   30
ENDBRANCH   32   31
ENDBRANCH   33   32
ENDBRANCH   34   33
ENDBRANCH   35   34
ENDBRANCH   37   35
ENDBRANCH   41   40
BRANCH   45   46
ATOM     46  C33 UNL A   1      30.879  29.167  50.937  1.00  0.00    +0.000 C 
ATOM     47  C34 UNL A   1      30.858  29.719  52.228  1.00  0.00    +0.000 C 
ATOM     48  F1  UNL A   1      31.013  31.040  52.400  1.00  0.00    +0.000 F 
ATOM     49  C35 UNL A   1      30.717  28.908  53.352  1.00  0.00    +0.000 C 
ATOM     50  F2  UNL A   1      30.747  29.454  54.576  1.00  0.00    +0.000 F 
ATOM     51  C36 UNL A   1      30.558  27.539  53.207  1.00  0.00    +0.000 C 
ATOM     52  F3  UNL A   1      30.417  26.761  54.289  1.00  0.00    +0.000 F 
ATOM     53  C37 UNL A   1      30.556  26.974  51.941  1.00  0.00    +0.000 C 
ATOM     54  F4  UNL A   1      30.393  25.651  51.798  1.00  0.00    +0.000 F 
ATOM     55  C38 UNL A   1      30.726  27.778  50.816  1.00  0.00    +0.000 C 
ATOM     56  F5  UNL A   1      30.735  27.200  49.605  1.00  0.00    +0.000 F 
ENDBRANCH   45   46
BRANCH   62   63
ATOM     65  F6  UNL A   1      36.200  30.233  45.446  1.00  0.00    +0.000 F 
ATOM     66  C46 UNL A   1      38.247  31.174  46.127  1.00  0.00    +0.000 C 
ATOM     67  F7  UNL A   1      38.907  30.267  45.393  1.00  0.00    +0.000 F 
ATOM     68  C47 UNL A   1      38.952  32.115  46.862  1.00  0.00    +0.000 C 
ATOM     69  F8  UNL A   1      40.292  32.132  46.822  1.00  0.00    +0.000 F 
ATOM     70  C48 UNL A   1      38.271  33.035  47.643  1.00  0.00    +0.000 C 
ATOM     71  F9  UNL A   1      38.950  33.953  48.343  1.00  0.00    +0.000 F 
ATOM     72  C49 UNL A   1      36.881  33.005  47.703  1.00  0.00    +0.000 C 
ATOM     73  F10 UNL A   1      36.247  33.898  48.478  1.00  0.00    +0.000 F 
ATOM     63  C44 UNL A   1      36.146  32.067  46.961  1.00  0.00    +0.000 C 
ATOM     64  C45 UNL A   1      36.856  31.159  46.162  1.00  0.00    +0.000 C 
ENDBRANCH   62   63
BRANCH   77   78
ATOM     78  C53 UNL A   1      31.357  35.230  43.015  1.00  0.00    +0.000 C 
ATOM     79  C54 UNL A   1      31.186  36.611  43.186  1.00  0.00    +0.000 C 
ATOM     80  F11 UNL A   1      30.928  37.107  44.405  1.00  0.00    +0.000 F 
ATOM     81  C55 UNL A   1      31.238  37.483  42.101  1.00  0.00    +0.000 C 
ATOM     82  F12 UNL A   1      31.027  38.793  42.286  1.00  0.00    +0.000 F 
ATOM     83  C56 UNL A   1      31.492  36.994  40.828  1.00  0.00    +0.000 C 
ATOM     84  F13 UNL A   1      31.546  37.833  39.785  1.00  0.00    +0.000 F 
ATOM     85  C57 UNL A   1      31.683  35.635  40.638  1.00  0.00    +0.000 C 
ATOM     86  F14 UNL A   1      31.943  35.159  39.411  1.00  0.00    +0.000 F 
ATOM     87  C58 UNL A   1      31.605  34.758  41.719  1.00  0.00    +0.000 C 
ATOM     88  F15 UNL A   1      31.783  33.447  41.503  1.00  0.00    +0.000 F 
ENDBRANCH   77   78
TORSDOF 28
ENDMDL
MODEL 3
REMARK VINA RESULT:      -6.0     49.525     54.852
ROOT
ATOM    138  H39 UNL A   1      18.247  50.687  -2.404  1.00  0.00    +0.000 H 
ATOM    139  H40 UNL A   1      18.799  53.231  -2.247  1.00  0.00    +0.000 H 
ATOM    140  H41 UNL A   1      16.369  52.228   0.953  1.00  0.00    +0.000 H 
ATOM    141  H42 UNL A   1      12.983  53.994   6.070  1.00  0.00    +0.000 H 
ATOM    142  H43 UNL A   1      12.459  51.512   5.916  1.00  0.00    +0.000 H 
ATOM    143  H44 UNL A   1      15.011  52.469   2.778  1.00  0.00    +0.000 H 
ATOM    144  H45 UNL A   1      16.013  57.368   3.239  1.00  0.00    +0.000 H 
ATOM    145  H46 UNL A   1      17.326  57.172   1.050  1.00  0.00    +0.000 H 
ATOM    146  H47 UNL A   1      15.516  47.298   0.736  1.00  0.00    +0.000 H 
ATOM    147  H48 UNL A   1      13.785  47.562   2.605  1.00  0.00    +0.000 H 
ATOM     41  C29 UNL A   1      13.676  50.192   3.701  1.00  0.00    +0.000 C 
ATOM     42  C30 UNL A   1      14.477  49.720   2.520  1.00  0.00    +0.000 C 
ATOM     43  N7  UNL A   1      15.284  50.398   1.744  1.00  0.00    +0.000 N 
ATOM     44  C31 UNL A   1      15.798  49.478   0.839  1.00  0.00    +0.000 C 
ATOM     45  C32 UNL A   1      16.629  49.698  -0.208  1.00  0.00    +0.000 C 
ATOM     57  C39 UNL A   1      17.139  50.991  -0.577  1.00  0.00    +0.000 C 
ATOM     58  C40 UNL A   1      17.925  51.331  -1.665  1.00  0.00    +0.000 C 
ATOM     59  C41 UNL A   1      18.208  52.699  -1.588  1.00  0.00    +0.000 C 
ATOM     60  C42 UNL A   1      17.560  53.220  -0.479  1.00  0.00    +0.000 C 
ATOM     61  N8  UNL A   1      16.911  52.161   0.133  1.00  0.00    +0.000 N 
ATOM     62  C43 UNL A   1      17.536  54.582  -0.012  1.00  0.00    +0.000 C 
ATOM     74  C50 UNL A   1      16.864  55.018   1.081  1.00  0.00    +0.000 C 
ATOM     75  N9  UNL A   1      16.078  54.298   1.970  1.00  0.00    +0.000 N 
ATOM     76  C51 UNL A   1      15.665  55.159   2.867  1.00  0.00    +0.000 C 
ATOM     77  C52 UNL A   1      14.762  54.938   4.049  1.00  0.00    +0.000 C 
ATOM     89  C59 UNL A   1      14.255  53.710   4.268  1.00  0.00    +0.000 C 
ATOM     90  C60 UNL A   1      13.347  53.347   5.353  1.00  0.00    +0.000 C 
ATOM     91  C61 UNL A   1      13.064  52.038   5.265  1.00  0.00    +0.000 C 
ATOM     92  C62 UNL A   1      13.750  51.476   4.101  1.00  0.00    +0.000 C 
ATOM     93  N10 UNL A   1      14.439  52.539   3.575  1.00  0.00    +0.000 N 
ATOM     94  C63 UNL A   1      16.163  56.526   2.661  1.00  0.00    +0.000 C 
ATOM     95  C64 UNL A   1      16.854  56.394   1.537  1.00  0.00    +0.000 C 
ATOM     96  C65 UNL A   1      15.255  48.186   1.194  1.00  0.00    +0.000 C 
ATOM     97  C66 UNL A   1      14.379  48.291   2.183  1.00  0.00    +0.000 C 
ENDROOT
BRANCH   41   40
ATOM     98  C67 UNL A   1      11.493  49.049   4.112  1.00  0.00    +0.000 C 
ATOM     99  C68 UNL A   1      10.687  48.190   4.854  1.00  0.00    +0.000 C 
ATOM     37  C25 UNL A   1      11.243  47.430   5.888  1.00  0.00    +0.000 C 
ATOM     38  C26 UNL A   1      12.580  47.611   6.250  1.00  0.00    +0.000 C 
ATOM     39  C27 UNL A   1      13.369  48.525   5.552  1.00  0.00    +0.000 C 
ATOM    136  H37 UNL A   1      12.981  47.070   7.033  1.00  0.00    +0.000 H 
ATOM     40  C28 UNL A   1      12.838  49.235   4.464  1.00  0.00    +0.000 C 
ATOM    137  H38 UNL A   1      14.349  48.679   5.837  1.00  0.00    +0.000 H 
ATOM    148  H49 UNL A   1      11.099  49.551   3.301  1.00  0.00    +0.000 H 
ATOM    149  H50 UNL A   1       9.679  48.114   4.641  1.00  0.00    +0.000 H 
BRANCH   37   35
ATOM     35  C24 UNL A   1      10.434  46.444   6.637  1.00  0.00    +0.000 C 
ATOM     36  O5  UNL A   1      10.869  45.318   6.829  1.00  0.00    +0.000 O 
BRANCH   35   34
ATOM     34  N6  UNL A   1       9.190  46.793   7.100  1.00  0.00    +0.000 N 
ATOM    135  H36 UNL A   1       8.524  46.998   6.405  1.00  0.00    +0.000 H 
BRANCH   34   33
ATOM     33  C23 UNL A   1       8.718  46.901   8.467  1.00  0.00    +0.000 C 
ATOM    133  H34 UNL A   1       7.777  47.410   8.467  1.00  0.00    +0.000 H 
ATOM    134  H35 UNL A   1       8.626  45.911   8.862  1.00  0.00    +0.000 H 
BRANCH   33   32
ATOM    131  H32 UNL A   1      10.495  48.015   8.741  1.00  0.00    +0.000 H 
ATOM    132  H33 UNL A   1       9.125  48.460   9.802  1.00  0.00    +0.000 H 
ATOM     32  C22 UNL A   1       9.690  47.668   9.354  1.00  0.00    +0.000 C 
BRANCH   32   31
ATOM    129  H30 UNL A   1      10.655  47.555  11.239  1.00  0.00    +0.000 H 
ATOM    130  H31 UNL A   1       9.497  46.238  10.871  1.00  0.00    +0.000 H 
ATOM     31  C21 UNL A   1      10.287  46.863  10.510  1.00  0.00    +0.000 C 
BRANCH   31   30
ATOM     30  C20 UNL A   1      11.432  45.919  10.134  1.00  0.00    +0.000 C 
ATOM    127  H28 UNL A   1      11.004  44.993   9.808  1.00  0.00    +0.000 H 
ATOM    128  H29 UNL A   1      11.992  46.423   9.375  1.00  0.00    +0.000 H 
BRANCH   30   29
ATOM    125  H26 UNL A   1      12.872  44.661  11.057  1.00  0.00    +0.000 H 
ATOM     29  C19 UNL A   1      12.423  45.612  11.258  1.00  0.00    +0.000 C 
ATOM    126  H27 UNL A   1      13.127  46.417  11.268  1.00  0.00    +0.000 H 
BRANCH   29   28
ATOM    124  H25 UNL A   1      11.212  44.677  12.720  1.00  0.00    +0.000 H 
ATOM    123  H24 UNL A   1      11.221  46.440  12.806  1.00  0.00    +0.000 H 
ATOM     28  C18 UNL A   1      11.811  45.560  12.653  1.00  0.00    +0.000 C 
BRANCH   28   27
ATOM    122  H23 UNL A   1      13.526  44.816  13.544  1.00  0.00    +0.000 H 
ATOM     27  N5  UNL A   1      12.826  45.494  13.685  1.00  0.00    +0.000 N 
BRANCH   27   25
ATOM     25  C17 UNL A   1      12.951  46.232  14.821  1.00  0.00    +0.000 C 
ATOM     26  O4  UNL A   1      13.842  45.903  15.612  1.00  0.00    +0.000 O 
BRANCH   25   22
ATOM    118  H19 UNL A   1      12.579  48.062  15.773  1.00  0.00    +0.000 H 
ATOM     22  C15 UNL A   1      12.006  47.388  15.173  1.00  0.00    +0.000 C 
BRANCH   22   21
ATOM    117  H18 UNL A   1      10.690  48.026  13.625  1.00  0.00    +0.000 H 
ATOM     21  N4  UNL A   1      11.586  48.169  14.006  1.00  0.00    +0.000 N 
BRANCH   21   19
ATOM     19  C14 UNL A   1      12.414  49.086  13.441  1.00  0.00    +0.000 C 
ATOM     20  O2  UNL A   1      12.800  48.847  12.294  1.00  0.00    +0.000 O 
BRANCH   19   16
ATOM    113  H14 UNL A   1      13.635  50.071  14.847  1.00  0.00    +0.000 H 
ATOM     16  C12 UNL A   1      12.835  50.362  14.199  1.00  0.00    +0.000 C 
BRANCH   16   15
ATOM     15  N3  UNL A   1      13.341  51.333  13.241  1.00  0.00    +0.000 N 
ATOM    112  H13 UNL A   1      12.688  51.863  12.731  1.00  0.00    +0.000 H 
BRANCH   15   13
ATOM     13  C11 UNL A   1      14.678  51.551  13.011  1.00  0.00    +0.000 C 
ATOM     14  O1  UNL A   1      15.427  51.478  13.989  1.00  0.00    +0.000 O 
BRANCH   13    2
ATOM      2  C1  UNL A   1      15.238  51.794  11.580  1.00  0.00    +0.000 C 
ATOM    103  H4  UNL A   1      15.206  52.852  11.421  1.00  0.00    +0.000 H 
BRANCH    2    1
ATOM      1  N1  UNL A   1      16.668  51.422  11.504  1.00  0.00    +0.000 N 
ATOM    100  H1  UNL A   1      17.196  52.192  11.092  1.00  0.00    +0.000 H 
ATOM    101  H2  UNL A   1      16.772  50.590  10.924  1.00  0.00    +0.000 H 
ATOM    102  H3  UNL A   1      17.019  51.231  12.442  1.00  0.00    +0.000 H 
ENDBRANCH    2    1
BRANCH    2    3
ATOM    105  H6  UNL A   1      15.016  51.403   9.568  1.00  0.00    +0.000 H 
ATOM      3  C2  UNL A   1      14.332  51.396  10.390  1.00  0.00    +0.000 C 
ATOM    104  H5  UNL A   1      13.866  50.473  10.661  1.00  0.00    +0.000 H 
BRANCH    3    4
ATOM      4  C3  UNL A   1      13.225  52.307   9.900  1.00  0.00    +0.000 C 
ATOM      5  C4  UNL A   1      12.946  53.624  10.228  1.00  0.00    +0.000 C 
ATOM      6  N2  UNL A   1      11.930  54.071   9.423  1.00  0.00    +0.000 N 
ATOM      7  C5  UNL A   1      11.426  53.035   8.679  1.00  0.00    +0.000 C 
ATOM      8  C6  UNL A   1      10.364  53.014   7.765  1.00  0.00    +0.000 C 
ATOM      9  C7  UNL A   1      10.008  51.780   7.215  1.00  0.00    +0.000 C 
ATOM    106  H7  UNL A   1      13.423  54.176  10.958  1.00  0.00    +0.000 H 
ATOM     11  C9  UNL A   1      11.795  50.671   8.425  1.00  0.00    +0.000 C 
ATOM     12  C10 UNL A   1      12.173  51.902   9.001  1.00  0.00    +0.000 C 
ATOM     10  C8  UNL A   1      10.701  50.620   7.552  1.00  0.00    +0.000 C 
ATOM    107  H8  UNL A   1      11.609  55.001   9.384  1.00  0.00    +0.000 H 
ATOM    111  H12 UNL A   1      12.322  49.812   8.645  1.00  0.00    +0.000 H 
ATOM    108  H9  UNL A   1       9.861  53.879   7.510  1.00  0.00    +0.000 H 
ATOM    110  H11 UNL A   1      10.406  49.715   7.155  1.00  0.00    +0.000 H 
ATOM    109  H10 UNL A   1       9.222  51.728   6.548  1.00  0.00    +0.000 H 
ENDBRANCH    3    4
ENDBRANCH    2    3
ENDBRANCH   13    2
ENDBRANCH   15   13
ENDBRANCH   16   15
BRANCH   16   17
ATOM     17  C13 UNL A   1      11.949  50.889  15.337  1.00  0.00    +0.000 C 
ATOM    114  H15 UNL A   1      12.563  51.502  15.962  1.00  0.00    +0.000 H 
ATOM    115  H16 UNL A   1      11.553  50.010  15.801  1.00  0.00    +0.000 H 
BRANCH   17   18
ATOM     18  S1  UNL A   1      10.480  51.870  14.885  1.00  0.00    +0.000 S 
ATOM    116  H17 UNL A   1      10.558  52.225  13.575  1.00  0.00    +0.000 H 
ENDBRANCH   17   18
ENDBRANCH   16   17
ENDBRANCH   19   16
ENDBRANCH   21   19
ENDBRANCH   22   21
BRANCH   22   23
ATOM    119  H20 UNL A   1      11.202  46.447  16.915  1.00  0.00    +0.000 H 
ATOM     23  C16 UNL A   1      10.821  46.929  16.039  1.00  0.00    +0.000 C 
ATOM    120  H21 UNL A   1      10.226  46.260  15.451  1.00  0.00    +0.000 H 
BRANCH   23   24
ATOM    121  H22 UNL A   1       9.060  47.736  16.423  1.00  0.00    +0.000 H 
ATOM     24  O3  UNL A   1       9.988  48.016  16.439  1.00  0.00    +0.000 O 
ENDBRANCH   23   24
ENDBRANCH   22   23
ENDBRANCH   25   22
ENDBRANCH   27   25
ENDBRANCH   28   27
ENDBRANCH   29   28
ENDBRANCH   30   29
ENDBRANCH   31   30
ENDBRANCH   32   31
ENDBRANCH   33   32
ENDBRANCH   34   33
ENDBRANCH   35   34
ENDBRANCH   37   35
ENDBRANCH   41   40
BRANCH   45   46
ATOM     46  C33 UNL A   1      17.033  48.512  -1.034  1.00  0.00    +0.000 C 
ATOM     47  C34 UNL A   1      16.361  48.180  -2.221  1.00  0.00    +0.000 C 
ATOM     48  F1  UNL A   1      15.301  48.897  -2.621  1.00  0.00    +0.000 F 
ATOM     49  C35 UNL A   1      16.754  47.082  -2.983  1.00  0.00    +0.000 C 
ATOM     50  F2  UNL A   1      16.067  46.756  -4.087  1.00  0.00    +0.000 F 
ATOM     51  C36 UNL A   1      17.844  46.319  -2.596  1.00  0.00    +0.000 C 
ATOM     52  F3  UNL A   1      18.225  45.267  -3.333  1.00  0.00    +0.000 F 
ATOM     53  C37 UNL A   1      18.535  46.642  -1.437  1.00  0.00    +0.000 C 
ATOM     54  F4  UNL A   1      19.597  45.911  -1.066  1.00  0.00    +0.000 F 
ATOM     55  C38 UNL A   1      18.128  47.721  -0.657  1.00  0.00    +0.000 C 
ATOM     56  F5  UNL A   1      18.807  47.998   0.466  1.00  0.00    +0.000 F 
ENDBRANCH   45   46
BRANCH   62   63
ATOM     65  F6  UNL A   1      16.415  56.086  -2.177  1.00  0.00    +0.000 F 
ATOM     66  C46 UNL A   1      18.404  57.287  -2.554  1.00  0.00    +0.000 C 
ATOM     67  F7  UNL A   1      17.819  57.937  -3.570  1.00  0.00    +0.000 F 
ATOM     68  C47 UNL A   1      19.725  57.557  -2.229  1.00  0.00    +0.000 C 
ATOM     69  F8  UNL A   1      20.410  58.482  -2.916  1.00  0.00    +0.000 F 
ATOM     70  C48 UNL A   1      20.339  56.865  -1.197  1.00  0.00    +0.000 C 
ATOM     71  F9  UNL A   1      21.611  57.134  -0.873  1.00  0.00    +0.000 F 
ATOM     72  C49 UNL A   1      19.637  55.889  -0.497  1.00  0.00    +0.000 C 
ATOM     73  F10 UNL A   1      20.259  55.225   0.489  1.00  0.00    +0.000 F 
ATOM     63  C44 UNL A   1      18.296  55.605  -0.802  1.00  0.00    +0.000 C 
ATOM     64  C45 UNL A   1      17.689  56.332  -1.837  1.00  0.00    +0.000 C 
ENDBRANCH   62   63
BRANCH   77   78
ATOM     78  C53 UNL A   1      14.401  56.060   4.954  1.00  0.00    +0.000 C 
ATOM     79  C54 UNL A   1      13.182  56.738   4.809  1.00  0.00    +0.000 C 
ATOM     80  F11 UNL A   1      12.334  56.386   3.832  1.00  0.00    +0.000 F 
ATOM     81  C55 UNL A   1      12.848  57.804   5.641  1.00  0.00    +0.000 C 
ATOM     82  F12 UNL A   1      11.696  58.463   5.453  1.00  0.00    +0.000 F 
ATOM     83  C56 UNL A   1      13.713  58.194   6.653  1.00  0.00    +0.000 C 
ATOM     84  F13 UNL A   1      13.390  59.218   7.454  1.00  0.00    +0.000 F 
ATOM     85  C57 UNL A   1      14.916  57.527   6.826  1.00  0.00    +0.000 C 
ATOM     86  F14 UNL A   1      15.749  57.892   7.811  1.00  0.00    +0.000 F 
ATOM     87  C58 UNL A   1      15.263  56.477   5.977  1.00  0.00    +0.000 C 
ATOM     88  F15 UNL A   1      16.437  55.857   6.162  1.00  0.00    +0.000 F 
ENDBRANCH   77   78
TORSDOF 28
ENDMDL
MODEL 4
REMARK VINA RESULT:      -5.9     49.711     55.279
ROOT
ATOM    138  H39 UNL A   1      18.229  50.837  -2.434  1.00  0.00    +0.000 H 
ATOM    139  H40 UNL A   1      18.777  53.380  -2.248  1.00  0.00    +0.000 H 
ATOM    140  H41 UNL A   1      16.377  52.329   0.959  1.00  0.00    +0.000 H 
ATOM    141  H42 UNL A   1      13.033  54.019   6.129  1.00  0.00    +0.000 H 
ATOM    142  H43 UNL A   1      12.514  51.538   5.947  1.00  0.00    +0.000 H 
ATOM    143  H44 UNL A   1      15.036  52.543   2.799  1.00  0.00    +0.000 H 
ATOM    144  H45 UNL A   1      16.030  57.438   3.315  1.00  0.00    +0.000 H 
ATOM    145  H46 UNL A   1      17.324  57.274   1.113  1.00  0.00    +0.000 H 
ATOM    146  H47 UNL A   1      15.535  47.400   0.686  1.00  0.00    +0.000 H 
ATOM    147  H48 UNL A   1      13.820  47.635   2.573  1.00  0.00    +0.000 H 
ATOM     41  C29 UNL A   1      13.715  50.251   3.705  1.00  0.00    +0.000 C 
ATOM     42  C30 UNL A   1      14.506  49.796   2.511  1.00  0.00    +0.000 C 
ATOM     43  N7  UNL A   1      15.304  50.486   1.736  1.00  0.00    +0.000 N 
ATOM     44  C31 UNL A   1      15.813  49.580   0.815  1.00  0.00    +0.000 C 
ATOM     45  C32 UNL A   1      16.634  49.815  -0.237  1.00  0.00    +0.000 C 
ATOM     57  C39 UNL A   1      17.137  51.115  -0.593  1.00  0.00    +0.000 C 
ATOM     58  C40 UNL A   1      17.912  51.470  -1.683  1.00  0.00    +0.000 C 
ATOM     59  C41 UNL A   1      18.193  52.839  -1.592  1.00  0.00    +0.000 C 
ATOM     60  C42 UNL A   1      17.554  53.343  -0.470  1.00  0.00    +0.000 C 
ATOM     61  N8  UNL A   1      16.913  52.274   0.134  1.00  0.00    +0.000 N 
ATOM     62  C43 UNL A   1      17.530  54.699   0.015  1.00  0.00    +0.000 C 
ATOM     74  C50 UNL A   1      16.867  55.119   1.120  1.00  0.00    +0.000 C 
ATOM     75  N9  UNL A   1      16.091  54.385   2.006  1.00  0.00    +0.000 N 
ATOM     76  C51 UNL A   1      15.684  55.233   2.918  1.00  0.00    +0.000 C 
ATOM     77  C52 UNL A   1      14.792  54.995   4.105  1.00  0.00    +0.000 C 
ATOM     89  C59 UNL A   1      14.289  53.763   4.312  1.00  0.00    +0.000 C 
ATOM     90  C60 UNL A   1      13.393  53.383   5.400  1.00  0.00    +0.000 C 
ATOM     91  C61 UNL A   1      13.112  52.074   5.298  1.00  0.00    +0.000 C 
ATOM     92  C62 UNL A   1      13.788  51.530   4.120  1.00  0.00    +0.000 C 
ATOM     93  N10 UNL A   1      14.470  52.601   3.602  1.00  0.00    +0.000 N 
ATOM     94  C63 UNL A   1      16.176  56.604   2.725  1.00  0.00    +0.000 C 
ATOM     95  C64 UNL A   1      16.858  56.488   1.594  1.00  0.00    +0.000 C 
ATOM     96  C65 UNL A   1      15.276  48.282   1.157  1.00  0.00    +0.000 C 
ATOM     97  C66 UNL A   1      14.409  48.372   2.155  1.00  0.00    +0.000 C 
ENDROOT
BRANCH   41   40
ATOM     98  C67 UNL A   1      11.534  49.108   4.130  1.00  0.00    +0.000 C 
ATOM     99  C68 UNL A   1      10.737  48.237   4.867  1.00  0.00    +0.000 C 
ATOM     37  C25 UNL A   1      11.307  47.455   5.876  1.00  0.00    +0.000 C 
ATOM     38  C26 UNL A   1      12.651  47.623   6.220  1.00  0.00    +0.000 C 
ATOM     39  C27 UNL A   1      13.432  48.547   5.527  1.00  0.00    +0.000 C 
ATOM    136  H37 UNL A   1      13.063  47.065   6.984  1.00  0.00    +0.000 H 
ATOM     40  C28 UNL A   1      12.886  49.282   4.462  1.00  0.00    +0.000 C 
ATOM    137  H38 UNL A   1      14.417  48.692   5.798  1.00  0.00    +0.000 H 
ATOM    148  H49 UNL A   1      11.129  49.628   3.335  1.00  0.00    +0.000 H 
ATOM    149  H50 UNL A   1       9.726  48.169   4.670  1.00  0.00    +0.000 H 
BRANCH   37   35
ATOM     35  C24 UNL A   1      10.507  46.456   6.619  1.00  0.00    +0.000 C 
ATOM     36  O5  UNL A   1      10.727  45.264   6.468  1.00  0.00    +0.000 O 
BRANCH   35   34
ATOM     34  N6  UNL A   1       9.510  46.874   7.464  1.00  0.00    +0.000 N 
ATOM    135  H36 UNL A   1       8.862  47.504   7.073  1.00  0.00    +0.000 H 
BRANCH   34   33
ATOM     33  C23 UNL A   1       9.275  46.518   8.851  1.00  0.00    +0.000 C 
ATOM    133  H34 UNL A   1       8.254  46.730   9.092  1.00  0.00    +0.000 H 
ATOM    134  H35 UNL A   1       9.495  45.477   8.964  1.00  0.00    +0.000 H 
BRANCH   33   32
ATOM    131  H32 UNL A   1      10.668  48.060   9.247  1.00  0.00    +0.000 H 
ATOM    132  H33 UNL A   1       9.537  47.670  10.577  1.00  0.00    +0.000 H 
ATOM     32  C22 UNL A   1      10.175  47.292   9.805  1.00  0.00    +0.000 C 
BRANCH   32   31
ATOM    129  H30 UNL A   1      11.703  47.066  11.258  1.00  0.00    +0.000 H 
ATOM    130  H31 UNL A   1      10.737  45.599  10.902  1.00  0.00    +0.000 H 
ATOM     31  C21 UNL A   1      11.245  46.455  10.509  1.00  0.00    +0.000 C 
BRANCH   31   30
ATOM     30  C20 UNL A   1      12.353  45.907   9.604  1.00  0.00    +0.000 C 
ATOM    127  H28 UNL A   1      12.646  44.950   9.983  1.00  0.00    +0.000 H 
ATOM    128  H29 UNL A   1      11.938  45.870   8.619  1.00  0.00    +0.000 H 
BRANCH   30   29
ATOM    125  H26 UNL A   1      14.452  46.135   9.381  1.00  0.00    +0.000 H 
ATOM     29  C19 UNL A   1      13.606  46.779   9.503  1.00  0.00    +0.000 C 
ATOM    126  H27 UNL A   1      13.451  47.434   8.672  1.00  0.00    +0.000 H 
BRANCH   29   28
ATOM    124  H25 UNL A   1      14.320  47.078  11.472  1.00  0.00    +0.000 H 
ATOM    123  H24 UNL A   1      12.930  48.079  11.046  1.00  0.00    +0.000 H 
ATOM     28  C18 UNL A   1      13.862  47.673  10.711  1.00  0.00    +0.000 C 
BRANCH   28   27
ATOM    122  H23 UNL A   1      15.695  48.505  10.224  1.00  0.00    +0.000 H 
ATOM     27  N5  UNL A   1      14.760  48.764  10.394  1.00  0.00    +0.000 N 
BRANCH   27   25
ATOM     25  C17 UNL A   1      14.500  50.097  10.297  1.00  0.00    +0.000 C 
ATOM     26  O4  UNL A   1      14.298  50.551   9.165  1.00  0.00    +0.000 O 
BRANCH   25   22
ATOM    118  H19 UNL A   1      13.865  51.851  11.253  1.00  0.00    +0.000 H 
ATOM     22  C15 UNL A   1      14.513  51.039  11.507  1.00  0.00    +0.000 C 
BRANCH   22   21
ATOM    117  H18 UNL A   1      14.471  49.825  13.257  1.00  0.00    +0.000 H 
ATOM     21  N4  UNL A   1      13.930  50.442  12.713  1.00  0.00    +0.000 N 
BRANCH   21   19
ATOM     19  C14 UNL A   1      12.656  50.723  13.089  1.00  0.00    +0.000 C 
ATOM     20  O2  UNL A   1      11.759  50.125  12.490  1.00  0.00    +0.000 O 
BRANCH   19   16
ATOM    113  H14 UNL A   1      13.304  52.116  14.531  1.00  0.00    +0.000 H 
ATOM     16  C12 UNL A   1      12.357  51.733  14.217  1.00  0.00    +0.000 C 
BRANCH   16   15
ATOM     15  N3  UNL A   1      11.569  52.827  13.671  1.00  0.00    +0.000 N 
ATOM    112  H13 UNL A   1      10.591  52.723  13.638  1.00  0.00    +0.000 H 
BRANCH   15   13
ATOM     13  C11 UNL A   1      12.114  53.998  13.200  1.00  0.00    +0.000 C 
ATOM     14  O1  UNL A   1      13.260  54.264  13.573  1.00  0.00    +0.000 O 
BRANCH   13    2
ATOM      2  C1  UNL A   1      11.364  54.904  12.182  1.00  0.00    +0.000 C 
ATOM    103  H4  UNL A   1      10.420  54.434  12.001  1.00  0.00    +0.000 H 
BRANCH    2    1
ATOM      1  N1  UNL A   1      11.046  56.218  12.782  1.00  0.00    +0.000 N 
ATOM    100  H1  UNL A   1      11.530  56.309  13.675  1.00  0.00    +0.000 H 
ATOM    101  H2  UNL A   1      10.039  56.288  12.932  1.00  0.00    +0.000 H 
ATOM    102  H3  UNL A   1      11.349  56.961  12.153  1.00  0.00    +0.000 H 
ENDBRANCH    2    1
BRANCH    2    3
ATOM    105  H6  UNL A   1      11.433  55.781  10.318  1.00  0.00    +0.000 H 
ATOM      3  C2  UNL A   1      11.867  54.889  10.719  1.00  0.00    +0.000 C 
ATOM    104  H5  UNL A   1      12.932  54.815  10.766  1.00  0.00    +0.000 H 
BRANCH    3    4
ATOM      4  C3  UNL A   1      11.407  53.832   9.736  1.00  0.00    +0.000 C 
ATOM      5  C4  UNL A   1      11.443  52.451   9.832  1.00  0.00    +0.000 C 
ATOM      6  N2  UNL A   1      10.784  51.918   8.754  1.00  0.00    +0.000 N 
ATOM      7  C5  UNL A   1      10.449  52.909   7.868  1.00  0.00    +0.000 C 
ATOM      8  C6  UNL A   1       9.815  52.828   6.621  1.00  0.00    +0.000 C 
ATOM      9  C7  UNL A   1       9.681  54.008   5.885  1.00  0.00    +0.000 C 
ATOM    106  H7  UNL A   1      11.892  51.913  10.590  1.00  0.00    +0.000 H 
ATOM     11  C9  UNL A   1      10.728  55.289   7.659  1.00  0.00    +0.000 C 
ATOM     12  C10 UNL A   1      10.882  54.114   8.423  1.00  0.00    +0.000 C 
ATOM     10  C8  UNL A   1      10.147  55.220   6.387  1.00  0.00    +0.000 C 
ATOM    107  H8  UNL A   1      10.580  50.962   8.635  1.00  0.00    +0.000 H 
ATOM    111  H12 UNL A   1      11.042  56.197   8.035  1.00  0.00    +0.000 H 
ATOM    108  H9  UNL A   1       9.462  51.928   6.259  1.00  0.00    +0.000 H 
ATOM    110  H11 UNL A   1      10.062  56.075   5.816  1.00  0.00    +0.000 H 
ATOM    109  H10 UNL A   1       9.231  53.980   4.957  1.00  0.00    +0.000 H 
ENDBRANCH    3    4
ENDBRANCH    2    3
ENDBRANCH   13    2
ENDBRANCH   15   13
ENDBRANCH   16   15
BRANCH   16   17
ATOM     17  C13 UNL A   1      11.973  51.214  15.611  1.00  0.00    +0.000 C 
ATOM    114  H15 UNL A   1      12.882  51.031  16.144  1.00  0.00    +0.000 H 
ATOM    115  H16 UNL A   1      11.370  50.352  15.421  1.00  0.00    +0.000 H 
BRANCH   17   18
ATOM     18  S1  UNL A   1      10.932  52.283  16.659  1.00  0.00    +0.000 S 
ATOM    116  H17 UNL A   1      11.376  53.566  16.580  1.00  0.00    +0.000 H 
ENDBRANCH   17   18
ENDBRANCH   16   17
ENDBRANCH   19   16
ENDBRANCH   21   19
ENDBRANCH   22   21
BRANCH   22   23
ATOM    119  H20 UNL A   1      16.203  52.187  10.883  1.00  0.00    +0.000 H 
ATOM     23  C16 UNL A   1      15.902  51.648  11.757  1.00  0.00    +0.000 C 
ATOM    120  H21 UNL A   1      16.577  50.845  11.974  1.00  0.00    +0.000 H 
BRANCH   23   24
ATOM    121  H22 UNL A   1      15.081  52.451  13.363  1.00  0.00    +0.000 H 
ATOM     24  O3  UNL A   1      15.911  52.539  12.871  1.00  0.00    +0.000 O 
ENDBRANCH   23   24
ENDBRANCH   22   23
ENDBRANCH   25   22
ENDBRANCH   27   25
ENDBRANCH   28   27
ENDBRANCH   29   28
ENDBRANCH   30   29
ENDBRANCH   31   30
ENDBRANCH   32   31
ENDBRANCH   33   32
ENDBRANCH   34   33
ENDBRANCH   35   34
ENDBRANCH   37   35
ENDBRANCH   41   40
BRANCH   45   46
ATOM     46  C33 UNL A   1      17.034  48.641  -1.082  1.00  0.00    +0.000 C 
ATOM     47  C34 UNL A   1      18.091  47.796  -0.712  1.00  0.00    +0.000 C 
ATOM     48  F1  UNL A   1      18.805  48.051   0.394  1.00  0.00    +0.000 F 
ATOM     49  C35 UNL A   1      18.445  46.704  -1.502  1.00  0.00    +0.000 C 
ATOM     50  F2  UNL A   1      19.488  45.938  -1.153  1.00  0.00    +0.000 F 
ATOM     51  C36 UNL A   1      17.728  46.415  -2.652  1.00  0.00    +0.000 C 
ATOM     52  F3  UNL A   1      18.066  45.361  -3.407  1.00  0.00    +0.000 F 
ATOM     53  C37 UNL A   1      16.667  47.226  -3.026  1.00  0.00    +0.000 C 
ATOM     54  F4  UNL A   1      15.966  46.942  -4.133  1.00  0.00    +0.000 F 
ATOM     55  C38 UNL A   1      16.329  48.335  -2.255  1.00  0.00    +0.000 C 
ATOM     56  F5  UNL A   1      15.307  49.109  -2.651  1.00  0.00    +0.000 F 
ENDBRANCH   45   46
BRANCH   62   63
ATOM     65  F6  UNL A   1      20.250  55.437   0.534  1.00  0.00    +0.000 F 
ATOM     66  C46 UNL A   1      20.309  56.992  -1.231  1.00  0.00    +0.000 C 
ATOM     67  F7  UNL A   1      21.574  57.301  -0.916  1.00  0.00    +0.000 F 
ATOM     68  C47 UNL A   1      19.682  57.635  -2.289  1.00  0.00    +0.000 C 
ATOM     69  F8  UNL A   1      20.348  58.549  -3.008  1.00  0.00    +0.000 F 
ATOM     70  C48 UNL A   1      18.364  57.336  -2.597  1.00  0.00    +0.000 C 
ATOM     71  F9  UNL A   1      17.762  57.946  -3.627  1.00  0.00    +0.000 F 
ATOM     72  C49 UNL A   1      17.665  56.403  -1.837  1.00  0.00    +0.000 C 
ATOM     73  F10 UNL A   1      16.387  56.142  -2.150  1.00  0.00    +0.000 F 
ATOM     63  C44 UNL A   1      18.281  55.734  -0.768  1.00  0.00    +0.000 C 
ATOM     64  C45 UNL A   1      19.622  56.038  -0.487  1.00  0.00    +0.000 C 
ENDBRANCH   62   63
BRANCH   77   78
ATOM     78  C53 UNL A   1      14.436  56.104   5.027  1.00  0.00    +0.000 C 
ATOM     79  C54 UNL A   1      13.177  56.718   4.964  1.00  0.00    +0.000 C 
ATOM     80  F11 UNL A   1      12.284  56.316   4.048  1.00  0.00    +0.000 F 
ATOM     81  C55 UNL A   1      12.846  57.771   5.812  1.00  0.00    +0.000 C 
ATOM     82  F12 UNL A   1      11.652  58.370   5.700  1.00  0.00    +0.000 F 
ATOM     83  C56 UNL A   1      13.757  58.213   6.760  1.00  0.00    +0.000 C 
ATOM     84  F13 UNL A   1      13.437  59.225   7.578  1.00  0.00    +0.000 F 
ATOM     85  C57 UNL A   1      15.001  57.609   6.854  1.00  0.00    +0.000 C 
ATOM     86  F14 UNL A   1      15.879  58.024   7.779  1.00  0.00    +0.000 F 
ATOM     87  C58 UNL A   1      15.343  56.572   5.988  1.00  0.00    +0.000 C 
ATOM     88  F15 UNL A   1      16.558  56.014   6.095  1.00  0.00    +0.000 F 
ENDBRANCH   77   78
TORSDOF 28
ENDMDL
MODEL 5
REMARK VINA RESULT:      -5.9      8.555     14.209
ROOT
ATOM    138  H39 UNL A   1      52.696  31.334   7.171  1.00  0.00    +0.000 H 
ATOM    139  H40 UNL A   1      52.841  32.322   4.762  1.00  0.00    +0.000 H 
ATOM    140  H41 UNL A   1      55.050  28.821   4.867  1.00  0.00    +0.000 H 
ATOM    141  H42 UNL A   1      58.989  24.699   1.993  1.00  0.00    +0.000 H 
ATOM    142  H43 UNL A   1      58.833  23.737   4.339  1.00  0.00    +0.000 H 
ATOM    143  H44 UNL A   1      56.497  27.173   4.217  1.00  0.00    +0.000 H 
ATOM    144  H45 UNL A   1      56.844  28.928  -0.475  1.00  0.00    +0.000 H 
ATOM    145  H46 UNL A   1      55.436  30.919   0.305  1.00  0.00    +0.000 H 
ATOM    146  H47 UNL A   1      54.562  26.843   9.442  1.00  0.00    +0.000 H 
ATOM    147  H48 UNL A   1      56.377  25.137   8.848  1.00  0.00    +0.000 H 
ATOM     41  C29 UNL A   1      57.221  25.264   6.127  1.00  0.00    +0.000 C 
ATOM     42  C30 UNL A   1      56.276  26.189   6.842  1.00  0.00    +0.000 C 
ATOM     43  N7  UNL A   1      55.645  27.242   6.385  1.00  0.00    +0.000 N 
ATOM     44  C31 UNL A   1      54.870  27.704   7.440  1.00  0.00    +0.000 C 
ATOM     45  C32 UNL A   1      54.084  28.807   7.490  1.00  0.00    +0.000 C 
ATOM     57  C39 UNL A   1      53.919  29.731   6.401  1.00  0.00    +0.000 C 
ATOM     58  C40 UNL A   1      53.207  30.918   6.377  1.00  0.00    +0.000 C 
ATOM     59  C41 UNL A   1      53.298  31.456   5.088  1.00  0.00    +0.000 C 
ATOM     60  C42 UNL A   1      54.105  30.628   4.323  1.00  0.00    +0.000 C 
ATOM     61  N8  UNL A   1      54.476  29.573   5.141  1.00  0.00    +0.000 N 
ATOM     62  C43 UNL A   1      54.507  30.786   2.950  1.00  0.00    +0.000 C 
ATOM     74  C50 UNL A   1      55.315  29.935   2.272  1.00  0.00    +0.000 C 
ATOM     75  N9  UNL A   1      55.919  28.766   2.711  1.00  0.00    +0.000 N 
ATOM     76  C51 UNL A   1      56.581  28.293   1.684  1.00  0.00    +0.000 C 
ATOM     77  C52 UNL A   1      57.442  27.063   1.595  1.00  0.00    +0.000 C 
ATOM     89  C59 UNL A   1      57.615  26.302   2.692  1.00  0.00    +0.000 C 
ATOM     90  C60 UNL A   1      58.438  25.098   2.769  1.00  0.00    +0.000 C 
ATOM     91  C61 UNL A   1      58.362  24.595   4.011  1.00  0.00    +0.000 C 
ATOM     92  C62 UNL A   1      57.505  25.458   4.825  1.00  0.00    +0.000 C 
ATOM     93  N10 UNL A   1      57.100  26.440   3.958  1.00  0.00    +0.000 N 
ATOM     94  C63 UNL A   1      56.453  29.101   0.464  1.00  0.00    +0.000 C 
ATOM     95  C64 UNL A   1      55.706  30.111   0.888  1.00  0.00    +0.000 C 
ATOM     96  C65 UNL A   1      55.066  26.790   8.543  1.00  0.00    +0.000 C 
ATOM     97  C66 UNL A   1      55.979  25.876   8.248  1.00  0.00    +0.000 C 
ENDROOT
BRANCH   41   40
ATOM     98  C67 UNL A   1      59.056  24.225   7.467  1.00  0.00    +0.000 C 
ATOM     99  C68 UNL A   1      59.635  23.126   8.095  1.00  0.00    +0.000 C 
ATOM     37  C25 UNL A   1      58.927  21.924   8.192  1.00  0.00    +0.000 C 
ATOM     38  C26 UNL A   1      57.685  21.789   7.566  1.00  0.00    +0.000 C 
ATOM     39  C27 UNL A   1      57.136  22.870   6.876  1.00  0.00    +0.000 C 
ATOM    136  H37 UNL A   1      57.177  20.892   7.614  1.00  0.00    +0.000 H 
ATOM     40  C28 UNL A   1      57.807  24.103   6.839  1.00  0.00    +0.000 C 
ATOM    137  H38 UNL A   1      56.232  22.762   6.390  1.00  0.00    +0.000 H 
ATOM    148  H49 UNL A   1      59.547  25.133   7.463  1.00  0.00    +0.000 H 
ATOM    149  H50 UNL A   1      60.588  23.197   8.488  1.00  0.00    +0.000 H 
BRANCH   37   35
ATOM     35  C24 UNL A   1      59.478  20.765   8.929  1.00  0.00    +0.000 C 
ATOM     36  O5  UNL A   1      60.565  20.853   9.479  1.00  0.00    +0.000 O 
BRANCH   35   34
ATOM     34  N6  UNL A   1      58.770  19.591   8.979  1.00  0.00    +0.000 N 
ATOM    135  H36 UNL A   1      58.890  18.992   8.207  1.00  0.00    +0.000 H 
BRANCH   34   33
ATOM     33  C23 UNL A   1      57.869  19.106  10.008  1.00  0.00    +0.000 C 
ATOM    133  H34 UNL A   1      58.447  18.638  10.779  1.00  0.00    +0.000 H 
ATOM    134  H35 UNL A   1      57.321  19.944  10.386  1.00  0.00    +0.000 H 
BRANCH   33   32
ATOM    131  H32 UNL A   1      57.130  17.875   8.455  1.00  0.00    +0.000 H 
ATOM    132  H33 UNL A   1      56.916  17.247  10.116  1.00  0.00    +0.000 H 
ATOM     32  C22 UNL A   1      56.865  18.097   9.467  1.00  0.00    +0.000 C 
BRANCH   32   31
ATOM    129  H30 UNL A   1      55.386  19.572   9.835  1.00  0.00    +0.000 H 
ATOM    130  H31 UNL A   1      55.049  18.443   8.484  1.00  0.00    +0.000 H 
ATOM     31  C21 UNL A   1      55.407  18.560   9.486  1.00  0.00    +0.000 C 
BRANCH   31   30
ATOM     30  C20 UNL A   1      54.465  17.737  10.368  1.00  0.00    +0.000 C 
ATOM    127  H28 UNL A   1      55.013  16.898  10.745  1.00  0.00    +0.000 H 
ATOM    128  H29 UNL A   1      54.120  18.401  11.132  1.00  0.00    +0.000 H 
BRANCH   30   29
ATOM    125  H26 UNL A   1      53.164  17.639   8.693  1.00  0.00    +0.000 H 
ATOM     29  C19 UNL A   1      53.211  17.207   9.671  1.00  0.00    +0.000 C 
ATOM    126  H27 UNL A   1      53.301  16.141   9.658  1.00  0.00    +0.000 H 
BRANCH   29   28
ATOM    124  H25 UNL A   1      51.753  16.773  11.142  1.00  0.00    +0.000 H 
ATOM    123  H24 UNL A   1      51.105  17.506   9.673  1.00  0.00    +0.000 H 
ATOM     28  C18 UNL A   1      51.902  17.516  10.387  1.00  0.00    +0.000 C 
BRANCH   28   27
ATOM    122  H23 UNL A   1      52.709  18.971  11.620  1.00  0.00    +0.000 H 
ATOM     27  N5  UNL A   1      51.933  18.812  11.034  1.00  0.00    +0.000 N 
BRANCH   27   25
ATOM     25  C17 UNL A   1      51.047  19.841  10.950  1.00  0.00    +0.000 C 
ATOM     26  O4  UNL A   1      50.160  19.894  11.808  1.00  0.00    +0.000 O 
BRANCH   25   22
ATOM    118  H19 UNL A   1      50.672  21.774  10.229  1.00  0.00    +0.000 H 
ATOM     22  C15 UNL A   1      51.074  20.873   9.815  1.00  0.00    +0.000 C 
BRANCH   22   21
ATOM    117  H18 UNL A   1      52.834  20.735   8.622  1.00  0.00    +0.000 H 
ATOM     21  N4  UNL A   1      52.431  21.220   9.378  1.00  0.00    +0.000 N 
BRANCH   21   19
ATOM     19  C14 UNL A   1      53.140  22.196  10.001  1.00  0.00    +0.000 C 
ATOM     20  O2  UNL A   1      54.368  22.129   9.909  1.00  0.00    +0.000 O 
BRANCH   19   16
ATOM    113  H14 UNL A   1      51.408  23.047  10.846  1.00  0.00    +0.000 H 
ATOM     16  C12 UNL A   1      52.436  23.333  10.772  1.00  0.00    +0.000 C 
BRANCH   16   15
ATOM     15  N3  UNL A   1      52.997  23.411  12.111  1.00  0.00    +0.000 N 
ATOM    112  H13 UNL A   1      53.557  24.188  12.334  1.00  0.00    +0.000 H 
BRANCH   15   13
ATOM     13  C11 UNL A   1      52.788  22.460  13.082  1.00  0.00    +0.000 C 
ATOM     14  O1  UNL A   1      51.632  22.337  13.496  1.00  0.00    +0.000 O 
BRANCH   13    2
ATOM      2  C1  UNL A   1      53.928  21.524  13.577  1.00  0.00    +0.000 C 
ATOM    103  H4  UNL A   1      53.945  20.691  12.906  1.00  0.00    +0.000 H 
BRANCH    2    1
ATOM      1  N1  UNL A   1      55.246  22.179  13.434  1.00  0.00    +0.000 N 
ATOM    100  H1  UNL A   1      55.935  21.492  13.126  1.00  0.00    +0.000 H 
ATOM    101  H2  UNL A   1      55.532  22.568  14.333  1.00  0.00    +0.000 H 
ATOM    102  H3  UNL A   1      55.180  22.927  12.744  1.00  0.00    +0.000 H 
ENDBRANCH    2    1
BRANCH    2    3
ATOM    105  H6  UNL A   1      53.353  21.479  15.556  1.00  0.00    +0.000 H 
ATOM      3  C2  UNL A   1      53.667  20.718  14.872  1.00  0.00    +0.000 C 
ATOM    104  H5  UNL A   1      52.976  19.945  14.613  1.00  0.00    +0.000 H 
BRANCH    3    4
ATOM      4  C3  UNL A   1      54.796  20.048  15.627  1.00  0.00    +0.000 C 
ATOM      5  C4  UNL A   1      55.325  20.335  16.875  1.00  0.00    +0.000 C 
ATOM      6  N2  UNL A   1      56.241  19.365  17.197  1.00  0.00    +0.000 N 
ATOM      7  C5  UNL A   1      56.443  18.532  16.127  1.00  0.00    +0.000 C 
ATOM      8  C6  UNL A   1      57.313  17.443  15.983  1.00  0.00    +0.000 C 
ATOM      9  C7  UNL A   1      57.375  16.825  14.732  1.00  0.00    +0.000 C 
ATOM    106  H7  UNL A   1      55.073  21.143  17.464  1.00  0.00    +0.000 H 
ATOM     11  C9  UNL A   1      55.681  18.323  13.855  1.00  0.00    +0.000 C 
ATOM     12  C10 UNL A   1      55.600  18.971  15.105  1.00  0.00    +0.000 C 
ATOM     10  C8  UNL A   1      56.584  17.268  13.675  1.00  0.00    +0.000 C 
ATOM    107  H8  UNL A   1      56.687  19.279  18.070  1.00  0.00    +0.000 H 
ATOM    111  H12 UNL A   1      55.076  18.625  13.075  1.00  0.00    +0.000 H 
ATOM    108  H9  UNL A   1      57.889  17.111  16.773  1.00  0.00    +0.000 H 
ATOM    110  H11 UNL A   1      56.663  16.815  12.752  1.00  0.00    +0.000 H 
ATOM    109  H10 UNL A   1      58.015  16.028  14.589  1.00  0.00    +0.000 H 
ENDBRANCH    3    4
ENDBRANCH    2    3
ENDBRANCH   13    2
ENDBRANCH   15   13
ENDBRANCH   16   15
BRANCH   16   17
ATOM     17  C13 UNL A   1      52.137  24.657  10.053  1.00  0.00    +0.000 C 
ATOM    114  H15 UNL A   1      52.981  24.883   9.436  1.00  0.00    +0.000 H 
ATOM    115  H16 UNL A   1      51.943  25.354  10.841  1.00  0.00    +0.000 H 
BRANCH   17   18
ATOM     18  S1  UNL A   1      50.653  24.733   8.996  1.00  0.00    +0.000 S 
ATOM    116  H17 UNL A   1      50.453  23.524   8.407  1.00  0.00    +0.000 H 
ENDBRANCH   17   18
ENDBRANCH   16   17
ENDBRANCH   19   16
ENDBRANCH   21   19
ENDBRANCH   22   21
BRANCH   22   23
ATOM    119  H20 UNL A   1      49.859  21.367   8.128  1.00  0.00    +0.000 H 
ATOM     23  C16 UNL A   1      50.156  20.479   8.647  1.00  0.00    +0.000 C 
ATOM    120  H21 UNL A   1      49.311  19.963   9.054  1.00  0.00    +0.000 H 
BRANCH   23   24
ATOM    121  H22 UNL A   1      51.616  19.260   8.117  1.00  0.00    +0.000 H 
ATOM     24  O3  UNL A   1      50.799  19.602   7.723  1.00  0.00    +0.000 O 
ENDBRANCH   23   24
ENDBRANCH   22   23
ENDBRANCH   25   22
ENDBRANCH   27   25
ENDBRANCH   28   27
ENDBRANCH   29   28
ENDBRANCH   30   29
ENDBRANCH   31   30
ENDBRANCH   32   31
ENDBRANCH   33   32
ENDBRANCH   34   33
ENDBRANCH   35   34
ENDBRANCH   37   35
ENDBRANCH   41   40
BRANCH   45   46
ATOM     46  C33 UNL A   1      53.347  29.076   8.770  1.00  0.00    +0.000 C 
ATOM     47  C34 UNL A   1      52.046  28.595   8.984  1.00  0.00    +0.000 C 
ATOM     48  F1  UNL A   1      51.409  27.916   8.019  1.00  0.00    +0.000 F 
ATOM     49  C35 UNL A   1      51.379  28.845  10.181  1.00  0.00    +0.000 C 
ATOM     50  F2  UNL A   1      50.119  28.416  10.345  1.00  0.00    +0.000 F 
ATOM     51  C36 UNL A   1      52.009  29.546  11.197  1.00  0.00    +0.000 C 
ATOM     52  F3  UNL A   1      51.367  29.780  12.350  1.00  0.00    +0.000 F 
ATOM     53  C37 UNL A   1      53.301  30.013  11.014  1.00  0.00    +0.000 C 
ATOM     54  F4  UNL A   1      53.917  30.683  12.000  1.00  0.00    +0.000 F 
ATOM     55  C38 UNL A   1      53.962  29.790   9.808  1.00  0.00    +0.000 C 
ATOM     56  F5  UNL A   1      55.206  30.269   9.656  1.00  0.00    +0.000 F 
ENDBRANCH   45   46
BRANCH   62   63
ATOM     65  F6  UNL A   1      56.087  33.129   2.476  1.00  0.00    +0.000 F 
ATOM     66  C46 UNL A   1      54.368  34.216   1.290  1.00  0.00    +0.000 C 
ATOM     67  F7  UNL A   1      55.159  35.285   1.126  1.00  0.00    +0.000 F 
ATOM     68  C47 UNL A   1      53.080  34.222   0.778  1.00  0.00    +0.000 C 
ATOM     69  F8  UNL A   1      52.631  35.289   0.102  1.00  0.00    +0.000 F 
ATOM     70  C48 UNL A   1      52.252  33.127   0.973  1.00  0.00    +0.000 C 
ATOM     71  F9  UNL A   1      51.011  33.127   0.468  1.00  0.00    +0.000 F 
ATOM     72  C49 UNL A   1      52.708  32.028   1.694  1.00  0.00    +0.000 C 
ATOM     73  F10 UNL A   1      51.882  30.987   1.878  1.00  0.00    +0.000 F 
ATOM     63  C44 UNL A   1      54.012  31.995   2.213  1.00  0.00    +0.000 C 
ATOM     64  C45 UNL A   1      54.838  33.106   1.986  1.00  0.00    +0.000 C 
ENDBRANCH   62   63
BRANCH   77   78
ATOM     78  C53 UNL A   1      58.123  26.698   0.326  1.00  0.00    +0.000 C 
ATOM     79  C54 UNL A   1      59.414  27.166   0.042  1.00  0.00    +0.000 C 
ATOM     80  F11 UNL A   1      60.041  27.968   0.914  1.00  0.00    +0.000 F 
ATOM     81  C55 UNL A   1      60.049  26.845  -1.156  1.00  0.00    +0.000 C 
ATOM     82  F12 UNL A   1      61.264  27.341  -1.421  1.00  0.00    +0.000 F 
ATOM     83  C56 UNL A   1      59.416  26.026  -2.080  1.00  0.00    +0.000 C 
ATOM     84  F13 UNL A   1      60.029  25.715  -3.230  1.00  0.00    +0.000 F 
ATOM     85  C57 UNL A   1      58.147  25.537  -1.813  1.00  0.00    +0.000 C 
ATOM     86  F14 UNL A   1      57.538  24.734  -2.697  1.00  0.00    +0.000 F 
ATOM     87  C58 UNL A   1      57.501  25.879  -0.626  1.00  0.00    +0.000 C 
ATOM     88  F15 UNL A   1      56.269  25.400  -0.400  1.00  0.00    +0.000 F 
ENDBRANCH   77   78
TORSDOF 28
ENDMDL
MODEL 6
REMARK VINA RESULT:      -5.8     48.158     52.815
ROOT
ATOM    138  H39 UNL A   1      29.201 -13.696  28.246  1.00  0.00    +0.000 H 
ATOM    139  H40 UNL A   1      27.189 -12.318  27.322  1.00  0.00    +0.000 H 
ATOM    140  H41 UNL A   1      26.820 -12.556  31.440  1.00  0.00    +0.000 H 
ATOM    141  H42 UNL A   1      23.469 -11.401  36.750  1.00  0.00    +0.000 H 
ATOM    142  H43 UNL A   1      25.440 -12.734  37.644  1.00  0.00    +0.000 H 
ATOM    143  H44 UNL A   1      25.902 -12.388  33.527  1.00  0.00    +0.000 H 
ATOM    144  H45 UNL A   1      21.990  -9.688  31.907  1.00  0.00    +0.000 H 
ATOM    145  H46 UNL A   1      22.865 -10.087  29.534  1.00  0.00    +0.000 H 
ATOM    146  H47 UNL A   1      30.817 -15.013  33.191  1.00  0.00    +0.000 H 
ATOM    147  H48 UNL A   1      29.704 -15.085  35.497  1.00  0.00    +0.000 H 
ATOM     41  C29 UNL A   1      27.269 -13.607  35.639  1.00  0.00    +0.000 C 
ATOM     42  C30 UNL A   1      28.109 -13.882  34.424  1.00  0.00    +0.000 C 
ATOM     43  N7  UNL A   1      27.912 -13.516  33.182  1.00  0.00    +0.000 N 
ATOM     44  C31 UNL A   1      29.005 -13.991  32.470  1.00  0.00    +0.000 C 
ATOM     45  C32 UNL A   1      29.239 -13.925  31.137  1.00  0.00    +0.000 C 
ATOM     57  C39 UNL A   1      28.340 -13.323  30.189  1.00  0.00    +0.000 C 
ATOM     58  C40 UNL A   1      28.449 -13.272  28.810  1.00  0.00    +0.000 C 
ATOM     59  C41 UNL A   1      27.360 -12.546  28.313  1.00  0.00    +0.000 C 
ATOM     60  C42 UNL A   1      26.550 -12.185  29.379  1.00  0.00    +0.000 C 
ATOM     61  N8  UNL A   1      27.165 -12.665  30.523  1.00  0.00    +0.000 N 
ATOM     62  C43 UNL A   1      25.309 -11.456  29.356  1.00  0.00    +0.000 C 
ATOM     74  C50 UNL A   1      24.564 -11.151  30.446  1.00  0.00    +0.000 C 
ATOM     75  N9  UNL A   1      24.803 -11.451  31.780  1.00  0.00    +0.000 N 
ATOM     76  C51 UNL A   1      23.808 -10.927  32.453  1.00  0.00    +0.000 C 
ATOM     77  C52 UNL A   1      23.537 -10.966  33.931  1.00  0.00    +0.000 C 
ATOM     89  C59 UNL A   1      24.385 -11.633  34.737  1.00  0.00    +0.000 C 
ATOM     90  C60 UNL A   1      24.243 -11.782  36.183  1.00  0.00    +0.000 C 
ATOM     91  C61 UNL A   1      25.279 -12.494  36.653  1.00  0.00    +0.000 C 
ATOM     92  C62 UNL A   1      26.145 -12.874  35.536  1.00  0.00    +0.000 C 
ATOM     93  N10 UNL A   1      25.541 -12.312  34.440  1.00  0.00    +0.000 N 
ATOM     94  C63 UNL A   1      22.832 -10.211  31.620  1.00  0.00    +0.000 C 
ATOM     95  C64 UNL A   1      23.317 -10.414  30.403  1.00  0.00    +0.000 C 
ATOM     96  C65 UNL A   1      29.888 -14.626  33.423  1.00  0.00    +0.000 C 
ATOM     97  C66 UNL A   1      29.348 -14.647  34.634  1.00  0.00    +0.000 C 
ENDROOT
BRANCH   41   40
ATOM     98  C67 UNL A   1      27.189 -15.310  37.466  1.00  0.00    +0.000 C 
ATOM     99  C68 UNL A   1      27.551 -15.756  38.734  1.00  0.00    +0.000 C 
ATOM     37  C25 UNL A   1      28.506 -15.052  39.475  1.00  0.00    +0.000 C 
ATOM     38  C26 UNL A   1      29.018 -13.845  38.994  1.00  0.00    +0.000 C 
ATOM     39  C27 UNL A   1      28.602 -13.362  37.753  1.00  0.00    +0.000 C 
ATOM    136  H37 UNL A   1      29.702 -13.312  39.555  1.00  0.00    +0.000 H 
ATOM     40  C28 UNL A   1      27.701 -14.101  36.970  1.00  0.00    +0.000 C 
ATOM    137  H38 UNL A   1      28.958 -12.457  37.409  1.00  0.00    +0.000 H 
ATOM    148  H49 UNL A   1      26.543 -15.870  36.889  1.00  0.00    +0.000 H 
ATOM    149  H50 UNL A   1      27.114 -16.604  39.128  1.00  0.00    +0.000 H 
BRANCH   37   35
ATOM     35  C24 UNL A   1      28.977 -15.547  40.788  1.00  0.00    +0.000 C 
ATOM     36  O5  UNL A   1      28.170 -15.931  41.620  1.00  0.00    +0.000 O 
BRANCH   35   34
ATOM     34  N6  UNL A   1      30.320 -15.557  41.070  1.00  0.00    +0.000 N 
ATOM    135  H36 UNL A   1      30.916 -15.480  40.289  1.00  0.00    +0.000 H 
BRANCH   34   33
ATOM     33  C23 UNL A   1      30.987 -15.666  42.353  1.00  0.00    +0.000 C 
ATOM    133  H34 UNL A   1      30.384 -15.187  43.096  1.00  0.00    +0.000 H 
ATOM    134  H35 UNL A   1      31.118 -16.706  42.568  1.00  0.00    +0.000 H 
BRANCH   33   32
ATOM    131  H32 UNL A   1      33.087 -15.770  42.119  1.00  0.00    +0.000 H 
ATOM    132  H33 UNL A   1      32.321 -14.234  41.614  1.00  0.00    +0.000 H 
ATOM     32  C22 UNL A   1      32.364 -15.014  42.345  1.00  0.00    +0.000 C 
BRANCH   32   31
ATOM    129  H30 UNL A   1      33.333 -15.056  44.231  1.00  0.00    +0.000 H 
ATOM    130  H31 UNL A   1      33.332 -13.476  43.385  1.00  0.00    +0.000 H 
ATOM     31  C21 UNL A   1      32.772 -14.346  43.660  1.00  0.00    +0.000 C 
BRANCH   31   30
ATOM     30  C20 UNL A   1      31.618 -13.845  44.531  1.00  0.00    +0.000 C 
ATOM    127  H28 UNL A   1      31.528 -12.788  44.385  1.00  0.00    +0.000 H 
ATOM    128  H29 UNL A   1      30.754 -14.395  44.222  1.00  0.00    +0.000 H 
BRANCH   30   29
ATOM    125  H26 UNL A   1      31.108 -13.443  46.553  1.00  0.00    +0.000 H 
ATOM     29  C19 UNL A   1      31.770 -14.103  46.031  1.00  0.00    +0.000 C 
ATOM    126  H27 UNL A   1      31.541 -15.137  46.184  1.00  0.00    +0.000 H 
BRANCH   29   28
ATOM    124  H25 UNL A   1      33.763 -13.429  45.811  1.00  0.00    +0.000 H 
ATOM    123  H24 UNL A   1      33.587 -14.839  46.858  1.00  0.00    +0.000 H 
ATOM     28  C18 UNL A   1      33.177 -13.891  46.577  1.00  0.00    +0.000 C 
BRANCH   28   27
ATOM    122  H23 UNL A   1      32.438 -12.375  47.778  1.00  0.00    +0.000 H 
ATOM     27  N5  UNL A   1      33.182 -13.019  47.734  1.00  0.00    +0.000 N 
BRANCH   27   25
ATOM     25  C17 UNL A   1      34.065 -12.961  48.767  1.00  0.00    +0.000 C 
ATOM     26  O4  UNL A   1      35.237 -12.680  48.493  1.00  0.00    +0.000 O 
BRANCH   25   22
ATOM    118  H19 UNL A   1      33.481 -14.340  50.235  1.00  0.00    +0.000 H 
ATOM     22  C15 UNL A   1      33.677 -13.289  50.215  1.00  0.00    +0.000 C 
BRANCH   22   21
ATOM    117  H18 UNL A   1      35.087 -12.167  51.351  1.00  0.00    +0.000 H 
ATOM     21  N4  UNL A   1      34.770 -13.081  51.169  1.00  0.00    +0.000 N 
BRANCH   21   19
ATOM     19  C14 UNL A   1      35.354 -14.129  51.806  1.00  0.00    +0.000 C 
ATOM     20  O2  UNL A   1      34.935 -14.390  52.937  1.00  0.00    +0.000 O 
BRANCH   19   16
ATOM    113  H14 UNL A   1      36.756 -14.410  50.259  1.00  0.00    +0.000 H 
ATOM     16  C12 UNL A   1      36.474 -14.953  51.137  1.00  0.00    +0.000 C 
BRANCH   16   15
ATOM     15  N3  UNL A   1      37.615 -15.013  52.036  1.00  0.00    +0.000 N 
ATOM    112  H13 UNL A   1      37.739 -15.827  52.574  1.00  0.00    +0.000 H 
BRANCH   15   13
ATOM     13  C11 UNL A   1      38.530 -13.996  52.175  1.00  0.00    +0.000 C 
ATOM     14  O1  UNL A   1      38.447 -13.314  53.201  1.00  0.00    +0.000 O 
BRANCH   13    2
ATOM      2  C1  UNL A   1      39.668 -13.764  51.140  1.00  0.00    +0.000 C 
ATOM    103  H4  UNL A   1      40.568 -14.114  51.600  1.00  0.00    +0.000 H 
BRANCH    2    1
ATOM      1  N1  UNL A   1      39.474 -14.615  49.946  1.00  0.00    +0.000 N 
ATOM    100  H1  UNL A   1      39.586 -14.048  49.104  1.00  0.00    +0.000 H 
ATOM    101  H2  UNL A   1      38.536 -15.015  49.963  1.00  0.00    +0.000 H 
ATOM    102  H3  UNL A   1      40.165 -15.364  49.947  1.00  0.00    +0.000 H 
ENDBRANCH    2    1
BRANCH    2    3
ATOM    105  H6  UNL A   1      40.474 -12.018  51.882  1.00  0.00    +0.000 H 
ATOM      3  C2  UNL A   1      40.127 -12.304  50.911  1.00  0.00    +0.000 C 
ATOM    104  H5  UNL A   1      40.828 -12.331  50.105  1.00  0.00    +0.000 H 
BRANCH    3    4
ATOM      4  C3  UNL A   1      39.137 -11.206  50.583  1.00  0.00    +0.000 C 
ATOM      5  C4  UNL A   1      38.528 -10.280  51.413  1.00  0.00    +0.000 C 
ATOM      6  N2  UNL A   1      37.819  -9.396  50.640  1.00  0.00    +0.000 N 
ATOM      7  C5  UNL A   1      37.818  -9.808  49.332  1.00  0.00    +0.000 C 
ATOM      8  C6  UNL A   1      37.189  -9.250  48.211  1.00  0.00    +0.000 C 
ATOM      9  C7  UNL A   1      37.287  -9.943  47.002  1.00  0.00    +0.000 C 
ATOM    106  H7  UNL A   1      38.596 -10.258  52.443  1.00  0.00    +0.000 H 
ATOM     11  C9  UNL A   1      38.666 -11.649  48.037  1.00  0.00    +0.000 C 
ATOM     12  C10 UNL A   1      38.581 -10.974  49.273  1.00  0.00    +0.000 C 
ATOM     10  C8  UNL A   1      38.000 -11.136  46.918  1.00  0.00    +0.000 C 
ATOM    107  H8  UNL A   1      37.376  -8.583  50.975  1.00  0.00    +0.000 H 
ATOM    111  H12 UNL A   1      39.218 -12.517  47.958  1.00  0.00    +0.000 H 
ATOM    108  H9  UNL A   1      36.672  -8.359  48.277  1.00  0.00    +0.000 H 
ATOM    110  H11 UNL A   1      38.038 -11.646  46.022  1.00  0.00    +0.000 H 
ATOM    109  H10 UNL A   1      36.825  -9.565  46.160  1.00  0.00    +0.000 H 
ENDBRANCH    3    4
ENDBRANCH    2    3
ENDBRANCH   13    2
ENDBRANCH   15   13
ENDBRANCH   16   15
BRANCH   16   17
ATOM     17  C13 UNL A   1      36.111 -16.234  50.370  1.00  0.00    +0.000 C 
ATOM    114  H15 UNL A   1      36.273 -16.040  49.330  1.00  0.00    +0.000 H 
ATOM    115  H16 UNL A   1      35.099 -16.438  50.648  1.00  0.00    +0.000 H 
BRANCH   17   18
ATOM     18  S1  UNL A   1      37.020 -17.759  50.786  1.00  0.00    +0.000 S 
ATOM    116  H17 UNL A   1      36.875 -18.025  52.112  1.00  0.00    +0.000 H 
ENDBRANCH   17   18
ENDBRANCH   16   17
ENDBRANCH   19   16
ENDBRANCH   21   19
ENDBRANCH   22   21
BRANCH   22   23
ATOM    119  H20 UNL A   1      31.674 -12.648  49.835  1.00  0.00    +0.000 H 
ATOM     23  C16 UNL A   1      32.375 -12.592  50.641  1.00  0.00    +0.000 C 
ATOM    120  H21 UNL A   1      32.612 -11.576  50.884  1.00  0.00    +0.000 H 
BRANCH   23   24
ATOM    121  H22 UNL A   1      31.274 -12.529  52.280  1.00  0.00    +0.000 H 
ATOM     24  O3  UNL A   1      31.792 -13.192  51.798  1.00  0.00    +0.000 O 
ENDBRANCH   23   24
ENDBRANCH   22   23
ENDBRANCH   25   22
ENDBRANCH   27   25
ENDBRANCH   28   27
ENDBRANCH   29   28
ENDBRANCH   30   29
ENDBRANCH   31   30
ENDBRANCH   32   31
ENDBRANCH   33   32
ENDBRANCH   34   33
ENDBRANCH   35   34
ENDBRANCH   37   35
ENDBRANCH   41   40
BRANCH   45   46
ATOM     46  C33 UNL A   1      30.514 -14.528  30.625  1.00  0.00    +0.000 C 
ATOM     47  C34 UNL A   1      30.648 -15.912  30.434  1.00  0.00    +0.000 C 
ATOM     48  F1  UNL A   1      29.642 -16.739  30.754  1.00  0.00    +0.000 F 
ATOM     49  C35 UNL A   1      31.835 -16.456  29.948  1.00  0.00    +0.000 C 
ATOM     50  F2  UNL A   1      31.956 -17.785  29.819  1.00  0.00    +0.000 F 
ATOM     51  C36 UNL A   1      32.894 -15.628  29.610  1.00  0.00    +0.000 C 
ATOM     52  F3  UNL A   1      34.032 -16.153  29.137  1.00  0.00    +0.000 F 
ATOM     53  C37 UNL A   1      32.776 -14.256  29.772  1.00  0.00    +0.000 C 
ATOM     54  F4  UNL A   1      33.795 -13.452  29.436  1.00  0.00    +0.000 F 
ATOM     55  C38 UNL A   1      31.601 -13.711  30.285  1.00  0.00    +0.000 C 
ATOM     56  F5  UNL A   1      31.524 -12.380  30.444  1.00  0.00    +0.000 F 
ENDBRANCH   45   46
BRANCH   62   63
ATOM     65  F6  UNL A   1      23.218 -12.801  27.932  1.00  0.00    +0.000 F 
ATOM     66  C46 UNL A   1      23.256 -11.263  26.149  1.00  0.00    +0.000 C 
ATOM     67  F7  UNL A   1      22.289 -11.957  25.532  1.00  0.00    +0.000 F 
ATOM     68  C47 UNL A   1      23.781 -10.127  25.553  1.00  0.00    +0.000 C 
ATOM     69  F8  UNL A   1      23.309  -9.709  24.370  1.00  0.00    +0.000 F 
ATOM     70  C48 UNL A   1      24.800  -9.425  26.179  1.00  0.00    +0.000 C 
ATOM     71  F9  UNL A   1      25.300  -8.320  25.611  1.00  0.00    +0.000 F 
ATOM     72  C49 UNL A   1      25.307  -9.870  27.397  1.00  0.00    +0.000 C 
ATOM     73  F10 UNL A   1      26.302  -9.180  27.973  1.00  0.00    +0.000 F 
ATOM     63  C44 UNL A   1      24.784 -11.012  28.022  1.00  0.00    +0.000 C 
ATOM     64  C45 UNL A   1      23.740 -11.694  27.381  1.00  0.00    +0.000 C 
ENDBRANCH   62   63
BRANCH   77   78
ATOM     78  C53 UNL A   1      22.335 -10.308  34.504  1.00  0.00    +0.000 C 
ATOM     79  C54 UNL A   1      21.070 -10.906  34.405  1.00  0.00    +0.000 C 
ATOM     80  F11 UNL A   1      20.934 -12.078  33.768  1.00  0.00    +0.000 F 
ATOM     81  C55 UNL A   1      19.937 -10.284  34.921  1.00  0.00    +0.000 C 
ATOM     82  F12 UNL A   1      18.734 -10.856  34.773  1.00  0.00    +0.000 F 
ATOM     83  C56 UNL A   1      20.049  -9.065  35.574  1.00  0.00    +0.000 C 
ATOM     84  F13 UNL A   1      18.959  -8.468  36.074  1.00  0.00    +0.000 F 
ATOM     85  C57 UNL A   1      21.291  -8.463  35.701  1.00  0.00    +0.000 C 
ATOM     86  F14 UNL A   1      21.407  -7.292  36.343  1.00  0.00    +0.000 F 
ATOM     87  C58 UNL A   1      22.423  -9.073  35.161  1.00  0.00    +0.000 C 
ATOM     88  F15 UNL A   1      23.610  -8.462  35.290  1.00  0.00    +0.000 F 
ENDBRANCH   77   78
TORSDOF 28
ENDMDL
MODEL 7
REMARK VINA RESULT:      -5.8     54.422     60.572
ROOT
ATOM    138  H39 UNL A   1      18.706  33.881  47.777  1.00  0.00    +0.000 H 
ATOM    139  H40 UNL A   1      16.877  35.264  49.019  1.00  0.00    +0.000 H 
ATOM    140  H41 UNL A   1      20.155  37.715  48.383  1.00  0.00    +0.000 H 
ATOM    141  H42 UNL A   1      23.103  43.312  49.247  1.00  0.00    +0.000 H 
ATOM    142  H43 UNL A   1      24.875  41.960  48.026  1.00  0.00    +0.000 H 
ATOM    143  H44 UNL A   1      21.543  39.526  48.530  1.00  0.00    +0.000 H 
ATOM    144  H45 UNL A   1      18.111  42.332  50.889  1.00  0.00    +0.000 H 
ATOM    145  H46 UNL A   1      16.641  40.237  50.964  1.00  0.00    +0.000 H 
ATOM    146  H47 UNL A   1      23.548  35.088  45.802  1.00  0.00    +0.000 H 
ATOM    147  H48 UNL A   1      25.229  36.984  46.171  1.00  0.00    +0.000 H 
ATOM     41  C29 UNL A   1      24.107  39.277  47.443  1.00  0.00    +0.000 C 
ATOM     42  C30 UNL A   1      23.448  37.951  47.189  1.00  0.00    +0.000 C 
ATOM     43  N7  UNL A   1      22.237  37.557  47.494  1.00  0.00    +0.000 N 
ATOM     44  C31 UNL A   1      22.124  36.265  46.998  1.00  0.00    +0.000 C 
ATOM     45  C32 UNL A   1      21.084  35.404  47.114  1.00  0.00    +0.000 C 
ATOM     57  C39 UNL A   1      19.862  35.702  47.812  1.00  0.00    +0.000 C 
ATOM     58  C40 UNL A   1      18.781  34.872  48.052  1.00  0.00    +0.000 C 
ATOM     59  C41 UNL A   1      17.806  35.611  48.733  1.00  0.00    +0.000 C 
ATOM     60  C42 UNL A   1      18.300  36.887  48.957  1.00  0.00    +0.000 C 
ATOM     61  N8  UNL A   1      19.560  36.929  48.385  1.00  0.00    +0.000 N 
ATOM     62  C43 UNL A   1      17.669  37.985  49.642  1.00  0.00    +0.000 C 
ATOM     74  C50 UNL A   1      18.225  39.206  49.834  1.00  0.00    +0.000 C 
ATOM     75  N9  UNL A   1      19.471  39.671  49.438  1.00  0.00    +0.000 N 
ATOM     76  C51 UNL A   1      19.536  40.917  49.838  1.00  0.00    +0.000 C 
ATOM     77  C52 UNL A   1      20.666  41.900  49.703  1.00  0.00    +0.000 C 
ATOM     89  C59 UNL A   1      21.812  41.506  49.115  1.00  0.00    +0.000 C 
ATOM     90  C60 UNL A   1      23.002  42.333  48.934  1.00  0.00    +0.000 C 
ATOM     91  C61 UNL A   1      23.940  41.616  48.297  1.00  0.00    +0.000 C 
ATOM     92  C62 UNL A   1      23.426  40.268  48.048  1.00  0.00    +0.000 C 
ATOM     93  N10 UNL A   1      22.154  40.297  48.559  1.00  0.00    +0.000 N 
ATOM     94  C63 UNL A   1      18.323  41.393  50.516  1.00  0.00    +0.000 C 
ATOM     95  C64 UNL A   1      17.573  40.300  50.524  1.00  0.00    +0.000 C 
ATOM     96  C65 UNL A   1      23.367  35.958  46.327  1.00  0.00    +0.000 C 
ATOM     97  C66 UNL A   1      24.245  36.940  46.476  1.00  0.00    +0.000 C 
ENDROOT
BRANCH   41   40
ATOM     98  C67 UNL A   1      26.577  39.064  47.753  1.00  0.00    +0.000 C 
ATOM     99  C68 UNL A   1      27.884  39.329  47.353  1.00  0.00    +0.000 C 
ATOM     37  C25 UNL A   1      28.124  39.960  46.128  1.00  0.00    +0.000 C 
ATOM     38  C26 UNL A   1      27.056  40.422  45.355  1.00  0.00    +0.000 C 
ATOM     39  C27 UNL A   1      25.747  40.218  45.791  1.00  0.00    +0.000 C 
ATOM    136  H37 UNL A   1      27.236  40.913  44.465  1.00  0.00    +0.000 H 
ATOM     40  C28 UNL A   1      25.496  39.518  46.982  1.00  0.00    +0.000 C 
ATOM    137  H38 UNL A   1      24.958  40.583  45.235  1.00  0.00    +0.000 H 
ATOM    148  H49 UNL A   1      26.403  38.530  48.619  1.00  0.00    +0.000 H 
ATOM    149  H50 UNL A   1      28.675  39.062  47.960  1.00  0.00    +0.000 H 
BRANCH   37   35
ATOM     35  C24 UNL A   1      29.501  40.177  45.633  1.00  0.00    +0.000 C 
ATOM     36  O5  UNL A   1      30.098  39.271  45.073  1.00  0.00    +0.000 O 
BRANCH   35   34
ATOM     34  N6  UNL A   1      30.108  41.394  45.819  1.00  0.00    +0.000 N 
ATOM    135  H36 UNL A   1      31.058  41.435  45.563  1.00  0.00    +0.000 H 
BRANCH   34   33
ATOM     33  C23 UNL A   1      29.550  42.628  46.339  1.00  0.00    +0.000 C 
ATOM    133  H34 UNL A   1      28.956  43.086  45.575  1.00  0.00    +0.000 H 
ATOM    134  H35 UNL A   1      28.959  42.384  47.198  1.00  0.00    +0.000 H 
BRANCH   33   32
ATOM    131  H32 UNL A   1      30.480  44.525  46.244  1.00  0.00    +0.000 H 
ATOM    132  H33 UNL A   1      30.525  43.713  47.837  1.00  0.00    +0.000 H 
ATOM     32  C22 UNL A   1      30.628  43.610  46.777  1.00  0.00    +0.000 C 
BRANCH   32   31
ATOM    129  H30 UNL A   1      32.416  42.672  47.426  1.00  0.00    +0.000 H 
ATOM    130  H31 UNL A   1      32.023  42.492  45.687  1.00  0.00    +0.000 H 
ATOM     31  C21 UNL A   1      32.066  43.146  46.532  1.00  0.00    +0.000 C 
BRANCH   31   30
ATOM     30  C20 UNL A   1      33.060  44.249  46.161  1.00  0.00    +0.000 C 
ATOM    127  H28 UNL A   1      34.033  43.809  46.095  1.00  0.00    +0.000 H 
ATOM    128  H29 UNL A   1      32.712  44.662  45.238  1.00  0.00    +0.000 H 
BRANCH   30   29
ATOM    125  H26 UNL A   1      34.082  45.904  47.013  1.00  0.00    +0.000 H 
ATOM     29  C19 UNL A   1      33.137  45.418  47.144  1.00  0.00    +0.000 C 
ATOM    126  H27 UNL A   1      32.303  46.052  46.926  1.00  0.00    +0.000 H 
BRANCH   29   28
ATOM    124  H25 UNL A   1      33.985  45.014  49.040  1.00  0.00    +0.000 H 
ATOM    123  H24 UNL A   1      32.541  44.067  48.676  1.00  0.00    +0.000 H 
ATOM     28  C18 UNL A   1      33.005  45.029  48.612  1.00  0.00    +0.000 C 
BRANCH   28   27
ATOM    122  H23 UNL A   1      32.525  46.914  49.322  1.00  0.00    +0.000 H 
ATOM     27  N5  UNL A   1      32.206  45.983  49.354  1.00  0.00    +0.000 N 
BRANCH   27   25
ATOM     25  C17 UNL A   1      31.079  45.779  50.089  1.00  0.00    +0.000 C 
ATOM     26  O4  UNL A   1      31.177  45.897  51.316  1.00  0.00    +0.000 O 
BRANCH   25   22
ATOM    118  H19 UNL A   1      29.985  44.612  48.734  1.00  0.00    +0.000 H 
ATOM     22  C15 UNL A   1      29.744  45.352  49.467  1.00  0.00    +0.000 C 
BRANCH   22   21
ATOM    117  H18 UNL A   1      28.402  45.210  51.116  1.00  0.00    +0.000 H 
ATOM     21  N4  UNL A   1      28.850  44.681  50.416  1.00  0.00    +0.000 N 
BRANCH   21   19
ATOM     19  C14 UNL A   1      28.630  43.343  50.346  1.00  0.00    +0.000 C 
ATOM     20  O2  UNL A   1      29.569  42.651  49.945  1.00  0.00    +0.000 O 
BRANCH   19   16
ATOM    113  H14 UNL A   1      26.541  43.180  50.127  1.00  0.00    +0.000 H 
ATOM     16  C12 UNL A   1      27.276  42.729  50.759  1.00  0.00    +0.000 C 
BRANCH   16   15
ATOM     15  N3  UNL A   1      27.308  41.299  50.493  1.00  0.00    +0.000 N 
ATOM    112  H13 UNL A   1      27.188  40.998  49.564  1.00  0.00    +0.000 H 
BRANCH   15   13
ATOM     13  C11 UNL A   1      27.495  40.346  51.465  1.00  0.00    +0.000 C 
ATOM     14  O1  UNL A   1      28.290  40.626  52.367  1.00  0.00    +0.000 O 
BRANCH   13    2
ATOM      2  C1  UNL A   1      26.688  39.016  51.482  1.00  0.00    +0.000 C 
ATOM    103  H4  UNL A   1      26.995  38.469  50.616  1.00  0.00    +0.000 H 
BRANCH    2    1
ATOM      1  N1  UNL A   1      27.074  38.181  52.640  1.00  0.00    +0.000 N 
ATOM    100  H1  UNL A   1      26.239  37.757  53.044  1.00  0.00    +0.000 H 
ATOM    101  H2  UNL A   1      27.533  38.763  53.340  1.00  0.00    +0.000 H 
ATOM    102  H3  UNL A   1      27.713  37.449  52.332  1.00  0.00    +0.000 H 
ENDBRANCH    2    1
BRANCH    2    3
ATOM    105  H6  UNL A   1      24.754  39.460  52.040  1.00  0.00    +0.000 H 
ATOM      3  C2  UNL A   1      25.184  39.100  51.129  1.00  0.00    +0.000 C 
ATOM    104  H5  UNL A   1      25.111  39.708  50.253  1.00  0.00    +0.000 H 
BRANCH    3    4
ATOM      4  C3  UNL A   1      24.366  37.855  50.855  1.00  0.00    +0.000 C 
ATOM      5  C4  UNL A   1      24.699  36.708  50.154  1.00  0.00    +0.000 C 
ATOM      6  N2  UNL A   1      23.684  35.796  50.296  1.00  0.00    +0.000 N 
ATOM      7  C5  UNL A   1      22.621  36.369  50.944  1.00  0.00    +0.000 C 
ATOM      8  C6  UNL A   1      21.365  35.836  51.263  1.00  0.00    +0.000 C 
ATOM      9  C7  UNL A   1      20.431  36.690  51.854  1.00  0.00    +0.000 C 
ATOM    106  H7  UNL A   1      25.567  36.564  49.613  1.00  0.00    +0.000 H 
ATOM     11  C9  UNL A   1      22.028  38.515  51.854  1.00  0.00    +0.000 C 
ATOM     12  C10 UNL A   1      22.991  37.678  51.251  1.00  0.00    +0.000 C 
ATOM     10  C8  UNL A   1      20.749  38.016  52.130  1.00  0.00    +0.000 C 
ATOM    107  H8  UNL A   1      23.716  34.864  49.979  1.00  0.00    +0.000 H 
ATOM    111  H12 UNL A   1      22.265  39.491  52.090  1.00  0.00    +0.000 H 
ATOM    108  H9  UNL A   1      21.138  34.848  51.066  1.00  0.00    +0.000 H 
ATOM    110  H11 UNL A   1      20.036  38.638  52.543  1.00  0.00    +0.000 H 
ATOM    109  H10 UNL A   1      19.492  36.331  52.089  1.00  0.00    +0.000 H 
ENDBRANCH    3    4
ENDBRANCH    2    3
ENDBRANCH   13    2
ENDBRANCH   15   13
ENDBRANCH   16   15
BRANCH   16   17
ATOM     17  C13 UNL A   1      26.608  43.189  52.063  1.00  0.00    +0.000 C 
ATOM    114  H15 UNL A   1      27.038  44.133  52.326  1.00  0.00    +0.000 H 
ATOM    115  H16 UNL A   1      26.787  42.393  52.754  1.00  0.00    +0.000 H 
BRANCH   17   18
ATOM     18  S1  UNL A   1      24.796  43.398  52.061  1.00  0.00    +0.000 S 
ATOM    116  H17 UNL A   1      24.347  43.448  50.778  1.00  0.00    +0.000 H 
ENDBRANCH   17   18
ENDBRANCH   16   17
ENDBRANCH   19   16
ENDBRANCH   21   19
ENDBRANCH   22   21
BRANCH   22   23
ATOM    119  H20 UNL A   1      28.416  46.092  47.965  1.00  0.00    +0.000 H 
ATOM     23  C16 UNL A   1      29.057  46.505  48.716  1.00  0.00    +0.000 C 
ATOM    120  H21 UNL A   1      29.822  47.116  48.284  1.00  0.00    +0.000 H 
BRANCH   23   24
ATOM    121  H22 UNL A   1      27.857  46.778  50.261  1.00  0.00    +0.000 H 
ATOM     24  O3  UNL A   1      28.277  47.329  49.582  1.00  0.00    +0.000 O 
ENDBRANCH   23   24
ENDBRANCH   22   23
ENDBRANCH   25   22
ENDBRANCH   27   25
ENDBRANCH   28   27
ENDBRANCH   29   28
ENDBRANCH   30   29
ENDBRANCH   31   30
ENDBRANCH   32   31
ENDBRANCH   33   32
ENDBRANCH   34   33
ENDBRANCH   35   34
ENDBRANCH   37   35
ENDBRANCH   41   40
BRANCH   45   46
ATOM     46  C33 UNL A   1      21.227  34.053  46.477  1.00  0.00    +0.000 C 
ATOM     47  C34 UNL A   1      20.815  33.816  45.156  1.00  0.00    +0.000 C 
ATOM     48  F1  UNL A   1      20.234  34.793  44.444  1.00  0.00    +0.000 F 
ATOM     49  C35 UNL A   1      20.963  32.559  44.574  1.00  0.00    +0.000 C 
ATOM     50  F2  UNL A   1      20.518  32.344  43.328  1.00  0.00    +0.000 F 
ATOM     51  C36 UNL A   1      21.557  31.528  45.285  1.00  0.00    +0.000 C 
ATOM     52  F3  UNL A   1      21.704  30.321  44.722  1.00  0.00    +0.000 F 
ATOM     53  C37 UNL A   1      21.990  31.745  46.584  1.00  0.00    +0.000 C 
ATOM     54  F4  UNL A   1      22.575  30.752  47.270  1.00  0.00    +0.000 F 
ATOM     55  C38 UNL A   1      21.817  32.993  47.179  1.00  0.00    +0.000 C 
ATOM     56  F5  UNL A   1      22.233  33.167  48.444  1.00  0.00    +0.000 F 
ENDBRANCH   45   46
BRANCH   62   63
ATOM     65  F6  UNL A   1      15.296  37.803  48.047  1.00  0.00    +0.000 F 
ATOM     66  C46 UNL A   1      13.906  37.434  49.911  1.00  0.00    +0.000 C 
ATOM     67  F7  UNL A   1      12.838  37.382  49.103  1.00  0.00    +0.000 F 
ATOM     68  C47 UNL A   1      13.747  37.283  51.280  1.00  0.00    +0.000 C 
ATOM     69  F8  UNL A   1      12.528  37.065  51.794  1.00  0.00    +0.000 F 
ATOM     70  C48 UNL A   1      14.848  37.365  52.118  1.00  0.00    +0.000 C 
ATOM     71  F9  UNL A   1      14.697  37.207  53.440  1.00  0.00    +0.000 F 
ATOM     72  C49 UNL A   1      16.110  37.614  51.589  1.00  0.00    +0.000 C 
ATOM     73  F10 UNL A   1      17.156  37.702  52.424  1.00  0.00    +0.000 F 
ATOM     63  C44 UNL A   1      16.297  37.761  50.205  1.00  0.00    +0.000 C 
ATOM     64  C45 UNL A   1      15.171  37.654  49.375  1.00  0.00    +0.000 C 
ENDBRANCH   62   63
BRANCH   77   78
ATOM     78  C53 UNL A   1      20.545  43.281  50.236  1.00  0.00    +0.000 C 
ATOM     79  C54 UNL A   1      20.078  44.327  49.427  1.00  0.00    +0.000 C 
ATOM     80  F11 UNL A   1      19.754  44.088  48.148  1.00  0.00    +0.000 F 
ATOM     81  C55 UNL A   1      19.982  45.627  49.916  1.00  0.00    +0.000 C 
ATOM     82  F12 UNL A   1      19.576  46.617  49.108  1.00  0.00    +0.000 F 
ATOM     83  C56 UNL A   1      20.323  45.903  51.232  1.00  0.00    +0.000 C 
ATOM     84  F13 UNL A   1      20.227  47.153  51.703  1.00  0.00    +0.000 F 
ATOM     85  C57 UNL A   1      20.768  44.881  52.056  1.00  0.00    +0.000 C 
ATOM     86  F14 UNL A   1      21.085  45.140  53.333  1.00  0.00    +0.000 F 
ATOM     87  C58 UNL A   1      20.890  43.584  51.561  1.00  0.00    +0.000 C 
ATOM     88  F15 UNL A   1      21.335  42.618  52.378  1.00  0.00    +0.000 F 
ENDBRANCH   77   78
TORSDOF 28
ENDMDL
MODEL 8
REMARK VINA RESULT:      -5.8      8.467     13.871
ROOT
ATOM    138  H39 UNL A   1      52.666  31.419   7.173  1.00  0.00    +0.000 H 
ATOM    139  H40 UNL A   1      52.843  32.368   4.751  1.00  0.00    +0.000 H 
ATOM    140  H41 UNL A   1      55.016  28.848   4.929  1.00  0.00    +0.000 H 
ATOM    141  H42 UNL A   1      58.939  24.644   2.153  1.00  0.00    +0.000 H 
ATOM    142  H43 UNL A   1      58.752  23.720   4.513  1.00  0.00    +0.000 H 
ATOM    143  H44 UNL A   1      56.452  27.176   4.317  1.00  0.00    +0.000 H 
ATOM    144  H45 UNL A   1      56.857  28.856  -0.398  1.00  0.00    +0.000 H 
ATOM    145  H46 UNL A   1      55.463  30.872   0.339  1.00  0.00    +0.000 H 
ATOM    146  H47 UNL A   1      54.467  26.945   9.529  1.00  0.00    +0.000 H 
ATOM    147  H48 UNL A   1      56.270  25.212   8.977  1.00  0.00    +0.000 H 
ATOM     41  C29 UNL A   1      57.139  25.289   6.262  1.00  0.00    +0.000 C 
ATOM     42  C30 UNL A   1      56.197  26.235   6.954  1.00  0.00    +0.000 C 
ATOM     43  N7  UNL A   1      55.581  27.286   6.476  1.00  0.00    +0.000 N 
ATOM     44  C31 UNL A   1      54.801  27.772   7.517  1.00  0.00    +0.000 C 
ATOM     45  C32 UNL A   1      54.026  28.883   7.543  1.00  0.00    +0.000 C 
ATOM     57  C39 UNL A   1      53.880  29.793   6.439  1.00  0.00    +0.000 C 
ATOM     58  C40 UNL A   1      53.179  30.985   6.390  1.00  0.00    +0.000 C 
ATOM     59  C41 UNL A   1      53.287  31.503   5.094  1.00  0.00    +0.000 C 
ATOM     60  C42 UNL A   1      54.093  30.655   4.349  1.00  0.00    +0.000 C 
ATOM     61  N8  UNL A   1      54.447  29.610   5.186  1.00  0.00    +0.000 N 
ATOM     62  C43 UNL A   1      54.509  30.789   2.977  1.00  0.00    +0.000 C 
ATOM     74  C50 UNL A   1      55.314  29.920   2.319  1.00  0.00    +0.000 C 
ATOM     75  N9  UNL A   1      55.902  28.751   2.782  1.00  0.00    +0.000 N 
ATOM     76  C51 UNL A   1      56.569  28.256   1.769  1.00  0.00    +0.000 C 
ATOM     77  C52 UNL A   1      57.418  27.016   1.706  1.00  0.00    +0.000 C 
ATOM     89  C59 UNL A   1      57.575  26.270   2.816  1.00  0.00    +0.000 C 
ATOM     90  C60 UNL A   1      58.385  25.060   2.918  1.00  0.00    +0.000 C 
ATOM     91  C61 UNL A   1      58.293  24.577   4.167  1.00  0.00    +0.000 C 
ATOM     92  C62 UNL A   1      57.437  25.461   4.961  1.00  0.00    +0.000 C 
ATOM     93  N10 UNL A   1      57.049  26.433   4.074  1.00  0.00    +0.000 N 
ATOM     94  C63 UNL A   1      56.461  29.047   0.535  1.00  0.00    +0.000 C 
ATOM     95  C64 UNL A   1      55.720  30.070   0.937  1.00  0.00    +0.000 C 
ATOM     96  C65 UNL A   1      54.979  26.873   8.635  1.00  0.00    +0.000 C 
ATOM     97  C66 UNL A   1      55.885  25.945   8.363  1.00  0.00    +0.000 C 
ENDROOT
BRANCH   41   40
ATOM     98  C67 UNL A   1      58.937  24.262   7.660  1.00  0.00    +0.000 C 
ATOM     99  C68 UNL A   1      59.501  23.168   8.310  1.00  0.00    +0.000 C 
ATOM     37  C25 UNL A   1      58.793  21.965   8.393  1.00  0.00    +0.000 C 
ATOM     38  C26 UNL A   1      57.570  21.823   7.733  1.00  0.00    +0.000 C 
ATOM     39  C27 UNL A   1      57.039  22.899   7.022  1.00  0.00    +0.000 C 
ATOM    136  H37 UNL A   1      57.063  20.925   7.771  1.00  0.00    +0.000 H 
ATOM     40  C28 UNL A   1      57.707  24.133   6.997  1.00  0.00    +0.000 C 
ATOM    137  H38 UNL A   1      56.149  22.787   6.511  1.00  0.00    +0.000 H 
ATOM    148  H49 UNL A   1      59.426  25.171   7.665  1.00  0.00    +0.000 H 
ATOM    149  H50 UNL A   1      60.441  23.244   8.730  1.00  0.00    +0.000 H 
BRANCH   37   35
ATOM     35  C24 UNL A   1      59.325  20.811   9.152  1.00  0.00    +0.000 C 
ATOM     36  O5  UNL A   1      60.496  20.797   9.499  1.00  0.00    +0.000 O 
BRANCH   35   34
ATOM     34  N6  UNL A   1      58.502  19.755   9.451  1.00  0.00    +0.000 N 
ATOM    135  H36 UNL A   1      58.387  19.093   8.731  1.00  0.00    +0.000 H 
BRANCH   34   33
ATOM     33  C23 UNL A   1      57.779  19.473  10.677  1.00  0.00    +0.000 C 
ATOM    133  H34 UNL A   1      57.590  18.422  10.732  1.00  0.00    +0.000 H 
ATOM    134  H35 UNL A   1      58.382  19.805  11.497  1.00  0.00    +0.000 H 
BRANCH   33   32
ATOM    131  H32 UNL A   1      56.649  21.226  11.031  1.00  0.00    +0.000 H 
ATOM    132  H33 UNL A   1      56.008  20.125   9.775  1.00  0.00    +0.000 H 
ATOM     32  C22 UNL A   1      56.450  20.215  10.746  1.00  0.00    +0.000 C 
BRANCH   32   31
ATOM    129  H30 UNL A   1      55.664  18.598  11.870  1.00  0.00    +0.000 H 
ATOM    130  H31 UNL A   1      55.526  20.218  12.625  1.00  0.00    +0.000 H 
ATOM     31  C21 UNL A   1      55.435  19.634  11.732  1.00  0.00    +0.000 C 
BRANCH   31   30
ATOM     30  C20 UNL A   1      53.968  19.741  11.307  1.00  0.00    +0.000 C 
ATOM    127  H28 UNL A   1      53.927  20.308  10.400  1.00  0.00    +0.000 H 
ATOM    128  H29 UNL A   1      53.617  18.736  11.202  1.00  0.00    +0.000 H 
BRANCH   30   29
ATOM    125  H26 UNL A   1      52.512  19.641  12.849  1.00  0.00    +0.000 H 
ATOM     29  C19 UNL A   1      53.039  20.409  12.323  1.00  0.00    +0.000 C 
ATOM    126  H27 UNL A   1      53.663  21.003  12.958  1.00  0.00    +0.000 H 
BRANCH   29   28
ATOM    124  H25 UNL A   1      52.148  22.322  12.169  1.00  0.00    +0.000 H 
ATOM    123  H24 UNL A   1      51.031  20.980  11.915  1.00  0.00    +0.000 H 
ATOM     28  C18 UNL A   1      52.012  21.361  11.721  1.00  0.00    +0.000 C 
BRANCH   28   27
ATOM    122  H23 UNL A   1      53.115  21.496   9.974  1.00  0.00    +0.000 H 
ATOM     27  N5  UNL A   1      52.183  21.504  10.290  1.00  0.00    +0.000 N 
BRANCH   27   25
ATOM     25  C17 UNL A   1      51.241  21.649   9.318  1.00  0.00    +0.000 C 
ATOM     26  O4  UNL A   1      50.860  22.798   9.068  1.00  0.00    +0.000 O 
BRANCH   25   22
ATOM    118  H19 UNL A   1      50.834  20.594   7.553  1.00  0.00    +0.000 H 
ATOM     22  C15 UNL A   1      50.606  20.458   8.589  1.00  0.00    +0.000 C 
BRANCH   22   21
ATOM    117  H18 UNL A   1      51.739  19.100   9.775  1.00  0.00    +0.000 H 
ATOM     21  N4  UNL A   1      51.204  19.170   8.952  1.00  0.00    +0.000 N 
BRANCH   21   19
ATOM     19  C14 UNL A   1      51.034  18.073   8.170  1.00  0.00    +0.000 C 
ATOM     20  O2  UNL A   1      50.766  17.018   8.751  1.00  0.00    +0.000 O 
BRANCH   19   16
ATOM    113  H14 UNL A   1      50.740  19.096   6.352  1.00  0.00    +0.000 H 
ATOM     16  C12 UNL A   1      51.160  18.154   6.634  1.00  0.00    +0.000 C 
BRANCH   16   15
ATOM     15  N3  UNL A   1      52.570  18.144   6.277  1.00  0.00    +0.000 N 
ATOM    112  H13 UNL A   1      53.072  17.307   6.393  1.00  0.00    +0.000 H 
BRANCH   15   13
ATOM     13  C11 UNL A   1      53.238  19.240   5.784  1.00  0.00    +0.000 C 
ATOM     14  O1  UNL A   1      52.702  19.842   4.850  1.00  0.00    +0.000 O 
BRANCH   13    2
ATOM      2  C1  UNL A   1      54.562  19.752   6.422  1.00  0.00    +0.000 C 
ATOM    103  H4  UNL A   1      54.938  20.508   5.765  1.00  0.00    +0.000 H 
BRANCH    2    1
ATOM      1  N1  UNL A   1      54.297  20.436   7.706  1.00  0.00    +0.000 N 
ATOM    100  H1  UNL A   1      53.854  19.783   8.353  1.00  0.00    +0.000 H 
ATOM    101  H2  UNL A   1      53.676  21.230   7.546  1.00  0.00    +0.000 H 
ATOM    102  H3  UNL A   1      55.176  20.765   8.103  1.00  0.00    +0.000 H 
ENDBRANCH    2    1
BRANCH    2    3
ATOM    105  H6  UNL A   1      56.559  19.405   6.799  1.00  0.00    +0.000 H 
ATOM      3  C2  UNL A   1      55.789  18.812   6.353  1.00  0.00    +0.000 C 
ATOM    104  H5  UNL A   1      55.500  17.901   6.834  1.00  0.00    +0.000 H 
BRANCH    3    4
ATOM      4  C3  UNL A   1      56.409  18.417   5.028  1.00  0.00    +0.000 C 
ATOM      5  C4  UNL A   1      56.162  17.318   4.222  1.00  0.00    +0.000 C 
ATOM      6  N2  UNL A   1      56.864  17.465   3.053  1.00  0.00    +0.000 N 
ATOM      7  C5  UNL A   1      57.690  18.557   3.131  1.00  0.00    +0.000 C 
ATOM      8  C6  UNL A   1      58.613  19.058   2.204  1.00  0.00    +0.000 C 
ATOM      9  C7  UNL A   1      59.394  20.149   2.593  1.00  0.00    +0.000 C 
ATOM    106  H7  UNL A   1      55.552  16.521   4.462  1.00  0.00    +0.000 H 
ATOM     11  C9  UNL A   1      58.275  20.244   4.743  1.00  0.00    +0.000 C 
ATOM     12  C10 UNL A   1      57.476  19.139   4.380  1.00  0.00    +0.000 C 
ATOM     10  C8  UNL A   1      59.241  20.725   3.851  1.00  0.00    +0.000 C 
ATOM    107  H8  UNL A   1      56.786  16.872   2.271  1.00  0.00    +0.000 H 
ATOM    111  H12 UNL A   1      58.148  20.696   5.661  1.00  0.00    +0.000 H 
ATOM    108  H9  UNL A   1      58.714  18.634   1.267  1.00  0.00    +0.000 H 
ATOM    110  H11 UNL A   1      59.846  21.513   4.128  1.00  0.00    +0.000 H 
ATOM    109  H10 UNL A   1      60.092  20.534   1.937  1.00  0.00    +0.000 H 
ENDBRANCH    3    4
ENDBRANCH    2    3
ENDBRANCH   13    2
ENDBRANCH   15   13
ENDBRANCH   16   15
BRANCH   16   17
ATOM     17  C13 UNL A   1      50.203  17.333   5.756  1.00  0.00    +0.000 C 
ATOM    114  H15 UNL A   1      49.871  17.970   4.964  1.00  0.00    +0.000 H 
ATOM    115  H16 UNL A   1      49.441  16.997   6.428  1.00  0.00    +0.000 H 
BRANCH   17   18
ATOM     18  S1  UNL A   1      50.849  15.807   4.994  1.00  0.00    +0.000 S 
ATOM    116  H17 UNL A   1      52.128  15.601   5.405  1.00  0.00    +0.000 H 
ENDBRANCH   17   18
ENDBRANCH   16   17
ENDBRANCH   19   16
ENDBRANCH   21   19
ENDBRANCH   22   21
BRANCH   22   23
ATOM    119  H20 UNL A   1      48.763  21.352   9.199  1.00  0.00    +0.000 H 
ATOM     23  C16 UNL A   1      49.073  20.455   8.703  1.00  0.00    +0.000 C 
ATOM    120  H21 UNL A   1      48.788  19.584   9.255  1.00  0.00    +0.000 H 
BRANCH   23   24
ATOM    121  H22 UNL A   1      48.991  19.895   6.811  1.00  0.00    +0.000 H 
ATOM     24  O3  UNL A   1      48.434  20.393   7.429  1.00  0.00    +0.000 O 
ENDBRANCH   23   24
ENDBRANCH   22   23
ENDBRANCH   25   22
ENDBRANCH   27   25
ENDBRANCH   28   27
ENDBRANCH   29   28
ENDBRANCH   30   29
ENDBRANCH   31   30
ENDBRANCH   32   31
ENDBRANCH   33   32
ENDBRANCH   34   33
ENDBRANCH   35   34
ENDBRANCH   37   35
ENDBRANCH   41   40
BRANCH   45   46
ATOM     46  C33 UNL A   1      53.281  29.180   8.812  1.00  0.00    +0.000 C 
ATOM     47  C34 UNL A   1      51.989  28.679   9.040  1.00  0.00    +0.000 C 
ATOM     48  F1  UNL A   1      51.368  27.956   8.096  1.00  0.00    +0.000 F 
ATOM     49  C35 UNL A   1      51.313  28.954  10.226  1.00  0.00    +0.000 C 
ATOM     50  F2  UNL A   1      50.063  28.505  10.401  1.00  0.00    +0.000 F 
ATOM     51  C36 UNL A   1      51.926  29.701  11.220  1.00  0.00    +0.000 C 
ATOM     52  F3  UNL A   1      51.277  29.959  12.363  1.00  0.00    +0.000 F 
ATOM     53  C37 UNL A   1      53.210  30.188  11.024  1.00  0.00    +0.000 C 
ATOM     54  F4  UNL A   1      53.808  30.903  11.988  1.00  0.00    +0.000 F 
ATOM     55  C38 UNL A   1      53.877  29.940   9.827  1.00  0.00    +0.000 C 
ATOM     56  F5  UNL A   1      55.112  30.439   9.662  1.00  0.00    +0.000 F 
ENDBRANCH   45   46
BRANCH   62   63
ATOM     65  F6  UNL A   1      56.132  33.089   2.442  1.00  0.00    +0.000 F 
ATOM     66  C46 UNL A   1      54.426  34.184   1.244  1.00  0.00    +0.000 C 
ATOM     67  F7  UNL A   1      55.237  35.233   1.051  1.00  0.00    +0.000 F 
ATOM     68  C47 UNL A   1      53.134  34.205   0.741  1.00  0.00    +0.000 C 
ATOM     69  F8  UNL A   1      52.702  35.266   0.045  1.00  0.00    +0.000 F 
ATOM     70  C48 UNL A   1      52.287  33.131   0.965  1.00  0.00    +0.000 C 
ATOM     71  F9  UNL A   1      51.042  33.145   0.468  1.00  0.00    +0.000 F 
ATOM     72  C49 UNL A   1      52.726  32.039   1.706  1.00  0.00    +0.000 C 
ATOM     73  F10 UNL A   1      51.881  31.019   1.919  1.00  0.00    +0.000 F 
ATOM     63  C44 UNL A   1      54.033  31.991   2.217  1.00  0.00    +0.000 C 
ATOM     64  C45 UNL A   1      54.879  33.080   1.961  1.00  0.00    +0.000 C 
ENDBRANCH   62   63
BRANCH   77   78
ATOM     78  C53 UNL A   1      58.107  26.626   0.448  1.00  0.00    +0.000 C 
ATOM     79  C54 UNL A   1      57.461  25.832  -0.510  1.00  0.00    +0.000 C 
ATOM     80  F11 UNL A   1      56.211  25.399  -0.286  1.00  0.00    +0.000 F 
ATOM     81  C55 UNL A   1      58.109  25.445  -1.680  1.00  0.00    +0.000 C 
ATOM     82  F12 UNL A   1      57.484  24.649  -2.559  1.00  0.00    +0.000 F 
ATOM     83  C56 UNL A   1      59.406  25.870  -1.930  1.00  0.00    +0.000 C 
ATOM     84  F13 UNL A   1      60.027  25.501  -3.057  1.00  0.00    +0.000 F 
ATOM     85  C57 UNL A   1      60.058  26.671  -1.005  1.00  0.00    +0.000 C 
ATOM     86  F14 UNL A   1      61.306  27.095  -1.249  1.00  0.00    +0.000 F 
ATOM     87  C58 UNL A   1      59.420  27.036   0.178  1.00  0.00    +0.000 C 
ATOM     88  F15 UNL A   1      60.079  27.803   1.059  1.00  0.00    +0.000 F 
ENDBRANCH   77   78
TORSDOF 28
ENDMDL
MODEL 9
REMARK VINA RESULT:      -5.7     33.332     38.627
ROOT
ATOM    138  H39 UNL A   1      52.151  54.005  21.610  1.00  0.00    +0.000 H 
ATOM    139  H40 UNL A   1      52.849  56.043  20.140  1.00  0.00    +0.000 H 
ATOM    140  H41 UNL A   1      49.670  54.135  18.294  1.00  0.00    +0.000 H 
ATOM    141  H42 UNL A   1      45.720  53.573  13.310  1.00  0.00    +0.000 H 
ATOM    142  H43 UNL A   1      45.039  51.596  14.754  1.00  0.00    +0.000 H 
ATOM    143  H44 UNL A   1      48.137  53.578  16.691  1.00  0.00    +0.000 H 
ATOM    144  H45 UNL A   1      49.336  57.484  13.772  1.00  0.00    +0.000 H 
ATOM    145  H46 UNL A   1      51.228  57.971  15.426  1.00  0.00    +0.000 H 
ATOM    146  H47 UNL A   1      48.221  50.367  21.257  1.00  0.00    +0.000 H 
ATOM    147  H48 UNL A   1      46.680  49.548  19.383  1.00  0.00    +0.000 H 
ATOM     41  C29 UNL A   1      46.573  51.304  17.139  1.00  0.00    +0.000 C 
ATOM     42  C30 UNL A   1      47.461  51.408  18.347  1.00  0.00    +0.000 C 
ATOM     43  N7  UNL A   1      48.368  52.307  18.632  1.00  0.00    +0.000 N 
ATOM     44  C31 UNL A   1      48.862  51.963  19.883  1.00  0.00    +0.000 C 
ATOM     45  C32 UNL A   1      49.862  52.546  20.586  1.00  0.00    +0.000 C 
ATOM     57  C39 UNL A   1      50.622  53.677  20.123  1.00  0.00    +0.000 C 
ATOM     58  C40 UNL A   1      51.705  54.294  20.726  1.00  0.00    +0.000 C 
ATOM     59  C41 UNL A   1      52.088  55.378  19.929  1.00  0.00    +0.000 C 
ATOM     60  C42 UNL A   1      51.274  55.408  18.807  1.00  0.00    +0.000 C 
ATOM     61  N8  UNL A   1      50.378  54.361  18.942  1.00  0.00    +0.000 N 
ATOM     62  C43 UNL A   1      51.311  56.324  17.696  1.00  0.00    +0.000 C 
ATOM     74  C50 UNL A   1      50.484  56.279  16.624  1.00  0.00    +0.000 C 
ATOM     75  N9  UNL A   1      49.455  55.389  16.348  1.00  0.00    +0.000 N 
ATOM     76  C51 UNL A   1      48.942  55.772  15.205  1.00  0.00    +0.000 C 
ATOM     77  C52 UNL A   1      47.820  55.158  14.415  1.00  0.00    +0.000 C 
ATOM     89  C59 UNL A   1      47.223  54.043  14.879  1.00  0.00    +0.000 C 
ATOM     90  C60 UNL A   1      46.143  53.319  14.216  1.00  0.00    +0.000 C 
ATOM     91  C61 UNL A   1      45.790  52.270  14.975  1.00  0.00    +0.000 C 
ATOM     92  C62 UNL A   1      46.639  52.233  16.167  1.00  0.00    +0.000 C 
ATOM     93  N10 UNL A   1      47.453  53.328  16.029  1.00  0.00    +0.000 N 
ATOM     94  C63 UNL A   1      49.575  56.969  14.634  1.00  0.00    +0.000 C 
ATOM     95  C64 UNL A   1      50.534  57.212  15.516  1.00  0.00    +0.000 C 
ATOM     96  C65 UNL A   1      48.118  50.806  20.328  1.00  0.00    +0.000 C 
ATOM     97  C66 UNL A   1      47.288  50.381  19.386  1.00  0.00    +0.000 C 
ENDROOT
BRANCH   41   40
ATOM     98  C67 UNL A   1      45.985  48.945  16.564  1.00  0.00    +0.000 C 
ATOM     99  C68 UNL A   1      45.053  47.921  16.417  1.00  0.00    +0.000 C 
ATOM     37  C25 UNL A   1      43.733  48.115  16.834  1.00  0.00    +0.000 C 
ATOM     38  C26 UNL A   1      43.319  49.366  17.298  1.00  0.00    +0.000 C 
ATOM     39  C27 UNL A   1      44.238  50.412  17.379  1.00  0.00    +0.000 C 
ATOM    136  H37 UNL A   1      42.337  49.515  17.578  1.00  0.00    +0.000 H 
ATOM     40  C28 UNL A   1      45.583  50.204  17.034  1.00  0.00    +0.000 C 
ATOM    137  H38 UNL A   1      43.928  51.344  17.696  1.00  0.00    +0.000 H 
ATOM    148  H49 UNL A   1      46.976  48.776  16.328  1.00  0.00    +0.000 H 
ATOM    149  H50 UNL A   1      45.336  47.021  15.998  1.00  0.00    +0.000 H 
BRANCH   37   35
ATOM     35  C24 UNL A   1      42.739  47.020  16.772  1.00  0.00    +0.000 C 
ATOM     36  O5  UNL A   1      41.694  47.179  16.160  1.00  0.00    +0.000 O 
BRANCH   35   34
ATOM     34  N6  UNL A   1      42.990  45.835  17.416  1.00  0.00    +0.000 N 
ATOM    135  H36 UNL A   1      43.085  45.898  18.394  1.00  0.00    +0.000 H 
BRANCH   34   33
ATOM     33  C23 UNL A   1      43.135  44.502  16.861  1.00  0.00    +0.000 C 
ATOM    133  H34 UNL A   1      42.285  44.291  16.245  1.00  0.00    +0.000 H 
ATOM    134  H35 UNL A   1      44.043  44.480  16.294  1.00  0.00    +0.000 H 
BRANCH   33   32
ATOM    131  H32 UNL A   1      42.579  42.631  17.676  1.00  0.00    +0.000 H 
ATOM    132  H33 UNL A   1      44.264  43.147  17.986  1.00  0.00    +0.000 H 
ATOM     32  C22 UNL A   1      43.234  43.434  17.943  1.00  0.00    +0.000 C 
BRANCH   32   31
ATOM    129  H30 UNL A   1      42.226  44.758  19.258  1.00  0.00    +0.000 H 
ATOM    130  H31 UNL A   1      42.392  43.066  19.824  1.00  0.00    +0.000 H 
ATOM     31  C21 UNL A   1      42.862  43.902  19.351  1.00  0.00    +0.000 C 
BRANCH   31   30
ATOM     30  C20 UNL A   1      44.040  44.286  20.250  1.00  0.00    +0.000 C 
ATOM    127  H28 UNL A   1      44.905  44.402  19.630  1.00  0.00    +0.000 H 
ATOM    128  H29 UNL A   1      43.749  45.184  20.753  1.00  0.00    +0.000 H 
BRANCH   30   29
ATOM    125  H26 UNL A   1      44.697  43.822  22.215  1.00  0.00    +0.000 H 
ATOM     29  C19 UNL A   1      44.380  43.278  21.350  1.00  0.00    +0.000 C 
ATOM    126  H27 UNL A   1      43.494  42.701  21.515  1.00  0.00    +0.000 H 
BRANCH   29   28
ATOM    124  H25 UNL A   1      45.018  41.442  20.513  1.00  0.00    +0.000 H 
ATOM    123  H24 UNL A   1      45.988  41.990  21.882  1.00  0.00    +0.000 H 
ATOM     28  C18 UNL A   1      45.477  42.283  20.988  1.00  0.00    +0.000 C 
BRANCH   28   27
ATOM    122  H23 UNL A   1      46.116  42.966  19.141  1.00  0.00    +0.000 H 
ATOM     27  N5  UNL A   1      46.438  42.850  20.065  1.00  0.00    +0.000 N 
BRANCH   27   25
ATOM     25  C17 UNL A   1      47.720  43.246  20.288  1.00  0.00    +0.000 C 
ATOM     26  O4  UNL A   1      48.526  42.377  20.637  1.00  0.00    +0.000 O 
BRANCH   25   22
ATOM    118  H19 UNL A   1      49.239  44.691  20.246  1.00  0.00    +0.000 H 
ATOM     22  C15 UNL A   1      48.171  44.709  20.186  1.00  0.00    +0.000 C 
BRANCH   22   21
ATOM    117  H18 UNL A   1      46.976  45.189  18.490  1.00  0.00    +0.000 H 
ATOM     21  N4  UNL A   1      47.866  45.321  18.889  1.00  0.00    +0.000 N 
BRANCH   21   19
ATOM     19  C14 UNL A   1      48.792  46.064  18.229  1.00  0.00    +0.000 C 
ATOM     20  O2  UNL A   1      48.732  47.286  18.388  1.00  0.00    +0.000 O 
BRANCH   19   16
ATOM    113  H14 UNL A   1      49.708  44.349  17.418  1.00  0.00    +0.000 H 
ATOM     16  C12 UNL A   1      49.865  45.404  17.338  1.00  0.00    +0.000 C 
BRANCH   16   15
ATOM     15  N3  UNL A   1      49.643  45.807  15.959  1.00  0.00    +0.000 N 
ATOM    112  H13 UNL A   1      49.045  46.569  15.789  1.00  0.00    +0.000 H 
BRANCH   15   13
ATOM     13  C11 UNL A   1      50.223  45.182  14.880  1.00  0.00    +0.000 C 
ATOM     14  O1  UNL A   1      49.872  44.020  14.659  1.00  0.00    +0.000 O 
BRANCH   13    2
ATOM      2  C1  UNL A   1      51.208  45.923  13.931  1.00  0.00    +0.000 C 
ATOM    103  H4  UNL A   1      52.191  45.727  14.307  1.00  0.00    +0.000 H 
BRANCH    2    1
ATOM      1  N1  UNL A   1      51.175  45.336  12.575  1.00  0.00    +0.000 N 
ATOM    100  H1  UNL A   1      50.214  45.324  12.234  1.00  0.00    +0.000 H 
ATOM    101  H2  UNL A   1      51.536  44.382  12.609  1.00  0.00    +0.000 H 
ATOM    102  H3  UNL A   1      51.752  45.896  11.948  1.00  0.00    +0.000 H 
ENDBRANCH    2    1
BRANCH    2    3
ATOM    105  H6  UNL A   1      51.394  47.616  15.094  1.00  0.00    +0.000 H 
ATOM      3  C2  UNL A   1      51.269  47.466  14.042  1.00  0.00    +0.000 C 
ATOM    104  H5  UNL A   1      52.047  47.786  13.383  1.00  0.00    +0.000 H 
BRANCH    3    4
ATOM      4  C3  UNL A   1      50.063  48.329  13.731  1.00  0.00    +0.000 C 
ATOM      5  C4  UNL A   1      49.240  49.046  14.583  1.00  0.00    +0.000 C 
ATOM      6  N2  UNL A   1      48.367  49.788  13.829  1.00  0.00    +0.000 N 
ATOM      7  C5  UNL A   1      48.490  49.459  12.503  1.00  0.00    +0.000 C 
ATOM      8  C6  UNL A   1      47.778  49.922  11.389  1.00  0.00    +0.000 C 
ATOM      9  C7  UNL A   1      48.060  49.337  10.152  1.00  0.00    +0.000 C 
ATOM    106  H7  UNL A   1      49.277  49.026  15.615  1.00  0.00    +0.000 H 
ATOM     11  C9  UNL A   1      49.766  47.932  11.152  1.00  0.00    +0.000 C 
ATOM     12  C10 UNL A   1      49.500  48.501  12.415  1.00  0.00    +0.000 C 
ATOM     10  C8  UNL A   1      49.027  48.342  10.036  1.00  0.00    +0.000 C 
ATOM    107  H8  UNL A   1      47.743  50.460  14.187  1.00  0.00    +0.000 H 
ATOM    111  H12 UNL A   1      50.502  47.217  11.050  1.00  0.00    +0.000 H 
ATOM    108  H9  UNL A   1      47.070  50.668  11.480  1.00  0.00    +0.000 H 
ATOM    110  H11 UNL A   1      49.202  47.904   9.118  1.00  0.00    +0.000 H 
ATOM    109  H10 UNL A   1      47.544  49.646   9.314  1.00  0.00    +0.000 H 
ENDBRANCH    3    4
ENDBRANCH    2    3
ENDBRANCH   13    2
ENDBRANCH   15   13
ENDBRANCH   16   15
BRANCH   16   17
ATOM     17  C13 UNL A   1      51.318  45.343  17.831  1.00  0.00    +0.000 C 
ATOM    114  H15 UNL A   1      51.364  45.875  18.758  1.00  0.00    +0.000 H 
ATOM    115  H16 UNL A   1      51.893  45.760  17.031  1.00  0.00    +0.000 H 
BRANCH   17   18
ATOM     18  S1  UNL A   1      52.050  43.697  18.113  1.00  0.00    +0.000 S 
ATOM    116  H17 UNL A   1      53.378  43.829  18.374  1.00  0.00    +0.000 H 
ENDBRANCH   17   18
ENDBRANCH   16   17
ENDBRANCH   19   16
ENDBRANCH   21   19
ENDBRANCH   22   21
BRANCH   22   23
ATOM    119  H20 UNL A   1      48.478  46.187  21.698  1.00  0.00    +0.000 H 
ATOM     23  C16 UNL A   1      47.679  45.554  21.373  1.00  0.00    +0.000 C 
ATOM    120  H21 UNL A   1      47.371  44.882  22.147  1.00  0.00    +0.000 H 
BRANCH   23   24
ATOM    121  H22 UNL A   1      46.648  47.236  21.455  1.00  0.00    +0.000 H 
ATOM     24  O3  UNL A   1      46.559  46.369  21.031  1.00  0.00    +0.000 O 
ENDBRANCH   23   24
ENDBRANCH   22   23
ENDBRANCH   25   22
ENDBRANCH   27   25
ENDBRANCH   28   27
ENDBRANCH   29   28
ENDBRANCH   30   29
ENDBRANCH   31   30
ENDBRANCH   32   31
ENDBRANCH   33   32
ENDBRANCH   34   33
ENDBRANCH   35   34
ENDBRANCH   37   35
ENDBRANCH   41   40
BRANCH   45   46
ATOM     46  C33 UNL A   1      50.197  51.966  21.929  1.00  0.00    +0.000 C 
ATOM     47  C34 UNL A   1      49.587  52.432  23.104  1.00  0.00    +0.000 C 
ATOM     48  F1  UNL A   1      48.715  53.450  23.055  1.00  0.00    +0.000 F 
ATOM     49  C35 UNL A   1      49.900  51.876  24.342  1.00  0.00    +0.000 C 
ATOM     50  F2  UNL A   1      49.340  52.369  25.456  1.00  0.00    +0.000 F 
ATOM     51  C36 UNL A   1      50.799  50.825  24.427  1.00  0.00    +0.000 C 
ATOM     52  F3  UNL A   1      51.095  50.288  25.618  1.00  0.00    +0.000 F 
ATOM     53  C37 UNL A   1      51.399  50.336  23.276  1.00  0.00    +0.000 C 
ATOM     54  F4  UNL A   1      52.261  49.312  23.354  1.00  0.00    +0.000 F 
ATOM     55  C38 UNL A   1      51.110  50.907  22.040  1.00  0.00    +0.000 C 
ATOM     56  F5  UNL A   1      51.719  50.422  20.946  1.00  0.00    +0.000 F 
ENDBRANCH   45   46
BRANCH   62   63
ATOM     65  F6  UNL A   1      50.950  58.880  18.939  1.00  0.00    +0.000 F 
ATOM     66  C46 UNL A   1      53.116  59.612  18.378  1.00  0.00    +0.000 C 
ATOM     67  F7  UNL A   1      52.867  60.793  18.960  1.00  0.00    +0.000 F 
ATOM     68  C47 UNL A   1      54.346  59.380  17.781  1.00  0.00    +0.000 C 
ATOM     69  F8  UNL A   1      55.293  60.328  17.806  1.00  0.00    +0.000 F 
ATOM     70  C48 UNL A   1      54.593  58.168  17.154  1.00  0.00    +0.000 C 
ATOM     71  F9  UNL A   1      55.786  57.938  16.589  1.00  0.00    +0.000 F 
ATOM     72  C49 UNL A   1      53.603  57.192  17.109  1.00  0.00    +0.000 C 
ATOM     73  F10 UNL A   1      53.865  56.034  16.484  1.00  0.00    +0.000 F 
ATOM     63  C44 UNL A   1      52.354  57.401  17.713  1.00  0.00    +0.000 C 
ATOM     64  C45 UNL A   1      52.133  58.626  18.360  1.00  0.00    +0.000 C 
ENDBRANCH   62   63
BRANCH   77   78
ATOM     78  C53 UNL A   1      47.386  55.745  13.121  1.00  0.00    +0.000 C 
ATOM     79  C54 UNL A   1      47.772  55.168  11.903  1.00  0.00    +0.000 C 
ATOM     80  F11 UNL A   1      48.560  54.082  11.898  1.00  0.00    +0.000 F 
ATOM     81  C55 UNL A   1      47.387  55.727  10.687  1.00  0.00    +0.000 C 
ATOM     82  F12 UNL A   1      47.807  55.181   9.538  1.00  0.00    +0.000 F 
ATOM     83  C56 UNL A   1      46.582  56.856  10.665  1.00  0.00    +0.000 C 
ATOM     84  F13 UNL A   1      46.208  57.392   9.495  1.00  0.00    +0.000 F 
ATOM     85  C57 UNL A   1      46.172  57.433  11.857  1.00  0.00    +0.000 C 
ATOM     86  F14 UNL A   1      45.383  58.517  11.841  1.00  0.00    +0.000 F 
ATOM     87  C58 UNL A   1      46.579  56.891  13.074  1.00  0.00    +0.000 C 
ATOM     88  F15 UNL A   1      46.177  57.476  14.211  1.00  0.00    +0.000 F 
ENDBRANCH   77   78
TORSDOF 28
ENDMDL
MODEL 10
REMARK VINA RESULT:      -5.6     52.066     58.798
ROOT
ATOM    138  H39 UNL A   1      19.622  36.849  48.120  1.00  0.00    +0.000 H 
ATOM    139  H40 UNL A   1      18.662  38.960  49.313  1.00  0.00    +0.000 H 
ATOM    140  H41 UNL A   1      22.471  39.853  47.954  1.00  0.00    +0.000 H 
ATOM    141  H42 UNL A   1      27.388  43.910  47.603  1.00  0.00    +0.000 H 
ATOM    142  H43 UNL A   1      28.312  41.852  46.433  1.00  0.00    +0.000 H 
ATOM    143  H44 UNL A   1      24.439  40.982  47.665  1.00  0.00    +0.000 H 
ATOM    144  H45 UNL A   1      22.718  45.139  49.896  1.00  0.00    +0.000 H 
ATOM    145  H46 UNL A   1      20.606  43.806  50.457  1.00  0.00    +0.000 H 
ATOM    146  H47 UNL A   1      24.187  35.851  45.480  1.00  0.00    +0.000 H 
ATOM    147  H48 UNL A   1      26.489  36.968  45.365  1.00  0.00    +0.000 H 
ATOM     41  C29 UNL A   1      26.518  39.638  46.367  1.00  0.00    +0.000 C 
ATOM     42  C30 UNL A   1      25.381  38.655  46.398  1.00  0.00    +0.000 C 
ATOM     43  N7  UNL A   1      24.175  38.801  46.887  1.00  0.00    +0.000 N 
ATOM     44  C31 UNL A   1      23.512  37.611  46.617  1.00  0.00    +0.000 C 
ATOM     45  C32 UNL A   1      22.259  37.242  46.978  1.00  0.00    +0.000 C 
ATOM     57  C39 UNL A   1      21.364  38.066  47.744  1.00  0.00    +0.000 C 
ATOM     58  C40 UNL A   1      20.104  37.755  48.225  1.00  0.00    +0.000 C 
ATOM     59  C41 UNL A   1      19.595  38.884  48.879  1.00  0.00    +0.000 C 
ATOM     60  C42 UNL A   1      20.557  39.881  48.844  1.00  0.00    +0.000 C 
ATOM     61  N8  UNL A   1      21.635  39.367  48.143  1.00  0.00    +0.000 N 
ATOM     62  C43 UNL A   1      20.498  41.205  49.409  1.00  0.00    +0.000 C 
ATOM     74  C50 UNL A   1      21.491  42.124  49.344  1.00  0.00    +0.000 C 
ATOM     75  N9  UNL A   1      22.741  42.020  48.751  1.00  0.00    +0.000 N 
ATOM     76  C51 UNL A   1      23.328  43.177  48.939  1.00  0.00    +0.000 C 
ATOM     77  C52 UNL A   1      24.706  43.620  48.531  1.00  0.00    +0.000 C 
ATOM     89  C59 UNL A   1      25.514  42.750  47.895  1.00  0.00    +0.000 C 
ATOM     90  C60 UNL A   1      26.881  43.022  47.462  1.00  0.00    +0.000 C 
ATOM     91  C61 UNL A   1      27.372  41.932  46.852  1.00  0.00    +0.000 C 
ATOM     92  C62 UNL A   1      26.360  40.874  46.875  1.00  0.00    +0.000 C 
ATOM     93  N10 UNL A   1      25.288  41.452  47.506  1.00  0.00    +0.000 N 
ATOM     94  C63 UNL A   1      22.503  44.158  49.656  1.00  0.00    +0.000 C 
ATOM     95  C64 UNL A   1      21.411  43.453  49.916  1.00  0.00    +0.000 C 
ATOM     96  C65 UNL A   1      24.429  36.773  45.877  1.00  0.00    +0.000 C 
ATOM     97  C66 UNL A   1      25.621  37.344  45.775  1.00  0.00    +0.000 C 
ENDROOT
BRANCH   41   40
ATOM     98  C67 UNL A   1      28.264  39.979  44.612  1.00  0.00    +0.000 C 
ATOM     99  C68 UNL A   1      29.447  39.606  43.980  1.00  0.00    +0.000 C 
ATOM     37  C25 UNL A   1      30.234  38.584  44.519  1.00  0.00    +0.000 C 
ATOM     38  C26 UNL A   1      29.785  37.864  45.629  1.00  0.00    +0.000 C 
ATOM     39  C27 UNL A   1      28.565  38.192  46.220  1.00  0.00    +0.000 C 
ATOM    136  H37 UNL A   1      30.354  37.091  46.008  1.00  0.00    +0.000 H 
ATOM     40  C28 UNL A   1      27.805  39.267  45.730  1.00  0.00    +0.000 C 
ATOM    137  H38 UNL A   1      28.219  37.643  47.023  1.00  0.00    +0.000 H 
ATOM    148  H49 UNL A   1      27.723  40.784  44.258  1.00  0.00    +0.000 H 
ATOM    149  H50 UNL A   1      29.742  40.082  43.112  1.00  0.00    +0.000 H 
BRANCH   37   35
ATOM     35  C24 UNL A   1      31.538  38.223  43.922  1.00  0.00    +0.000 C 
ATOM     36  O5  UNL A   1      31.938  37.070  43.981  1.00  0.00    +0.000 O 
BRANCH   35   34
ATOM     34  N6  UNL A   1      32.302  39.188  43.316  1.00  0.00    +0.000 N 
ATOM    135  H36 UNL A   1      32.348  39.134  42.334  1.00  0.00    +0.000 H 
BRANCH   34   33
ATOM     33  C23 UNL A   1      33.048  40.278  43.916  1.00  0.00    +0.000 C 
ATOM    133  H34 UNL A   1      33.644  40.745  43.159  1.00  0.00    +0.000 H 
ATOM    134  H35 UNL A   1      32.344  40.965  44.338  1.00  0.00    +0.000 H 
BRANCH   33   32
ATOM    131  H32 UNL A   1      33.350  39.471  45.848  1.00  0.00    +0.000 H 
ATOM    132  H33 UNL A   1      34.570  39.025  44.618  1.00  0.00    +0.000 H 
ATOM     32  C22 UNL A   1      33.964  39.802  45.036  1.00  0.00    +0.000 C 
BRANCH   32   31
ATOM    129  H30 UNL A   1      35.251  40.547  46.548  1.00  0.00    +0.000 H 
ATOM    130  H31 UNL A   1      35.729  40.915  44.860  1.00  0.00    +0.000 H 
ATOM     31  C21 UNL A   1      34.933  40.857  45.574  1.00  0.00    +0.000 C 
BRANCH   31   30
ATOM     30  C20 UNL A   1      34.367  42.274  45.689  1.00  0.00    +0.000 C 
ATOM    127  H28 UNL A   1      33.333  42.241  45.413  1.00  0.00    +0.000 H 
ATOM    128  H29 UNL A   1      34.531  42.576  46.702  1.00  0.00    +0.000 H 
BRANCH   30   29
ATOM    125  H26 UNL A   1      36.113  43.203  44.917  1.00  0.00    +0.000 H 
ATOM     29  C19 UNL A   1      35.054  43.327  44.818  1.00  0.00    +0.000 C 
ATOM    126  H27 UNL A   1      34.703  43.169  43.820  1.00  0.00    +0.000 H 
BRANCH   29   28
ATOM    124  H25 UNL A   1      35.051  44.958  46.166  1.00  0.00    +0.000 H 
ATOM    123  H24 UNL A   1      33.653  44.904  45.090  1.00  0.00    +0.000 H 
ATOM     28  C18 UNL A   1      34.712  44.770  45.169  1.00  0.00    +0.000 C 
BRANCH   28   27
ATOM    122  H23 UNL A   1      35.969  45.311  43.616  1.00  0.00    +0.000 H 
ATOM     27  N5  UNL A   1      35.369  45.711  44.286  1.00  0.00    +0.000 N 
BRANCH   27   25
ATOM     25  C17 UNL A   1      35.279  47.069  44.249  1.00  0.00    +0.000 C 
ATOM     26  O4  UNL A   1      36.291  47.693  43.914  1.00  0.00    +0.000 O 
BRANCH   25   22
ATOM    118  H19 UNL A   1      33.244  47.094  44.754  1.00  0.00    +0.000 H 
ATOM     22  C15 UNL A   1      34.013  47.831  44.662  1.00  0.00    +0.000 C 
BRANCH   22   21
ATOM    117  H18 UNL A   1      34.819  49.121  46.154  1.00  0.00    +0.000 H 
ATOM     21  N4  UNL A   1      34.116  48.451  45.987  1.00  0.00    +0.000 N 
BRANCH   21   19
ATOM     19  C14 UNL A   1      33.261  48.116  46.986  1.00  0.00    +0.000 C 
ATOM     20  O2  UNL A   1      33.646  47.248  47.773  1.00  0.00    +0.000 O 
BRANCH   19   16
ATOM    113  H14 UNL A   1      31.241  48.317  46.422  1.00  0.00    +0.000 H 
ATOM     16  C12 UNL A   1      31.884  48.799  47.128  1.00  0.00    +0.000 C 
BRANCH   16   15
ATOM     15  N3  UNL A   1      31.373  48.554  48.467  1.00  0.00    +0.000 N 
ATOM    112  H13 UNL A   1      31.753  49.075  49.210  1.00  0.00    +0.000 H 
BRANCH   15   13
ATOM     13  C11 UNL A   1      30.390  47.637  48.752  1.00  0.00    +0.000 C 
ATOM     14  O1  UNL A   1      29.315  47.777  48.163  1.00  0.00    +0.000 O 
BRANCH   13    2
ATOM      2  C1  UNL A   1      30.640  46.431  49.703  1.00  0.00    +0.000 C 
ATOM    103  H4  UNL A   1      31.344  45.797  49.205  1.00  0.00    +0.000 H 
BRANCH    2    1
ATOM      1  N1  UNL A   1      31.309  46.870  50.946  1.00  0.00    +0.000 N 
ATOM    100  H1  UNL A   1      31.295  46.109  51.626  1.00  0.00    +0.000 H 
ATOM    101  H2  UNL A   1      30.816  47.677  51.330  1.00  0.00    +0.000 H 
ATOM    102  H3  UNL A   1      32.274  47.127  50.740  1.00  0.00    +0.000 H 
ENDBRANCH    2    1
BRANCH    2    3
ATOM    105  H6  UNL A   1      29.136  45.570  50.820  1.00  0.00    +0.000 H 
ATOM      3  C2  UNL A   1      29.504  45.387  49.832  1.00  0.00    +0.000 C 
ATOM    104  H5  UNL A   1      28.849  45.549  49.004  1.00  0.00    +0.000 H 
BRANCH    3    4
ATOM      4  C3  UNL A   1      29.796  43.901  49.863  1.00  0.00    +0.000 C 
ATOM      5  C4  UNL A   1      29.750  43.008  50.921  1.00  0.00    +0.000 C 
ATOM      6  N2  UNL A   1      29.957  41.742  50.435  1.00  0.00    +0.000 N 
ATOM      7  C5  UNL A   1      30.293  41.794  49.106  1.00  0.00    +0.000 C 
ATOM      8  C6  UNL A   1      30.633  40.763  48.220  1.00  0.00    +0.000 C 
ATOM      9  C7  UNL A   1      31.024  41.123  46.928  1.00  0.00    +0.000 C 
ATOM    106  H7  UNL A   1      29.588  43.254  51.910  1.00  0.00    +0.000 H 
ATOM     11  C9  UNL A   1      30.657  43.470  47.420  1.00  0.00    +0.000 C 
ATOM     12  C10 UNL A   1      30.264  43.138  48.733  1.00  0.00    +0.000 C 
ATOM     10  C8  UNL A   1      31.053  42.459  46.536  1.00  0.00    +0.000 C 
ATOM    107  H8  UNL A   1      29.875  40.915  50.963  1.00  0.00    +0.000 H 
ATOM    111  H12 UNL A   1      30.653  44.454  47.111  1.00  0.00    +0.000 H 
ATOM    108  H9  UNL A   1      30.598  39.774  48.513  1.00  0.00    +0.000 H 
ATOM    110  H11 UNL A   1      31.370  42.705  45.586  1.00  0.00    +0.000 H 
ATOM    109  H10 UNL A   1      31.293  40.389  46.255  1.00  0.00    +0.000 H 
ENDBRANCH    3    4
ENDBRANCH    2    3
ENDBRANCH   13    2
ENDBRANCH   15   13
ENDBRANCH   16   15
BRANCH   16   17
ATOM     17  C13 UNL A   1      31.676  50.201  46.538  1.00  0.00    +0.000 C 
ATOM    114  H15 UNL A   1      31.777  50.119  45.476  1.00  0.00    +0.000 H 
ATOM    115  H16 UNL A   1      32.408  50.811  47.024  1.00  0.00    +0.000 H 
BRANCH   17   18
ATOM     18  S1  UNL A   1      30.089  51.035  46.871  1.00  0.00    +0.000 S 
ATOM    116  H17 UNL A   1      29.175  50.121  47.292  1.00  0.00    +0.000 H 
ENDBRANCH   17   18
ENDBRANCH   16   17
ENDBRANCH   19   16
ENDBRANCH   21   19
ENDBRANCH   22   21
BRANCH   22   23
ATOM    119  H20 UNL A   1      32.489  48.722  43.458  1.00  0.00    +0.000 H 
ATOM     23  C16 UNL A   1      33.548  48.818  43.578  1.00  0.00    +0.000 C 
ATOM    120  H21 UNL A   1      34.068  48.579  42.674  1.00  0.00    +0.000 H 
BRANCH   23   24
ATOM    121  H22 UNL A   1      33.027  50.665  44.042  1.00  0.00    +0.000 H 
ATOM     24  O3  UNL A   1      33.851  50.172  43.911  1.00  0.00    +0.000 O 
ENDBRANCH   23   24
ENDBRANCH   22   23
ENDBRANCH   25   22
ENDBRANCH   27   25
ENDBRANCH   28   27
ENDBRANCH   29   28
ENDBRANCH   30   29
ENDBRANCH   31   30
ENDBRANCH   32   31
ENDBRANCH   33   32
ENDBRANCH   34   33
ENDBRANCH   35   34
ENDBRANCH   37   35
ENDBRANCH   41   40
BRANCH   45   46
ATOM     46  C33 UNL A   1      21.786  35.883  46.552  1.00  0.00    +0.000 C 
ATOM     47  C34 UNL A   1      21.075  35.694  45.356  1.00  0.00    +0.000 C 
ATOM     48  F1  UNL A   1      20.759  36.744  44.585  1.00  0.00    +0.000 F 
ATOM     49  C35 UNL A   1      20.651  34.425  44.969  1.00  0.00    +0.000 C 
ATOM     50  F2  UNL A   1      19.932  34.276  43.847  1.00  0.00    +0.000 F 
ATOM     51  C36 UNL A   1      20.959  33.320  45.746  1.00  0.00    +0.000 C 
ATOM     52  F3  UNL A   1      20.556  32.099  45.368  1.00  0.00    +0.000 F 
ATOM     53  C37 UNL A   1      21.678  33.481  46.920  1.00  0.00    +0.000 C 
ATOM     54  F4  UNL A   1      21.987  32.412  47.668  1.00  0.00    +0.000 F 
ATOM     55  C38 UNL A   1      22.079  34.752  47.326  1.00  0.00    +0.000 C 
ATOM     56  F5  UNL A   1      22.760  34.877  48.476  1.00  0.00    +0.000 F 
ENDBRANCH   45   46
BRANCH   62   63
ATOM     65  F6  UNL A   1      19.880  40.366  52.077  1.00  0.00    +0.000 F 
ATOM     66  C46 UNL A   1      17.851  41.558  52.130  1.00  0.00    +0.000 C 
ATOM     67  F7  UNL A   1      17.620  41.108  53.371  1.00  0.00    +0.000 F 
ATOM     68  C47 UNL A   1      16.930  42.390  51.512  1.00  0.00    +0.000 C 
ATOM     69  F8  UNL A   1      15.818  42.761  52.163  1.00  0.00    +0.000 F 
ATOM     70  C48 UNL A   1      17.155  42.832  50.218  1.00  0.00    +0.000 C 
ATOM     71  F9  UNL A   1      16.273  43.647  49.624  1.00  0.00    +0.000 F 
ATOM     72  C49 UNL A   1      18.298  42.430  49.533  1.00  0.00    +0.000 C 
ATOM     73  F10 UNL A   1      18.485  42.863  48.277  1.00  0.00    +0.000 F 
ATOM     63  C44 UNL A   1      19.248  41.596  50.141  1.00  0.00    +0.000 C 
ATOM     64  C45 UNL A   1      19.009  41.177  51.459  1.00  0.00    +0.000 C 
ENDBRANCH   62   63
BRANCH   77   78
ATOM     78  C53 UNL A   1      25.193  44.987  48.848  1.00  0.00    +0.000 C 
ATOM     79  C54 UNL A   1      25.746  45.281  50.103  1.00  0.00    +0.000 C 
ATOM     80  F11 UNL A   1      25.820  44.325  51.041  1.00  0.00    +0.000 F 
ATOM     81  C55 UNL A   1      26.185  46.566  50.413  1.00  0.00    +0.000 C 
ATOM     82  F12 UNL A   1      26.667  46.831  51.635  1.00  0.00    +0.000 F 
ATOM     83  C56 UNL A   1      26.108  47.575  49.464  1.00  0.00    +0.000 C 
ATOM     84  F13 UNL A   1      26.533  48.810  49.762  1.00  0.00    +0.000 F 
ATOM     85  C57 UNL A   1      25.582  47.303  48.211  1.00  0.00    +0.000 C 
ATOM     86  F14 UNL A   1      25.519  48.272  47.286  1.00  0.00    +0.000 F 
ATOM     87  C58 UNL A   1      25.118  46.024  47.908  1.00  0.00    +0.000 C 
ATOM     88  F15 UNL A   1      24.605  45.793  46.691  1.00  0.00    +0.000 F 
ENDBRANCH   77   78
TORSDOF 28
ENDMDL
