MODEL 1
REMARK VINA RESULT:      -8.8      0.000      0.000
ROOT
ATOM    129  H30 UNL A   1      37.287  31.180  31.451  1.00  0.00    +0.000 H 
ATOM    130  H31 UNL A   1      45.598  31.195  31.489  1.00  0.00    +0.000 H 
ATOM    131  H32 UNL A   1      44.697  33.063  30.037  1.00  0.00    +0.000 H 
ATOM    132  H33 UNL A   1      41.491  31.431  32.072  1.00  0.00    +0.000 H 
ATOM    133  H34 UNL A   1      42.444  31.381  35.531  1.00  0.00    +0.000 H 
ATOM    134  H35 UNL A   1      39.882  31.092  35.534  1.00  0.00    +0.000 H 
ATOM    135  H36 UNL A   1      37.805  35.517  29.505  1.00  0.00    +0.000 H 
ATOM    136  H37 UNL A   1      40.207  35.214  28.673  1.00  0.00    +0.000 H 
ATOM     29  C24 UNL A   1      41.928  33.681  30.392  1.00  0.00    +0.000 C 
ATOM     30  C25 UNL A   1      40.429  33.974  30.566  1.00  0.00    +0.000 C 
ATOM     31  N3  UNL A   1      39.596  33.659  31.520  1.00  0.00    +0.000 N 
ATOM     32  C26 UNL A   1      38.328  34.143  31.133  1.00  0.00    +0.000 C 
ATOM     33  C27 UNL A   1      37.137  33.767  31.688  1.00  0.00    +0.000 C 
ATOM     45  C34 UNL A   1      37.269  32.828  32.753  1.00  0.00    +0.000 C 
ATOM     46  C35 UNL A   1      37.201  32.812  34.126  1.00  0.00    +0.000 C 
ATOM     47  C36 UNL A   1      37.580  31.500  34.528  1.00  0.00    +0.000 C 
ATOM     48  C37 UNL A   1      38.027  30.844  33.387  1.00  0.00    +0.000 C 
ATOM     49  N4  UNL A   1      37.486  31.542  32.344  1.00  0.00    +0.000 N 
ATOM     50  C38 UNL A   1      38.983  29.833  33.050  1.00  0.00    +0.000 C 
ATOM     62  C45 UNL A   1      40.141  29.813  33.753  1.00  0.00    +0.000 C 
ATOM     63  N5  UNL A   1      41.290  29.257  33.233  1.00  0.00    +0.000 N 
ATOM     64  C46 UNL A   1      42.241  29.933  33.796  1.00  0.00    +0.000 C 
ATOM     65  C47 UNL A   1      43.617  30.040  33.284  1.00  0.00    +0.000 C 
ATOM     77  C54 UNL A   1      43.543  30.955  32.270  1.00  0.00    +0.000 C 
ATOM     78  C55 UNL A   1      44.616  31.512  31.470  1.00  0.00    +0.000 C 
ATOM     79  C56 UNL A   1      44.134  32.507  30.699  1.00  0.00    +0.000 C 
ATOM     80  C57 UNL A   1      42.690  32.690  30.930  1.00  0.00    +0.000 C 
ATOM     81  N6  UNL A   1      42.409  31.661  31.798  1.00  0.00    +0.000 N 
ATOM     82  C58 UNL A   1      41.858  30.811  34.902  1.00  0.00    +0.000 C 
ATOM     83  C59 UNL A   1      40.538  30.662  34.864  1.00  0.00    +0.000 C 
ATOM     84  C60 UNL A   1      38.530  34.936  29.956  1.00  0.00    +0.000 C 
ATOM     85  C61 UNL A   1      39.784  34.816  29.525  1.00  0.00    +0.000 C 
ATOM    127  H28 UNL A   1      36.930  33.595  34.741  1.00  0.00    +0.000 H 
ATOM    128  H29 UNL A   1      37.532  31.109  35.483  1.00  0.00    +0.000 H 
ENDROOT
BRANCH   29   28
ATOM    137  H38 UNL A   1      43.024  36.066  31.123  1.00  0.00    +0.000 H 
ATOM    138  H39 UNL A   1      44.373  37.553  29.751  1.00  0.00    +0.000 H 
ATOM     86  C62 UNL A   1      43.190  35.844  30.129  1.00  0.00    +0.000 C 
ATOM     87  C63 UNL A   1      43.969  36.695  29.342  1.00  0.00    +0.000 C 
ATOM     25  C20 UNL A   1      44.202  36.385  27.997  1.00  0.00    +0.000 C 
ATOM     26  C21 UNL A   1      43.612  35.246  27.430  1.00  0.00    +0.000 C 
ATOM     27  C22 UNL A   1      42.832  34.400  28.209  1.00  0.00    +0.000 C 
ATOM     28  C23 UNL A   1      42.636  34.687  29.564  1.00  0.00    +0.000 C 
ATOM    125  H26 UNL A   1      43.759  35.035  26.431  1.00  0.00    +0.000 H 
ATOM    126  H27 UNL A   1      42.397  33.563  27.789  1.00  0.00    +0.000 H 
BRANCH   25   23
ATOM     23  C19 UNL A   1      44.963  37.266  27.080  1.00  0.00    +0.000 C 
ATOM     24  O3  UNL A   1      44.606  38.420  26.919  1.00  0.00    +0.000 O 
BRANCH   23   22
ATOM    124  H25 UNL A   1      45.897  36.542  25.462  1.00  0.00    +0.000 H 
ATOM     22  N2  UNL A   1      46.062  36.818  26.392  1.00  0.00    +0.000 N 
BRANCH   22   21
ATOM    122  H23 UNL A   1      48.041  36.344  26.038  1.00  0.00    +0.000 H 
ATOM    123  H24 UNL A   1      47.775  37.652  27.178  1.00  0.00    +0.000 H 
ATOM     21  C18 UNL A   1      47.434  36.693  26.846  1.00  0.00    +0.000 C 
BRANCH   21   20
ATOM    121  H22 UNL A   1      46.602  35.173  28.029  1.00  0.00    +0.000 H 
ATOM     20  C17 UNL A   1      47.532  35.704  28.011  1.00  0.00    +0.000 C 
ATOM    120  H21 UNL A   1      47.720  36.262  28.905  1.00  0.00    +0.000 H 
BRANCH   20   19
ATOM     19  C16 UNL A   1      48.631  34.637  27.873  1.00  0.00    +0.000 C 
ATOM    118  H19 UNL A   1      49.539  35.135  27.604  1.00  0.00    +0.000 H 
ATOM    119  H20 UNL A   1      48.672  34.138  28.818  1.00  0.00    +0.000 H 
BRANCH   19   18
ATOM     18  C15 UNL A   1      48.371  33.543  26.836  1.00  0.00    +0.000 C 
ATOM    116  H17 UNL A   1      47.349  33.610  26.528  1.00  0.00    +0.000 H 
ATOM    117  H18 UNL A   1      49.061  33.711  26.036  1.00  0.00    +0.000 H 
BRANCH   18   17
ATOM     17  C14 UNL A   1      48.624  32.123  27.335  1.00  0.00    +0.000 C 
ATOM    114  H15 UNL A   1      49.559  31.793  26.934  1.00  0.00    +0.000 H 
ATOM    115  H16 UNL A   1      48.614  32.178  28.403  1.00  0.00    +0.000 H 
BRANCH   17   16
ATOM    113  H14 UNL A   1      47.805  30.159  27.395  1.00  0.00    +0.000 H 
ATOM    112  H13 UNL A   1      47.523  31.010  25.885  1.00  0.00    +0.000 H 
ATOM     16  C13 UNL A   1      47.556  31.100  26.952  1.00  0.00    +0.000 C 
BRANCH   16   15
ATOM    111  H12 UNL A   1      46.183  31.656  28.407  1.00  0.00    +0.000 H 
ATOM     15  N1  UNL A   1      46.253  31.515  27.435  1.00  0.00    +0.000 N 
BRANCH   15   13
ATOM     13  C12 UNL A   1      45.113  31.734  26.721  1.00  0.00    +0.000 C 
ATOM     14  O2  UNL A   1      45.120  32.616  25.860  1.00  0.00    +0.000 O 
BRANCH   13   12
ATOM     12  C11 UNL A   1      43.852  30.948  27.023  1.00  0.00    +0.000 C 
ATOM    109  H10 UNL A   1      43.326  31.437  27.817  1.00  0.00    +0.000 H 
ATOM    110  H11 UNL A   1      43.271  30.914  26.124  1.00  0.00    +0.000 H 
BRANCH   12   11
ATOM     11  C10 UNL A   1      44.139  29.507  27.442  1.00  0.00    +0.000 C 
ATOM    108  H9  UNL A   1      44.044  29.462  28.507  1.00  0.00    +0.000 H 
ATOM    107  H8  UNL A   1      45.124  29.248  27.114  1.00  0.00    +0.000 H 
BRANCH   11   10
ATOM      7  C6  UNL A   1      42.362  26.506  26.203  1.00  0.00    +0.000 C 
ATOM      8  C7  UNL A   1      41.623  27.501  25.579  1.00  0.00    +0.000 C 
ATOM      9  C8  UNL A   1      42.119  28.752  25.995  1.00  0.00    +0.000 C 
ATOM     10  C9  UNL A   1      43.165  28.514  26.863  1.00  0.00    +0.000 C 
ATOM    105  H6  UNL A   1      40.842  27.349  24.921  1.00  0.00    +0.000 H 
ATOM    106  H7  UNL A   1      41.766  29.676  25.703  1.00  0.00    +0.000 H 
ATOM     88  N7  UNL A   1      43.156  27.151  27.155  1.00  0.00    +0.000 N 
BRANCH    7    6
ATOM     98  C72 UNL A   1      41.089  24.450  26.800  1.00  0.00    +0.000 C 
ATOM      3  C2  UNL A   1      41.797  22.276  25.995  1.00  0.00    +0.000 C 
ATOM      4  C3  UNL A   1      42.851  22.886  25.314  1.00  0.00    +0.000 C 
ATOM      5  C4  UNL A   1      43.016  24.272  25.358  1.00  0.00    +0.000 C 
ATOM     99  C73 UNL A   1      40.919  23.059  26.746  1.00  0.00    +0.000 C 
ATOM    103  H4  UNL A   1      43.514  22.308  24.774  1.00  0.00    +0.000 H 
ATOM      6  C5  UNL A   1      42.134  25.064  26.099  1.00  0.00    +0.000 C 
ATOM    104  H5  UNL A   1      43.791  24.713  24.840  1.00  0.00    +0.000 H 
ATOM    146  H47 UNL A   1      40.439  25.025  27.358  1.00  0.00    +0.000 H 
ATOM    147  H48 UNL A   1      40.144  22.614  27.262  1.00  0.00    +0.000 H 
BRANCH    3    2
ATOM      2  O1  UNL A   1      41.756  20.912  25.908  1.00  0.00    +0.000 O 
BRANCH    2    1
ATOM      1  C1  UNL A   1      41.148  20.251  27.012  1.00  0.00    +0.000 C 
ATOM    100  H1  UNL A   1      41.904  19.931  27.698  1.00  0.00    +0.000 H 
ATOM    101  H2  UNL A   1      40.600  19.400  26.661  1.00  0.00    +0.000 H 
ATOM    102  H3  UNL A   1      40.480  20.925  27.506  1.00  0.00    +0.000 H 
ENDBRANCH    2    1
ENDBRANCH    3    2
ENDBRANCH    7    6
BRANCH   88   89
ATOM     97  C71 UNL A   1      43.048  26.924  29.601  1.00  0.00    +0.000 C 
ATOM    139  H40 UNL A   1      45.111  25.462  27.397  1.00  0.00    +0.000 H 
ATOM    140  H41 UNL A   1      46.125  24.633  29.435  1.00  0.00    +0.000 H 
ATOM    144  H45 UNL A   1      43.205  26.659  31.687  1.00  0.00    +0.000 H 
ATOM    145  H46 UNL A   1      42.225  27.547  29.646  1.00  0.00    +0.000 H 
ATOM     89  C64 UNL A   1      43.601  26.573  28.372  1.00  0.00    +0.000 C 
ATOM     90  C65 UNL A   1      44.717  25.730  28.312  1.00  0.00    +0.000 C 
ATOM     91  C66 UNL A   1      45.299  25.249  29.485  1.00  0.00    +0.000 C 
ATOM     92  C67 UNL A   1      44.765  25.600  30.728  1.00  0.00    +0.000 C 
ATOM     96  C70 UNL A   1      43.624  26.422  30.774  1.00  0.00    +0.000 C 
BRANCH   92   93
ATOM     93  C68 UNL A   1      45.366  25.154  32.022  1.00  0.00    +0.000 C 
ATOM     95  O4  UNL A   1      46.480  25.570  32.340  1.00  0.00    +0.000 O 
BRANCH   93   94
ATOM    143  H44 UNL A   1      45.207  23.284  33.013  1.00  0.00    +0.000 H 
ATOM    141  H42 UNL A   1      43.678  23.966  32.512  1.00  0.00    +0.000 H 
ATOM     94  C69 UNL A   1      44.639  24.187  32.927  1.00  0.00    +0.000 C 
ATOM    142  H43 UNL A   1      44.518  24.627  33.895  1.00  0.00    +0.000 H 
ENDBRANCH   93   94
ENDBRANCH   92   93
ENDBRANCH   88   89
ENDBRANCH   11   10
ENDBRANCH   12   11
ENDBRANCH   13   12
ENDBRANCH   15   13
ENDBRANCH   16   15
ENDBRANCH   17   16
ENDBRANCH   18   17
ENDBRANCH   19   18
ENDBRANCH   20   19
ENDBRANCH   21   20
ENDBRANCH   22   21
ENDBRANCH   23   22
ENDBRANCH   25   23
ENDBRANCH   29   28
BRANCH   33   34
ATOM     34  C28 UNL A   1      35.743  33.908  31.113  1.00  0.00    +0.000 C 
ATOM     35  C29 UNL A   1      35.469  33.333  29.849  1.00  0.00    +0.000 C 
ATOM     36  F1  UNL A   1      36.251  32.359  29.357  1.00  0.00    +0.000 F 
ATOM     37  C30 UNL A   1      34.444  33.803  29.027  1.00  0.00    +0.000 C 
ATOM     38  F2  UNL A   1      34.318  33.330  27.780  1.00  0.00    +0.000 F 
ATOM     39  C31 UNL A   1      33.602  34.802  29.474  1.00  0.00    +0.000 C 
ATOM     40  F3  UNL A   1      32.654  35.298  28.667  1.00  0.00    +0.000 F 
ATOM     41  C32 UNL A   1      33.773  35.315  30.748  1.00  0.00    +0.000 C 
ATOM     42  F4  UNL A   1      32.959  36.287  31.187  1.00  0.00    +0.000 F 
ATOM     43  C33 UNL A   1      34.840  34.895  31.547  1.00  0.00    +0.000 C 
ATOM     44  F5  UNL A   1      35.038  35.558  32.694  1.00  0.00    +0.000 F 
ENDBRANCH   33   34
BRANCH   50   51
ATOM     51  C39 UNL A   1      39.089  29.163  31.702  1.00  0.00    +0.000 C 
ATOM     52  C40 UNL A   1      38.767  27.818  31.526  1.00  0.00    +0.000 C 
ATOM     53  F6  UNL A   1      38.253  27.111  32.543  1.00  0.00    +0.000 F 
ATOM     54  C41 UNL A   1      38.974  27.186  30.296  1.00  0.00    +0.000 C 
ATOM     55  F7  UNL A   1      38.656  25.894  30.148  1.00  0.00    +0.000 F 
ATOM     56  C42 UNL A   1      39.503  27.885  29.216  1.00  0.00    +0.000 C 
ATOM     57  F8  UNL A   1      39.682  27.279  28.034  1.00  0.00    +0.000 F 
ATOM     58  C43 UNL A   1      39.833  29.215  29.364  1.00  0.00    +0.000 C 
ATOM     59  F9  UNL A   1      40.323  29.916  28.329  1.00  0.00    +0.000 F 
ATOM     60  C44 UNL A   1      39.641  29.835  30.592  1.00  0.00    +0.000 C 
ATOM     61  F10 UNL A   1      39.973  31.123  30.681  1.00  0.00    +0.000 F 
ENDBRANCH   50   51
BRANCH   65   66
ATOM     66  C48 UNL A   1      44.694  29.289  34.023  1.00  0.00    +0.000 C 
ATOM     67  C49 UNL A   1      45.931  29.812  34.421  1.00  0.00    +0.000 C 
ATOM     68  F11 UNL A   1      46.323  31.032  34.040  1.00  0.00    +0.000 F 
ATOM     69  C50 UNL A   1      46.838  29.078  35.208  1.00  0.00    +0.000 C 
ATOM     70  F12 UNL A   1      47.992  29.642  35.592  1.00  0.00    +0.000 F 
ATOM     71  C51 UNL A   1      46.557  27.781  35.598  1.00  0.00    +0.000 C 
ATOM     72  F13 UNL A   1      47.409  27.097  36.373  1.00  0.00    +0.000 F 
ATOM     73  C52 UNL A   1      45.390  27.197  35.165  1.00  0.00    +0.000 C 
ATOM     74  F14 UNL A   1      45.102  25.932  35.506  1.00  0.00    +0.000 F 
ATOM     75  C53 UNL A   1      44.493  27.926  34.382  1.00  0.00    +0.000 C 
ATOM     76  F15 UNL A   1      43.404  27.252  33.990  1.00  0.00    +0.000 F 
ENDBRANCH   65   66
TORSDOF 23
ENDMDL
MODEL 2
REMARK VINA RESULT:      -8.5     39.822     46.297
ROOT
ATOM    129  H30 UNL A   1      10.907  -0.208  26.342  1.00  0.00    +0.000 H 
ATOM    130  H31 UNL A   1       7.066  -3.436  19.716  1.00  0.00    +0.000 H 
ATOM    131  H32 UNL A   1       8.566  -1.510  19.043  1.00  0.00    +0.000 H 
ATOM    132  H33 UNL A   1       9.357  -2.357  23.010  1.00  0.00    +0.000 H 
ATOM    133  H34 UNL A   1       9.975  -5.889  23.157  1.00  0.00    +0.000 H 
ATOM    134  H35 UNL A   1      10.928  -4.946  25.360  1.00  0.00    +0.000 H 
ATOM    135  H36 UNL A   1      13.629   1.958  23.060  1.00  0.00    +0.000 H 
ATOM    136  H37 UNL A   1      11.996   1.754  21.099  1.00  0.00    +0.000 H 
ATOM     29  C24 UNL A   1      10.477  -0.686  21.003  1.00  0.00    +0.000 C 
ATOM     30  C25 UNL A   1      11.471  -0.228  22.082  1.00  0.00    +0.000 C 
ATOM     31  N3  UNL A   1      11.903  -0.822  23.162  1.00  0.00    +0.000 N 
ATOM     32  C26 UNL A   1      12.769   0.084  23.810  1.00  0.00    +0.000 C 
ATOM     33  C27 UNL A   1      13.189  -0.015  25.106  1.00  0.00    +0.000 C 
ATOM     45  C34 UNL A   1      12.692  -1.166  25.785  1.00  0.00    +0.000 C 
ATOM     46  C35 UNL A   1      13.148  -2.395  26.198  1.00  0.00    +0.000 C 
ATOM     47  C36 UNL A   1      12.015  -3.087  26.716  1.00  0.00    +0.000 C 
ATOM     48  C37 UNL A   1      10.903  -2.306  26.428  1.00  0.00    +0.000 C 
ATOM     49  N4  UNL A   1      11.398  -1.051  26.212  1.00  0.00    +0.000 N 
ATOM     50  C38 UNL A   1       9.515  -2.503  26.133  1.00  0.00    +0.000 C 
ATOM     62  C45 UNL A   1       9.184  -3.593  25.400  1.00  0.00    +0.000 C 
ATOM     63  N5  UNL A   1       8.025  -3.635  24.656  1.00  0.00    +0.000 N 
ATOM     64  C46 UNL A   1       8.321  -4.423  23.671  1.00  0.00    +0.000 C 
ATOM     65  C47 UNL A   1       7.605  -4.470  22.385  1.00  0.00    +0.000 C 
ATOM     77  C54 UNL A   1       8.072  -3.391  21.685  1.00  0.00    +0.000 C 
ATOM     78  C55 UNL A   1       7.779  -2.998  20.321  1.00  0.00    +0.000 C 
ATOM     79  C56 UNL A   1       8.579  -1.973  19.965  1.00  0.00    +0.000 C 
ATOM     80  C57 UNL A   1       9.476  -1.605  21.075  1.00  0.00    +0.000 C 
ATOM     81  N6  UNL A   1       9.033  -2.429  22.083  1.00  0.00    +0.000 N 
ATOM     82  C58 UNL A   1       9.576  -5.167  23.777  1.00  0.00    +0.000 C 
ATOM     83  C59 UNL A   1      10.054  -4.644  24.902  1.00  0.00    +0.000 C 
ATOM     84  C60 UNL A   1      12.955   1.189  22.915  1.00  0.00    +0.000 C 
ATOM     85  C61 UNL A   1      12.136   1.084  21.871  1.00  0.00    +0.000 C 
ATOM    127  H28 UNL A   1      14.116  -2.747  26.142  1.00  0.00    +0.000 H 
ATOM    128  H29 UNL A   1      12.020  -3.993  27.211  1.00  0.00    +0.000 H 
ENDROOT
BRANCH   29   28
ATOM    137  H38 UNL A   1      12.170  -1.451  19.010  1.00  0.00    +0.000 H 
ATOM    138  H39 UNL A   1      12.333  -0.515  16.772  1.00  0.00    +0.000 H 
ATOM     86  C62 UNL A   1      11.592  -0.637  18.746  1.00  0.00    +0.000 C 
ATOM     87  C63 UNL A   1      11.682  -0.102  17.459  1.00  0.00    +0.000 C 
ATOM     25  C20 UNL A   1      10.889   0.994  17.102  1.00  0.00    +0.000 C 
ATOM     26  C21 UNL A   1      10.043   1.584  18.051  1.00  0.00    +0.000 C 
ATOM     27  C22 UNL A   1       9.955   1.058  19.334  1.00  0.00    +0.000 C 
ATOM     28  C23 UNL A   1      10.715  -0.065  19.677  1.00  0.00    +0.000 C 
ATOM    125  H26 UNL A   1       9.482   2.411  17.795  1.00  0.00    +0.000 H 
ATOM    126  H27 UNL A   1       9.332   1.496  20.032  1.00  0.00    +0.000 H 
BRANCH   25   23
ATOM     23  C19 UNL A   1      10.971   1.658  15.779  1.00  0.00    +0.000 C 
ATOM     24  O3  UNL A   1      10.945   2.876  15.714  1.00  0.00    +0.000 O 
BRANCH   23   22
ATOM    124  H25 UNL A   1      11.916   1.031  14.127  1.00  0.00    +0.000 H 
ATOM     22  N2  UNL A   1      11.065   0.941  14.613  1.00  0.00    +0.000 N 
BRANCH   22   21
ATOM    122  H23 UNL A   1       9.115   0.299  14.386  1.00  0.00    +0.000 H 
ATOM    123  H24 UNL A   1      10.105   0.218  12.938  1.00  0.00    +0.000 H 
ATOM     21  C18 UNL A   1      10.084   0.068  13.998  1.00  0.00    +0.000 C 
BRANCH   21   20
ATOM    121  H22 UNL A   1      11.130  -1.393  15.081  1.00  0.00    +0.000 H 
ATOM     20  C17 UNL A   1      10.405  -1.401  14.294  1.00  0.00    +0.000 C 
ATOM    120  H21 UNL A   1      10.762  -1.851  13.391  1.00  0.00    +0.000 H 
BRANCH   20   19
ATOM     19  C16 UNL A   1       9.222  -2.237  14.810  1.00  0.00    +0.000 C 
ATOM    118  H19 UNL A   1       8.425  -2.152  14.100  1.00  0.00    +0.000 H 
ATOM    119  H20 UNL A   1       9.597  -3.233  14.924  1.00  0.00    +0.000 H 
BRANCH   19   18
ATOM     18  C15 UNL A   1       8.673  -1.840  16.181  1.00  0.00    +0.000 C 
ATOM    116  H17 UNL A   1       8.504  -2.733  16.745  1.00  0.00    +0.000 H 
ATOM    117  H18 UNL A   1       9.402  -1.196  16.626  1.00  0.00    +0.000 H 
BRANCH   18   17
ATOM     17  C14 UNL A   1       7.368  -1.051  16.138  1.00  0.00    +0.000 C 
ATOM    114  H15 UNL A   1       7.601  -0.017  16.275  1.00  0.00    +0.000 H 
ATOM    115  H16 UNL A   1       6.922  -1.266  15.190  1.00  0.00    +0.000 H 
BRANCH   17   16
ATOM    113  H14 UNL A   1       6.845  -1.858  18.037  1.00  0.00    +0.000 H 
ATOM    112  H13 UNL A   1       5.667  -2.173  16.774  1.00  0.00    +0.000 H 
ATOM     16  C13 UNL A   1       6.334  -1.448  17.192  1.00  0.00    +0.000 C 
BRANCH   16   15
ATOM    111  H12 UNL A   1       4.747  -0.110  17.114  1.00  0.00    +0.000 H 
ATOM     15  N1  UNL A   1       5.572  -0.291  17.622  1.00  0.00    +0.000 N 
BRANCH   15   13
ATOM     13  C12 UNL A   1       5.846   0.577  18.636  1.00  0.00    +0.000 C 
ATOM     14  O2  UNL A   1       6.413   1.637  18.365  1.00  0.00    +0.000 O 
BRANCH   13   12
ATOM     12  C11 UNL A   1       5.513   0.216  20.071  1.00  0.00    +0.000 C 
ATOM    109  H10 UNL A   1       4.530   0.573  20.294  1.00  0.00    +0.000 H 
ATOM    110  H11 UNL A   1       5.578  -0.849  20.157  1.00  0.00    +0.000 H 
BRANCH   12   11
ATOM     11  C10 UNL A   1       6.493   0.820  21.076  1.00  0.00    +0.000 C 
ATOM    108  H9  UNL A   1       7.365   1.117  20.530  1.00  0.00    +0.000 H 
ATOM    107  H8  UNL A   1       6.715   0.083  21.820  1.00  0.00    +0.000 H 
BRANCH   11   10
ATOM      7  C6  UNL A   1       5.993   3.955  22.979  1.00  0.00    +0.000 C 
ATOM      8  C7  UNL A   1       4.690   3.477  22.951  1.00  0.00    +0.000 C 
ATOM      9  C8  UNL A   1       4.667   2.292  22.190  1.00  0.00    +0.000 C 
ATOM     10  C9  UNL A   1       5.956   2.048  21.764  1.00  0.00    +0.000 C 
ATOM    105  H6  UNL A   1       3.877   3.916  23.411  1.00  0.00    +0.000 H 
ATOM    106  H7  UNL A   1       3.837   1.713  21.988  1.00  0.00    +0.000 H 
ATOM     88  N7  UNL A   1       6.710   3.183  22.060  1.00  0.00    +0.000 N 
BRANCH    7    6
ATOM     98  C72 UNL A   1       7.112   5.181  24.836  1.00  0.00    +0.000 C 
ATOM      3  C2  UNL A   1       7.185   7.604  24.855  1.00  0.00    +0.000 C 
ATOM      4  C3  UNL A   1       6.503   7.621  23.638  1.00  0.00    +0.000 C 
ATOM      5  C4  UNL A   1       6.141   6.427  23.011  1.00  0.00    +0.000 C 
ATOM     99  C73 UNL A   1       7.483   6.381  25.459  1.00  0.00    +0.000 C 
ATOM    103  H4  UNL A   1       6.263   8.523  23.198  1.00  0.00    +0.000 H 
ATOM      6  C5  UNL A   1       6.446   5.198  23.605  1.00  0.00    +0.000 C 
ATOM    104  H5  UNL A   1       5.649   6.451  22.105  1.00  0.00    +0.000 H 
ATOM    146  H47 UNL A   1       7.332   4.280  25.288  1.00  0.00    +0.000 H 
ATOM    147  H48 UNL A   1       7.977   6.361  26.365  1.00  0.00    +0.000 H 
BRANCH    3    2
ATOM      2  O1  UNL A   1       7.456   8.832  25.391  1.00  0.00    +0.000 O 
BRANCH    2    1
ATOM      1  C1  UNL A   1       7.224   9.937  24.524  1.00  0.00    +0.000 C 
ATOM    100  H1  UNL A   1       8.119  10.517  24.438  1.00  0.00    +0.000 H 
ATOM    101  H2  UNL A   1       6.441  10.547  24.924  1.00  0.00    +0.000 H 
ATOM    102  H3  UNL A   1       6.938   9.578  23.558  1.00  0.00    +0.000 H 
ENDBRANCH    2    1
ENDBRANCH    3    2
ENDBRANCH    7    6
BRANCH   88   89
ATOM     97  C71 UNL A   1       9.129   3.562  21.844  1.00  0.00    +0.000 C 
ATOM    139  H40 UNL A   1       6.640   4.308  19.723  1.00  0.00    +0.000 H 
ATOM    140  H41 UNL A   1       8.461   5.351  18.513  1.00  0.00    +0.000 H 
ATOM    144  H45 UNL A   1      11.144   4.077  21.494  1.00  0.00    +0.000 H 
ATOM    145  H46 UNL A   1       9.308   3.087  22.744  1.00  0.00    +0.000 H 
ATOM     89  C64 UNL A   1       7.838   3.630  21.326  1.00  0.00    +0.000 C 
ATOM     90  C65 UNL A   1       7.598   4.275  20.107  1.00  0.00    +0.000 C 
ATOM     91  C66 UNL A   1       8.647   4.872  19.407  1.00  0.00    +0.000 C 
ATOM     92  C67 UNL A   1       9.947   4.823  19.918  1.00  0.00    +0.000 C 
ATOM     96  C70 UNL A   1      10.181   4.145  21.128  1.00  0.00    +0.000 C 
BRANCH   92   93
ATOM     93  C68 UNL A   1      11.107   5.479  19.240  1.00  0.00    +0.000 C 
ATOM     95  O4  UNL A   1      11.197   6.707  19.262  1.00  0.00    +0.000 O 
BRANCH   93   94
ATOM    143  H44 UNL A   1      13.015   4.557  19.132  1.00  0.00    +0.000 H 
ATOM    141  H42 UNL A   1      12.417   5.156  17.603  1.00  0.00    +0.000 H 
ATOM     94  C69 UNL A   1      12.148   4.662  18.513  1.00  0.00    +0.000 C 
ATOM    142  H43 UNL A   1      11.749   3.694  18.289  1.00  0.00    +0.000 H 
ENDBRANCH   93   94
ENDBRANCH   92   93
ENDBRANCH   88   89
ENDBRANCH   11   10
ENDBRANCH   12   11
ENDBRANCH   13   12
ENDBRANCH   15   13
ENDBRANCH   16   15
ENDBRANCH   17   16
ENDBRANCH   18   17
ENDBRANCH   19   18
ENDBRANCH   20   19
ENDBRANCH   21   20
ENDBRANCH   22   21
ENDBRANCH   23   22
ENDBRANCH   25   23
ENDBRANCH   29   28
BRANCH   33   34
ATOM     34  C28 UNL A   1      13.771   1.065  25.995  1.00  0.00    +0.000 C 
ATOM     35  C29 UNL A   1      15.063   0.873  26.539  1.00  0.00    +0.000 C 
ATOM     36  F1  UNL A   1      15.915  -0.004  25.985  1.00  0.00    +0.000 F 
ATOM     37  C30 UNL A   1      15.476   1.509  27.710  1.00  0.00    +0.000 C 
ATOM     38  F2  UNL A   1      16.649   1.182  28.269  1.00  0.00    +0.000 F 
ATOM     39  C31 UNL A   1      14.647   2.423  28.330  1.00  0.00    +0.000 C 
ATOM     40  F3  UNL A   1      15.015   2.992  29.487  1.00  0.00    +0.000 F 
ATOM     41  C32 UNL A   1      13.418   2.717  27.767  1.00  0.00    +0.000 C 
ATOM     42  F4  UNL A   1      12.609   3.604  28.365  1.00  0.00    +0.000 F 
ATOM     43  C33 UNL A   1      12.973   2.032  26.632  1.00  0.00    +0.000 C 
ATOM     44  F5  UNL A   1      11.708   2.248  26.249  1.00  0.00    +0.000 F 
ENDBRANCH   33   34
BRANCH   50   51
ATOM     51  C39 UNL A   1       8.484  -1.404  26.073  1.00  0.00    +0.000 C 
ATOM     52  C40 UNL A   1       8.609  -0.330  25.193  1.00  0.00    +0.000 C 
ATOM     53  F6  UNL A   1       9.608  -0.306  24.299  1.00  0.00    +0.000 F 
ATOM     54  C41 UNL A   1       7.702   0.734  25.225  1.00  0.00    +0.000 C 
ATOM     55  F7  UNL A   1       7.839   1.754  24.369  1.00  0.00    +0.000 F 
ATOM     56  C42 UNL A   1       6.650   0.746  26.135  1.00  0.00    +0.000 C 
ATOM     57  F8  UNL A   1       5.773   1.759  26.150  1.00  0.00    +0.000 F 
ATOM     58  C43 UNL A   1       6.505  -0.301  27.020  1.00  0.00    +0.000 C 
ATOM     59  F9  UNL A   1       5.484  -0.323  27.890  1.00  0.00    +0.000 F 
ATOM     60  C44 UNL A   1       7.417  -1.349  26.994  1.00  0.00    +0.000 C 
ATOM     61  F10 UNL A   1       7.231  -2.339  27.868  1.00  0.00    +0.000 F 
ENDBRANCH   50   51
BRANCH   65   66
ATOM     66  C48 UNL A   1       6.720  -5.661  22.124  1.00  0.00    +0.000 C 
ATOM     67  C49 UNL A   1       6.984  -6.695  21.217  1.00  0.00    +0.000 C 
ATOM     68  F11 UNL A   1       8.021  -6.632  20.377  1.00  0.00    +0.000 F 
ATOM     69  C50 UNL A   1       6.160  -7.831  21.115  1.00  0.00    +0.000 C 
ATOM     70  F12 UNL A   1       6.480  -8.809  20.255  1.00  0.00    +0.000 F 
ATOM     71  C51 UNL A   1       5.022  -7.961  21.891  1.00  0.00    +0.000 C 
ATOM     72  F13 UNL A   1       4.259  -9.059  21.813  1.00  0.00    +0.000 F 
ATOM     73  C52 UNL A   1       4.679  -6.935  22.740  1.00  0.00    +0.000 C 
ATOM     74  F14 UNL A   1       3.569  -7.020  23.487  1.00  0.00    +0.000 F 
ATOM     75  C53 UNL A   1       5.497  -5.807  22.838  1.00  0.00    +0.000 C 
ATOM     76  F15 UNL A   1       5.053  -4.856  23.671  1.00  0.00    +0.000 F 
ENDBRANCH   65   66
TORSDOF 23
ENDMDL
MODEL 3
REMARK VINA RESULT:      -8.4      6.712     12.174
ROOT
ATOM    129  H30 UNL A   1      37.320  31.146  31.504  1.00  0.00    +0.000 H 
ATOM    130  H31 UNL A   1      45.630  31.246  31.597  1.00  0.00    +0.000 H 
ATOM    131  H32 UNL A   1      44.720  33.085  30.114  1.00  0.00    +0.000 H 
ATOM    132  H33 UNL A   1      41.517  31.449  32.149  1.00  0.00    +0.000 H 
ATOM    133  H34 UNL A   1      42.447  31.456  35.615  1.00  0.00    +0.000 H 
ATOM    134  H35 UNL A   1      39.888  31.140  35.605  1.00  0.00    +0.000 H 
ATOM    135  H36 UNL A   1      37.808  35.461  29.502  1.00  0.00    +0.000 H 
ATOM    136  H37 UNL A   1      40.218  35.171  28.689  1.00  0.00    +0.000 H 
ATOM     29  C24 UNL A   1      41.943  33.679  30.441  1.00  0.00    +0.000 C 
ATOM     30  C25 UNL A   1      40.440  33.959  30.601  1.00  0.00    +0.000 C 
ATOM     31  N3  UNL A   1      39.603  33.649  31.553  1.00  0.00    +0.000 N 
ATOM     32  C26 UNL A   1      38.333  34.114  31.152  1.00  0.00    +0.000 C 
ATOM     33  C27 UNL A   1      37.142  33.734  31.703  1.00  0.00    +0.000 C 
ATOM     45  C34 UNL A   1      37.277  32.812  32.783  1.00  0.00    +0.000 C 
ATOM     46  C35 UNL A   1      37.199  32.814  34.155  1.00  0.00    +0.000 C 
ATOM     47  C36 UNL A   1      37.589  31.511  34.578  1.00  0.00    +0.000 C 
ATOM     48  C37 UNL A   1      38.050  30.845  33.450  1.00  0.00    +0.000 C 
ATOM     49  N4  UNL A   1      37.509  31.522  32.393  1.00  0.00    +0.000 N 
ATOM     50  C38 UNL A   1      39.018  29.838  33.133  1.00  0.00    +0.000 C 
ATOM     62  C45 UNL A   1      40.172  29.840  33.844  1.00  0.00    +0.000 C 
ATOM     63  N5  UNL A   1      41.330  29.288  33.339  1.00  0.00    +0.000 N 
ATOM     64  C46 UNL A   1      42.270  29.982  33.899  1.00  0.00    +0.000 C 
ATOM     65  C47 UNL A   1      43.648  30.096  33.395  1.00  0.00    +0.000 C 
ATOM     77  C54 UNL A   1      43.572  30.996  32.368  1.00  0.00    +0.000 C 
ATOM     78  C55 UNL A   1      44.645  31.552  31.568  1.00  0.00    +0.000 C 
ATOM     79  C56 UNL A   1      44.158  32.532  30.779  1.00  0.00    +0.000 C 
ATOM     80  C57 UNL A   1      42.711  32.703  30.999  1.00  0.00    +0.000 C 
ATOM     81  N6  UNL A   1      42.435  31.684  31.879  1.00  0.00    +0.000 N 
ATOM     82  C58 UNL A   1      41.871  30.871  34.991  1.00  0.00    +0.000 C 
ATOM     83  C59 UNL A   1      40.552  30.708  34.945  1.00  0.00    +0.000 C 
ATOM     84  C60 UNL A   1      38.535  34.893  29.965  1.00  0.00    +0.000 C 
ATOM     85  C61 UNL A   1      39.793  34.780  29.544  1.00  0.00    +0.000 C 
ATOM    127  H28 UNL A   1      36.916  33.602  34.757  1.00  0.00    +0.000 H 
ATOM    128  H29 UNL A   1      37.538  31.134  35.538  1.00  0.00    +0.000 H 
ENDROOT
BRANCH   29   28
ATOM    137  H38 UNL A   1      42.649  33.553  27.813  1.00  0.00    +0.000 H 
ATOM    138  H39 UNL A   1      43.594  35.333  26.451  1.00  0.00    +0.000 H 
ATOM     86  C62 UNL A   1      42.876  34.465  28.239  1.00  0.00    +0.000 C 
ATOM     87  C63 UNL A   1      43.414  35.490  27.456  1.00  0.00    +0.000 C 
ATOM     25  C20 UNL A   1      43.710  36.728  28.035  1.00  0.00    +0.000 C 
ATOM     26  C21 UNL A   1      43.513  36.923  29.410  1.00  0.00    +0.000 C 
ATOM     27  C22 UNL A   1      42.984  35.905  30.193  1.00  0.00    +0.000 C 
ATOM     28  C23 UNL A   1      42.646  34.681  29.604  1.00  0.00    +0.000 C 
ATOM    125  H26 UNL A   1      43.761  37.827  29.841  1.00  0.00    +0.000 H 
ATOM    126  H27 UNL A   1      42.841  36.050  31.205  1.00  0.00    +0.000 H 
BRANCH   25   23
ATOM     23  C19 UNL A   1      44.340  37.844  27.289  1.00  0.00    +0.000 C 
ATOM     24  O3  UNL A   1      45.448  37.693  26.802  1.00  0.00    +0.000 O 
BRANCH   23   22
ATOM    124  H25 UNL A   1      42.945  39.214  27.727  1.00  0.00    +0.000 H 
ATOM     22  N2  UNL A   1      43.715  39.055  27.135  1.00  0.00    +0.000 N 
BRANCH   22   21
ATOM    122  H23 UNL A   1      44.855  39.843  25.602  1.00  0.00    +0.000 H 
ATOM    123  H24 UNL A   1      43.172  40.341  25.617  1.00  0.00    +0.000 H 
ATOM     21  C18 UNL A   1      44.032  40.135  26.220  1.00  0.00    +0.000 C 
BRANCH   21   20
ATOM    121  H22 UNL A   1      45.395  41.238  27.372  1.00  0.00    +0.000 H 
ATOM     20  C17 UNL A   1      44.409  41.405  26.990  1.00  0.00    +0.000 C 
ATOM    120  H21 UNL A   1      43.677  41.559  27.754  1.00  0.00    +0.000 H 
BRANCH   20   19
ATOM     19  C16 UNL A   1      44.490  42.684  26.140  1.00  0.00    +0.000 C 
ATOM    118  H19 UNL A   1      43.866  43.423  26.599  1.00  0.00    +0.000 H 
ATOM    119  H20 UNL A   1      45.527  42.949  26.111  1.00  0.00    +0.000 H 
BRANCH   19   18
ATOM     18  C15 UNL A   1      44.056  42.543  24.680  1.00  0.00    +0.000 C 
ATOM    116  H17 UNL A   1      43.715  41.541  24.528  1.00  0.00    +0.000 H 
ATOM    117  H18 UNL A   1      43.292  43.274  24.518  1.00  0.00    +0.000 H 
BRANCH   18   17
ATOM     17  C14 UNL A   1      45.154  42.832  23.661  1.00  0.00    +0.000 C 
ATOM    114  H15 UNL A   1      45.666  43.720  23.968  1.00  0.00    +0.000 H 
ATOM    115  H16 UNL A   1      45.778  41.964  23.643  1.00  0.00    +0.000 H 
BRANCH   17   16
ATOM    113  H14 UNL A   1      45.267  42.435  21.573  1.00  0.00    +0.000 H 
ATOM    112  H13 UNL A   1      44.765  44.071  21.967  1.00  0.00    +0.000 H 
ATOM     16  C13 UNL A   1      44.670  43.037  22.226  1.00  0.00    +0.000 C 
BRANCH   16   15
ATOM    111  H12 UNL A   1      43.102  41.676  22.202  1.00  0.00    +0.000 H 
ATOM     15  N1  UNL A   1      43.282  42.637  22.092  1.00  0.00    +0.000 N 
BRANCH   15   13
ATOM     13  C12 UNL A   1      42.196  43.419  21.834  1.00  0.00    +0.000 C 
ATOM     14  O2  UNL A   1      41.665  44.016  22.772  1.00  0.00    +0.000 O 
BRANCH   13   12
ATOM     12  C11 UNL A   1      41.622  43.502  20.432  1.00  0.00    +0.000 C 
ATOM    109  H10 UNL A   1      40.825  42.792  20.346  1.00  0.00    +0.000 H 
ATOM    110  H11 UNL A   1      41.279  44.505  20.284  1.00  0.00    +0.000 H 
BRANCH   12   11
ATOM     11  C10 UNL A   1      42.660  43.205  19.350  1.00  0.00    +0.000 C 
ATOM    108  H9  UNL A   1      42.303  42.365  18.791  1.00  0.00    +0.000 H 
ATOM    107  H8  UNL A   1      43.598  43.004  19.825  1.00  0.00    +0.000 H 
BRANCH   11   10
ATOM      7  C6  UNL A   1      43.389  46.417  17.662  1.00  0.00    +0.000 C 
ATOM      8  C7  UNL A   1      42.579  45.819  16.707  1.00  0.00    +0.000 C 
ATOM      9  C8  UNL A   1      42.248  44.525  17.151  1.00  0.00    +0.000 C 
ATOM     10  C9  UNL A   1      42.849  44.342  18.380  1.00  0.00    +0.000 C 
ATOM    105  H6  UNL A   1      42.273  46.251  15.821  1.00  0.00    +0.000 H 
ATOM    106  H7  UNL A   1      41.661  43.839  16.651  1.00  0.00    +0.000 H 
ATOM     88  N7  UNL A   1      43.722  45.411  18.574  1.00  0.00    +0.000 N 
BRANCH    7    6
ATOM     98  C72 UNL A   1      43.345  48.882  18.021  1.00  0.00    +0.000 C 
ATOM      3  C2  UNL A   1      45.166  50.280  17.246  1.00  0.00    +0.000 C 
ATOM      4  C3  UNL A   1      45.821  49.143  16.773  1.00  0.00    +0.000 C 
ATOM      5  C4  UNL A   1      45.253  47.878  16.937  1.00  0.00    +0.000 C 
ATOM     99  C73 UNL A   1      43.922  50.150  17.865  1.00  0.00    +0.000 C 
ATOM    103  H4  UNL A   1      46.732  49.237  16.297  1.00  0.00    +0.000 H 
ATOM      6  C5  UNL A   1      44.012  47.738  17.566  1.00  0.00    +0.000 C 
ATOM    104  H5  UNL A   1      45.752  47.042  16.595  1.00  0.00    +0.000 H 
ATOM    146  H47 UNL A   1      42.424  48.790  18.477  1.00  0.00    +0.000 H 
ATOM    147  H48 UNL A   1      43.426  50.988  18.207  1.00  0.00    +0.000 H 
BRANCH    3    2
ATOM      2  O1  UNL A   1      45.800  51.466  16.997  1.00  0.00    +0.000 O 
BRANCH    2    1
ATOM      1  C1  UNL A   1      45.475  52.081  15.756  1.00  0.00    +0.000 C 
ATOM    100  H1  UNL A   1      46.370  52.427  15.283  1.00  0.00    +0.000 H 
ATOM    101  H2  UNL A   1      44.819  52.910  15.929  1.00  0.00    +0.000 H 
ATOM    102  H3  UNL A   1      44.989  51.369  15.122  1.00  0.00    +0.000 H 
ENDBRANCH    2    1
ENDBRANCH    3    2
ENDBRANCH    7    6
BRANCH   88   89
ATOM     97  C71 UNL A   1      45.125  46.172  20.443  1.00  0.00    +0.000 C 
ATOM    139  H40 UNL A   1      45.794  43.952  18.020  1.00  0.00    +0.000 H 
ATOM    140  H41 UNL A   1      47.976  43.996  19.071  1.00  0.00    +0.000 H 
ATOM    144  H45 UNL A   1      46.533  46.755  21.902  1.00  0.00    +0.000 H 
ATOM    145  H46 UNL A   1      44.361  46.763  20.808  1.00  0.00    +0.000 H 
ATOM     89  C64 UNL A   1      44.921  45.361  19.330  1.00  0.00    +0.000 C 
ATOM     90  C65 UNL A   1      45.959  44.561  18.836  1.00  0.00    +0.000 C 
ATOM     91  C66 UNL A   1      47.215  44.583  19.444  1.00  0.00    +0.000 C 
ATOM     92  C67 UNL A   1      47.441  45.399  20.556  1.00  0.00    +0.000 C 
ATOM     96  C70 UNL A   1      46.382  46.175  21.062  1.00  0.00    +0.000 C 
BRANCH   92   93
ATOM     93  C68 UNL A   1      48.774  45.501  21.226  1.00  0.00    +0.000 C 
ATOM     95  O4  UNL A   1      49.138  44.593  21.973  1.00  0.00    +0.000 O 
BRANCH   93   94
ATOM    143  H44 UNL A   1      50.685  46.416  21.118  1.00  0.00    +0.000 H 
ATOM    141  H42 UNL A   1      49.427  47.449  21.754  1.00  0.00    +0.000 H 
ATOM     94  C69 UNL A   1      49.660  46.706  21.020  1.00  0.00    +0.000 C 
ATOM    142  H43 UNL A   1      49.493  47.107  20.042  1.00  0.00    +0.000 H 
ENDBRANCH   93   94
ENDBRANCH   92   93
ENDBRANCH   88   89
ENDBRANCH   11   10
ENDBRANCH   12   11
ENDBRANCH   13   12
ENDBRANCH   15   13
ENDBRANCH   16   15
ENDBRANCH   17   16
ENDBRANCH   18   17
ENDBRANCH   19   18
ENDBRANCH   20   19
ENDBRANCH   21   20
ENDBRANCH   22   21
ENDBRANCH   23   22
ENDBRANCH   25   23
ENDBRANCH   29   28
BRANCH   33   34
ATOM     34  C28 UNL A   1      35.751  33.853  31.117  1.00  0.00    +0.000 C 
ATOM     35  C29 UNL A   1      35.487  33.243  29.868  1.00  0.00    +0.000 C 
ATOM     36  F1  UNL A   1      36.276  32.260  29.407  1.00  0.00    +0.000 F 
ATOM     37  C30 UNL A   1      34.464  33.685  29.028  1.00  0.00    +0.000 C 
ATOM     38  F2  UNL A   1      34.348  33.178  27.793  1.00  0.00    +0.000 F 
ATOM     39  C31 UNL A   1      33.615  34.692  29.443  1.00  0.00    +0.000 C 
ATOM     40  F3  UNL A   1      32.670  35.161  28.617  1.00  0.00    +0.000 F 
ATOM     41  C32 UNL A   1      33.776  35.240  30.704  1.00  0.00    +0.000 C 
ATOM     42  F4  UNL A   1      32.955  36.219  31.112  1.00  0.00    +0.000 F 
ATOM     43  C33 UNL A   1      34.841  34.847  31.520  1.00  0.00    +0.000 C 
ATOM     44  F5  UNL A   1      35.030  35.541  32.649  1.00  0.00    +0.000 F 
ENDBRANCH   33   34
BRANCH   50   51
ATOM     51  C39 UNL A   1      39.140  29.151  31.796  1.00  0.00    +0.000 C 
ATOM     52  C40 UNL A   1      39.509  29.848  30.645  1.00  0.00    +0.000 C 
ATOM     53  F6  UNL A   1      39.868  31.137  30.726  1.00  0.00    +0.000 F 
ATOM     54  C41 UNL A   1      39.511  29.219  29.396  1.00  0.00    +0.000 C 
ATOM     55  F7  UNL A   1      39.872  29.906  28.305  1.00  0.00    +0.000 F 
ATOM     56  C42 UNL A   1      39.149  27.883  29.270  1.00  0.00    +0.000 C 
ATOM     57  F8  UNL A   1      39.170  27.280  28.073  1.00  0.00    +0.000 F 
ATOM     58  C43 UNL A   1      38.776  27.171  30.390  1.00  0.00    +0.000 C 
ATOM     59  F9  UNL A   1      38.444  25.874  30.297  1.00  0.00    +0.000 F 
ATOM     60  C44 UNL A   1      38.759  27.804  31.627  1.00  0.00    +0.000 C 
ATOM     61  F10 UNL A   1      38.394  27.070  32.680  1.00  0.00    +0.000 F 
ENDBRANCH   50   51
BRANCH   65   66
ATOM     66  C48 UNL A   1      44.728  29.366  34.151  1.00  0.00    +0.000 C 
ATOM     67  C49 UNL A   1      45.760  29.964  34.887  1.00  0.00    +0.000 C 
ATOM     68  F11 UNL A   1      45.953  31.287  34.861  1.00  0.00    +0.000 F 
ATOM     69  C50 UNL A   1      46.663  29.212  35.660  1.00  0.00    +0.000 C 
ATOM     70  F12 UNL A   1      47.609  29.839  36.375  1.00  0.00    +0.000 F 
ATOM     71  C51 UNL A   1      46.592  27.830  35.700  1.00  0.00    +0.000 C 
ATOM     72  F13 UNL A   1      47.434  27.121  36.461  1.00  0.00    +0.000 F 
ATOM     73  C52 UNL A   1      45.646  27.195  34.932  1.00  0.00    +0.000 C 
ATOM     74  F14 UNL A   1      45.567  25.856  34.929  1.00  0.00    +0.000 F 
ATOM     75  C53 UNL A   1      44.751  27.943  34.164  1.00  0.00    +0.000 C 
ATOM     76  F15 UNL A   1      43.892  27.222  33.430  1.00  0.00    +0.000 F 
ENDBRANCH   65   66
TORSDOF 23
ENDMDL
MODEL 4
REMARK VINA RESULT:      -8.1     41.167     46.000
ROOT
ATOM    129  H30 UNL A   1      22.226  22.809 -11.288  1.00  0.00    +0.000 H 
ATOM    130  H31 UNL A   1      27.825  28.559 -13.445  1.00  0.00    +0.000 H 
ATOM    131  H32 UNL A   1      28.485  26.280 -14.326  1.00  0.00    +0.000 H 
ATOM    132  H33 UNL A   1      24.649  25.955 -12.824  1.00  0.00    +0.000 H 
ATOM    133  H34 UNL A   1      22.772  28.615 -14.333  1.00  0.00    +0.000 H 
ATOM    134  H35 UNL A   1      21.003  26.977 -13.420  1.00  0.00    +0.000 H 
ATOM    135  H36 UNL A   1      24.488  20.133 -14.541  1.00  0.00    +0.000 H 
ATOM    136  H37 UNL A   1      26.685  21.448 -14.572  1.00  0.00    +0.000 H 
ATOM     29  C24 UNL A   1      26.424  24.299 -14.300  1.00  0.00    +0.000 C 
ATOM     30  C25 UNL A   1      25.316  23.234 -14.242  1.00  0.00    +0.000 C 
ATOM     31  N3  UNL A   1      24.023  23.344 -14.110  1.00  0.00    +0.000 N 
ATOM     32  C26 UNL A   1      23.501  22.034 -14.069  1.00  0.00    +0.000 C 
ATOM     33  C27 UNL A   1      22.249  21.696 -13.640  1.00  0.00    +0.000 C 
ATOM     45  C34 UNL A   1      21.456  22.813 -13.242  1.00  0.00    +0.000 C 
ATOM     46  C35 UNL A   1      20.409  23.558 -13.730  1.00  0.00    +0.000 C 
ATOM     47  C36 UNL A   1      20.223  24.632 -12.813  1.00  0.00    +0.000 C 
ATOM     48  C37 UNL A   1      21.280  24.577 -11.912  1.00  0.00    +0.000 C 
ATOM     49  N4  UNL A   1      21.752  23.298 -11.999  1.00  0.00    +0.000 N 
ATOM     50  C38 UNL A   1      22.056  25.491 -11.130  1.00  0.00    +0.000 C 
ATOM     62  C45 UNL A   1      22.326  26.702 -11.675  1.00  0.00    +0.000 C 
ATOM     63  N5  UNL A   1      23.419  27.443 -11.278  1.00  0.00    +0.000 N 
ATOM     64  C46 UNL A   1      23.730  28.122 -12.336  1.00  0.00    +0.000 C 
ATOM     65  C47 UNL A   1      25.046  28.731 -12.590  1.00  0.00    +0.000 C 
ATOM     77  C54 UNL A   1      25.839  27.695 -13.000  1.00  0.00    +0.000 C 
ATOM     78  C55 UNL A   1      27.210  27.731 -13.468  1.00  0.00    +0.000 C 
ATOM     79  C56 UNL A   1      27.559  26.516 -13.937  1.00  0.00    +0.000 C 
ATOM     80  C57 UNL A   1      26.434  25.571 -13.818  1.00  0.00    +0.000 C 
ATOM     81  N6  UNL A   1      25.495  26.330 -13.159  1.00  0.00    +0.000 N 
ATOM     82  C58 UNL A   1      22.768  28.103 -13.438  1.00  0.00    +0.000 C 
ATOM     83  C59 UNL A   1      21.885  27.236 -12.952  1.00  0.00    +0.000 C 
ATOM     84  C60 UNL A   1      24.585  21.148 -14.380  1.00  0.00    +0.000 C 
ATOM     85  C61 UNL A   1      25.733  21.820 -14.432  1.00  0.00    +0.000 C 
ATOM    127  H28 UNL A   1      19.869  23.377 -14.590  1.00  0.00    +0.000 H 
ATOM    128  H29 UNL A   1      19.452  25.317 -12.815  1.00  0.00    +0.000 H 
ENDROOT
BRANCH   29   28
ATOM    137  H38 UNL A   1      26.999  24.612 -16.945  1.00  0.00    +0.000 H 
ATOM    138  H39 UNL A   1      29.087  24.083 -18.074  1.00  0.00    +0.000 H 
ATOM     86  C62 UNL A   1      27.772  24.170 -16.423  1.00  0.00    +0.000 C 
ATOM     87  C63 UNL A   1      28.973  23.871 -17.070  1.00  0.00    +0.000 C 
ATOM     25  C20 UNL A   1      30.022  23.281 -16.356  1.00  0.00    +0.000 C 
ATOM     26  C21 UNL A   1      29.848  22.947 -15.005  1.00  0.00    +0.000 C 
ATOM     27  C22 UNL A   1      28.653  23.238 -14.360  1.00  0.00    +0.000 C 
ATOM     28  C23 UNL A   1      27.620  23.868 -15.063  1.00  0.00    +0.000 C 
ATOM    125  H26 UNL A   1      30.612  22.484 -14.489  1.00  0.00    +0.000 H 
ATOM    126  H27 UNL A   1      28.527  22.989 -13.366  1.00  0.00    +0.000 H 
BRANCH   25   23
ATOM     23  C19 UNL A   1      31.304  22.876 -16.982  1.00  0.00    +0.000 C 
ATOM     24  O3  UNL A   1      31.412  22.892 -18.197  1.00  0.00    +0.000 O 
BRANCH   23   22
ATOM    124  H25 UNL A   1      32.448  21.499 -16.084  1.00  0.00    +0.000 H 
ATOM     22  N2  UNL A   1      32.378  22.469 -16.233  1.00  0.00    +0.000 N 
BRANCH   22   21
ATOM    122  H23 UNL A   1      34.377  22.843 -15.868  1.00  0.00    +0.000 H 
ATOM    123  H24 UNL A   1      33.362  24.268 -16.017  1.00  0.00    +0.000 H 
ATOM     21  C18 UNL A   1      33.426  23.271 -15.631  1.00  0.00    +0.000 C 
BRANCH   21   20
ATOM    121  H22 UNL A   1      34.235  23.129 -13.700  1.00  0.00    +0.000 H 
ATOM     20  C17 UNL A   1      33.264  23.321 -14.109  1.00  0.00    +0.000 C 
ATOM    120  H21 UNL A   1      32.533  22.591 -13.829  1.00  0.00    +0.000 H 
BRANCH   20   19
ATOM     19  C16 UNL A   1      32.821  24.681 -13.543  1.00  0.00    +0.000 C 
ATOM    118  H19 UNL A   1      33.702  25.252 -13.335  1.00  0.00    +0.000 H 
ATOM    119  H20 UNL A   1      32.188  25.114 -14.289  1.00  0.00    +0.000 H 
BRANCH   19   18
ATOM     18  C15 UNL A   1      31.982  24.630 -12.265  1.00  0.00    +0.000 C 
ATOM    116  H17 UNL A   1      31.643  23.625 -12.127  1.00  0.00    +0.000 H 
ATOM    117  H18 UNL A   1      32.614  24.971 -11.472  1.00  0.00    +0.000 H 
BRANCH   18   17
ATOM     17  C14 UNL A   1      30.762  25.546 -12.271  1.00  0.00    +0.000 C 
ATOM    114  H15 UNL A   1      31.091  26.538 -12.042  1.00  0.00    +0.000 H 
ATOM    115  H16 UNL A   1      30.326  25.454 -13.243  1.00  0.00    +0.000 H 
BRANCH   17   16
ATOM    113  H14 UNL A   1      29.244  24.230 -11.566  1.00  0.00    +0.000 H 
ATOM    112  H13 UNL A   1      28.910  25.930 -11.283  1.00  0.00    +0.000 H 
ATOM     16  C13 UNL A   1      29.664  25.170 -11.277  1.00  0.00    +0.000 C 
BRANCH   16   15
ATOM    111  H12 UNL A   1      31.158  24.803  -9.882  1.00  0.00    +0.000 H 
ATOM     15  N1  UNL A   1      30.205  25.048  -9.937  1.00  0.00    +0.000 N 
BRANCH   15   13
ATOM     13  C12 UNL A   1      29.569  25.227  -8.745  1.00  0.00    +0.000 C 
ATOM     14  O2  UNL A   1      28.453  25.748  -8.747  1.00  0.00    +0.000 O 
BRANCH   13   12
ATOM     12  C11 UNL A   1      30.250  24.846  -7.444  1.00  0.00    +0.000 C 
ATOM    109  H10 UNL A   1      31.112  25.466  -7.314  1.00  0.00    +0.000 H 
ATOM    110  H11 UNL A   1      29.538  24.984  -6.657  1.00  0.00    +0.000 H 
BRANCH   12   11
ATOM     11  C10 UNL A   1      30.692  23.383  -7.415  1.00  0.00    +0.000 C 
ATOM    108  H9  UNL A   1      31.132  23.203  -6.456  1.00  0.00    +0.000 H 
ATOM    107  H8  UNL A   1      31.387  23.222  -8.213  1.00  0.00    +0.000 H 
BRANCH   11   10
ATOM      7  C6  UNL A   1      28.100  21.037  -8.629  1.00  0.00    +0.000 C 
ATOM      8  C7  UNL A   1      27.576  21.353  -7.383  1.00  0.00    +0.000 C 
ATOM      9  C8  UNL A   1      28.483  22.206  -6.723  1.00  0.00    +0.000 C 
ATOM     10  C9  UNL A   1      29.550  22.413  -7.573  1.00  0.00    +0.000 C 
ATOM    105  H6  UNL A   1      26.675  21.020  -7.006  1.00  0.00    +0.000 H 
ATOM    106  H7  UNL A   1      28.368  22.604  -5.778  1.00  0.00    +0.000 H 
ATOM     88  N7  UNL A   1      29.412  21.519  -8.633  1.00  0.00    +0.000 N 
BRANCH    7    6
ATOM     98  C72 UNL A   1      26.545  20.573 -10.519  1.00  0.00    +0.000 C 
ATOM      3  C2  UNL A   1      26.290  18.326 -11.391  1.00  0.00    +0.000 C 
ATOM      4  C3  UNL A   1      27.236  17.875 -10.470  1.00  0.00    +0.000 C 
ATOM      5  C4  UNL A   1      27.849  18.768  -9.589  1.00  0.00    +0.000 C 
ATOM     99  C73 UNL A   1      25.939  19.676 -11.410  1.00  0.00    +0.000 C 
ATOM    103  H4  UNL A   1      27.484  16.874 -10.439  1.00  0.00    +0.000 H 
ATOM      6  C5  UNL A   1      27.510  20.124  -9.609  1.00  0.00    +0.000 C 
ATOM    104  H5  UNL A   1      28.557  18.425  -8.921  1.00  0.00    +0.000 H 
ATOM    146  H47 UNL A   1      26.280  21.570 -10.535  1.00  0.00    +0.000 H 
ATOM    147  H48 UNL A   1      25.231  20.016 -12.081  1.00  0.00    +0.000 H 
BRANCH    3    2
ATOM      2  O1  UNL A   1      25.733  17.357 -12.178  1.00  0.00    +0.000 O 
BRANCH    2    1
ATOM      1  C1  UNL A   1      25.489  17.737 -13.528  1.00  0.00    +0.000 C 
ATOM    100  H1  UNL A   1      26.247  17.321 -14.159  1.00  0.00    +0.000 H 
ATOM    101  H2  UNL A   1      25.506  18.805 -13.607  1.00  0.00    +0.000 H 
ATOM    102  H3  UNL A   1      24.531  17.372 -13.834  1.00  0.00    +0.000 H 
ENDBRANCH    2    1
ENDBRANCH    3    2
ENDBRANCH    7    6
BRANCH   88   89
ATOM     97  C71 UNL A   1      31.350  20.019  -8.825  1.00  0.00    +0.000 C 
ATOM    139  H40 UNL A   1      30.072  22.174 -11.055  1.00  0.00    +0.000 H 
ATOM    140  H41 UNL A   1      32.032  21.491 -12.305  1.00  0.00    +0.000 H 
ATOM    144  H45 UNL A   1      33.101  18.896  -9.171  1.00  0.00    +0.000 H 
ATOM    145  H46 UNL A   1      31.171  19.629  -7.886  1.00  0.00    +0.000 H 
ATOM     89  C64 UNL A   1      30.483  20.959  -9.376  1.00  0.00    +0.000 C 
ATOM     90  C65 UNL A   1      30.728  21.488 -10.649  1.00  0.00    +0.000 C 
ATOM     91  C66 UNL A   1      31.854  21.093 -11.371  1.00  0.00    +0.000 C 
ATOM     92  C67 UNL A   1      32.741  20.159 -10.830  1.00  0.00    +0.000 C 
ATOM     96  C70 UNL A   1      32.468  19.610  -9.563  1.00  0.00    +0.000 C 
BRANCH   92   93
ATOM     93  C68 UNL A   1      33.988  19.725 -11.532  1.00  0.00    +0.000 C 
ATOM     95  O4  UNL A   1      34.014  19.731 -12.763  1.00  0.00    +0.000 O 
BRANCH   93   94
ATOM    143  H44 UNL A   1      35.943  20.025 -10.763  1.00  0.00    +0.000 H 
ATOM    141  H42 UNL A   1      35.591  18.373 -11.210  1.00  0.00    +0.000 H 
ATOM     94  C69 UNL A   1      35.197  19.258 -10.757  1.00  0.00    +0.000 C 
ATOM    142  H43 UNL A   1      34.912  19.045  -9.747  1.00  0.00    +0.000 H 
ENDBRANCH   93   94
ENDBRANCH   92   93
ENDBRANCH   88   89
ENDBRANCH   11   10
ENDBRANCH   12   11
ENDBRANCH   13   12
ENDBRANCH   15   13
ENDBRANCH   16   15
ENDBRANCH   17   16
ENDBRANCH   18   17
ENDBRANCH   19   18
ENDBRANCH   20   19
ENDBRANCH   21   20
ENDBRANCH   22   21
ENDBRANCH   23   22
ENDBRANCH   25   23
ENDBRANCH   29   28
BRANCH   33   34
ATOM     34  C28 UNL A   1      21.739  20.342 -13.190  1.00  0.00    +0.000 C 
ATOM     35  C29 UNL A   1      22.253  19.787 -11.994  1.00  0.00    +0.000 C 
ATOM     36  F1  UNL A   1      22.841  20.569 -11.075  1.00  0.00    +0.000 F 
ATOM     37  C30 UNL A   1      22.254  18.413 -11.756  1.00  0.00    +0.000 C 
ATOM     38  F2  UNL A   1      22.886  17.922 -10.680  1.00  0.00    +0.000 F 
ATOM     39  C31 UNL A   1      21.664  17.553 -12.661  1.00  0.00    +0.000 C 
ATOM     40  F3  UNL A   1      21.714  16.228 -12.465  1.00  0.00    +0.000 F 
ATOM     41  C32 UNL A   1      21.055  18.069 -13.792  1.00  0.00    +0.000 C 
ATOM     42  F4  UNL A   1      20.482  17.239 -14.675  1.00  0.00    +0.000 F 
ATOM     43  C33 UNL A   1      21.113  19.439 -14.067  1.00  0.00    +0.000 C 
ATOM     44  F5  UNL A   1      20.653  19.838 -15.260  1.00  0.00    +0.000 F 
ENDBRANCH   33   34
BRANCH   50   51
ATOM     51  C39 UNL A   1      23.031  25.089 -10.051  1.00  0.00    +0.000 C 
ATOM     52  C40 UNL A   1      22.799  25.383  -8.708  1.00  0.00    +0.000 C 
ATOM     53  F6  UNL A   1      21.640  25.945  -8.333  1.00  0.00    +0.000 F 
ATOM     54  C41 UNL A   1      23.762  25.099  -7.735  1.00  0.00    +0.000 C 
ATOM     55  F7  UNL A   1      23.517  25.388  -6.451  1.00  0.00    +0.000 F 
ATOM     56  C42 UNL A   1      24.975  24.514  -8.082  1.00  0.00    +0.000 C 
ATOM     57  F8  UNL A   1      25.887  24.229  -7.142  1.00  0.00    +0.000 F 
ATOM     58  C43 UNL A   1      25.232  24.217  -9.403  1.00  0.00    +0.000 C 
ATOM     59  F9  UNL A   1      26.386  23.630  -9.758  1.00  0.00    +0.000 F 
ATOM     60  C44 UNL A   1      24.279  24.514 -10.369  1.00  0.00    +0.000 C 
ATOM     61  F10 UNL A   1      24.576  24.203 -11.631  1.00  0.00    +0.000 F 
ENDBRANCH   50   51
BRANCH   65   66
ATOM     66  C48 UNL A   1      25.152  30.230 -12.477  1.00  0.00    +0.000 C 
ATOM     67  C49 UNL A   1      24.962  31.145 -13.522  1.00  0.00    +0.000 C 
ATOM     68  F11 UNL A   1      24.799  30.733 -14.783  1.00  0.00    +0.000 F 
ATOM     69  C50 UNL A   1      24.967  32.536 -13.310  1.00  0.00    +0.000 C 
ATOM     70  F12 UNL A   1      24.742  33.365 -14.339  1.00  0.00    +0.000 F 
ATOM     71  C51 UNL A   1      25.195  33.067 -12.052  1.00  0.00    +0.000 C 
ATOM     72  F13 UNL A   1      25.168  34.390 -11.851  1.00  0.00    +0.000 F 
ATOM     73  C52 UNL A   1      25.465  32.210 -11.012  1.00  0.00    +0.000 C 
ATOM     74  F14 UNL A   1      25.716  32.695  -9.787  1.00  0.00    +0.000 F 
ATOM     75  C53 UNL A   1      25.463  30.830 -11.224  1.00  0.00    +0.000 C 
ATOM     76  F15 UNL A   1      25.768  30.090 -10.150  1.00  0.00    +0.000 F 
ENDBRANCH   65   66
TORSDOF 23
ENDMDL
MODEL 5
REMARK VINA RESULT:      -7.8     41.468     46.579
ROOT
ATOM    129  H30 UNL A   1      27.851 -10.393  27.559  1.00  0.00    +0.000 H 
ATOM    130  H31 UNL A   1      24.062 -13.136  34.428  1.00  0.00    +0.000 H 
ATOM    131  H32 UNL A   1      26.108 -14.532  33.906  1.00  0.00    +0.000 H 
ATOM    132  H33 UNL A   1      26.162 -11.272  31.367  1.00  0.00    +0.000 H 
ATOM    133  H34 UNL A   1      25.745  -8.387  33.460  1.00  0.00    +0.000 H 
ATOM    134  H35 UNL A   1      26.660  -7.474  31.229  1.00  0.00    +0.000 H 
ATOM    135  H36 UNL A   1      31.433 -13.190  29.044  1.00  0.00    +0.000 H 
ATOM    136  H37 UNL A   1      30.049 -14.703  30.576  1.00  0.00    +0.000 H 
ATOM     29  C24 UNL A   1      27.930 -13.398  32.017  1.00  0.00    +0.000 C 
ATOM     30  C25 UNL A   1      28.880 -12.793  30.971  1.00  0.00    +0.000 C 
ATOM     31  N3  UNL A   1      28.999 -11.574  30.520  1.00  0.00    +0.000 N 
ATOM     32  C26 UNL A   1      30.002 -11.600  29.527  1.00  0.00    +0.000 C 
ATOM     33  C27 UNL A   1      30.223 -10.619  28.603  1.00  0.00    +0.000 C 
ATOM     45  C34 UNL A   1      29.348  -9.500  28.731  1.00  0.00    +0.000 C 
ATOM     46  C35 UNL A   1      29.390  -8.207  29.195  1.00  0.00    +0.000 C 
ATOM     47  C36 UNL A   1      28.058  -7.711  29.116  1.00  0.00    +0.000 C 
ATOM     48  C37 UNL A   1      27.250  -8.788  28.773  1.00  0.00    +0.000 C 
ATOM     49  N4  UNL A   1      28.098  -9.704  28.217  1.00  0.00    +0.000 N 
ATOM     50  C38 UNL A   1      25.907  -9.226  29.010  1.00  0.00    +0.000 C 
ATOM     62  C45 UNL A   1      25.371  -8.959  30.226  1.00  0.00    +0.000 C 
ATOM     63  N5  UNL A   1      24.342  -9.717  30.742  1.00  0.00    +0.000 N 
ATOM     64  C46 UNL A   1      24.519  -9.644  32.023  1.00  0.00    +0.000 C 
ATOM     65  C47 UNL A   1      23.974 -10.597  33.005  1.00  0.00    +0.000 C 
ATOM     77  C54 UNL A   1      24.803 -11.683  32.935  1.00  0.00    +0.000 C 
ATOM     78  C55 UNL A   1      24.792 -12.886  33.744  1.00  0.00    +0.000 C 
ATOM     79  C56 UNL A   1      25.883 -13.627  33.464  1.00  0.00    +0.000 C 
ATOM     80  C57 UNL A   1      26.711 -12.966  32.439  1.00  0.00    +0.000 C 
ATOM     81  N6  UNL A   1      25.941 -11.874  32.113  1.00  0.00    +0.000 N 
ATOM     82  C58 UNL A   1      25.494  -8.663  32.499  1.00  0.00    +0.000 C 
ATOM     83  C59 UNL A   1      25.965  -8.229  31.333  1.00  0.00    +0.000 C 
ATOM     84  C60 UNL A   1      30.593 -12.905  29.572  1.00  0.00    +0.000 C 
ATOM     85  C61 UNL A   1      29.905 -13.699  30.390  1.00  0.00    +0.000 C 
ATOM    127  H28 UNL A   1      30.222  -7.698  29.534  1.00  0.00    +0.000 H 
ATOM    128  H29 UNL A   1      27.750  -6.740  29.280  1.00  0.00    +0.000 H 
ENDROOT
BRANCH   29   28
ATOM    137  H38 UNL A   1      29.976 -13.574  33.808  1.00  0.00    +0.000 H 
ATOM    138  H39 UNL A   1      30.676 -15.536  35.062  1.00  0.00    +0.000 H 
ATOM     86  C62 UNL A   1      29.514 -14.482  33.647  1.00  0.00    +0.000 C 
ATOM     87  C63 UNL A   1      29.913 -15.609  34.371  1.00  0.00    +0.000 C 
ATOM     25  C20 UNL A   1      29.276 -16.836  34.157  1.00  0.00    +0.000 C 
ATOM     26  C21 UNL A   1      28.274 -16.945  33.182  1.00  0.00    +0.000 C 
ATOM     27  C22 UNL A   1      27.880 -15.828  32.456  1.00  0.00    +0.000 C 
ATOM     28  C23 UNL A   1      28.486 -14.591  32.701  1.00  0.00    +0.000 C 
ATOM    125  H26 UNL A   1      27.828 -17.857  33.004  1.00  0.00    +0.000 H 
ATOM    126  H27 UNL A   1      27.143 -15.911  31.738  1.00  0.00    +0.000 H 
BRANCH   25   23
ATOM     23  C19 UNL A   1      29.681 -18.090  34.838  1.00  0.00    +0.000 C 
ATOM     24  O3  UNL A   1      29.348 -18.281  35.995  1.00  0.00    +0.000 O 
BRANCH   23   22
ATOM    124  H25 UNL A   1      31.287 -19.271  34.639  1.00  0.00    +0.000 H 
ATOM     22  N2  UNL A   1      30.433 -19.047  34.205  1.00  0.00    +0.000 N 
BRANCH   22   21
ATOM    122  H23 UNL A   1      30.279 -20.821  33.157  1.00  0.00    +0.000 H 
ATOM    123  H24 UNL A   1      29.131 -19.575  32.696  1.00  0.00    +0.000 H 
ATOM     21  C18 UNL A   1      30.143 -19.774  32.984  1.00  0.00    +0.000 C 
BRANCH   21   20
ATOM    121  H22 UNL A   1      31.501 -20.222  31.449  1.00  0.00    +0.000 H 
ATOM     20  C17 UNL A   1      31.074 -19.327  31.852  1.00  0.00    +0.000 C 
ATOM    120  H21 UNL A   1      31.799 -18.657  32.265  1.00  0.00    +0.000 H 
BRANCH   20   19
ATOM     19  C16 UNL A   1      30.380 -18.616  30.678  1.00  0.00    +0.000 C 
ATOM    118  H19 UNL A   1      30.593 -19.170  29.787  1.00  0.00    +0.000 H 
ATOM    119  H20 UNL A   1      29.340 -18.584  30.931  1.00  0.00    +0.000 H 
BRANCH   19   18
ATOM     18  C15 UNL A   1      30.795 -17.164  30.439  1.00  0.00    +0.000 C 
ATOM    116  H17 UNL A   1      31.213 -17.092  29.458  1.00  0.00    +0.000 H 
ATOM    117  H18 UNL A   1      29.913 -16.571  30.563  1.00  0.00    +0.000 H 
BRANCH   18   17
ATOM     17  C14 UNL A   1      31.820 -16.625  31.433  1.00  0.00    +0.000 C 
ATOM    114  H15 UNL A   1      31.344 -15.874  32.026  1.00  0.00    +0.000 H 
ATOM    115  H16 UNL A   1      32.155 -17.469  32.000  1.00  0.00    +0.000 H 
BRANCH   17   16
ATOM    113  H14 UNL A   1      33.795 -15.843  31.576  1.00  0.00    +0.000 H 
ATOM    112  H13 UNL A   1      32.810 -15.087  30.334  1.00  0.00    +0.000 H 
ATOM     16  C13 UNL A   1      33.071 -16.012  30.806  1.00  0.00    +0.000 C 
BRANCH   16   15
ATOM    111  H12 UNL A   1      33.911 -17.794  30.149  1.00  0.00    +0.000 H 
ATOM     15  N1  UNL A   1      33.641 -16.907  29.817  1.00  0.00    +0.000 N 
BRANCH   15   13
ATOM     13  C12 UNL A   1      33.850 -16.682  28.490  1.00  0.00    +0.000 C 
ATOM     14  O2  UNL A   1      34.858 -17.158  27.965  1.00  0.00    +0.000 O 
BRANCH   13   12
ATOM     12  C11 UNL A   1      32.892 -15.815  27.695  1.00  0.00    +0.000 C 
ATOM    109  H10 UNL A   1      32.185 -15.380  28.370  1.00  0.00    +0.000 H 
ATOM    110  H11 UNL A   1      33.473 -15.070  27.194  1.00  0.00    +0.000 H 
BRANCH   12   11
ATOM     11  C10 UNL A   1      32.130 -16.601  26.628  1.00  0.00    +0.000 C 
ATOM    108  H9  UNL A   1      31.560 -17.352  27.133  1.00  0.00    +0.000 H 
ATOM    107  H8  UNL A   1      32.839 -17.024  25.946  1.00  0.00    +0.000 H 
BRANCH   11   10
ATOM      7  C6  UNL A   1      29.243 -15.204  24.781  1.00  0.00    +0.000 C 
ATOM      8  C7  UNL A   1      30.243 -14.338  24.359  1.00  0.00    +0.000 C 
ATOM      9  C8  UNL A   1      31.436 -14.677  25.027  1.00  0.00    +0.000 C 
ATOM     10  C9  UNL A   1      31.160 -15.754  25.846  1.00  0.00    +0.000 C 
ATOM    105  H6  UNL A   1      30.130 -13.576  23.673  1.00  0.00    +0.000 H 
ATOM    106  H7  UNL A   1      32.348 -14.207  24.923  1.00  0.00    +0.000 H 
ATOM     88  N7  UNL A   1      29.776 -15.920  25.856  1.00  0.00    +0.000 N 
BRANCH    7    6
ATOM     98  C72 UNL A   1      27.056 -14.020  24.630  1.00  0.00    +0.000 C 
ATOM      3  C2  UNL A   1      25.099 -15.140  23.742  1.00  0.00    +0.000 C 
ATOM      4  C3  UNL A   1      25.870 -16.281  23.517  1.00  0.00    +0.000 C 
ATOM      5  C4  UNL A   1      27.231 -16.290  23.829  1.00  0.00    +0.000 C 
ATOM     99  C73 UNL A   1      25.692 -14.010  24.306  1.00  0.00    +0.000 C 
ATOM    103  H4  UNL A   1      25.431 -17.126  23.118  1.00  0.00    +0.000 H 
ATOM      6  C5  UNL A   1      27.835 -15.158  24.385  1.00  0.00    +0.000 C 
ATOM    104  H5  UNL A   1      27.794 -17.134  23.646  1.00  0.00    +0.000 H 
ATOM    146  H47 UNL A   1      27.490 -13.183  25.049  1.00  0.00    +0.000 H 
ATOM    147  H48 UNL A   1      25.126 -13.166  24.486  1.00  0.00    +0.000 H 
BRANCH    3    2
ATOM      2  O1  UNL A   1      23.773 -15.260  23.430  1.00  0.00    +0.000 O 
BRANCH    2    1
ATOM      1  C1  UNL A   1      23.320 -14.424  22.371  1.00  0.00    +0.000 C 
ATOM    100  H1  UNL A   1      22.339 -14.728  22.071  1.00  0.00    +0.000 H 
ATOM    101  H2  UNL A   1      23.990 -14.507  21.539  1.00  0.00    +0.000 H 
ATOM    102  H3  UNL A   1      23.292 -13.409  22.706  1.00  0.00    +0.000 H 
ENDBRANCH    2    1
ENDBRANCH    3    2
ENDBRANCH    7    6
BRANCH   88   89
ATOM     97  C71 UNL A   1      28.734 -17.805  27.041  1.00  0.00    +0.000 C 
ATOM    139  H40 UNL A   1      28.691 -14.528  27.759  1.00  0.00    +0.000 H 
ATOM    140  H41 UNL A   1      27.168 -15.288  29.482  1.00  0.00    +0.000 H 
ATOM    144  H45 UNL A   1      27.672 -19.248  28.153  1.00  0.00    +0.000 H 
ATOM    145  H46 UNL A   1      29.149 -18.481  26.380  1.00  0.00    +0.000 H 
ATOM     89  C64 UNL A   1      29.024 -16.447  26.937  1.00  0.00    +0.000 C 
ATOM     90  C65 UNL A   1      28.460 -15.531  27.834  1.00  0.00    +0.000 C 
ATOM     91  C66 UNL A   1      27.585 -15.968  28.830  1.00  0.00    +0.000 C 
ATOM     92  C67 UNL A   1      27.274 -17.326  28.942  1.00  0.00    +0.000 C 
ATOM     96  C70 UNL A   1      27.872 -18.240  28.055  1.00  0.00    +0.000 C 
BRANCH   92   93
ATOM     93  C68 UNL A   1      26.313 -17.854  29.958  1.00  0.00    +0.000 C 
ATOM     95  O4  UNL A   1      26.560 -18.923  30.517  1.00  0.00    +0.000 O 
BRANCH   93   94
ATOM    143  H44 UNL A   1      24.302 -17.804  30.635  1.00  0.00    +0.000 H 
ATOM    141  H42 UNL A   1      24.678 -16.619  29.408  1.00  0.00    +0.000 H 
ATOM     94  C69 UNL A   1      25.039 -17.111  30.286  1.00  0.00    +0.000 C 
ATOM    142  H43 UNL A   1      25.237 -16.385  31.047  1.00  0.00    +0.000 H 
ENDBRANCH   93   94
ENDBRANCH   92   93
ENDBRANCH   88   89
ENDBRANCH   11   10
ENDBRANCH   12   11
ENDBRANCH   13   12
ENDBRANCH   15   13
ENDBRANCH   16   15
ENDBRANCH   17   16
ENDBRANCH   18   17
ENDBRANCH   19   18
ENDBRANCH   20   19
ENDBRANCH   21   20
ENDBRANCH   22   21
ENDBRANCH   23   22
ENDBRANCH   25   23
ENDBRANCH   29   28
BRANCH   33   34
ATOM     34  C28 UNL A   1      30.976 -10.710  27.292  1.00  0.00    +0.000 C 
ATOM     35  C29 UNL A   1      32.202 -10.016  27.163  1.00  0.00    +0.000 C 
ATOM     36  F1  UNL A   1      32.890  -9.636  28.251  1.00  0.00    +0.000 F 
ATOM     37  C30 UNL A   1      32.703  -9.620  25.922  1.00  0.00    +0.000 C 
ATOM     38  F2  UNL A   1      33.788  -8.835  25.860  1.00  0.00    +0.000 F 
ATOM     39  C31 UNL A   1      32.044  -9.980  24.763  1.00  0.00    +0.000 C 
ATOM     40  F3  UNL A   1      32.489  -9.552  23.573  1.00  0.00    +0.000 F 
ATOM     41  C32 UNL A   1      30.898 -10.752  24.845  1.00  0.00    +0.000 C 
ATOM     42  F4  UNL A   1      30.253 -11.103  23.722  1.00  0.00    +0.000 F 
ATOM     43  C33 UNL A   1      30.356 -11.092  26.088  1.00  0.00    +0.000 C 
ATOM     44  F5  UNL A   1      29.159 -11.691  26.085  1.00  0.00    +0.000 F 
ENDBRANCH   33   34
BRANCH   50   51
ATOM     51  C39 UNL A   1      25.238 -10.377  28.301  1.00  0.00    +0.000 C 
ATOM     52  C40 UNL A   1      24.231 -10.171  27.358  1.00  0.00    +0.000 C 
ATOM     53  F6  UNL A   1      23.906  -8.925  26.983  1.00  0.00    +0.000 F 
ATOM     54  C41 UNL A   1      23.548 -11.251  26.790  1.00  0.00    +0.000 C 
ATOM     55  F7  UNL A   1      22.587 -11.030  25.885  1.00  0.00    +0.000 F 
ATOM     56  C42 UNL A   1      23.858 -12.558  27.150  1.00  0.00    +0.000 C 
ATOM     57  F8  UNL A   1      23.212 -13.590  26.589  1.00  0.00    +0.000 F 
ATOM     58  C43 UNL A   1      24.845 -12.790  28.082  1.00  0.00    +0.000 C 
ATOM     59  F9  UNL A   1      25.177 -14.044  28.427  1.00  0.00    +0.000 F 
ATOM     60  C44 UNL A   1      25.511 -11.714  28.655  1.00  0.00    +0.000 C 
ATOM     61  F10 UNL A   1      26.461 -11.993  29.550  1.00  0.00    +0.000 F 
ENDBRANCH   50   51
BRANCH   65   66
ATOM     66  C48 UNL A   1      22.827 -10.131  33.864  1.00  0.00    +0.000 C 
ATOM     67  C49 UNL A   1      22.922  -9.250  34.949  1.00  0.00    +0.000 C 
ATOM     68  F11 UNL A   1      24.109  -8.843  35.410  1.00  0.00    +0.000 F 
ATOM     69  C50 UNL A   1      21.786  -8.775  35.630  1.00  0.00    +0.000 C 
ATOM     70  F12 UNL A   1      21.933  -7.903  36.638  1.00  0.00    +0.000 F 
ATOM     71  C51 UNL A   1      20.515  -9.189  35.275  1.00  0.00    +0.000 C 
ATOM     72  F13 UNL A   1      19.435  -8.709  35.907  1.00  0.00    +0.000 F 
ATOM     73  C52 UNL A   1      20.377 -10.114  34.268  1.00  0.00    +0.000 C 
ATOM     74  F14 UNL A   1      19.160 -10.554  33.917  1.00  0.00    +0.000 F 
ATOM     75  C53 UNL A   1      21.506 -10.586  33.594  1.00  0.00    +0.000 C 
ATOM     76  F15 UNL A   1      21.261 -11.507  32.653  1.00  0.00    +0.000 F 
ENDBRANCH   65   66
TORSDOF 23
ENDMDL
MODEL 6
REMARK VINA RESULT:      -7.8     38.416     44.993
ROOT
ATOM    129  H30 UNL A   1      15.329  48.325  -0.215  1.00  0.00    +0.000 H 
ATOM    130  H31 UNL A   1      16.476  55.669  -3.934  1.00  0.00    +0.000 H 
ATOM    131  H32 UNL A   1      15.421  55.966  -1.652  1.00  0.00    +0.000 H 
ATOM    132  H33 UNL A   1      16.547  52.003  -1.980  1.00  0.00    +0.000 H 
ATOM    133  H34 UNL A   1      19.983  52.039  -3.015  1.00  0.00    +0.000 H 
ATOM    134  H35 UNL A   1      19.573  49.655  -2.121  1.00  0.00    +0.000 H 
ATOM    135  H36 UNL A   1      14.596  50.999   3.681  1.00  0.00    +0.000 H 
ATOM    136  H37 UNL A   1      14.042  53.187   2.474  1.00  0.00    +0.000 H 
ATOM     29  C24 UNL A   1      15.545  53.690   0.074  1.00  0.00    +0.000 C 
ATOM     30  C25 UNL A   1      15.584  52.446   0.976  1.00  0.00    +0.000 C 
ATOM     31  N3  UNL A   1      16.312  51.364   0.917  1.00  0.00    +0.000 N 
ATOM     32  C26 UNL A   1      15.891  50.528   1.974  1.00  0.00    +0.000 C 
ATOM     33  C27 UNL A   1      16.172  49.197   2.087  1.00  0.00    +0.000 C 
ATOM     45  C34 UNL A   1      16.982  48.688   1.029  1.00  0.00    +0.000 C 
ATOM     46  C35 UNL A   1      18.287  48.308   0.823  1.00  0.00    +0.000 C 
ATOM     47  C36 UNL A   1      18.401  48.015  -0.566  1.00  0.00    +0.000 C 
ATOM     48  C37 UNL A   1      17.204  48.402  -1.157  1.00  0.00    +0.000 C 
ATOM     49  N4  UNL A   1      16.302  48.446  -0.132  1.00  0.00    +0.000 N 
ATOM     50  C38 UNL A   1      16.759  48.910  -2.420  1.00  0.00    +0.000 C 
ATOM     62  C45 UNL A   1      17.584  49.766  -3.071  1.00  0.00    +0.000 C 
ATOM     63  N5  UNL A   1      17.100  50.672  -3.990  1.00  0.00    +0.000 N 
ATOM     64  C46 UNL A   1      17.934  51.661  -3.914  1.00  0.00    +0.000 C 
ATOM     65  C47 UNL A   1      17.652  53.037  -4.354  1.00  0.00    +0.000 C 
ATOM     77  C54 UNL A   1      16.893  53.577  -3.351  1.00  0.00    +0.000 C 
ATOM     78  C55 UNL A   1      16.405  54.934  -3.213  1.00  0.00    +0.000 C 
ATOM     79  C56 UNL A   1      15.845  55.090  -1.996  1.00  0.00    +0.000 C 
ATOM     80  C57 UNL A   1      15.920  53.836  -1.226  1.00  0.00    +0.000 C 
ATOM     81  N6  UNL A   1      16.463  52.970  -2.146  1.00  0.00    +0.000 N 
ATOM     82  C58 UNL A   1      19.161  51.430  -3.151  1.00  0.00    +0.000 C 
ATOM     83  C59 UNL A   1      18.911  50.211  -2.684  1.00  0.00    +0.000 C 
ATOM     84  C60 UNL A   1      14.982  51.299   2.772  1.00  0.00    +0.000 C 
ATOM     85  C61 UNL A   1      14.706  52.456   2.175  1.00  0.00    +0.000 C 
ATOM    127  H28 UNL A   1      19.034  48.249   1.532  1.00  0.00    +0.000 H 
ATOM    128  H29 UNL A   1      19.215  47.597  -1.043  1.00  0.00    +0.000 H 
ENDROOT
BRANCH   29   28
ATOM    137  H38 UNL A   1      13.050  54.774   0.235  1.00  0.00    +0.000 H 
ATOM    138  H39 UNL A   1      12.345  56.659   1.599  1.00  0.00    +0.000 H 
ATOM     86  C62 UNL A   1      13.742  55.292   0.799  1.00  0.00    +0.000 C 
ATOM     87  C63 UNL A   1      13.336  56.372   1.587  1.00  0.00    +0.000 C 
ATOM     25  C20 UNL A   1      14.276  57.065   2.358  1.00  0.00    +0.000 C 
ATOM     26  C21 UNL A   1      15.630  56.706   2.300  1.00  0.00    +0.000 C 
ATOM     27  C22 UNL A   1      16.039  55.636   1.513  1.00  0.00    +0.000 C 
ATOM     28  C23 UNL A   1      15.092  54.916   0.776  1.00  0.00    +0.000 C 
ATOM    125  H26 UNL A   1      16.326  57.238   2.845  1.00  0.00    +0.000 H 
ATOM    126  H27 UNL A   1      17.036  55.375   1.471  1.00  0.00    +0.000 H 
BRANCH   25   23
ATOM     23  C19 UNL A   1      13.938  58.258   3.170  1.00  0.00    +0.000 C 
ATOM     24  O3  UNL A   1      13.775  59.334   2.621  1.00  0.00    +0.000 O 
BRANCH   23   22
ATOM    124  H25 UNL A   1      13.646  59.051   4.987  1.00  0.00    +0.000 H 
ATOM     22  N2  UNL A   1      13.811  58.193   4.535  1.00  0.00    +0.000 N 
BRANCH   22   21
ATOM    122  H23 UNL A   1      12.958  56.503   5.362  1.00  0.00    +0.000 H 
ATOM    123  H24 UNL A   1      14.686  56.405   5.070  1.00  0.00    +0.000 H 
ATOM     21  C18 UNL A   1      13.886  57.033   5.402  1.00  0.00    +0.000 C 
BRANCH   21   20
ATOM    121  H22 UNL A   1      13.727  58.429   6.961  1.00  0.00    +0.000 H 
ATOM     20  C17 UNL A   1      14.160  57.456   6.849  1.00  0.00    +0.000 C 
ATOM    120  H21 UNL A   1      15.218  57.441   7.005  1.00  0.00    +0.000 H 
BRANCH   20   19
ATOM     19  C16 UNL A   1      13.506  56.571   7.924  1.00  0.00    +0.000 C 
ATOM    118  H19 UNL A   1      14.076  56.672   8.824  1.00  0.00    +0.000 H 
ATOM    119  H20 UNL A   1      12.496  56.914   8.008  1.00  0.00    +0.000 H 
BRANCH   19   18
ATOM     18  C15 UNL A   1      13.412  55.080   7.592  1.00  0.00    +0.000 C 
ATOM    116  H17 UNL A   1      12.378  54.822   7.503  1.00  0.00    +0.000 H 
ATOM    117  H18 UNL A   1      13.960  54.935   6.685  1.00  0.00    +0.000 H 
BRANCH   18   17
ATOM     17  C14 UNL A   1      14.044  54.158   8.631  1.00  0.00    +0.000 C 
ATOM    114  H15 UNL A   1      14.552  54.767   9.348  1.00  0.00    +0.000 H 
ATOM    115  H16 UNL A   1      13.242  53.586   9.048  1.00  0.00    +0.000 H 
BRANCH   17   16
ATOM    113  H14 UNL A   1      15.419  52.552   8.884  1.00  0.00    +0.000 H 
ATOM    112  H13 UNL A   1      15.846  53.668   7.597  1.00  0.00    +0.000 H 
ATOM     16  C13 UNL A   1      15.044  53.145   8.076  1.00  0.00    +0.000 C 
BRANCH   16   15
ATOM    111  H12 UNL A   1      13.488  52.518   6.851  1.00  0.00    +0.000 H 
ATOM     15  N1  UNL A   1      14.404  52.269   7.112  1.00  0.00    +0.000 N 
BRANCH   15   13
ATOM     13  C12 UNL A   1      14.905  51.148   6.521  1.00  0.00    +0.000 C 
ATOM     14  O2  UNL A   1      14.138  50.429   5.879  1.00  0.00    +0.000 O 
BRANCH   13   12
ATOM     12  C11 UNL A   1      16.363  50.768   6.701  1.00  0.00    +0.000 C 
ATOM    109  H10 UNL A   1      16.753  50.449   5.757  1.00  0.00    +0.000 H 
ATOM    110  H11 UNL A   1      16.876  51.631   7.073  1.00  0.00    +0.000 H 
BRANCH   12   11
ATOM     11  C10 UNL A   1      16.559  49.642   7.716  1.00  0.00    +0.000 C 
ATOM    108  H9  UNL A   1      17.519  49.209   7.529  1.00  0.00    +0.000 H 
ATOM    107  H8  UNL A   1      15.767  48.933   7.594  1.00  0.00    +0.000 H 
BRANCH   11   10
ATOM      7  C6  UNL A   1      15.726  50.982  11.064  1.00  0.00    +0.000 C 
ATOM      8  C7  UNL A   1      17.110  51.079  11.102  1.00  0.00    +0.000 C 
ATOM      9  C8  UNL A   1      17.626  50.538   9.908  1.00  0.00    +0.000 C 
ATOM     10  C9  UNL A   1      16.555  50.122   9.144  1.00  0.00    +0.000 C 
ATOM    105  H6  UNL A   1      17.665  51.480  11.874  1.00  0.00    +0.000 H 
ATOM    106  H7  UNL A   1      18.623  50.466   9.651  1.00  0.00    +0.000 H 
ATOM     88  N7  UNL A   1      15.421  50.191   9.953  1.00  0.00    +0.000 N 
BRANCH    7    6
ATOM     98  C72 UNL A   1      14.889  50.783  13.402  1.00  0.00    +0.000 C 
ATOM      3  C2  UNL A   1      12.934  52.017  14.128  1.00  0.00    +0.000 C 
ATOM      4  C3  UNL A   1      12.835  52.582  12.857  1.00  0.00    +0.000 C 
ATOM      5  C4  UNL A   1      13.766  52.267  11.866  1.00  0.00    +0.000 C 
ATOM     99  C73 UNL A   1      13.959  51.109  14.399  1.00  0.00    +0.000 C 
ATOM    103  H4  UNL A   1      12.066  53.239  12.647  1.00  0.00    +0.000 H 
ATOM      6  C5  UNL A   1      14.802  51.366  12.132  1.00  0.00    +0.000 C 
ATOM    104  H5  UNL A   1      13.691  52.701  10.933  1.00  0.00    +0.000 H 
ATOM    146  H47 UNL A   1      15.644  50.109  13.606  1.00  0.00    +0.000 H 
ATOM    147  H48 UNL A   1      14.032  50.678  15.334  1.00  0.00    +0.000 H 
BRANCH    3    2
ATOM      2  O1  UNL A   1      11.947  52.373  15.006  1.00  0.00    +0.000 O 
BRANCH    2    1
ATOM      1  C1  UNL A   1      11.140  53.471  14.598  1.00  0.00    +0.000 C 
ATOM    100  H1  UNL A   1      10.220  53.462  15.145  1.00  0.00    +0.000 H 
ATOM    101  H2  UNL A   1      10.933  53.393  13.550  1.00  0.00    +0.000 H 
ATOM    102  H3  UNL A   1      11.659  54.386  14.790  1.00  0.00    +0.000 H 
ENDBRANCH    2    1
ENDBRANCH    3    2
ENDBRANCH    7    6
BRANCH   88   89
ATOM     97  C71 UNL A   1      13.107  49.791   9.227  1.00  0.00    +0.000 C 
ATOM    139  H40 UNL A   1      15.204  47.791  10.916  1.00  0.00    +0.000 H 
ATOM    140  H41 UNL A   1      13.226  46.396  11.016  1.00  0.00    +0.000 H 
ATOM    144  H45 UNL A   1      11.108  49.275   8.796  1.00  0.00    +0.000 H 
ATOM    145  H46 UNL A   1      13.072  50.707   8.752  1.00  0.00    +0.000 H 
ATOM     89  C64 UNL A   1      14.281  49.355   9.836  1.00  0.00    +0.000 C 
ATOM     90  C65 UNL A   1      14.325  48.113  10.480  1.00  0.00    +0.000 C 
ATOM     91  C66 UNL A   1      13.188  47.307  10.534  1.00  0.00    +0.000 C 
ATOM     92  C67 UNL A   1      11.998  47.733   9.938  1.00  0.00    +0.000 C 
ATOM     96  C70 UNL A   1      11.974  48.969   9.266  1.00  0.00    +0.000 C 
BRANCH   92   93
ATOM     93  C68 UNL A   1      10.734  46.937   9.997  1.00  0.00    +0.000 C 
ATOM     95  O4  UNL A   1      10.541  46.057   9.158  1.00  0.00    +0.000 O 
BRANCH   93   94
ATOM    143  H44 UNL A   1       9.678  46.415  11.762  1.00  0.00    +0.000 H 
ATOM    141  H42 UNL A   1       8.726  47.290  10.586  1.00  0.00    +0.000 H 
ATOM     94  C69 UNL A   1       9.687  47.214  11.050  1.00  0.00    +0.000 C 
ATOM    142  H43 UNL A   1       9.917  48.134  11.547  1.00  0.00    +0.000 H 
ENDBRANCH   93   94
ENDBRANCH   92   93
ENDBRANCH   88   89
ENDBRANCH   11   10
ENDBRANCH   12   11
ENDBRANCH   13   12
ENDBRANCH   15   13
ENDBRANCH   16   15
ENDBRANCH   17   16
ENDBRANCH   18   17
ENDBRANCH   19   18
ENDBRANCH   20   19
ENDBRANCH   21   20
ENDBRANCH   22   21
ENDBRANCH   23   22
ENDBRANCH   25   23
ENDBRANCH   29   28
BRANCH   33   34
ATOM     34  C28 UNL A   1      15.469  48.152   2.930  1.00  0.00    +0.000 C 
ATOM     35  C29 UNL A   1      14.122  47.837   2.635  1.00  0.00    +0.000 C 
ATOM     36  F1  UNL A   1      13.602  48.119   1.429  1.00  0.00    +0.000 F 
ATOM     37  C30 UNL A   1      13.257  47.309   3.593  1.00  0.00    +0.000 C 
ATOM     38  F2  UNL A   1      11.954  47.168   3.312  1.00  0.00    +0.000 F 
ATOM     39  C31 UNL A   1      13.728  46.995   4.852  1.00  0.00    +0.000 C 
ATOM     40  F3  UNL A   1      12.889  46.542   5.794  1.00  0.00    +0.000 F 
ATOM     41  C32 UNL A   1      15.067  47.189   5.144  1.00  0.00    +0.000 C 
ATOM     42  F4  UNL A   1      15.530  46.887   6.366  1.00  0.00    +0.000 F 
ATOM     43  C33 UNL A   1      15.921  47.781   4.209  1.00  0.00    +0.000 C 
ATOM     44  F5  UNL A   1      17.155  48.092   4.625  1.00  0.00    +0.000 F 
ENDBRANCH   33   34
BRANCH   50   51
ATOM     51  C39 UNL A   1      15.315  49.036  -2.836  1.00  0.00    +0.000 C 
ATOM     52  C40 UNL A   1      14.455  49.951  -2.230  1.00  0.00    +0.000 C 
ATOM     53  F6  UNL A   1      14.928  50.820  -1.325  1.00  0.00    +0.000 F 
ATOM     54  C41 UNL A   1      13.094  49.979  -2.553  1.00  0.00    +0.000 C 
ATOM     55  F7  UNL A   1      12.287  50.868  -1.961  1.00  0.00    +0.000 F 
ATOM     56  C42 UNL A   1      12.566  49.097  -3.488  1.00  0.00    +0.000 C 
ATOM     57  F8  UNL A   1      11.264  49.140  -3.807  1.00  0.00    +0.000 F 
ATOM     58  C43 UNL A   1      13.392  48.179  -4.100  1.00  0.00    +0.000 C 
ATOM     59  F9  UNL A   1      12.909  47.334  -5.023  1.00  0.00    +0.000 F 
ATOM     60  C44 UNL A   1      14.740  48.144  -3.765  1.00  0.00    +0.000 C 
ATOM     61  F10 UNL A   1      15.498  47.239  -4.388  1.00  0.00    +0.000 F 
ENDBRANCH   50   51
BRANCH   65   66
ATOM     66  C48 UNL A   1      18.320  53.515  -5.617  1.00  0.00    +0.000 C 
ATOM     67  C49 UNL A   1      19.624  54.017  -5.714  1.00  0.00    +0.000 C 
ATOM     68  F11 UNL A   1      20.361  54.249  -4.623  1.00  0.00    +0.000 F 
ATOM     69  C50 UNL A   1      20.215  54.336  -6.951  1.00  0.00    +0.000 C 
ATOM     70  F12 UNL A   1      21.480  54.779  -6.988  1.00  0.00    +0.000 F 
ATOM     71  C51 UNL A   1      19.513  54.197  -8.135  1.00  0.00    +0.000 C 
ATOM     72  F13 UNL A   1      20.090  54.473  -9.312  1.00  0.00    +0.000 F 
ATOM     73  C52 UNL A   1      18.203  53.783  -8.083  1.00  0.00    +0.000 C 
ATOM     74  F14 UNL A   1      17.489  53.662  -9.211  1.00  0.00    +0.000 F 
ATOM     75  C53 UNL A   1      17.618  53.469  -6.855  1.00  0.00    +0.000 C 
ATOM     76  F15 UNL A   1      16.330  53.105  -6.916  1.00  0.00    +0.000 F 
ENDBRANCH   65   66
TORSDOF 23
ENDMDL
MODEL 7
REMARK VINA RESULT:      -7.8     41.231     47.191
ROOT
ATOM    129  H30 UNL A   1       9.535  30.686   1.170  1.00  0.00    +0.000 H 
ATOM    130  H31 UNL A   1       4.445  24.694  -1.526  1.00  0.00    +0.000 H 
ATOM    131  H32 UNL A   1       6.188  25.255  -3.274  1.00  0.00    +0.000 H 
ATOM    132  H33 UNL A   1       7.251  27.227   0.198  1.00  0.00    +0.000 H 
ATOM    133  H34 UNL A   1       7.221  24.744   2.789  1.00  0.00    +0.000 H 
ATOM    134  H35 UNL A   1       8.573  26.714   3.759  1.00  0.00    +0.000 H 
ATOM    135  H36 UNL A   1      12.222  29.363  -2.558  1.00  0.00    +0.000 H 
ATOM    136  H37 UNL A   1      10.369  28.216  -3.902  1.00  0.00    +0.000 H 
ATOM     29  C24 UNL A   1       8.426  26.774  -2.348  1.00  0.00    +0.000 C 
ATOM     30  C25 UNL A   1       9.603  27.625  -1.844  1.00  0.00    +0.000 C 
ATOM     31  N3  UNL A   1      10.036  27.864  -0.637  1.00  0.00    +0.000 N 
ATOM     32  C26 UNL A   1      11.122  28.757  -0.759  1.00  0.00    +0.000 C 
ATOM     33  C27 UNL A   1      11.659  29.491   0.260  1.00  0.00    +0.000 C 
ATOM     45  C34 UNL A   1      11.038  29.262   1.523  1.00  0.00    +0.000 C 
ATOM     46  C35 UNL A   1      11.304  28.596   2.696  1.00  0.00    +0.000 C 
ATOM     47  C36 UNL A   1      10.129  28.710   3.493  1.00  0.00    +0.000 C 
ATOM     48  C37 UNL A   1       9.154  29.288   2.690  1.00  0.00    +0.000 C 
ATOM     49  N4  UNL A   1       9.845  29.908   1.687  1.00  0.00    +0.000 N 
ATOM     50  C38 UNL A   1       7.730  29.241   2.548  1.00  0.00    +0.000 C 
ATOM     62  C45 UNL A   1       7.123  28.048   2.764  1.00  0.00    +0.000 C 
ATOM     63  N5  UNL A   1       5.900  27.751   2.203  1.00  0.00    +0.000 N 
ATOM     64  C46 UNL A   1       5.933  26.464   2.058  1.00  0.00    +0.000 C 
ATOM     65  C47 UNL A   1       5.081  25.697   1.134  1.00  0.00    +0.000 C 
ATOM     77  C54 UNL A   1       5.657  25.867  -0.096  1.00  0.00    +0.000 C 
ATOM     78  C55 UNL A   1       5.289  25.265  -1.361  1.00  0.00    +0.000 C 
ATOM     79  C56 UNL A   1       6.219  25.564  -2.290  1.00  0.00    +0.000 C 
ATOM     80  C57 UNL A   1       7.287  26.395  -1.706  1.00  0.00    +0.000 C 
ATOM     81  N6  UNL A   1       6.817  26.608  -0.432  1.00  0.00    +0.000 N 
ATOM     82  C58 UNL A   1       7.033  25.756   2.712  1.00  0.00    +0.000 C 
ATOM     83  C59 UNL A   1       7.723  26.792   3.179  1.00  0.00    +0.000 C 
ATOM     84  C60 UNL A   1      11.406  28.871  -2.160  1.00  0.00    +0.000 C 
ATOM     85  C61 UNL A   1      10.469  28.252  -2.876  1.00  0.00    +0.000 C 
ATOM    127  H28 UNL A   1      12.178  28.110   2.947  1.00  0.00    +0.000 H 
ATOM    128  H29 UNL A   1      10.022  28.419   4.478  1.00  0.00    +0.000 H 
ENDROOT
BRANCH   29   28
ATOM    137  H38 UNL A   1       7.482  27.715  -4.725  1.00  0.00    +0.000 H 
ATOM    138  H39 UNL A   1       8.043  26.923  -6.954  1.00  0.00    +0.000 H 
ATOM     86  C62 UNL A   1       8.104  26.900  -4.842  1.00  0.00    +0.000 C 
ATOM     87  C63 UNL A   1       8.431  26.448  -6.123  1.00  0.00    +0.000 C 
ATOM     25  C20 UNL A   1       9.283  25.349  -6.279  1.00  0.00    +0.000 C 
ATOM     26  C21 UNL A   1       9.768  24.674  -5.149  1.00  0.00    +0.000 C 
ATOM     27  C22 UNL A   1       9.440  25.117  -3.874  1.00  0.00    +0.000 C 
ATOM     28  C23 UNL A   1       8.624  26.243  -3.719  1.00  0.00    +0.000 C 
ATOM    125  H26 UNL A   1      10.371  23.846  -5.266  1.00  0.00    +0.000 H 
ATOM    126  H27 UNL A   1       9.797  24.618  -3.045  1.00  0.00    +0.000 H 
BRANCH   25   23
ATOM     23  C19 UNL A   1       9.628  24.770  -7.599  1.00  0.00    +0.000 C 
ATOM     24  O3  UNL A   1       8.737  24.457  -8.371  1.00  0.00    +0.000 O 
BRANCH   23   22
ATOM    124  H25 UNL A   1      11.289  23.666  -7.791  1.00  0.00    +0.000 H 
ATOM     22  N2  UNL A   1      10.929  24.562  -7.981  1.00  0.00    +0.000 N 
BRANCH   22   21
ATOM    122  H23 UNL A   1      12.827  25.052  -8.633  1.00  0.00    +0.000 H 
ATOM    123  H24 UNL A   1      11.512  25.654  -9.629  1.00  0.00    +0.000 H 
ATOM     21  C18 UNL A   1      11.847  25.480  -8.627  1.00  0.00    +0.000 C 
BRANCH   21   20
ATOM    121  H22 UNL A   1      10.868  27.094  -7.711  1.00  0.00    +0.000 H 
ATOM     20  C17 UNL A   1      11.888  26.819  -7.883  1.00  0.00    +0.000 C 
ATOM    120  H21 UNL A   1      12.422  27.520  -8.489  1.00  0.00    +0.000 H 
BRANCH   20   19
ATOM     19  C16 UNL A   1      12.559  26.776  -6.499  1.00  0.00    +0.000 C 
ATOM    118  H19 UNL A   1      12.043  26.049  -5.906  1.00  0.00    +0.000 H 
ATOM    119  H20 UNL A   1      13.586  26.538  -6.681  1.00  0.00    +0.000 H 
BRANCH   19   18
ATOM     18  C15 UNL A   1      12.569  28.094  -5.722  1.00  0.00    +0.000 C 
ATOM    116  H17 UNL A   1      12.141  27.917  -4.759  1.00  0.00    +0.000 H 
ATOM    117  H18 UNL A   1      13.590  28.411  -5.675  1.00  0.00    +0.000 H 
BRANCH   18   17
ATOM     17  C14 UNL A   1      11.794  29.227  -6.387  1.00  0.00    +0.000 C 
ATOM    114  H15 UNL A   1      11.820  29.071  -7.444  1.00  0.00    +0.000 H 
ATOM    115  H16 UNL A   1      10.808  29.195  -5.974  1.00  0.00    +0.000 H 
BRANCH   17   16
ATOM    113  H14 UNL A   1      11.498  31.286  -5.930  1.00  0.00    +0.000 H 
ATOM    112  H13 UNL A   1      12.896  30.968  -6.944  1.00  0.00    +0.000 H 
ATOM     16  C13 UNL A   1      12.327  30.631  -6.103  1.00  0.00    +0.000 C 
BRANCH   16   15
ATOM    111  H12 UNL A   1      13.696  29.808  -4.776  1.00  0.00    +0.000 H 
ATOM     15  N1  UNL A   1      13.174  30.629  -4.925  1.00  0.00    +0.000 N 
BRANCH   15   13
ATOM     13  C12 UNL A   1      13.342  31.615  -3.999  1.00  0.00    +0.000 C 
ATOM     14  O2  UNL A   1      14.435  31.717  -3.442  1.00  0.00    +0.000 O 
BRANCH   13   12
ATOM     12  C11 UNL A   1      12.187  32.524  -3.624  1.00  0.00    +0.000 C 
ATOM    109  H10 UNL A   1      12.546  33.272  -2.948  1.00  0.00    +0.000 H 
ATOM    110  H11 UNL A   1      11.810  32.955  -4.529  1.00  0.00    +0.000 H 
BRANCH   12   11
ATOM     11  C10 UNL A   1      11.035  31.773  -2.956  1.00  0.00    +0.000 C 
ATOM    108  H9  UNL A   1      11.369  31.481  -1.983  1.00  0.00    +0.000 H 
ATOM    107  H8  UNL A   1      10.782  30.930  -3.564  1.00  0.00    +0.000 H 
BRANCH   11   10
ATOM      7  C6  UNL A   1       8.173  34.094  -3.305  1.00  0.00    +0.000 C 
ATOM      8  C7  UNL A   1       8.218  33.969  -1.924  1.00  0.00    +0.000 C 
ATOM      9  C8  UNL A   1       9.228  33.046  -1.592  1.00  0.00    +0.000 C 
ATOM     10  C9  UNL A   1       9.802  32.619  -2.773  1.00  0.00    +0.000 C 
ATOM    105  H6  UNL A   1       7.612  34.469  -1.254  1.00  0.00    +0.000 H 
ATOM    106  H7  UNL A   1       9.492  32.745  -0.641  1.00  0.00    +0.000 H 
ATOM     88  N7  UNL A   1       9.003  33.090  -3.813  1.00  0.00    +0.000 N 
BRANCH    7    6
ATOM     98  C72 UNL A   1       5.972  34.387  -4.434  1.00  0.00    +0.000 C 
ATOM      3  C2  UNL A   1       5.467  36.416  -5.659  1.00  0.00    +0.000 C 
ATOM      4  C3  UNL A   1       6.722  36.920  -5.316  1.00  0.00    +0.000 C 
ATOM      5  C4  UNL A   1       7.593  36.172  -4.520  1.00  0.00    +0.000 C 
ATOM     99  C73 UNL A   1       5.094  35.144  -5.223  1.00  0.00    +0.000 C 
ATOM    103  H4  UNL A   1       7.010  37.852  -5.652  1.00  0.00    +0.000 H 
ATOM      6  C5  UNL A   1       7.223  34.901  -4.071  1.00  0.00    +0.000 C 
ATOM    104  H5  UNL A   1       8.513  36.560  -4.262  1.00  0.00    +0.000 H 
ATOM    146  H47 UNL A   1       5.693  33.445  -4.116  1.00  0.00    +0.000 H 
ATOM    147  H48 UNL A   1       4.172  34.759  -5.483  1.00  0.00    +0.000 H 
BRANCH    3    2
ATOM      2  O1  UNL A   1       4.715  37.222  -6.469  1.00  0.00    +0.000 O 
BRANCH    2    1
ATOM      1  C1  UNL A   1       3.449  37.599  -5.942  1.00  0.00    +0.000 C 
ATOM    100  H1  UNL A   1       3.189  36.947  -5.133  1.00  0.00    +0.000 H 
ATOM    101  H2  UNL A   1       2.706  37.527  -6.710  1.00  0.00    +0.000 H 
ATOM    102  H3  UNL A   1       3.496  38.607  -5.586  1.00  0.00    +0.000 H 
ENDBRANCH    2    1
ENDBRANCH    3    2
ENDBRANCH    7    6
BRANCH   88   89
ATOM     97  C71 UNL A   1       8.257  31.192  -5.184  1.00  0.00    +0.000 C 
ATOM    139  H40 UNL A   1       9.815  34.018  -6.096  1.00  0.00    +0.000 H 
ATOM    140  H41 UNL A   1       9.831  32.897  -8.244  1.00  0.00    +0.000 H 
ATOM    144  H45 UNL A   1       7.798  29.635  -6.531  1.00  0.00    +0.000 H 
ATOM    145  H46 UNL A   1       7.840  30.729  -4.360  1.00  0.00    +0.000 H 
ATOM     89  C64 UNL A   1       8.836  32.453  -5.069  1.00  0.00    +0.000 C 
ATOM     90  C65 UNL A   1       9.401  33.077  -6.187  1.00  0.00    +0.000 C 
ATOM     91  C66 UNL A   1       9.407  32.434  -7.425  1.00  0.00    +0.000 C 
ATOM     92  C67 UNL A   1       8.840  31.164  -7.557  1.00  0.00    +0.000 C 
ATOM     96  C70 UNL A   1       8.247  30.559  -6.433  1.00  0.00    +0.000 C 
BRANCH   92   93
ATOM     93  C68 UNL A   1       8.851  30.402  -8.844  1.00  0.00    +0.000 C 
ATOM     95  O4  UNL A   1       7.794  29.945  -9.278  1.00  0.00    +0.000 O 
BRANCH   93   94
ATOM    143  H44 UNL A   1      10.415  29.138  -9.521  1.00  0.00    +0.000 H 
ATOM    141  H42 UNL A   1      10.911  30.779  -9.184  1.00  0.00    +0.000 H 
ATOM     94  C69 UNL A   1      10.138  30.168  -9.600  1.00  0.00    +0.000 C 
ATOM    142  H43 UNL A   1       9.998  30.423 -10.630  1.00  0.00    +0.000 H 
ENDBRANCH   93   94
ENDBRANCH   92   93
ENDBRANCH   88   89
ENDBRANCH   11   10
ENDBRANCH   12   11
ENDBRANCH   13   12
ENDBRANCH   15   13
ENDBRANCH   16   15
ENDBRANCH   17   16
ENDBRANCH   18   17
ENDBRANCH   19   18
ENDBRANCH   20   19
ENDBRANCH   21   20
ENDBRANCH   22   21
ENDBRANCH   23   22
ENDBRANCH   25   23
ENDBRANCH   29   28
BRANCH   33   34
ATOM     34  C28 UNL A   1      12.526  30.730   0.175  1.00  0.00    +0.000 C 
ATOM     35  C29 UNL A   1      13.907  30.576  -0.090  1.00  0.00    +0.000 C 
ATOM     36  F1  UNL A   1      14.373  29.449  -0.653  1.00  0.00    +0.000 F 
ATOM     37  C30 UNL A   1      14.848  31.532   0.294  1.00  0.00    +0.000 C 
ATOM     38  F2  UNL A   1      16.156  31.274   0.158  1.00  0.00    +0.000 F 
ATOM     39  C31 UNL A   1      14.434  32.714   0.876  1.00  0.00    +0.000 C 
ATOM     40  F3  UNL A   1      15.337  33.609   1.300  1.00  0.00    +0.000 F 
ATOM     41  C32 UNL A   1      13.081  32.947   1.054  1.00  0.00    +0.000 C 
ATOM     42  F4  UNL A   1      12.674  34.093   1.620  1.00  0.00    +0.000 F 
ATOM     43  C33 UNL A   1      12.142  31.963   0.733  1.00  0.00    +0.000 C 
ATOM     44  F5  UNL A   1      10.873  32.195   1.091  1.00  0.00    +0.000 F 
ENDBRANCH   33   34
BRANCH   50   51
ATOM     51  C39 UNL A   1       6.918  30.179   1.691  1.00  0.00    +0.000 C 
ATOM     52  C40 UNL A   1       7.000  30.157   0.299  1.00  0.00    +0.000 C 
ATOM     53  F6  UNL A   1       7.734  29.218  -0.315  1.00  0.00    +0.000 F 
ATOM     54  C41 UNL A   1       6.324  31.105  -0.475  1.00  0.00    +0.000 C 
ATOM     55  F7  UNL A   1       6.415  31.063  -1.810  1.00  0.00    +0.000 F 
ATOM     56  C42 UNL A   1       5.550  32.092   0.124  1.00  0.00    +0.000 C 
ATOM     57  F8  UNL A   1       4.890  32.988  -0.624  1.00  0.00    +0.000 F 
ATOM     58  C43 UNL A   1       5.455  32.141   1.498  1.00  0.00    +0.000 C 
ATOM     59  F9  UNL A   1       4.695  33.071   2.097  1.00  0.00    +0.000 F 
ATOM     60  C44 UNL A   1       6.140  31.207   2.264  1.00  0.00    +0.000 C 
ATOM     61  F10 UNL A   1       6.012  31.295   3.589  1.00  0.00    +0.000 F 
ENDBRANCH   50   51
BRANCH   65   66
ATOM     66  C48 UNL A   1       3.968  24.877   1.732  1.00  0.00    +0.000 C 
ATOM     67  C49 UNL A   1       3.912  23.477   1.771  1.00  0.00    +0.000 C 
ATOM     68  F11 UNL A   1       4.817  22.729   1.133  1.00  0.00    +0.000 F 
ATOM     69  C50 UNL A   1       2.891  22.787   2.450  1.00  0.00    +0.000 C 
ATOM     70  F12 UNL A   1       2.907  21.447   2.487  1.00  0.00    +0.000 F 
ATOM     71  C51 UNL A   1       1.868  23.468   3.086  1.00  0.00    +0.000 C 
ATOM     72  F13 UNL A   1       0.915  22.807   3.756  1.00  0.00    +0.000 F 
ATOM     73  C52 UNL A   1       1.837  24.840   3.007  1.00  0.00    +0.000 C 
ATOM     74  F14 UNL A   1       0.845  25.527   3.591  1.00  0.00    +0.000 F 
ATOM     75  C53 UNL A   1       2.850  25.523   2.331  1.00  0.00    +0.000 C 
ATOM     76  F15 UNL A   1       2.706  26.855   2.289  1.00  0.00    +0.000 F 
ENDBRANCH   65   66
TORSDOF 23
ENDMDL
MODEL 8
REMARK VINA RESULT:      -7.7     23.030     29.541
ROOT
ATOM    129  H30 UNL A   1      47.221  14.657  47.372  1.00  0.00    +0.000 H 
ATOM    130  H31 UNL A   1      43.699   9.346  52.706  1.00  0.00    +0.000 H 
ATOM    131  H32 UNL A   1      42.670  11.650  52.913  1.00  0.00    +0.000 H 
ATOM    132  H33 UNL A   1      45.117  11.688  49.582  1.00  0.00    +0.000 H 
ATOM    133  H34 UNL A   1      44.154   8.841  47.621  1.00  0.00    +0.000 H 
ATOM    134  H35 UNL A   1      45.491  10.347  46.011  1.00  0.00    +0.000 H 
ATOM    135  H36 UNL A   1      43.483  17.430  48.470  1.00  0.00    +0.000 H 
ATOM    136  H37 UNL A   1      42.887  16.305  50.691  1.00  0.00    +0.000 H 
ATOM     29  C24 UNL A   1      43.225  13.450  50.762  1.00  0.00    +0.000 C 
ATOM     30  C25 UNL A   1      43.565  14.418  49.618  1.00  0.00    +0.000 C 
ATOM     31  N3  UNL A   1      44.030  14.203  48.417  1.00  0.00    +0.000 N 
ATOM     32  C26 UNL A   1      44.201  15.465  47.810  1.00  0.00    +0.000 C 
ATOM     33  C27 UNL A   1      44.940  15.707  46.687  1.00  0.00    +0.000 C 
ATOM     45  C34 UNL A   1      45.534  14.538  46.126  1.00  0.00    +0.000 C 
ATOM     46  C35 UNL A   1      45.337  13.694  45.059  1.00  0.00    +0.000 C 
ATOM     47  C36 UNL A   1      46.274  12.633  45.211  1.00  0.00    +0.000 C 
ATOM     48  C37 UNL A   1      46.869  12.800  46.456  1.00  0.00    +0.000 C 
ATOM     49  N4  UNL A   1      46.658  14.112  46.775  1.00  0.00    +0.000 N 
ATOM     50  C38 UNL A   1      47.425  11.975  47.486  1.00  0.00    +0.000 C 
ATOM     62  C45 UNL A   1      46.832  10.777  47.711  1.00  0.00    +0.000 C 
ATOM     63  N5  UNL A   1      46.933  10.142  48.930  1.00  0.00    +0.000 N 
ATOM     64  C46 UNL A   1      45.832   9.464  49.016  1.00  0.00    +0.000 C 
ATOM     65  C47 UNL A   1      45.247   8.962  50.270  1.00  0.00    +0.000 C 
ATOM     77  C54 UNL A   1      44.642  10.051  50.835  1.00  0.00    +0.000 C 
ATOM     78  C55 UNL A   1      43.834  10.119  52.036  1.00  0.00    +0.000 C 
ATOM     79  C56 UNL A   1      43.286  11.346  52.143  1.00  0.00    +0.000 C 
ATOM     80  C57 UNL A   1      43.692  12.196  51.009  1.00  0.00    +0.000 C 
ATOM     81  N6  UNL A   1      44.574  11.377  50.342  1.00  0.00    +0.000 N 
ATOM     82  C58 UNL A   1      45.019   9.373  47.803  1.00  0.00    +0.000 C 
ATOM     83  C59 UNL A   1      45.715  10.176  47.003  1.00  0.00    +0.000 C 
ATOM     84  C60 UNL A   1      43.617  16.431  48.694  1.00  0.00    +0.000 C 
ATOM     85  C61 UNL A   1      43.270  15.857  49.845  1.00  0.00    +0.000 C 
ATOM    127  H28 UNL A   1      44.647  13.807  44.300  1.00  0.00    +0.000 H 
ATOM    128  H29 UNL A   1      46.475  11.885  44.529  1.00  0.00    +0.000 H 
ENDROOT
BRANCH   29   28
ATOM    137  H38 UNL A   1      43.455  15.121  52.901  1.00  0.00    +0.000 H 
ATOM    138  H39 UNL A   1      41.655  16.098  54.212  1.00  0.00    +0.000 H 
ATOM     86  C62 UNL A   1      42.474  14.869  52.701  1.00  0.00    +0.000 C 
ATOM     87  C63 UNL A   1      41.440  15.434  53.450  1.00  0.00    +0.000 C 
ATOM     25  C20 UNL A   1      40.111  15.099  53.169  1.00  0.00    +0.000 C 
ATOM     26  C21 UNL A   1      39.823  14.160  52.168  1.00  0.00    +0.000 C 
ATOM     27  C22 UNL A   1      40.850  13.591  51.425  1.00  0.00    +0.000 C 
ATOM     28  C23 UNL A   1      42.176  13.961  51.677  1.00  0.00    +0.000 C 
ATOM    125  H26 UNL A   1      38.845  13.891  51.982  1.00  0.00    +0.000 H 
ATOM    126  H27 UNL A   1      40.636  12.899  50.690  1.00  0.00    +0.000 H 
BRANCH   25   23
ATOM     23  C19 UNL A   1      38.961  15.605  53.956  1.00  0.00    +0.000 C 
ATOM     24  O3  UNL A   1      38.110  16.287  53.410  1.00  0.00    +0.000 O 
BRANCH   23   22
ATOM    124  H25 UNL A   1      38.972  16.103  55.897  1.00  0.00    +0.000 H 
ATOM     22  N2  UNL A   1      38.827  15.338  55.295  1.00  0.00    +0.000 N 
BRANCH   22   21
ATOM    122  H23 UNL A   1      37.996  14.285  56.867  1.00  0.00    +0.000 H 
ATOM    123  H24 UNL A   1      37.872  13.511  55.295  1.00  0.00    +0.000 H 
ATOM     21  C18 UNL A   1      38.501  14.083  55.946  1.00  0.00    +0.000 C 
BRANCH   21   20
ATOM    121  H22 UNL A   1      40.102  12.895  55.292  1.00  0.00    +0.000 H 
ATOM     20  C17 UNL A   1      39.772  13.277  56.236  1.00  0.00    +0.000 C 
ATOM    120  H21 UNL A   1      39.525  12.512  56.943  1.00  0.00    +0.000 H 
BRANCH   20   19
ATOM     19  C16 UNL A   1      40.946  14.092  56.803  1.00  0.00    +0.000 C 
ATOM    118  H19 UNL A   1      40.888  15.080  56.397  1.00  0.00    +0.000 H 
ATOM    119  H20 UNL A   1      40.840  14.053  57.868  1.00  0.00    +0.000 H 
BRANCH   19   18
ATOM     18  C15 UNL A   1      42.343  13.544  56.506  1.00  0.00    +0.000 C 
ATOM    116  H17 UNL A   1      42.916  14.320  56.045  1.00  0.00    +0.000 H 
ATOM    117  H18 UNL A   1      42.749  13.222  57.442  1.00  0.00    +0.000 H 
BRANCH   18   17
ATOM     17  C14 UNL A   1      42.364  12.327  55.585  1.00  0.00    +0.000 C 
ATOM    114  H15 UNL A   1      41.487  11.748  55.781  1.00  0.00    +0.000 H 
ATOM    115  H16 UNL A   1      42.408  12.711  54.587  1.00  0.00    +0.000 H 
BRANCH   17   16
ATOM    113  H14 UNL A   1      43.456  10.564  55.106  1.00  0.00    +0.000 H 
ATOM    112  H13 UNL A   1      43.656  11.105  56.764  1.00  0.00    +0.000 H 
ATOM     16  C13 UNL A   1      43.579  11.415  55.742  1.00  0.00    +0.000 C 
BRANCH   16   15
ATOM    111  H12 UNL A   1      44.817  13.073  55.568  1.00  0.00    +0.000 H 
ATOM     15  N1  UNL A   1      44.794  12.111  55.363  1.00  0.00    +0.000 N 
BRANCH   15   13
ATOM     13  C12 UNL A   1      45.908  11.606  54.761  1.00  0.00    +0.000 C 
ATOM     14  O2  UNL A   1      46.662  12.383  54.174  1.00  0.00    +0.000 O 
BRANCH   13   12
ATOM     12  C11 UNL A   1      46.177  10.113  54.766  1.00  0.00    +0.000 C 
ATOM    109  H10 UNL A   1      46.555   9.837  55.729  1.00  0.00    +0.000 H 
ATOM    110  H11 UNL A   1      45.254   9.619  54.545  1.00  0.00    +0.000 H 
BRANCH   12   11
ATOM     11  C10 UNL A   1      47.191   9.691  53.704  1.00  0.00    +0.000 C 
ATOM    108  H9  UNL A   1      48.003  10.386  53.746  1.00  0.00    +0.000 H 
ATOM    107  H8  UNL A   1      46.706   9.696  52.749  1.00  0.00    +0.000 H 
BRANCH   11   10
ATOM      7  C6  UNL A   1      49.100   6.521  53.626  1.00  0.00    +0.000 C 
ATOM      8  C7  UNL A   1      48.007   6.128  54.386  1.00  0.00    +0.000 C 
ATOM      9  C8  UNL A   1      47.179   7.249  54.588  1.00  0.00    +0.000 C 
ATOM     10  C9  UNL A   1      47.764   8.318  53.941  1.00  0.00    +0.000 C 
ATOM    105  H6  UNL A   1      47.832   5.175  54.743  1.00  0.00    +0.000 H 
ATOM    106  H7  UNL A   1      46.295   7.267  55.120  1.00  0.00    +0.000 H 
ATOM     88  N7  UNL A   1      49.041   7.915  53.553  1.00  0.00    +0.000 N 
BRANCH    7    6
ATOM     98  C72 UNL A   1      50.957   4.967  54.210  1.00  0.00    +0.000 C 
ATOM      3  C2  UNL A   1      52.497   4.183  52.510  1.00  0.00    +0.000 C 
ATOM      4  C3  UNL A   1      51.791   4.911  51.552  1.00  0.00    +0.000 C 
ATOM      5  C4  UNL A   1      50.662   5.649  51.914  1.00  0.00    +0.000 C 
ATOM     99  C73 UNL A   1      52.084   4.217  53.843  1.00  0.00    +0.000 C 
ATOM    103  H4  UNL A   1      52.105   4.904  50.569  1.00  0.00    +0.000 H 
ATOM      6  C5  UNL A   1      50.236   5.681  53.245  1.00  0.00    +0.000 C 
ATOM    104  H5  UNL A   1      50.140   6.174  51.195  1.00  0.00    +0.000 H 
ATOM    146  H47 UNL A   1      50.657   4.992  55.196  1.00  0.00    +0.000 H 
ATOM    147  H48 UNL A   1      52.608   3.691  54.559  1.00  0.00    +0.000 H 
BRANCH    3    2
ATOM      2  O1  UNL A   1      53.604   3.527  52.047  1.00  0.00    +0.000 O 
BRANCH    2    1
ATOM      1  C1  UNL A   1      53.556   3.150  50.676  1.00  0.00    +0.000 C 
ATOM    100  H1  UNL A   1      52.603   2.717  50.457  1.00  0.00    +0.000 H 
ATOM    101  H2  UNL A   1      54.328   2.435  50.474  1.00  0.00    +0.000 H 
ATOM    102  H3  UNL A   1      53.704   4.015  50.063  1.00  0.00    +0.000 H 
ENDBRANCH    2    1
ENDBRANCH    3    2
ENDBRANCH    7    6
BRANCH   88   89
ATOM     97  C71 UNL A   1      50.581   9.256  52.184  1.00  0.00    +0.000 C 
ATOM    139  H40 UNL A   1      50.608   8.656  55.484  1.00  0.00    +0.000 H 
ATOM    140  H41 UNL A   1      52.695   9.877  55.330  1.00  0.00    +0.000 H 
ATOM    144  H45 UNL A   1      52.078  10.366  51.196  1.00  0.00    +0.000 H 
ATOM    145  H46 UNL A   1      50.017   9.083  51.337  1.00  0.00    +0.000 H 
ATOM     89  C64 UNL A   1      50.164   8.772  53.422  1.00  0.00    +0.000 C 
ATOM     90  C65 UNL A   1      50.931   9.006  54.569  1.00  0.00    +0.000 C 
ATOM     91  C66 UNL A   1      52.131   9.713  54.482  1.00  0.00    +0.000 C 
ATOM     92  C67 UNL A   1      52.571  10.198  53.247  1.00  0.00    +0.000 C 
ATOM     96  C70 UNL A   1      51.776   9.983  52.106  1.00  0.00    +0.000 C 
BRANCH   92   93
ATOM     93  C68 UNL A   1      53.866  10.924  53.077  1.00  0.00    +0.000 C 
ATOM     95  O4  UNL A   1      54.904  10.400  53.482  1.00  0.00    +0.000 O 
BRANCH   93   94
ATOM    143  H44 UNL A   1      52.947  12.749  52.502  1.00  0.00    +0.000 H 
ATOM    141  H42 UNL A   1      54.202  12.201  51.417  1.00  0.00    +0.000 H 
ATOM     94  C69 UNL A   1      53.914  12.294  52.443  1.00  0.00    +0.000 C 
ATOM    142  H43 UNL A   1      54.627  12.902  52.960  1.00  0.00    +0.000 H 
ENDBRANCH   93   94
ENDBRANCH   92   93
ENDBRANCH   88   89
ENDBRANCH   11   10
ENDBRANCH   12   11
ENDBRANCH   13   12
ENDBRANCH   15   13
ENDBRANCH   16   15
ENDBRANCH   17   16
ENDBRANCH   18   17
ENDBRANCH   19   18
ENDBRANCH   20   19
ENDBRANCH   21   20
ENDBRANCH   22   21
ENDBRANCH   23   22
ENDBRANCH   25   23
ENDBRANCH   29   28
BRANCH   33   34
ATOM     34  C28 UNL A   1      45.503  17.024  46.194  1.00  0.00    +0.000 C 
ATOM     35  C29 UNL A   1      46.432  17.713  47.010  1.00  0.00    +0.000 C 
ATOM     36  F1  UNL A   1      47.111  17.065  47.970  1.00  0.00    +0.000 F 
ATOM     37  C30 UNL A   1      46.620  19.092  46.917  1.00  0.00    +0.000 C 
ATOM     38  F2  UNL A   1      47.396  19.722  47.810  1.00  0.00    +0.000 F 
ATOM     39  C31 UNL A   1      45.953  19.818  45.950  1.00  0.00    +0.000 C 
ATOM     40  F3  UNL A   1      46.084  21.150  45.896  1.00  0.00    +0.000 F 
ATOM     41  C32 UNL A   1      45.117  19.161  45.064  1.00  0.00    +0.000 C 
ATOM     42  F4  UNL A   1      44.465  19.861  44.123  1.00  0.00    +0.000 F 
ATOM     43  C33 UNL A   1      44.874  17.791  45.197  1.00  0.00    +0.000 C 
ATOM     44  F5  UNL A   1      43.926  17.263  44.413  1.00  0.00    +0.000 F 
ENDBRANCH   33   34
BRANCH   50   51
ATOM     51  C39 UNL A   1      48.212  12.485  48.667  1.00  0.00    +0.000 C 
ATOM     52  C40 UNL A   1      49.572  12.213  48.813  1.00  0.00    +0.000 C 
ATOM     53  F6  UNL A   1      50.238  11.573  47.842  1.00  0.00    +0.000 F 
ATOM     54  C41 UNL A   1      50.261  12.602  49.967  1.00  0.00    +0.000 C 
ATOM     55  F7  UNL A   1      51.567  12.333  50.085  1.00  0.00    +0.000 F 
ATOM     56  C42 UNL A   1      49.608  13.271  50.995  1.00  0.00    +0.000 C 
ATOM     57  F8  UNL A   1      50.277  13.657  52.091  1.00  0.00    +0.000 F 
ATOM     58  C43 UNL A   1      48.263  13.549  50.879  1.00  0.00    +0.000 C 
ATOM     59  F9  UNL A   1      47.617  14.215  51.849  1.00  0.00    +0.000 F 
ATOM     60  C44 UNL A   1      47.578  13.148  49.739  1.00  0.00    +0.000 C 
ATOM     61  F10 UNL A   1      46.279  13.444  49.674  1.00  0.00    +0.000 F 
ENDBRANCH   50   51
BRANCH   65   66
ATOM     66  C48 UNL A   1      45.332   7.481  50.533  1.00  0.00    +0.000 C 
ATOM     67  C49 UNL A   1      46.507   6.760  50.786  1.00  0.00    +0.000 C 
ATOM     68  F11 UNL A   1      47.709   7.333  50.674  1.00  0.00    +0.000 F 
ATOM     69  C50 UNL A   1      46.490   5.397  51.135  1.00  0.00    +0.000 C 
ATOM     70  F12 UNL A   1      47.642   4.766  51.403  1.00  0.00    +0.000 F 
ATOM     71  C51 UNL A   1      45.300   4.694  51.211  1.00  0.00    +0.000 C 
ATOM     72  F13 UNL A   1      45.287   3.405  51.574  1.00  0.00    +0.000 F 
ATOM     73  C52 UNL A   1      44.129   5.339  50.894  1.00  0.00    +0.000 C 
ATOM     74  F14 UNL A   1      42.963   4.678  50.934  1.00  0.00    +0.000 F 
ATOM     75  C53 UNL A   1      44.148   6.691  50.546  1.00  0.00    +0.000 C 
ATOM     76  F15 UNL A   1      42.955   7.212  50.227  1.00  0.00    +0.000 F 
ENDBRANCH   65   66
TORSDOF 23
ENDMDL
MODEL 9
REMARK VINA RESULT:      -7.7     38.478     44.323
ROOT
ATOM    129  H30 UNL A   1      13.493  48.977   8.703  1.00  0.00    +0.000 H 
ATOM    130  H31 UNL A   1      14.934  52.076   1.128  1.00  0.00    +0.000 H 
ATOM    131  H32 UNL A   1      14.331  53.917   2.759  1.00  0.00    +0.000 H 
ATOM    132  H33 UNL A   1      14.860  50.455   4.952  1.00  0.00    +0.000 H 
ATOM    133  H34 UNL A   1      18.045  49.135   3.956  1.00  0.00    +0.000 H 
ATOM    134  H35 UNL A   1      17.487  47.945   6.174  1.00  0.00    +0.000 H 
ATOM    135  H36 UNL A   1      13.789  53.551  10.064  1.00  0.00    +0.000 H 
ATOM    136  H37 UNL A   1      13.326  54.601   7.775  1.00  0.00    +0.000 H 
ATOM     29  C24 UNL A   1      14.451  53.207   5.525  1.00  0.00    +0.000 C 
ATOM     30  C25 UNL A   1      14.481  52.799   7.007  1.00  0.00    +0.000 C 
ATOM     31  N3  UNL A   1      15.041  51.785   7.609  1.00  0.00    +0.000 N 
ATOM     32  C26 UNL A   1      14.701  51.880   8.975  1.00  0.00    +0.000 C 
ATOM     33  C27 UNL A   1      14.822  50.873   9.890  1.00  0.00    +0.000 C 
ATOM     45  C34 UNL A   1      15.367  49.669   9.353  1.00  0.00    +0.000 C 
ATOM     46  C35 UNL A   1      16.557  48.982   9.367  1.00  0.00    +0.000 C 
ATOM     47  C36 UNL A   1      16.394  47.886   8.472  1.00  0.00    +0.000 C 
ATOM     48  C37 UNL A   1      15.174  48.069   7.832  1.00  0.00    +0.000 C 
ATOM     49  N4  UNL A   1      14.474  48.917   8.642  1.00  0.00    +0.000 N 
ATOM     50  C38 UNL A   1      14.590  47.779   6.557  1.00  0.00    +0.000 C 
ATOM     62  C45 UNL A   1      15.396  47.863   5.470  1.00  0.00    +0.000 C 
ATOM     63  N5  UNL A   1      14.885  48.095   4.211  1.00  0.00    +0.000 N 
ATOM     64  C46 UNL A   1      15.841  48.724   3.603  1.00  0.00    +0.000 C 
ATOM     65  C47 UNL A   1      15.669  49.565   2.407  1.00  0.00    +0.000 C 
ATOM     77  C54 UNL A   1      15.169  50.748   2.880  1.00  0.00    +0.000 C 
ATOM     78  C55 UNL A   1      14.892  51.971   2.154  1.00  0.00    +0.000 C 
ATOM     79  C56 UNL A   1      14.573  52.950   3.025  1.00  0.00    +0.000 C 
ATOM     80  C57 UNL A   1      14.614  52.446   4.409  1.00  0.00    +0.000 C 
ATOM     81  N6  UNL A   1      14.876  51.110   4.218  1.00  0.00    +0.000 N 
ATOM     82  C58 UNL A   1      17.139  48.758   4.276  1.00  0.00    +0.000 C 
ATOM     83  C59 UNL A   1      16.817  48.164   5.421  1.00  0.00    +0.000 C 
ATOM     84  C60 UNL A   1      14.050  53.145   9.152  1.00  0.00    +0.000 C 
ATOM     85  C61 UNL A   1      13.829  53.722   7.972  1.00  0.00    +0.000 C 
ATOM    127  H28 UNL A   1      17.400  49.214   9.914  1.00  0.00    +0.000 H 
ATOM    128  H29 UNL A   1      17.053  47.105   8.326  1.00  0.00    +0.000 H 
ENDROOT
BRANCH   29   28
ATOM    137  H38 UNL A   1      12.251  54.610   4.740  1.00  0.00    +0.000 H 
ATOM    138  H39 UNL A   1      11.997  57.026   4.646  1.00  0.00    +0.000 H 
ATOM     86  C62 UNL A   1      13.051  55.223   4.963  1.00  0.00    +0.000 C 
ATOM     87  C63 UNL A   1      12.904  56.611   4.915  1.00  0.00    +0.000 C 
ATOM     25  C20 UNL A   1      13.987  57.439   5.229  1.00  0.00    +0.000 C 
ATOM     26  C21 UNL A   1      15.231  56.874   5.545  1.00  0.00    +0.000 C 
ATOM     27  C22 UNL A   1      15.383  55.494   5.588  1.00  0.00    +0.000 C 
ATOM     28  C23 UNL A   1      14.287  54.666   5.317  1.00  0.00    +0.000 C 
ATOM    125  H26 UNL A   1      16.036  57.486   5.746  1.00  0.00    +0.000 H 
ATOM    126  H27 UNL A   1      16.299  55.080   5.819  1.00  0.00    +0.000 H 
BRANCH   25   23
ATOM     23  C19 UNL A   1      13.931  58.918   5.141  1.00  0.00    +0.000 C 
ATOM     24  O3  UNL A   1      13.874  59.581   6.163  1.00  0.00    +0.000 O 
BRANCH   23   22
ATOM    124  H25 UNL A   1      14.584  60.304   3.849  1.00  0.00    +0.000 H 
ATOM     22  N2  UNL A   1      13.932  59.572   3.935  1.00  0.00    +0.000 N 
BRANCH   22   21
ATOM    122  H23 UNL A   1      12.293  58.690   3.038  1.00  0.00    +0.000 H 
ATOM    123  H24 UNL A   1      12.733  60.270   2.410  1.00  0.00    +0.000 H 
ATOM     21  C18 UNL A   1      13.104  59.332   2.768  1.00  0.00    +0.000 C 
BRANCH   21   20
ATOM    121  H22 UNL A   1      14.930  58.636   2.004  1.00  0.00    +0.000 H 
ATOM     20  C17 UNL A   1      13.919  58.669   1.653  1.00  0.00    +0.000 C 
ATOM    120  H21 UNL A   1      13.796  59.249   0.762  1.00  0.00    +0.000 H 
BRANCH   20   19
ATOM     19  C16 UNL A   1      13.529  57.215   1.335  1.00  0.00    +0.000 C 
ATOM    118  H19 UNL A   1      12.742  56.933   2.002  1.00  0.00    +0.000 H 
ATOM    119  H20 UNL A   1      13.247  57.209   0.302  1.00  0.00    +0.000 H 
BRANCH   19   18
ATOM     18  C15 UNL A   1      14.648  56.181   1.465  1.00  0.00    +0.000 C 
ATOM    116  H17 UNL A   1      14.299  55.387   2.091  1.00  0.00    +0.000 H 
ATOM    117  H18 UNL A   1      14.882  55.859   0.472  1.00  0.00    +0.000 H 
BRANCH   18   17
ATOM     17  C14 UNL A   1      15.944  56.721   2.062  1.00  0.00    +0.000 C 
ATOM    114  H15 UNL A   1      16.309  57.493   1.418  1.00  0.00    +0.000 H 
ATOM    115  H16 UNL A   1      15.698  57.065   3.045  1.00  0.00    +0.000 H 
BRANCH   17   16
ATOM    113  H14 UNL A   1      16.760  54.990   2.995  1.00  0.00    +0.000 H 
ATOM    112  H13 UNL A   1      17.957  56.188   2.532  1.00  0.00    +0.000 H 
ATOM     16  C13 UNL A   1      17.056  55.688   2.241  1.00  0.00    +0.000 C 
BRANCH   16   15
ATOM    111  H12 UNL A   1      16.584  54.337   0.736  1.00  0.00    +0.000 H 
ATOM     15  N1  UNL A   1      17.291  54.969   1.003  1.00  0.00    +0.000 N 
BRANCH   15   13
ATOM     13  C12 UNL A   1      18.360  55.053   0.162  1.00  0.00    +0.000 C 
ATOM     14  O2  UNL A   1      19.492  55.041   0.648  1.00  0.00    +0.000 O 
BRANCH   13   12
ATOM     12  C11 UNL A   1      18.154  55.217  -1.332  1.00  0.00    +0.000 C 
ATOM    109  H10 UNL A   1      18.391  56.226  -1.601  1.00  0.00    +0.000 H 
ATOM    110  H11 UNL A   1      18.794  54.514  -1.823  1.00  0.00    +0.000 H 
BRANCH   12   11
ATOM     11  C10 UNL A   1      16.720  54.919  -1.767  1.00  0.00    +0.000 C 
ATOM    108  H9  UNL A   1      16.504  55.553  -2.602  1.00  0.00    +0.000 H 
ATOM    107  H8  UNL A   1      16.068  55.106  -0.939  1.00  0.00    +0.000 H 
BRANCH   11   10
ATOM      7  C6  UNL A   1      16.250  51.774  -3.660  1.00  0.00    +0.000 C 
ATOM      8  C7  UNL A   1      15.822  51.367  -2.404  1.00  0.00    +0.000 C 
ATOM      9  C8  UNL A   1      15.996  52.439  -1.507  1.00  0.00    +0.000 C 
ATOM     10  C9  UNL A   1      16.520  53.496  -2.221  1.00  0.00    +0.000 C 
ATOM    105  H6  UNL A   1      15.441  50.437  -2.169  1.00  0.00    +0.000 H 
ATOM    106  H7  UNL A   1      15.772  52.434  -0.499  1.00  0.00    +0.000 H 
ATOM     88  N7  UNL A   1      16.880  53.008  -3.476  1.00  0.00    +0.000 N 
BRANCH    7    6
ATOM     98  C72 UNL A   1      15.330  51.066  -5.865  1.00  0.00    +0.000 C 
ATOM      3  C2  UNL A   1      16.348  49.253  -7.108  1.00  0.00    +0.000 C 
ATOM      4  C3  UNL A   1      17.306  49.119  -6.103  1.00  0.00    +0.000 C 
ATOM      5  C4  UNL A   1      17.291  49.964  -4.992  1.00  0.00    +0.000 C 
ATOM     99  C73 UNL A   1      15.353  50.224  -6.985  1.00  0.00    +0.000 C 
ATOM    103  H4  UNL A   1      18.032  48.389  -6.181  1.00  0.00    +0.000 H 
ATOM      6  C5  UNL A   1      16.304  50.946  -4.866  1.00  0.00    +0.000 C 
ATOM    104  H5  UNL A   1      18.012  49.864  -4.262  1.00  0.00    +0.000 H 
ATOM    146  H47 UNL A   1      14.591  51.781  -5.776  1.00  0.00    +0.000 H 
ATOM    147  H48 UNL A   1      14.633  50.321  -7.719  1.00  0.00    +0.000 H 
BRANCH    3    2
ATOM      2  O1  UNL A   1      16.441  48.348  -8.130  1.00  0.00    +0.000 O 
BRANCH    2    1
ATOM      1  C1  UNL A   1      15.202  47.818  -8.586  1.00  0.00    +0.000 C 
ATOM    100  H1  UNL A   1      15.116  46.796  -8.278  1.00  0.00    +0.000 H 
ATOM    101  H2  UNL A   1      15.162  47.872  -9.655  1.00  0.00    +0.000 H 
ATOM    102  H3  UNL A   1      14.397  48.385  -8.170  1.00  0.00    +0.000 H 
ENDBRANCH    2    1
ENDBRANCH    3    2
ENDBRANCH    7    6
BRANCH   88   89
ATOM     97  C71 UNL A   1      17.699  54.306  -5.396  1.00  0.00    +0.000 C 
ATOM    139  H40 UNL A   1      19.401  52.488  -3.149  1.00  0.00    +0.000 H 
ATOM    140  H41 UNL A   1      21.246  53.062  -4.610  1.00  0.00    +0.000 H 
ATOM    144  H45 UNL A   1      18.609  55.264  -7.039  1.00  0.00    +0.000 H 
ATOM    145  H46 UNL A   1      16.744  54.635  -5.612  1.00  0.00    +0.000 H 
ATOM     89  C64 UNL A   1      17.937  53.511  -4.278  1.00  0.00    +0.000 C 
ATOM     90  C65 UNL A   1      19.231  53.065  -3.987  1.00  0.00    +0.000 C 
ATOM     91  C66 UNL A   1      20.296  53.399  -4.826  1.00  0.00    +0.000 C 
ATOM     92  C67 UNL A   1      20.075  54.187  -5.959  1.00  0.00    +0.000 C 
ATOM     96  C70 UNL A   1      18.774  54.655  -6.223  1.00  0.00    +0.000 C 
BRANCH   92   93
ATOM     93  C68 UNL A   1      21.162  54.544  -6.921  1.00  0.00    +0.000 C 
ATOM     95  O4  UNL A   1      22.324  54.242  -6.649  1.00  0.00    +0.000 O 
BRANCH   93   94
ATOM    143  H44 UNL A   1      19.826  55.155  -8.452  1.00  0.00    +0.000 H 
ATOM    141  H42 UNL A   1      21.470  54.904  -8.989  1.00  0.00    +0.000 H 
ATOM     94  C69 UNL A   1      20.857  55.287  -8.200  1.00  0.00    +0.000 C 
ATOM    142  H43 UNL A   1      21.061  56.329  -8.064  1.00  0.00    +0.000 H 
ENDBRANCH   93   94
ENDBRANCH   92   93
ENDBRANCH   88   89
ENDBRANCH   11   10
ENDBRANCH   12   11
ENDBRANCH   13   12
ENDBRANCH   15   13
ENDBRANCH   16   15
ENDBRANCH   17   16
ENDBRANCH   18   17
ENDBRANCH   19   18
ENDBRANCH   20   19
ENDBRANCH   21   20
ENDBRANCH   22   21
ENDBRANCH   23   22
ENDBRANCH   25   23
ENDBRANCH   29   28
BRANCH   33   34
ATOM     34  C28 UNL A   1      14.143  50.736  11.238  1.00  0.00    +0.000 C 
ATOM     35  C29 UNL A   1      12.741  50.910  11.311  1.00  0.00    +0.000 C 
ATOM     36  F1  UNL A   1      11.978  50.787  10.213  1.00  0.00    +0.000 F 
ATOM     37  C30 UNL A   1      12.103  51.297  12.490  1.00  0.00    +0.000 C 
ATOM     38  F2  UNL A   1      10.796  51.596  12.475  1.00  0.00    +0.000 F 
ATOM     39  C31 UNL A   1      12.829  51.440  13.655  1.00  0.00    +0.000 C 
ATOM     40  F3  UNL A   1      12.231  51.870  14.775  1.00  0.00    +0.000 F 
ATOM     41  C32 UNL A   1      14.188  51.174  13.646  1.00  0.00    +0.000 C 
ATOM     42  F4  UNL A   1      14.899  51.312  14.775  1.00  0.00    +0.000 F 
ATOM     43  C33 UNL A   1      14.841  50.852  12.453  1.00  0.00    +0.000 C 
ATOM     44  F5  UNL A   1      16.178  50.778  12.494  1.00  0.00    +0.000 F 
ENDBRANCH   33   34
BRANCH   50   51
ATOM     51  C39 UNL A   1      13.125  47.922   6.228  1.00  0.00    +0.000 C 
ATOM     52  C40 UNL A   1      12.332  46.815   5.925  1.00  0.00    +0.000 C 
ATOM     53  F6  UNL A   1      12.838  45.578   6.023  1.00  0.00    +0.000 F 
ATOM     54  C41 UNL A   1      11.004  46.976   5.518  1.00  0.00    +0.000 C 
ATOM     55  F7  UNL A   1      10.259  45.899   5.235  1.00  0.00    +0.000 F 
ATOM     56  C42 UNL A   1      10.440  48.241   5.407  1.00  0.00    +0.000 C 
ATOM     57  F8  UNL A   1       9.161  48.388   5.034  1.00  0.00    +0.000 F 
ATOM     58  C43 UNL A   1      11.202  49.353   5.696  1.00  0.00    +0.000 C 
ATOM     59  F9  UNL A   1      10.673  50.583   5.620  1.00  0.00    +0.000 F 
ATOM     60  C44 UNL A   1      12.526  49.191   6.086  1.00  0.00    +0.000 C 
ATOM     61  F10 UNL A   1      13.220  50.297   6.358  1.00  0.00    +0.000 F 
ENDBRANCH   50   51
BRANCH   65   66
ATOM     66  C48 UNL A   1      16.169  49.019   1.095  1.00  0.00    +0.000 C 
ATOM     67  C49 UNL A   1      15.466  48.152   0.248  1.00  0.00    +0.000 C 
ATOM     68  F11 UNL A   1      14.302  47.611   0.621  1.00  0.00    +0.000 F 
ATOM     69  C50 UNL A   1      15.957  47.777  -1.016  1.00  0.00    +0.000 C 
ATOM     70  F12 UNL A   1      15.225  46.973  -1.801  1.00  0.00    +0.000 F 
ATOM     71  C51 UNL A   1      17.184  48.228  -1.469  1.00  0.00    +0.000 C 
ATOM     72  F13 UNL A   1      17.633  47.894  -2.686  1.00  0.00    +0.000 F 
ATOM     73  C52 UNL A   1      17.945  49.018  -0.640  1.00  0.00    +0.000 C 
ATOM     74  F14 UNL A   1      19.150  49.450  -1.040  1.00  0.00    +0.000 F 
ATOM     75  C53 UNL A   1      17.458  49.387   0.615  1.00  0.00    +0.000 C 
ATOM     76  F15 UNL A   1      18.293  50.131   1.352  1.00  0.00    +0.000 F 
ENDBRANCH   65   66
TORSDOF 23
ENDMDL
MODEL 10
REMARK VINA RESULT:      -7.7     20.311     27.093
ROOT
ATOM    129  H30 UNL A   1      28.074  41.275  48.634  1.00  0.00    +0.000 H 
ATOM    130  H31 UNL A   1      27.550  34.303  44.141  1.00  0.00    +0.000 H 
ATOM    131  H32 UNL A   1      25.251  35.112  44.827  1.00  0.00    +0.000 H 
ATOM    132  H33 UNL A   1      27.947  38.082  45.822  1.00  0.00    +0.000 H 
ATOM    133  H34 UNL A   1      29.876  38.692  42.858  1.00  0.00    +0.000 H 
ATOM    134  H35 UNL A   1      30.281  40.748  44.361  1.00  0.00    +0.000 H 
ATOM    135  H36 UNL A   1      23.373  41.546  47.807  1.00  0.00    +0.000 H 
ATOM    136  H37 UNL A   1      22.999  39.075  47.250  1.00  0.00    +0.000 H 
ATOM     29  C24 UNL A   1      25.120  37.803  45.783  1.00  0.00    +0.000 C 
ATOM     30  C25 UNL A   1      25.073  39.238  46.331  1.00  0.00    +0.000 C 
ATOM     31  N3  UNL A   1      25.923  40.224  46.237  1.00  0.00    +0.000 N 
ATOM     32  C26 UNL A   1      25.388  41.300  46.978  1.00  0.00    +0.000 C 
ATOM     33  C27 UNL A   1      26.087  42.400  47.388  1.00  0.00    +0.000 C 
ATOM     45  C34 UNL A   1      27.452  42.402  46.975  1.00  0.00    +0.000 C 
ATOM     46  C35 UNL A   1      28.243  43.022  46.037  1.00  0.00    +0.000 C 
ATOM     47  C36 UNL A   1      29.526  42.412  46.133  1.00  0.00    +0.000 C 
ATOM     48  C37 UNL A   1      29.394  41.336  47.002  1.00  0.00    +0.000 C 
ATOM     49  N4  UNL A   1      28.267  41.603  47.726  1.00  0.00    +0.000 N 
ATOM     50  C38 UNL A   1      29.976  40.040  47.184  1.00  0.00    +0.000 C 
ATOM     62  C45 UNL A   1      30.315  39.349  46.068  1.00  0.00    +0.000 C 
ATOM     63  N5  UNL A   1      30.405  37.974  46.072  1.00  0.00    +0.000 N 
ATOM     64  C46 UNL A   1      30.105  37.642  44.857  1.00  0.00    +0.000 C 
ATOM     65  C47 UNL A   1      29.640  36.309  44.437  1.00  0.00    +0.000 C 
ATOM     77  C54 UNL A   1      28.319  36.271  44.793  1.00  0.00    +0.000 C 
ATOM     78  C55 UNL A   1      27.341  35.232  44.540  1.00  0.00    +0.000 C 
ATOM     79  C56 UNL A   1      26.118  35.666  44.905  1.00  0.00    +0.000 C 
ATOM     80  C57 UNL A   1      26.191  37.040  45.432  1.00  0.00    +0.000 C 
ATOM     81  N6  UNL A   1      27.545  37.276  45.422  1.00  0.00    +0.000 N 
ATOM     82  C58 UNL A   1      30.030  38.726  43.878  1.00  0.00    +0.000 C 
ATOM     83  C59 UNL A   1      30.215  39.770  44.681  1.00  0.00    +0.000 C 
ATOM     84  C60 UNL A   1      24.059  40.920  47.356  1.00  0.00    +0.000 C 
ATOM     85  C61 UNL A   1      23.834  39.645  47.045  1.00  0.00    +0.000 C 
ATOM    127  H28 UNL A   1      27.962  43.776  45.392  1.00  0.00    +0.000 H 
ATOM    128  H29 UNL A   1      30.388  42.711  45.650  1.00  0.00    +0.000 H 
ENDROOT
BRANCH   29   28
ATOM    137  H38 UNL A   1      23.116  38.662  44.148  1.00  0.00    +0.000 H 
ATOM    138  H39 UNL A   1      21.034  37.515  43.637  1.00  0.00    +0.000 H 
ATOM     86  C62 UNL A   1      22.890  37.769  44.613  1.00  0.00    +0.000 C 
ATOM     87  C63 UNL A   1      21.696  37.107  44.316  1.00  0.00    +0.000 C 
ATOM     25  C20 UNL A   1      21.399  35.891  44.940  1.00  0.00    +0.000 C 
ATOM     26  C21 UNL A   1      22.276  35.364  45.900  1.00  0.00    +0.000 C 
ATOM     27  C22 UNL A   1      23.461  36.023  46.202  1.00  0.00    +0.000 C 
ATOM     28  C23 UNL A   1      23.779  37.216  45.545  1.00  0.00    +0.000 C 
ATOM    125  H26 UNL A   1      22.040  34.483  46.382  1.00  0.00    +0.000 H 
ATOM    126  H27 UNL A   1      24.104  35.633  46.910  1.00  0.00    +0.000 H 
BRANCH   25   23
ATOM     23  C19 UNL A   1      20.127  35.159  44.728  1.00  0.00    +0.000 C 
ATOM     24  O3  UNL A   1      19.116  35.529  45.299  1.00  0.00    +0.000 O 
BRANCH   23   22
ATOM    124  H25 UNL A   1      20.782  33.970  43.254  1.00  0.00    +0.000 H 
ATOM     22  N2  UNL A   1      20.053  34.061  43.908  1.00  0.00    +0.000 N 
BRANCH   22   21
ATOM    122  H23 UNL A   1      18.563  32.963  44.825  1.00  0.00    +0.000 H 
ATOM    123  H24 UNL A   1      18.338  33.245  43.107  1.00  0.00    +0.000 H 
ATOM     21  C18 UNL A   1      19.048  33.015  43.874  1.00  0.00    +0.000 C 
BRANCH   21   20
ATOM    121  H22 UNL A   1      20.561  31.870  42.978  1.00  0.00    +0.000 H 
ATOM     20  C17 UNL A   1      19.689  31.659  43.562  1.00  0.00    +0.000 C 
ATOM    120  H21 UNL A   1      18.966  31.061  43.047  1.00  0.00    +0.000 H 
BRANCH   20   19
ATOM     19  C16 UNL A   1      20.175  30.868  44.788  1.00  0.00    +0.000 C 
ATOM    118  H19 UNL A   1      19.547  31.125  45.615  1.00  0.00    +0.000 H 
ATOM    119  H20 UNL A   1      20.126  29.837  44.508  1.00  0.00    +0.000 H 
BRANCH   19   18
ATOM     18  C15 UNL A   1      21.626  31.115  45.207  1.00  0.00    +0.000 C 
ATOM    116  H17 UNL A   1      22.157  30.190  45.134  1.00  0.00    +0.000 H 
ATOM    117  H18 UNL A   1      22.008  31.870  44.552  1.00  0.00    +0.000 H 
BRANCH   18   17
ATOM     17  C14 UNL A   1      21.794  31.649  46.627  1.00  0.00    +0.000 C 
ATOM    114  H15 UNL A   1      21.960  30.816  47.277  1.00  0.00    +0.000 H 
ATOM    115  H16 UNL A   1      22.615  32.333  46.591  1.00  0.00    +0.000 H 
BRANCH   17   16
ATOM    113  H14 UNL A   1      19.833  31.756  47.451  1.00  0.00    +0.000 H 
ATOM    112  H13 UNL A   1      20.248  33.104  46.405  1.00  0.00    +0.000 H 
ATOM     16  C13 UNL A   1      20.604  32.441  47.167  1.00  0.00    +0.000 C 
BRANCH   16   15
ATOM    111  H12 UNL A   1      21.793  32.902  48.806  1.00  0.00    +0.000 H 
ATOM     15  N1  UNL A   1      20.991  33.218  48.330  1.00  0.00    +0.000 N 
BRANCH   15   13
ATOM     13  C12 UNL A   1      20.390  34.326  48.848  1.00  0.00    +0.000 C 
ATOM     14  O2  UNL A   1      19.326  34.703  48.355  1.00  0.00    +0.000 O 
BRANCH   13   12
ATOM     12  C11 UNL A   1      21.052  35.108  49.967  1.00  0.00    +0.000 C 
ATOM    109  H10 UNL A   1      20.295  35.641  50.505  1.00  0.00    +0.000 H 
ATOM    110  H11 UNL A   1      21.562  34.405  50.592  1.00  0.00    +0.000 H 
BRANCH   12   11
ATOM     11  C10 UNL A   1      22.087  36.109  49.457  1.00  0.00    +0.000 C 
ATOM    108  H9  UNL A   1      22.477  35.723  48.539  1.00  0.00    +0.000 H 
ATOM    107  H8  UNL A   1      22.848  36.220  50.203  1.00  0.00    +0.000 H 
BRANCH   11   10
ATOM      7  C6  UNL A   1      20.667  39.525  49.582  1.00  0.00    +0.000 C 
ATOM      8  C7  UNL A   1      20.311  39.161  48.291  1.00  0.00    +0.000 C 
ATOM      9  C8  UNL A   1      20.838  37.882  48.028  1.00  0.00    +0.000 C 
ATOM     10  C9  UNL A   1      21.506  37.467  49.162  1.00  0.00    +0.000 C 
ATOM    105  H6  UNL A   1      19.753  39.731  47.637  1.00  0.00    +0.000 H 
ATOM    106  H7  UNL A   1      20.742  37.351  47.148  1.00  0.00    +0.000 H 
ATOM     88  N7  UNL A   1      21.586  38.566  50.017  1.00  0.00    +0.000 N 
BRANCH    7    6
ATOM     98  C72 UNL A   1      21.369  41.787  50.354  1.00  0.00    +0.000 C 
ATOM      3  C2  UNL A   1      19.845  43.199  51.602  1.00  0.00    +0.000 C 
ATOM      4  C3  UNL A   1      18.865  42.211  51.498  1.00  0.00    +0.000 C 
ATOM      5  C4  UNL A   1      19.126  41.024  50.811  1.00  0.00    +0.000 C 
ATOM     99  C73 UNL A   1      21.102  42.983  51.035  1.00  0.00    +0.000 C 
ATOM    103  H4  UNL A   1      17.941  42.358  51.933  1.00  0.00    +0.000 H 
ATOM      6  C5  UNL A   1      20.379  40.804  50.232  1.00  0.00    +0.000 C 
ATOM    104  H5  UNL A   1      18.390  40.306  50.730  1.00  0.00    +0.000 H 
ATOM    146  H47 UNL A   1      22.300  41.630  49.938  1.00  0.00    +0.000 H 
ATOM    147  H48 UNL A   1      21.836  43.704  51.117  1.00  0.00    +0.000 H 
BRANCH    3    2
ATOM      2  O1  UNL A   1      19.488  44.303  52.326  1.00  0.00    +0.000 O 
BRANCH    2    1
ATOM      1  C1  UNL A   1      19.523  44.139  53.739  1.00  0.00    +0.000 C 
ATOM    100  H1  UNL A   1      19.087  44.996  54.209  1.00  0.00    +0.000 H 
ATOM    101  H2  UNL A   1      20.538  44.033  54.062  1.00  0.00    +0.000 H 
ATOM    102  H3  UNL A   1      18.970  43.264  54.010  1.00  0.00    +0.000 H 
ENDBRANCH    2    1
ENDBRANCH    3    2
ENDBRANCH    7    6
BRANCH   88   89
ATOM     97  C71 UNL A   1      23.908  39.169  50.552  1.00  0.00    +0.000 C 
ATOM    139  H40 UNL A   1      21.404  38.253  52.586  1.00  0.00    +0.000 H 
ATOM    140  H41 UNL A   1      23.178  38.354  54.233  1.00  0.00    +0.000 H 
ATOM    144  H45 UNL A   1      25.871  39.545  51.227  1.00  0.00    +0.000 H 
ATOM    145  H46 UNL A   1      24.107  39.381  49.561  1.00  0.00    +0.000 H 
ATOM     89  C64 UNL A   1      22.627  38.800  50.952  1.00  0.00    +0.000 C 
ATOM     90  C65 UNL A   1      22.360  38.512  52.296  1.00  0.00    +0.000 C 
ATOM     91  C66 UNL A   1      23.380  38.573  53.246  1.00  0.00    +0.000 C 
ATOM     92  C67 UNL A   1      24.675  38.931  52.861  1.00  0.00    +0.000 C 
ATOM     96  C70 UNL A   1      24.924  39.249  51.513  1.00  0.00    +0.000 C 
BRANCH   92   93
ATOM     93  C68 UNL A   1      25.821  38.974  53.820  1.00  0.00    +0.000 C 
ATOM     95  O4  UNL A   1      26.773  38.213  53.649  1.00  0.00    +0.000 O 
BRANCH   93   94
ATOM    143  H44 UNL A   1      24.930  39.755  55.580  1.00  0.00    +0.000 H 
ATOM    141  H42 UNL A   1      25.832  40.927  54.649  1.00  0.00    +0.000 H 
ATOM     94  C69 UNL A   1      25.814  39.917  55.000  1.00  0.00    +0.000 C 
ATOM    142  H43 UNL A   1      26.678  39.735  55.606  1.00  0.00    +0.000 H 
ENDBRANCH   93   94
ENDBRANCH   92   93
ENDBRANCH   88   89
ENDBRANCH   11   10
ENDBRANCH   12   11
ENDBRANCH   13   12
ENDBRANCH   15   13
ENDBRANCH   16   15
ENDBRANCH   17   16
ENDBRANCH   18   17
ENDBRANCH   19   18
ENDBRANCH   20   19
ENDBRANCH   21   20
ENDBRANCH   22   21
ENDBRANCH   23   22
ENDBRANCH   25   23
ENDBRANCH   29   28
BRANCH   33   34
ATOM     34  C28 UNL A   1      25.736  43.385  48.484  1.00  0.00    +0.000 C 
ATOM     35  C29 UNL A   1      25.636  42.912  49.814  1.00  0.00    +0.000 C 
ATOM     36  F1  UNL A   1      26.219  41.758  50.175  1.00  0.00    +0.000 F 
ATOM     37  C30 UNL A   1      24.865  43.564  50.777  1.00  0.00    +0.000 C 
ATOM     38  F2  UNL A   1      24.678  42.999  51.978  1.00  0.00    +0.000 F 
ATOM     39  C31 UNL A   1      24.239  44.756  50.470  1.00  0.00    +0.000 C 
ATOM     40  F3  UNL A   1      23.450  45.355  51.372  1.00  0.00    +0.000 F 
ATOM     41  C32 UNL A   1      24.402  45.305  49.210  1.00  0.00    +0.000 C 
ATOM     42  F4  UNL A   1      23.796  46.462  48.907  1.00  0.00    +0.000 F 
ATOM     43  C33 UNL A   1      25.118  44.621  48.223  1.00  0.00    +0.000 C 
ATOM     44  F5  UNL A   1      25.087  45.132  46.986  1.00  0.00    +0.000 F 
ENDBRANCH   33   34
BRANCH   50   51
ATOM     51  C39 UNL A   1      29.762  39.161  48.390  1.00  0.00    +0.000 C 
ATOM     52  C40 UNL A   1      28.525  38.575  48.659  1.00  0.00    +0.000 C 
ATOM     53  F6  UNL A   1      27.518  38.698  47.783  1.00  0.00    +0.000 F 
ATOM     54  C41 UNL A   1      28.315  37.853  49.838  1.00  0.00    +0.000 C 
ATOM     55  F7  UNL A   1      27.121  37.296  50.075  1.00  0.00    +0.000 F 
ATOM     56  C42 UNL A   1      29.335  37.699  50.771  1.00  0.00    +0.000 C 
ATOM     57  F8  UNL A   1      29.133  36.991  51.891  1.00  0.00    +0.000 F 
ATOM     58  C43 UNL A   1      30.566  38.271  50.533  1.00  0.00    +0.000 C 
ATOM     59  F9  UNL A   1      31.572  38.116  51.407  1.00  0.00    +0.000 F 
ATOM     60  C44 UNL A   1      30.766  39.001  49.368  1.00  0.00    +0.000 C 
ATOM     61  F10 UNL A   1      31.976  39.532  49.183  1.00  0.00    +0.000 F 
ENDBRANCH   50   51
BRANCH   65   66
ATOM     66  C48 UNL A   1      30.605  35.447  43.667  1.00  0.00    +0.000 C 
ATOM     67  C49 UNL A   1      31.007  35.651  42.340  1.00  0.00    +0.000 C 
ATOM     68  F11 UNL A   1      30.435  36.590  41.579  1.00  0.00    +0.000 F 
ATOM     69  C50 UNL A   1      32.001  34.865  41.728  1.00  0.00    +0.000 C 
ATOM     70  F12 UNL A   1      32.373  35.129  40.467  1.00  0.00    +0.000 F 
ATOM     71  C51 UNL A   1      32.607  33.823  42.407  1.00  0.00    +0.000 C 
ATOM     72  F13 UNL A   1      33.574  33.098  41.831  1.00  0.00    +0.000 F 
ATOM     73  C52 UNL A   1      32.189  33.534  43.685  1.00  0.00    +0.000 C 
ATOM     74  F14 UNL A   1      32.740  32.515  44.360  1.00  0.00    +0.000 F 
ATOM     75  C53 UNL A   1      31.201  34.314  44.290  1.00  0.00    +0.000 C 
ATOM     76  F15 UNL A   1      30.848  33.927  45.523  1.00  0.00    +0.000 F 
ENDBRANCH   65   66
TORSDOF 23
ENDMDL
