MODEL 1
REMARK VINA RESULT:     -12.0      0.000      0.000
ROOT
ATOM     28  C19 UNL A   1      53.452  19.646  11.752  1.00  0.00    +0.000 C 
ATOM     29  C20 UNL A   1      53.197  20.336  13.061  1.00  0.00    +0.000 C 
ATOM     30  N5  UNL A   1      54.018  20.550  14.060  1.00  0.00    +0.000 N 
ATOM     31  C21 UNL A   1      53.290  21.270  14.997  1.00  0.00    +0.000 C 
ATOM     32  C22 UNL A   1      53.672  21.678  16.232  1.00  0.00    +0.000 C 
ATOM     44  C29 UNL A   1      54.967  21.422  16.805  1.00  0.00    +0.000 C 
ATOM     45  C30 UNL A   1      55.429  21.734  18.071  1.00  0.00    +0.000 C 
ATOM     46  C31 UNL A   1      56.767  21.330  18.161  1.00  0.00    +0.000 C 
ATOM     47  C32 UNL A   1      57.124  20.726  16.967  1.00  0.00    +0.000 C 
ATOM     48  N6  UNL A   1      56.012  20.792  16.143  1.00  0.00    +0.000 N 
ATOM     49  C33 UNL A   1      58.385  20.129  16.603  1.00  0.00    +0.000 C 
ATOM     61  C40 UNL A   1      58.653  19.540  15.412  1.00  0.00    +0.000 C 
ATOM     62  N7  UNL A   1      57.823  19.384  14.311  1.00  0.00    +0.000 N 
ATOM     63  C41 UNL A   1      58.539  18.766  13.404  1.00  0.00    +0.000 C 
ATOM     64  C42 UNL A   1      58.142  18.323  12.023  1.00  0.00    +0.000 C 
ATOM     76  C49 UNL A   1      56.872  18.501  11.614  1.00  0.00    +0.000 C 
ATOM     77  C50 UNL A   1      56.339  18.104  10.314  1.00  0.00    +0.000 C 
ATOM     78  C51 UNL A   1      55.055  18.484  10.232  1.00  0.00    +0.000 C 
ATOM     79  C52 UNL A   1      54.666  19.126  11.489  1.00  0.00    +0.000 C 
ATOM     80  N8  UNL A   1      55.803  19.074  12.256  1.00  0.00    +0.000 N 
ATOM     81  C53 UNL A   1      59.918  18.476  13.822  1.00  0.00    +0.000 C 
ATOM     82  C54 UNL A   1      59.924  18.938  15.065  1.00  0.00    +0.000 C 
ATOM     83  C55 UNL A   1      51.981  21.505  14.427  1.00  0.00    +0.000 C 
ATOM     84  C56 UNL A   1      51.850  20.888  13.262  1.00  0.00    +0.000 C 
ATOM    117  H22 UNL A   1      54.883  22.186  18.821  1.00  0.00    +0.000 H 
ATOM    118  H23 UNL A   1      57.383  21.461  18.980  1.00  0.00    +0.000 H 
ATOM    119  H24 UNL A   1      55.968  20.444  15.223  1.00  0.00    +0.000 H 
ATOM    120  H25 UNL A   1      56.865  17.611   9.576  1.00  0.00    +0.000 H 
ATOM    121  H26 UNL A   1      54.439  18.346   9.416  1.00  0.00    +0.000 H 
ATOM    122  H27 UNL A   1      55.847  19.416  13.179  1.00  0.00    +0.000 H 
ATOM    123  H28 UNL A   1      60.681  18.029  13.289  1.00  0.00    +0.000 H 
ATOM    124  H29 UNL A   1      60.732  18.877  15.704  1.00  0.00    +0.000 H 
ATOM    125  H30 UNL A   1      51.247  22.080  14.870  1.00  0.00    +0.000 H 
ATOM    126  H31 UNL A   1      51.018  20.814  12.655  1.00  0.00    +0.000 H 
ENDROOT
BRANCH   28   27
ATOM    115  H20 UNL A   1      50.051  17.564   9.415  1.00  0.00    +0.000 H 
ATOM    116  H21 UNL A   1      51.698  17.657  11.196  1.00  0.00    +0.000 H 
ATOM     85  C57 UNL A   1      52.190  20.705   9.877  1.00  0.00    +0.000 C 
ATOM     86  C58 UNL A   1      51.188  20.680   8.909  1.00  0.00    +0.000 C 
ATOM     24  C15 UNL A   1      50.448  19.513   8.701  1.00  0.00    +0.000 C 
ATOM     25  C16 UNL A   1      50.625  18.411   9.543  1.00  0.00    +0.000 C 
ATOM     26  C17 UNL A   1      51.583  18.460  10.559  1.00  0.00    +0.000 C 
ATOM     27  C18 UNL A   1      52.392  19.597  10.714  1.00  0.00    +0.000 C 
ATOM    127  H32 UNL A   1      52.785  21.541   9.978  1.00  0.00    +0.000 H 
ATOM    128  H33 UNL A   1      50.995  21.522   8.345  1.00  0.00    +0.000 H 
BRANCH   24   22
ATOM     22  C14 UNL A   1      49.451  19.420   7.612  1.00  0.00    +0.000 C 
ATOM     23  O4  UNL A   1      49.124  18.319   7.179  1.00  0.00    +0.000 O 
BRANCH   22   21
ATOM    114  H19 UNL A   1      48.611  21.233   7.729  1.00  0.00    +0.000 H 
ATOM     21  N4  UNL A   1      48.911  20.560   7.076  1.00  0.00    +0.000 N 
BRANCH   21   20
ATOM    113  H18 UNL A   1      49.088  20.113   5.085  1.00  0.00    +0.000 H 
ATOM     20  C13 UNL A   1      48.714  20.917   5.682  1.00  0.00    +0.000 C 
ATOM    112  H17 UNL A   1      49.238  21.830   5.485  1.00  0.00    +0.000 H 
BRANCH   20   19
ATOM     19  C12 UNL A   1      47.243  21.111   5.333  1.00  0.00    +0.000 C 
ATOM    110  H15 UNL A   1      46.716  21.344   6.235  1.00  0.00    +0.000 H 
ATOM    111  H16 UNL A   1      47.212  21.895   4.605  1.00  0.00    +0.000 H 
BRANCH   19   18
ATOM     18  C11 UNL A   1      46.563  19.902   4.685  1.00  0.00    +0.000 C 
ATOM    108  H13 UNL A   1      47.209  19.534   3.915  1.00  0.00    +0.000 H 
ATOM    109  H14 UNL A   1      46.392  19.203   5.476  1.00  0.00    +0.000 H 
BRANCH   18   17
ATOM     17  C10 UNL A   1      45.190  20.171   4.060  1.00  0.00    +0.000 C 
ATOM    106  H11 UNL A   1      44.469  19.577   4.581  1.00  0.00    +0.000 H 
ATOM    107  H12 UNL A   1      45.028  21.224   4.151  1.00  0.00    +0.000 H 
BRANCH   17   16
ATOM    105  H10 UNL A   1      45.184  18.793   2.473  1.00  0.00    +0.000 H 
ATOM    104  H9  UNL A   1      45.831  20.402   2.048  1.00  0.00    +0.000 H 
ATOM     16  C9  UNL A   1      45.072  19.853   2.566  1.00  0.00    +0.000 C 
BRANCH   16   15
ATOM    103  H8  UNL A   1      43.872  20.420   0.908  1.00  0.00    +0.000 H 
ATOM    102  H7  UNL A   1      43.313  21.051   2.449  1.00  0.00    +0.000 H 
ATOM     15  C8  UNL A   1      43.724  20.202   1.945  1.00  0.00    +0.000 C 
BRANCH   15   14
ATOM    101  H6  UNL A   1      42.950  18.401   1.374  1.00  0.00    +0.000 H 
ATOM     14  N3  UNL A   1      42.801  19.093   2.057  1.00  0.00    +0.000 N 
BRANCH   14   12
ATOM     12  C7  UNL A   1      41.766  18.792   2.903  1.00  0.00    +0.000 C 
ATOM     13  O3  UNL A   1      42.034  18.136   3.907  1.00  0.00    +0.000 O 
BRANCH   12   11
ATOM    129  H34 UNL A   1      39.292  19.054   4.506  1.00  0.00    +0.000 H 
ATOM    130  H35 UNL A   1      39.053  17.665   3.575  1.00  0.00    +0.000 H 
ATOM    131  H36 UNL A   1      37.291  18.796   2.337  1.00  0.00    +0.000 H 
ATOM      9  N1  UNL A   1      38.695  20.269   1.808  1.00  0.00    +0.000 N 
ATOM     10  N2  UNL A   1      40.000  19.926   1.640  1.00  0.00    +0.000 N 
ATOM     11  C6  UNL A   1      40.313  19.156   2.639  1.00  0.00    +0.000 C 
ATOM     87  C59 UNL A   1      39.171  18.725   3.495  1.00  0.00    +0.000 C 
ATOM     88  C60 UNL A   1      38.005  19.443   2.804  1.00  0.00    +0.000 C 
BRANCH    9    8
ATOM     99  H4  UNL A   1      35.006  20.989  -0.774  1.00  0.00    +0.000 H 
ATOM    100  H5  UNL A   1      36.121  19.971   1.128  1.00  0.00    +0.000 H 
ATOM      5  C2  UNL A   1      36.723  22.013  -1.463  1.00  0.00    +0.000 C 
ATOM      6  C3  UNL A   1      36.005  21.177  -0.600  1.00  0.00    +0.000 C 
ATOM      7  C4  UNL A   1      36.650  20.597   0.500  1.00  0.00    +0.000 C 
ATOM    136  H41 UNL A   1      38.601  22.892  -1.865  1.00  0.00    +0.000 H 
ATOM    135  H40 UNL A   1      39.694  21.890   0.045  1.00  0.00    +0.000 H 
ATOM      8  C5  UNL A   1      38.001  20.857   0.756  1.00  0.00    +0.000 C 
ATOM     94  C65 UNL A   1      38.695  21.696  -0.127  1.00  0.00    +0.000 C 
ATOM     95  C66 UNL A   1      38.070  22.275  -1.229  1.00  0.00    +0.000 C 
BRANCH    5    2
ATOM      2  S1  UNL A   1      35.882  22.679  -2.877  1.00  0.00    +0.000 S 
ATOM      3  O1  UNL A   1      36.174  21.789  -3.984  1.00  0.00    +0.000 O 
ATOM      4  O2  UNL A   1      36.219  24.089  -2.937  1.00  0.00    +0.000 O 
BRANCH    2    1
ATOM      1  C1  UNL A   1      34.145  22.571  -2.543  1.00  0.00    +0.000 C 
ATOM     98  H3  UNL A   1      33.599  22.674  -3.459  1.00  0.00    +0.000 H 
ATOM     97  H2  UNL A   1      33.925  21.622  -2.102  1.00  0.00    +0.000 H 
ATOM     96  H1  UNL A   1      33.862  23.353  -1.870  1.00  0.00    +0.000 H 
ENDBRANCH    2    1
ENDBRANCH    5    2
ENDBRANCH    9    8
BRANCH   88   89
ATOM    132  H37 UNL A   1      37.425  22.300   3.620  1.00  0.00    +0.000 H 
ATOM    133  H38 UNL A   1      35.664  22.421   5.600  1.00  0.00    +0.000 H 
ATOM    134  H39 UNL A   1      34.939  19.992   6.099  1.00  0.00    +0.000 H 
ATOM     89  C61 UNL A   1      37.114  20.165   3.773  1.00  0.00    +0.000 C 
ATOM     90  C62 UNL A   1      36.950  21.504   4.074  1.00  0.00    +0.000 C 
ATOM     91  C63 UNL A   1      36.005  21.569   5.126  1.00  0.00    +0.000 C 
ATOM     92  C64 UNL A   1      35.632  20.273   5.387  1.00  0.00    +0.000 C 
ATOM     93  O5  UNL A   1      36.301  19.416   4.579  1.00  0.00    +0.000 O 
ENDBRANCH   88   89
ENDBRANCH   12   11
ENDBRANCH   14   12
ENDBRANCH   15   14
ENDBRANCH   16   15
ENDBRANCH   17   16
ENDBRANCH   18   17
ENDBRANCH   19   18
ENDBRANCH   20   19
ENDBRANCH   21   20
ENDBRANCH   22   21
ENDBRANCH   24   22
ENDBRANCH   28   27
BRANCH   32   33
ATOM     33  C23 UNL A   1      52.668  22.446  17.042  1.00  0.00    +0.000 C 
ATOM     34  C24 UNL A   1      51.860  21.817  18.003  1.00  0.00    +0.000 C 
ATOM     35  F1  UNL A   1      51.959  20.494  18.205  1.00  0.00    +0.000 F 
ATOM     36  C25 UNL A   1      50.911  22.535  18.725  1.00  0.00    +0.000 C 
ATOM     37  F2  UNL A   1      50.110  21.900  19.592  1.00  0.00    +0.000 F 
ATOM     38  C26 UNL A   1      50.777  23.901  18.530  1.00  0.00    +0.000 C 
ATOM     39  F3  UNL A   1      49.862  24.591  19.224  1.00  0.00    +0.000 F 
ATOM     40  C27 UNL A   1      51.586  24.550  17.609  1.00  0.00    +0.000 C 
ATOM     41  F4  UNL A   1      51.465  25.873  17.429  1.00  0.00    +0.000 F 
ATOM     42  C28 UNL A   1      52.515  23.829  16.864  1.00  0.00    +0.000 C 
ATOM     43  F5  UNL A   1      53.265  24.483  15.963  1.00  0.00    +0.000 F 
ENDBRANCH   32   33
BRANCH   49   50
ATOM     50  C34 UNL A   1      59.483  20.140  17.625  1.00  0.00    +0.000 C 
ATOM     51  C35 UNL A   1      60.248  21.290  17.868  1.00  0.00    +0.000 C 
ATOM     52  F6  UNL A   1      60.045  22.401  17.143  1.00  0.00    +0.000 F 
ATOM     53  C36 UNL A   1      61.253  21.290  18.833  1.00  0.00    +0.000 C 
ATOM     54  F7  UNL A   1      62.000  22.387  19.018  1.00  0.00    +0.000 F 
ATOM     55  C37 UNL A   1      61.489  20.154  19.592  1.00  0.00    +0.000 C 
ATOM     56  F8  UNL A   1      62.451  20.159  20.525  1.00  0.00    +0.000 F 
ATOM     57  C38 UNL A   1      60.732  19.011  19.380  1.00  0.00    +0.000 C 
ATOM     58  F9  UNL A   1      60.953  17.916  20.121  1.00  0.00    +0.000 F 
ATOM     59  C39 UNL A   1      59.747  18.999  18.398  1.00  0.00    +0.000 C 
ATOM     60  F10 UNL A   1      59.039  17.875  18.207  1.00  0.00    +0.000 F 
ENDBRANCH   49   50
BRANCH   64   65
ATOM     65  C43 UNL A   1      59.117  17.670  11.114  1.00  0.00    +0.000 C 
ATOM     66  C44 UNL A   1      59.902  18.428  10.235  1.00  0.00    +0.000 C 
ATOM     67  F11 UNL A   1      59.742  19.758  10.173  1.00  0.00    +0.000 F 
ATOM     68  C45 UNL A   1      60.835  17.820   9.398  1.00  0.00    +0.000 C 
ATOM     69  F12 UNL A   1      61.553  18.565   8.546  1.00  0.00    +0.000 F 
ATOM     70  C46 UNL A   1      61.017  16.446   9.441  1.00  0.00    +0.000 C 
ATOM     71  F13 UNL A   1      61.925  15.862   8.646  1.00  0.00    +0.000 F 
ATOM     72  C47 UNL A   1      60.258  15.677  10.310  1.00  0.00    +0.000 C 
ATOM     73  F14 UNL A   1      60.442  14.350  10.366  1.00  0.00    +0.000 F 
ATOM     74  C48 UNL A   1      59.307  16.281  11.129  1.00  0.00    +0.000 C 
ATOM     75  F15 UNL A   1      58.585  15.513  11.959  1.00  0.00    +0.000 F 
ENDBRANCH   64   65
TORSDOF 19
ENDMDL
MODEL 2
REMARK VINA RESULT:     -11.8     40.109     46.350
ROOT
ATOM     28  C19 UNL A   1      25.614  36.495  45.645  1.00  0.00    +0.000 C 
ATOM     29  C20 UNL A   1      25.549  37.693  46.549  1.00  0.00    +0.000 C 
ATOM     30  N5  UNL A   1      26.490  38.549  46.860  1.00  0.00    +0.000 N 
ATOM     31  C21 UNL A   1      25.888  39.485  47.688  1.00  0.00    +0.000 C 
ATOM     32  C22 UNL A   1      26.455  40.538  48.328  1.00  0.00    +0.000 C 
ATOM     44  C29 UNL A   1      27.851  40.878  48.246  1.00  0.00    +0.000 C 
ATOM     45  C30 UNL A   1      28.537  41.882  48.906  1.00  0.00    +0.000 C 
ATOM     46  C31 UNL A   1      29.868  41.859  48.475  1.00  0.00    +0.000 C 
ATOM     47  C32 UNL A   1      30.023  40.813  47.581  1.00  0.00    +0.000 C 
ATOM     48  N6  UNL A   1      28.777  40.221  47.446  1.00  0.00    +0.000 N 
ATOM     49  C33 UNL A   1      31.218  40.381  46.901  1.00  0.00    +0.000 C 
ATOM     61  C40 UNL A   1      31.292  39.331  46.046  1.00  0.00    +0.000 C 
ATOM     62  N7  UNL A   1      30.285  38.468  45.638  1.00  0.00    +0.000 N 
ATOM     63  C41 UNL A   1      30.846  37.630  44.801  1.00  0.00    +0.000 C 
ATOM     64  C42 UNL A   1      30.231  36.471  44.066  1.00  0.00    +0.000 C 
ATOM     76  C49 UNL A   1      28.943  36.154  44.295  1.00  0.00    +0.000 C 
ATOM     77  C50 UNL A   1      28.221  35.048  43.674  1.00  0.00    +0.000 C 
ATOM     78  C51 UNL A   1      26.947  35.065  44.094  1.00  0.00    +0.000 C 
ATOM     79  C52 UNL A   1      26.770  36.170  45.039  1.00  0.00    +0.000 C 
ATOM     80  N8  UNL A   1      28.013  36.748  45.111  1.00  0.00    +0.000 N 
ATOM     81  C53 UNL A   1      32.275  37.879  44.568  1.00  0.00    +0.000 C 
ATOM     82  C54 UNL A   1      32.504  38.905  45.376  1.00  0.00    +0.000 C 
ATOM     83  C55 UNL A   1      24.490  39.126  47.788  1.00  0.00    +0.000 C 
ATOM     84  C56 UNL A   1      24.244  37.986  47.159  1.00  0.00    +0.000 C 
ATOM    117  H22 UNL A   1      28.135  42.535  49.597  1.00  0.00    +0.000 H 
ATOM    118  H23 UNL A   1      30.610  42.513  48.775  1.00  0.00    +0.000 H 
ATOM    119  H24 UNL A   1      28.577  39.449  46.870  1.00  0.00    +0.000 H 
ATOM    120  H25 UNL A   1      28.625  34.362  43.016  1.00  0.00    +0.000 H 
ATOM    121  H26 UNL A   1      26.208  34.407  43.799  1.00  0.00    +0.000 H 
ATOM    122  H27 UNL A   1      28.216  37.517  45.693  1.00  0.00    +0.000 H 
ATOM    123  H28 UNL A   1      32.929  37.386  43.940  1.00  0.00    +0.000 H 
ATOM    124  H29 UNL A   1      33.428  39.345  45.511  1.00  0.00    +0.000 H 
ATOM    125  H30 UNL A   1      23.778  39.686  48.282  1.00  0.00    +0.000 H 
ATOM    126  H31 UNL A   1      23.366  37.446  47.111  1.00  0.00    +0.000 H 
ENDROOT
BRANCH   28   27
ATOM    115  H20 UNL A   1      22.793  32.880  46.232  1.00  0.00    +0.000 H 
ATOM    116  H21 UNL A   1      24.746  34.204  46.803  1.00  0.00    +0.000 H 
ATOM     85  C57 UNL A   1      23.488  36.158  44.380  1.00  0.00    +0.000 C 
ATOM     86  C58 UNL A   1      22.325  35.439  44.111  1.00  0.00    +0.000 C 
ATOM     24  C15 UNL A   1      22.102  34.213  44.744  1.00  0.00    +0.000 C 
ATOM     25  C16 UNL A   1      22.979  33.765  45.736  1.00  0.00    +0.000 C 
ATOM     26  C17 UNL A   1      24.111  34.520  46.054  1.00  0.00    +0.000 C 
ATOM     27  C18 UNL A   1      24.388  35.708  45.358  1.00  0.00    +0.000 C 
ATOM    127  H32 UNL A   1      23.687  37.025  43.858  1.00  0.00    +0.000 H 
ATOM    128  H33 UNL A   1      21.631  35.811  43.444  1.00  0.00    +0.000 H 
BRANCH   24   22
ATOM     22  C14 UNL A   1      20.931  33.376  44.403  1.00  0.00    +0.000 C 
ATOM     23  O4  UNL A   1      19.915  33.902  43.959  1.00  0.00    +0.000 O 
BRANCH   22   21
ATOM    114  H19 UNL A   1      21.744  31.559  44.196  1.00  0.00    +0.000 H 
ATOM     21  N4  UNL A   1      20.974  32.020  44.601  1.00  0.00    +0.000 N 
BRANCH   21   20
ATOM    113  H18 UNL A   1      19.371  31.798  45.856  1.00  0.00    +0.000 H 
ATOM     20  C13 UNL A   1      20.047  31.166  45.321  1.00  0.00    +0.000 C 
ATOM    112  H17 UNL A   1      20.604  30.536  45.984  1.00  0.00    +0.000 H 
BRANCH   20   19
ATOM     19  C12 UNL A   1      19.221  30.287  44.388  1.00  0.00    +0.000 C 
ATOM    110  H15 UNL A   1      19.855  29.967  43.586  1.00  0.00    +0.000 H 
ATOM    111  H16 UNL A   1      18.853  29.480  44.988  1.00  0.00    +0.000 H 
BRANCH   19   18
ATOM     18  C11 UNL A   1      17.989  30.961  43.780  1.00  0.00    +0.000 C 
ATOM    108  H13 UNL A   1      18.033  32.003  44.019  1.00  0.00    +0.000 H 
ATOM    109  H14 UNL A   1      18.031  30.756  42.731  1.00  0.00    +0.000 H 
BRANCH   18   17
ATOM     17  C10 UNL A   1      16.636  30.423  44.258  1.00  0.00    +0.000 C 
ATOM    106  H11 UNL A   1      16.563  30.606  45.310  1.00  0.00    +0.000 H 
ATOM    107  H12 UNL A   1      15.896  30.934  43.680  1.00  0.00    +0.000 H 
BRANCH   17   16
ATOM    105  H10 UNL A   1      16.289  28.483  44.988  1.00  0.00    +0.000 H 
ATOM    104  H9  UNL A   1      17.234  28.542  43.474  1.00  0.00    +0.000 H 
ATOM     16  C9  UNL A   1      16.400  28.929  44.021  1.00  0.00    +0.000 C 
BRANCH   16   15
ATOM    103  H8  UNL A   1      14.823  29.470  42.703  1.00  0.00    +0.000 H 
ATOM    102  H7  UNL A   1      14.364  28.301  43.933  1.00  0.00    +0.000 H 
ATOM     15  C8  UNL A   1      15.128  28.600  43.245  1.00  0.00    +0.000 C 
BRANCH   15   14
ATOM    101  H6  UNL A   1      15.547  26.666  42.742  1.00  0.00    +0.000 H 
ATOM     14  N3  UNL A   1      15.362  27.527  42.303  1.00  0.00    +0.000 N 
BRANCH   14   12
ATOM     12  C7  UNL A   1      15.383  27.443  40.935  1.00  0.00    +0.000 C 
ATOM     13  O3  UNL A   1      15.716  28.451  40.316  1.00  0.00    +0.000 O 
BRANCH   12   11
ATOM    129  H34 UNL A   1      15.957  26.294  38.268  1.00  0.00    +0.000 H 
ATOM    130  H35 UNL A   1      14.364  26.845  38.162  1.00  0.00    +0.000 H 
ATOM    131  H36 UNL A   1      13.581  24.549  37.981  1.00  0.00    +0.000 H 
ATOM      9  N1  UNL A   1      14.507  24.154  39.827  1.00  0.00    +0.000 N 
ATOM     10  N2  UNL A   1      14.582  25.135  40.766  1.00  0.00    +0.000 N 
ATOM     11  C6  UNL A   1      14.956  26.214  40.147  1.00  0.00    +0.000 C 
ATOM     87  C59 UNL A   1      14.976  26.122  38.659  1.00  0.00    +0.000 C 
ATOM     88  C60 UNL A   1      14.534  24.668  38.454  1.00  0.00    +0.000 C 
BRANCH    9    8
ATOM     99  H4  UNL A   1      13.493  20.626  42.533  1.00  0.00    +0.000 H 
ATOM    100  H5  UNL A   1      14.595  22.748  42.105  1.00  0.00    +0.000 H 
ATOM      5  C2  UNL A   1      12.614  20.490  40.614  1.00  0.00    +0.000 C 
ATOM      6  C3  UNL A   1      13.387  21.088  41.616  1.00  0.00    +0.000 C 
ATOM      7  C4  UNL A   1      14.015  22.315  41.369  1.00  0.00    +0.000 C 
ATOM    136  H41 UNL A   1      11.893  20.671  38.637  1.00  0.00    +0.000 H 
ATOM    135  H40 UNL A   1      12.977  22.794  38.232  1.00  0.00    +0.000 H 
ATOM      8  C5  UNL A   1      13.867  22.959  40.135  1.00  0.00    +0.000 C 
ATOM     94  C65 UNL A   1      13.089  22.335  39.149  1.00  0.00    +0.000 C 
ATOM     95  C66 UNL A   1      12.463  21.111  39.377  1.00  0.00    +0.000 C 
BRANCH    5    2
ATOM      2  S1  UNL A   1      11.884  18.907  40.949  1.00  0.00    +0.000 S 
ATOM      3  O1  UNL A   1      12.852  18.168  41.736  1.00  0.00    +0.000 O 
ATOM      4  O2  UNL A   1      11.396  18.395  39.683  1.00  0.00    +0.000 O 
BRANCH    2    1
ATOM      1  C1  UNL A   1      10.468  19.199  41.975  1.00  0.00    +0.000 C 
ATOM     98  H3  UNL A   1      10.768  19.207  43.003  1.00  0.00    +0.000 H 
ATOM     97  H2  UNL A   1      10.033  20.142  41.722  1.00  0.00    +0.000 H 
ATOM     96  H1  UNL A   1       9.750  18.421  41.820  1.00  0.00    +0.000 H 
ENDBRANCH    2    1
ENDBRANCH    5    2
ENDBRANCH    9    8
BRANCH   88   89
ATOM    132  H37 UNL A   1      16.525  22.388  38.501  1.00  0.00    +0.000 H 
ATOM    133  H38 UNL A   1      17.599  21.968  36.113  1.00  0.00    +0.000 H 
ATOM    134  H39 UNL A   1      16.467  23.625  34.487  1.00  0.00    +0.000 H 
ATOM     89  C61 UNL A   1      15.405  23.931  37.479  1.00  0.00    +0.000 C 
ATOM     90  C62 UNL A   1      16.308  22.895  37.629  1.00  0.00    +0.000 C 
ATOM     91  C63 UNL A   1      16.877  22.665  36.353  1.00  0.00    +0.000 C 
ATOM     92  C64 UNL A   1      16.272  23.555  35.499  1.00  0.00    +0.000 C 
ATOM     93  O5  UNL A   1      15.386  24.330  36.171  1.00  0.00    +0.000 O 
ENDBRANCH   88   89
ENDBRANCH   12   11
ENDBRANCH   14   12
ENDBRANCH   15   14
ENDBRANCH   16   15
ENDBRANCH   17   16
ENDBRANCH   18   17
ENDBRANCH   19   18
ENDBRANCH   20   19
ENDBRANCH   21   20
ENDBRANCH   22   21
ENDBRANCH   24   22
ENDBRANCH   28   27
BRANCH   32   33
ATOM     33  C23 UNL A   1      25.557  41.393  49.173  1.00  0.00    +0.000 C 
ATOM     34  C24 UNL A   1      25.337  41.114  50.531  1.00  0.00    +0.000 C 
ATOM     35  F1  UNL A   1      25.921  40.051  51.104  1.00  0.00    +0.000 F 
ATOM     36  C25 UNL A   1      24.477  41.898  51.295  1.00  0.00    +0.000 C 
ATOM     37  F2  UNL A   1      24.236  41.574  52.574  1.00  0.00    +0.000 F 
ATOM     38  C26 UNL A   1      23.850  42.997  50.729  1.00  0.00    +0.000 C 
ATOM     39  F3  UNL A   1      23.019  43.748  51.464  1.00  0.00    +0.000 F 
ATOM     40  C27 UNL A   1      24.075  43.310  49.397  1.00  0.00    +0.000 C 
ATOM     41  F4  UNL A   1      23.479  44.380  48.852  1.00  0.00    +0.000 F 
ATOM     42  C28 UNL A   1      24.912  42.511  48.622  1.00  0.00    +0.000 C 
ATOM     43  F5  UNL A   1      25.090  42.828  47.330  1.00  0.00    +0.000 F 
ENDBRANCH   32   33
BRANCH   49   50
ATOM     50  C34 UNL A   1      32.487  41.136  47.170  1.00  0.00    +0.000 C 
ATOM     51  C35 UNL A   1      33.470  40.634  48.035  1.00  0.00    +0.000 C 
ATOM     52  F6  UNL A   1      33.267  39.480  48.689  1.00  0.00    +0.000 F 
ATOM     53  C36 UNL A   1      34.651  41.336  48.261  1.00  0.00    +0.000 C 
ATOM     54  F7  UNL A   1      35.557  40.858  49.124  1.00  0.00    +0.000 F 
ATOM     55  C37 UNL A   1      34.884  42.534  47.603  1.00  0.00    +0.000 C 
ATOM     56  F8  UNL A   1      36.025  43.205  47.815  1.00  0.00    +0.000 F 
ATOM     57  C38 UNL A   1      33.933  43.041  46.730  1.00  0.00    +0.000 C 
ATOM     58  F9  UNL A   1      34.163  44.194  46.086  1.00  0.00    +0.000 F 
ATOM     59  C39 UNL A   1      32.740  42.356  46.524  1.00  0.00    +0.000 C 
ATOM     60  F10 UNL A   1      31.833  42.875  45.683  1.00  0.00    +0.000 F 
ENDBRANCH   49   50
BRANCH   64   65
ATOM     65  C43 UNL A   1      31.025  35.654  43.115  1.00  0.00    +0.000 C 
ATOM     66  C44 UNL A   1      31.220  36.075  41.792  1.00  0.00    +0.000 C 
ATOM     67  F11 UNL A   1      30.643  37.205  41.358  1.00  0.00    +0.000 F 
ATOM     68  C45 UNL A   1      31.985  35.323  40.904  1.00  0.00    +0.000 C 
ATOM     69  F12 UNL A   1      32.133  35.732  39.637  1.00  0.00    +0.000 F 
ATOM     70  C46 UNL A   1      32.589  34.148  41.328  1.00  0.00    +0.000 C 
ATOM     71  F13 UNL A   1      33.337  33.432  40.477  1.00  0.00    +0.000 F 
ATOM     72  C47 UNL A   1      32.418  33.717  42.634  1.00  0.00    +0.000 C 
ATOM     73  F14 UNL A   1      33.013  32.591  43.052  1.00  0.00    +0.000 F 
ATOM     74  C48 UNL A   1      31.632  34.456  43.517  1.00  0.00    +0.000 C 
ATOM     75  F15 UNL A   1      31.482  34.016  44.775  1.00  0.00    +0.000 F 
ENDBRANCH   64   65
TORSDOF 19
ENDMDL
MODEL 3
REMARK VINA RESULT:     -11.5      1.194      7.294
ROOT
ATOM     28  C19 UNL A   1      53.280  19.738  11.445  1.00  0.00    +0.000 C 
ATOM     29  C20 UNL A   1      54.622  19.083  11.293  1.00  0.00    +0.000 C 
ATOM     30  N5  UNL A   1      55.625  19.042  12.134  1.00  0.00    +0.000 N 
ATOM     31  C21 UNL A   1      56.600  18.269  11.519  1.00  0.00    +0.000 C 
ATOM     32  C22 UNL A   1      57.852  17.983  11.955  1.00  0.00    +0.000 C 
ATOM     44  C29 UNL A   1      58.405  18.455  13.197  1.00  0.00    +0.000 C 
ATOM     45  C30 UNL A   1      59.681  18.277  13.698  1.00  0.00    +0.000 C 
ATOM     46  C31 UNL A   1      59.744  18.878  14.961  1.00  0.00    +0.000 C 
ATOM     47  C32 UNL A   1      58.520  19.469  15.227  1.00  0.00    +0.000 C 
ATOM     48  N6  UNL A   1      57.706  19.199  14.138  1.00  0.00    +0.000 N 
ATOM     49  C33 UNL A   1      58.121  20.227  16.386  1.00  0.00    +0.000 C 
ATOM     61  C40 UNL A   1      56.901  20.790  16.567  1.00  0.00    +0.000 C 
ATOM     62  N7  UNL A   1      55.798  20.768  15.725  1.00  0.00    +0.000 N 
ATOM     63  C41 UNL A   1      54.858  21.439  16.343  1.00  0.00    +0.000 C 
ATOM     64  C42 UNL A   1      53.460  21.751  15.887  1.00  0.00    +0.000 C 
ATOM     76  C49 UNL A   1      53.066  21.367  14.658  1.00  0.00    +0.000 C 
ATOM     77  C50 UNL A   1      51.752  21.618  14.075  1.00  0.00    +0.000 C 
ATOM     78  C51 UNL A   1      51.696  21.049  12.860  1.00  0.00    +0.000 C 
ATOM     79  C52 UNL A   1      52.985  20.418  12.569  1.00  0.00    +0.000 C 
ATOM     80  N8  UNL A   1      53.742  20.675  13.685  1.00  0.00    +0.000 N 
ATOM     81  C53 UNL A   1      55.253  21.950  17.663  1.00  0.00    +0.000 C 
ATOM     82  C54 UNL A   1      56.517  21.555  17.736  1.00  0.00    +0.000 C 
ATOM     83  C55 UNL A   1      56.050  17.816  10.260  1.00  0.00    +0.000 C 
ATOM     84  C56 UNL A   1      54.857  18.349  10.041  1.00  0.00    +0.000 C 
ATOM    117  H22 UNL A   1      60.455  17.786  13.223  1.00  0.00    +0.000 H 
ATOM    118  H23 UNL A   1      60.565  18.880  15.588  1.00  0.00    +0.000 H 
ATOM    119  H24 UNL A   1      56.771  19.492  14.045  1.00  0.00    +0.000 H 
ATOM    120  H25 UNL A   1      50.987  22.146  14.523  1.00  0.00    +0.000 H 
ATOM    121  H26 UNL A   1      50.877  21.054  12.232  1.00  0.00    +0.000 H 
ATOM    122  H27 UNL A   1      54.680  20.389  13.777  1.00  0.00    +0.000 H 
ATOM    123  H28 UNL A   1      54.695  22.478  18.353  1.00  0.00    +0.000 H 
ATOM    124  H29 UNL A   1      57.148  21.767  18.525  1.00  0.00    +0.000 H 
ATOM    125  H30 UNL A   1      56.524  17.161   9.618  1.00  0.00    +0.000 H 
ATOM    126  H31 UNL A   1      54.252  18.269   9.209  1.00  0.00    +0.000 H 
ENDROOT
BRANCH   28   27
ATOM    115  H20 UNL A   1      50.768  21.230   7.862  1.00  0.00    +0.000 H 
ATOM    116  H21 UNL A   1      52.542  21.476   9.501  1.00  0.00    +0.000 H 
ATOM     85  C57 UNL A   1      51.521  18.382  10.307  1.00  0.00    +0.000 C 
ATOM     86  C58 UNL A   1      50.559  18.211   9.313  1.00  0.00    +0.000 C 
ATOM     24  C15 UNL A   1      50.243  19.271   8.459  1.00  0.00    +0.000 C 
ATOM     25  C16 UNL A   1      50.975  20.462   8.519  1.00  0.00    +0.000 C 
ATOM     26  C17 UNL A   1      51.986  20.608   9.472  1.00  0.00    +0.000 C 
ATOM     27  C18 UNL A   1      52.246  19.579  10.391  1.00  0.00    +0.000 C 
ATOM    127  H32 UNL A   1      51.699  17.623  10.983  1.00  0.00    +0.000 H 
ATOM    128  H33 UNL A   1      50.079  17.303   9.209  1.00  0.00    +0.000 H 
BRANCH   24   22
ATOM     22  C14 UNL A   1      49.155  19.157   7.464  1.00  0.00    +0.000 C 
ATOM     23  O4  UNL A   1      48.483  20.145   7.182  1.00  0.00    +0.000 O 
BRANCH   22   21
ATOM    114  H19 UNL A   1      48.771  17.193   7.496  1.00  0.00    +0.000 H 
ATOM     21  N4  UNL A   1      48.885  17.949   6.875  1.00  0.00    +0.000 N 
BRANCH   21   20
ATOM    113  H18 UNL A   1      49.721  17.654   5.029  1.00  0.00    +0.000 H 
ATOM     20  C13 UNL A   1      48.746  17.623   5.467  1.00  0.00    +0.000 C 
ATOM    112  H17 UNL A   1      48.088  18.336   5.014  1.00  0.00    +0.000 H 
BRANCH   20   19
ATOM     19  C12 UNL A   1      48.181  16.225   5.246  1.00  0.00    +0.000 C 
ATOM    110  H15 UNL A   1      48.992  15.527   5.297  1.00  0.00    +0.000 H 
ATOM    111  H16 UNL A   1      47.444  16.078   6.009  1.00  0.00    +0.000 H 
BRANCH   19   18
ATOM     18  C11 UNL A   1      47.460  16.018   3.912  1.00  0.00    +0.000 C 
ATOM    108  H13 UNL A   1      48.202  15.838   3.162  1.00  0.00    +0.000 H 
ATOM    109  H14 UNL A   1      46.791  15.197   4.064  1.00  0.00    +0.000 H 
BRANCH   18   17
ATOM     17  C10 UNL A   1      46.588  17.187   3.442  1.00  0.00    +0.000 C 
ATOM    106  H11 UNL A   1      46.876  18.056   3.997  1.00  0.00    +0.000 H 
ATOM    107  H12 UNL A   1      46.755  17.274   2.390  1.00  0.00    +0.000 H 
BRANCH   17   16
ATOM    105  H10 UNL A   1      44.948  16.409   4.501  1.00  0.00    +0.000 H 
ATOM    104  H9  UNL A   1      44.700  16.517   2.736  1.00  0.00    +0.000 H 
ATOM     16  C9  UNL A   1      45.079  16.995   3.615  1.00  0.00    +0.000 C 
BRANCH   16   15
ATOM    103  H8  UNL A   1      44.982  19.100   3.892  1.00  0.00    +0.000 H 
ATOM    102  H7  UNL A   1      43.728  18.205   4.737  1.00  0.00    +0.000 H 
ATOM     15  C8  UNL A   1      44.292  18.285   3.831  1.00  0.00    +0.000 C 
BRANCH   15   14
ATOM    101  H6  UNL A   1      43.215  17.721   2.190  1.00  0.00    +0.000 H 
ATOM     14  N3  UNL A   1      43.386  18.527   2.729  1.00  0.00    +0.000 N 
BRANCH   14   12
ATOM     12  C7  UNL A   1      42.714  19.629   2.268  1.00  0.00    +0.000 C 
ATOM     13  O3  UNL A   1      43.370  20.654   2.091  1.00  0.00    +0.000 O 
BRANCH   12   11
ATOM    129  H34 UNL A   1      40.276  18.996   3.822  1.00  0.00    +0.000 H 
ATOM    130  H35 UNL A   1      40.361  17.784   2.648  1.00  0.00    +0.000 H 
ATOM    131  H36 UNL A   1      38.360  18.669   1.587  1.00  0.00    +0.000 H 
ATOM      9  N1  UNL A   1      39.361  20.505   1.373  1.00  0.00    +0.000 N 
ATOM     10  N2  UNL A   1      40.708  20.520   1.183  1.00  0.00    +0.000 N 
ATOM     11  C6  UNL A   1      41.212  19.678   2.034  1.00  0.00    +0.000 C 
ATOM     87  C59 UNL A   1      40.221  18.838   2.765  1.00  0.00    +0.000 C 
ATOM     88  C60 UNL A   1      38.906  19.371   2.183  1.00  0.00    +0.000 C 
BRANCH    9    8
ATOM     99  H4  UNL A   1      38.183  23.767  -1.588  1.00  0.00    +0.000 H 
ATOM    100  H5  UNL A   1      39.727  22.779   0.004  1.00  0.00    +0.000 H 
ATOM      5  C2  UNL A   1      36.725  22.247  -1.392  1.00  0.00    +0.000 C 
ATOM      6  C3  UNL A   1      37.943  22.880  -1.119  1.00  0.00    +0.000 C 
ATOM      7  C4  UNL A   1      38.835  22.304  -0.205  1.00  0.00    +0.000 C 
ATOM    136  H41 UNL A   1      35.502  20.579  -0.968  1.00  0.00    +0.000 H 
ATOM    135  H40 UNL A   1      37.058  19.594   0.598  1.00  0.00    +0.000 H 
ATOM      8  C5  UNL A   1      38.529  21.092   0.426  1.00  0.00    +0.000 C 
ATOM     94  C65 UNL A   1      37.301  20.483   0.135  1.00  0.00    +0.000 C 
ATOM     95  C66 UNL A   1      36.400  21.047  -0.767  1.00  0.00    +0.000 C 
BRANCH    5    2
ATOM      2  S1  UNL A   1      35.600  23.042  -2.512  1.00  0.00    +0.000 S 
ATOM      3  O1  UNL A   1      36.209  24.306  -2.876  1.00  0.00    +0.000 O 
ATOM      4  O2  UNL A   1      34.289  22.988  -1.894  1.00  0.00    +0.000 O 
BRANCH    2    1
ATOM      1  C1  UNL A   1      35.530  22.039  -3.972  1.00  0.00    +0.000 C 
ATOM     98  H3  UNL A   1      35.432  22.669  -4.833  1.00  0.00    +0.000 H 
ATOM     97  H2  UNL A   1      36.427  21.463  -4.052  1.00  0.00    +0.000 H 
ATOM     96  H1  UNL A   1      34.688  21.383  -3.914  1.00  0.00    +0.000 H 
ENDBRANCH    2    1
ENDBRANCH    5    2
ENDBRANCH    9    8
BRANCH   88   89
ATOM    132  H37 UNL A   1      37.920  21.774   3.737  1.00  0.00    +0.000 H 
ATOM    133  H38 UNL A   1      36.068  21.106   5.514  1.00  0.00    +0.000 H 
ATOM    134  H39 UNL A   1      35.644  18.574   5.230  1.00  0.00    +0.000 H 
ATOM     89  C61 UNL A   1      37.884  19.669   3.241  1.00  0.00    +0.000 C 
ATOM     90  C62 UNL A   1      37.533  20.832   3.901  1.00  0.00    +0.000 C 
ATOM     91  C63 UNL A   1      36.539  20.477   4.845  1.00  0.00    +0.000 C 
ATOM     92  C64 UNL A   1      36.327  19.129   4.689  1.00  0.00    +0.000 C 
ATOM     93  O5  UNL A   1      37.139  18.629   3.726  1.00  0.00    +0.000 O 
ENDBRANCH   88   89
ENDBRANCH   12   11
ENDBRANCH   14   12
ENDBRANCH   15   14
ENDBRANCH   16   15
ENDBRANCH   17   16
ENDBRANCH   18   17
ENDBRANCH   19   18
ENDBRANCH   20   19
ENDBRANCH   21   20
ENDBRANCH   22   21
ENDBRANCH   24   22
ENDBRANCH   28   27
BRANCH   32   33
ATOM     33  C23 UNL A   1      58.704  17.116  11.074  1.00  0.00    +0.000 C 
ATOM     34  C24 UNL A   1      59.504  17.660  10.057  1.00  0.00    +0.000 C 
ATOM     35  F1  UNL A   1      59.507  18.984   9.837  1.00  0.00    +0.000 F 
ATOM     36  C25 UNL A   1      60.265  16.841   9.227  1.00  0.00    +0.000 C 
ATOM     37  F2  UNL A   1      60.972  17.380   8.223  1.00  0.00    +0.000 F 
ATOM     38  C26 UNL A   1      60.273  15.469   9.421  1.00  0.00    +0.000 C 
ATOM     39  F3  UNL A   1      61.004  14.682   8.620  1.00  0.00    +0.000 F 
ATOM     40  C27 UNL A   1      59.515  14.911  10.440  1.00  0.00    +0.000 C 
ATOM     41  F4  UNL A   1      59.532  13.585  10.637  1.00  0.00    +0.000 F 
ATOM     42  C28 UNL A   1      58.730  15.724  11.253  1.00  0.00    +0.000 C 
ATOM     43  F5  UNL A   1      57.989  15.151  12.214  1.00  0.00    +0.000 F 
ENDBRANCH   32   33
BRANCH   49   50
ATOM     50  C34 UNL A   1      59.136  20.428  17.473  1.00  0.00    +0.000 C 
ATOM     51  C35 UNL A   1      59.862  21.623  17.586  1.00  0.00    +0.000 C 
ATOM     52  F6  UNL A   1      59.699  22.599  16.680  1.00  0.00    +0.000 F 
ATOM     53  C36 UNL A   1      60.787  21.803  18.612  1.00  0.00    +0.000 C 
ATOM     54  F7  UNL A   1      61.500  22.935  18.675  1.00  0.00    +0.000 F 
ATOM     55  C37 UNL A   1      60.979  20.808  19.558  1.00  0.00    +0.000 C 
ATOM     56  F8  UNL A   1      61.865  20.986  20.548  1.00  0.00    +0.000 F 
ATOM     57  C38 UNL A   1      60.260  19.625  19.475  1.00  0.00    +0.000 C 
ATOM     58  F9  UNL A   1      60.438  18.668  20.396  1.00  0.00    +0.000 F 
ATOM     59  C39 UNL A   1      59.355  19.431  18.436  1.00  0.00    +0.000 C 
ATOM     60  F10 UNL A   1      58.681  18.273  18.374  1.00  0.00    +0.000 F 
ENDBRANCH   49   50
BRANCH   64   65
ATOM     65  C43 UNL A   1      52.514  22.495  16.756  1.00  0.00    +0.000 C 
ATOM     66  C44 UNL A   1      51.823  21.848  17.789  1.00  0.00    +0.000 C 
ATOM     67  F11 UNL A   1      51.974  20.528  17.971  1.00  0.00    +0.000 F 
ATOM     68  C45 UNL A   1      50.954  22.549  18.622  1.00  0.00    +0.000 C 
ATOM     69  F12 UNL A   1      50.283  21.902  19.585  1.00  0.00    +0.000 F 
ATOM     70  C46 UNL A   1      50.778  23.915  18.453  1.00  0.00    +0.000 C 
ATOM     71  F13 UNL A   1      49.952  24.592  19.263  1.00  0.00    +0.000 F 
ATOM     72  C47 UNL A   1      51.458  24.577  17.443  1.00  0.00    +0.000 C 
ATOM     73  F14 UNL A   1      51.303  25.899  17.286  1.00  0.00    +0.000 F 
ATOM     74  C48 UNL A   1      52.309  23.873  16.594  1.00  0.00    +0.000 C 
ATOM     75  F15 UNL A   1      52.954  24.538  15.625  1.00  0.00    +0.000 F 
ENDBRANCH   64   65
TORSDOF 19
ENDMDL
MODEL 4
REMARK VINA RESULT:     -11.2     45.179     51.494
ROOT
ATOM     28  C19 UNL A   1      25.882  40.631  46.863  1.00  0.00    +0.000 C 
ATOM     29  C20 UNL A   1      25.804  42.014  47.443  1.00  0.00    +0.000 C 
ATOM     30  N5  UNL A   1      24.837  42.573  48.126  1.00  0.00    +0.000 N 
ATOM     31  C21 UNL A   1      25.297  43.839  48.462  1.00  0.00    +0.000 C 
ATOM     32  C22 UNL A   1      24.642  44.832  49.113  1.00  0.00    +0.000 C 
ATOM     44  C29 UNL A   1      23.289  44.731  49.593  1.00  0.00    +0.000 C 
ATOM     45  C30 UNL A   1      22.513  45.699  50.204  1.00  0.00    +0.000 C 
ATOM     46  C31 UNL A   1      21.280  45.127  50.536  1.00  0.00    +0.000 C 
ATOM     47  C32 UNL A   1      21.269  43.816  50.091  1.00  0.00    +0.000 C 
ATOM     48  N6  UNL A   1      22.510  43.584  49.518  1.00  0.00    +0.000 N 
ATOM     49  C33 UNL A   1      20.208  42.845  50.179  1.00  0.00    +0.000 C 
ATOM     61  C40 UNL A   1      20.271  41.577  49.703  1.00  0.00    +0.000 C 
ATOM     62  N7  UNL A   1      21.320  40.940  49.056  1.00  0.00    +0.000 N 
ATOM     63  C41 UNL A   1      20.904  39.723  48.805  1.00  0.00    +0.000 C 
ATOM     64  C42 UNL A   1      21.621  38.603  48.104  1.00  0.00    +0.000 C 
ATOM     76  C49 UNL A   1      22.842  38.825  47.583  1.00  0.00    +0.000 C 
ATOM     77  C50 UNL A   1      23.645  37.843  46.860  1.00  0.00    +0.000 C 
ATOM     78  C51 UNL A   1      24.824  38.395  46.535  1.00  0.00    +0.000 C 
ATOM     79  C52 UNL A   1      24.847  39.782  47.003  1.00  0.00    +0.000 C 
ATOM     80  N8  UNL A   1      23.621  39.954  47.596  1.00  0.00    +0.000 N 
ATOM     81  C53 UNL A   1      19.544  39.442  49.284  1.00  0.00    +0.000 C 
ATOM     82  C54 UNL A   1      19.191  40.615  49.794  1.00  0.00    +0.000 C 
ATOM     83  C55 UNL A   1      26.648  43.946  47.957  1.00  0.00    +0.000 C 
ATOM     84  C56 UNL A   1      26.984  42.872  47.259  1.00  0.00    +0.000 C 
ATOM    117  H22 UNL A   1      22.795  46.676  50.384  1.00  0.00    +0.000 H 
ATOM    118  H23 UNL A   1      20.507  45.604  51.029  1.00  0.00    +0.000 H 
ATOM    119  H24 UNL A   1      22.797  42.733  49.116  1.00  0.00    +0.000 H 
ATOM    120  H25 UNL A   1      23.353  36.879  46.636  1.00  0.00    +0.000 H 
ATOM    121  H26 UNL A   1      25.592  37.919  46.036  1.00  0.00    +0.000 H 
ATOM    122  H27 UNL A   1      23.330  40.808  47.992  1.00  0.00    +0.000 H 
ATOM    123  H28 UNL A   1      19.003  38.564  49.236  1.00  0.00    +0.000 H 
ATOM    124  H29 UNL A   1      18.265  40.817  50.202  1.00  0.00    +0.000 H 
ATOM    125  H30 UNL A   1      27.270  44.753  48.122  1.00  0.00    +0.000 H 
ATOM    126  H31 UNL A   1      27.847  42.686  46.725  1.00  0.00    +0.000 H 
ENDROOT
BRANCH   28   27
ATOM    115  H20 UNL A   1      28.863  40.461  43.334  1.00  0.00    +0.000 H 
ATOM    116  H21 UNL A   1      26.883  41.323  44.442  1.00  0.00    +0.000 H 
ATOM     85  C57 UNL A   1      27.970  39.262  46.859  1.00  0.00    +0.000 C 
ATOM     86  C58 UNL A   1      29.149  38.831  46.254  1.00  0.00    +0.000 C 
ATOM     24  C15 UNL A   1      29.444  39.222  44.946  1.00  0.00    +0.000 C 
ATOM     25  C16 UNL A   1      28.623  40.141  44.286  1.00  0.00    +0.000 C 
ATOM     26  C17 UNL A   1      27.476  40.626  44.918  1.00  0.00    +0.000 C 
ATOM     27  C18 UNL A   1      27.126  40.168  46.198  1.00  0.00    +0.000 C 
ATOM    127  H32 UNL A   1      27.717  38.914  47.796  1.00  0.00    +0.000 H 
ATOM    128  H33 UNL A   1      29.802  38.223  46.772  1.00  0.00    +0.000 H 
BRANCH   24   22
ATOM     22  C14 UNL A   1      30.633  38.698  44.238  1.00  0.00    +0.000 C 
ATOM     23  O4  UNL A   1      31.504  39.474  43.855  1.00  0.00    +0.000 O 
BRANCH   22   21
ATOM    114  H19 UNL A   1      31.379  36.873  44.581  1.00  0.00    +0.000 H 
ATOM     21  N4  UNL A   1      30.752  37.355  43.995  1.00  0.00    +0.000 N 
BRANCH   21   20
ATOM    113  H18 UNL A   1      30.840  36.122  42.361  1.00  0.00    +0.000 H 
ATOM     20  C13 UNL A   1      30.086  36.539  42.994  1.00  0.00    +0.000 C 
ATOM    112  H17 UNL A   1      29.409  37.159  42.443  1.00  0.00    +0.000 H 
BRANCH   20   19
ATOM     19  C12 UNL A   1      29.305  35.385  43.610  1.00  0.00    +0.000 C 
ATOM    110  H15 UNL A   1      28.988  34.738  42.817  1.00  0.00    +0.000 H 
ATOM    111  H16 UNL A   1      29.968  34.914  44.305  1.00  0.00    +0.000 H 
BRANCH   19   18
ATOM     18  C11 UNL A   1      28.066  35.792  44.412  1.00  0.00    +0.000 C 
ATOM    108  H13 UNL A   1      28.312  36.668  44.975  1.00  0.00    +0.000 H 
ATOM    109  H14 UNL A   1      27.288  35.943  43.694  1.00  0.00    +0.000 H 
BRANCH   18   17
ATOM     17  C10 UNL A   1      27.534  34.738  45.389  1.00  0.00    +0.000 C 
ATOM    106  H11 UNL A   1      27.839  35.018  46.375  1.00  0.00    +0.000 H 
ATOM    107  H12 UNL A   1      26.473  34.721  45.254  1.00  0.00    +0.000 H 
BRANCH   17   16
ATOM    105  H10 UNL A   1      29.045  33.375  44.862  1.00  0.00    +0.000 H 
ATOM    104  H9  UNL A   1      27.403  32.879  44.368  1.00  0.00    +0.000 H 
ATOM     16  C9  UNL A   1      28.013  33.305  45.137  1.00  0.00    +0.000 C 
BRANCH   16   15
ATOM    103  H8  UNL A   1      27.472  32.913  47.154  1.00  0.00    +0.000 H 
ATOM    102  H7  UNL A   1      28.945  32.108  46.635  1.00  0.00    +0.000 H 
ATOM     15  C8  UNL A   1      27.951  32.388  46.355  1.00  0.00    +0.000 C 
BRANCH   15   14
ATOM    101  H6  UNL A   1      27.684  30.547  45.513  1.00  0.00    +0.000 H 
ATOM     14  N3  UNL A   1      27.187  31.194  46.063  1.00  0.00    +0.000 N 
BRANCH   14   12
ATOM     12  C7  UNL A   1      25.925  30.764  46.383  1.00  0.00    +0.000 C 
ATOM     13  O3  UNL A   1      25.824  29.650  46.893  1.00  0.00    +0.000 O 
BRANCH   12   11
ATOM    129  H34 UNL A   1      25.208  33.591  45.881  1.00  0.00    +0.000 H 
ATOM    130  H35 UNL A   1      24.569  33.253  47.408  1.00  0.00    +0.000 H 
ATOM    131  H36 UNL A   1      22.317  33.467  46.515  1.00  0.00    +0.000 H 
ATOM      9  N1  UNL A   1      22.787  31.950  45.137  1.00  0.00    +0.000 N 
ATOM     10  N2  UNL A   1      23.653  30.964  45.491  1.00  0.00    +0.000 N 
ATOM     11  C6  UNL A   1      24.655  31.543  46.082  1.00  0.00    +0.000 C 
ATOM     87  C59 UNL A   1      24.470  32.993  46.375  1.00  0.00    +0.000 C 
ATOM     88  C60 UNL A   1      23.071  33.230  45.793  1.00  0.00    +0.000 C 
BRANCH    9    8
ATOM     99  H4  UNL A   1      18.797  32.753  43.080  1.00  0.00    +0.000 H 
ATOM    100  H5  UNL A   1      21.064  33.387  43.673  1.00  0.00    +0.000 H 
ATOM      5  C2  UNL A   1      18.863  30.891  44.082  1.00  0.00    +0.000 C 
ATOM      6  C3  UNL A   1      19.379  32.117  43.647  1.00  0.00    +0.000 C 
ATOM      7  C4  UNL A   1      20.690  32.477  43.985  1.00  0.00    +0.000 C 
ATOM    136  H41 UNL A   1      19.268  29.122  45.162  1.00  0.00    +0.000 H 
ATOM    135  H40 UNL A   1      21.532  29.756  45.727  1.00  0.00    +0.000 H 
ATOM      8  C5  UNL A   1      21.497  31.617  44.739  1.00  0.00    +0.000 C 
ATOM     94  C65 UNL A   1      20.952  30.397  45.163  1.00  0.00    +0.000 C 
ATOM     95  C66 UNL A   1      19.647  30.027  44.840  1.00  0.00    +0.000 C 
BRANCH    5    2
ATOM      2  S1  UNL A   1      17.179  30.500  43.681  1.00  0.00    +0.000 S 
ATOM      3  O1  UNL A   1      16.953  30.993  42.336  1.00  0.00    +0.000 O 
ATOM      4  O2  UNL A   1      16.368  30.955  44.794  1.00  0.00    +0.000 O 
BRANCH    2    1
ATOM      1  C1  UNL A   1      17.056  28.732  43.633  1.00  0.00    +0.000 C 
ATOM     98  H3  UNL A   1      16.526  28.388  44.498  1.00  0.00    +0.000 H 
ATOM     97  H2  UNL A   1      16.529  28.435  42.751  1.00  0.00    +0.000 H 
ATOM     96  H1  UNL A   1      18.037  28.307  43.624  1.00  0.00    +0.000 H 
ENDBRANCH    2    1
ENDBRANCH    5    2
ENDBRANCH    9    8
BRANCH   88   89
ATOM    132  H37 UNL A   1      24.977  34.965  44.205  1.00  0.00    +0.000 H 
ATOM    133  H38 UNL A   1      23.738  37.033  43.098  1.00  0.00    +0.000 H 
ATOM    134  H39 UNL A   1      21.232  36.794  43.677  1.00  0.00    +0.000 H 
ATOM     89  C61 UNL A   1      23.004  34.456  44.929  1.00  0.00    +0.000 C 
ATOM     90  C62 UNL A   1      23.970  35.183  44.259  1.00  0.00    +0.000 C 
ATOM     91  C63 UNL A   1      23.308  36.282  43.662  1.00  0.00    +0.000 C 
ATOM     92  C64 UNL A   1      21.979  36.148  43.982  1.00  0.00    +0.000 C 
ATOM     93  O5  UNL A   1      21.785  35.051  44.753  1.00  0.00    +0.000 O 
ENDBRANCH   88   89
ENDBRANCH   12   11
ENDBRANCH   14   12
ENDBRANCH   15   14
ENDBRANCH   16   15
ENDBRANCH   17   16
ENDBRANCH   18   17
ENDBRANCH   19   18
ENDBRANCH   20   19
ENDBRANCH   21   20
ENDBRANCH   22   21
ENDBRANCH   24   22
ENDBRANCH   28   27
BRANCH   32   33
ATOM     33  C23 UNL A   1      25.389  46.114  49.340  1.00  0.00    +0.000 C 
ATOM     34  C24 UNL A   1      26.077  46.363  50.539  1.00  0.00    +0.000 C 
ATOM     35  F1  UNL A   1      26.062  45.454  51.526  1.00  0.00    +0.000 F 
ATOM     36  C25 UNL A   1      26.739  47.569  50.749  1.00  0.00    +0.000 C 
ATOM     37  F2  UNL A   1      27.336  47.807  51.925  1.00  0.00    +0.000 F 
ATOM     38  C26 UNL A   1      26.763  48.533  49.753  1.00  0.00    +0.000 C 
ATOM     39  F3  UNL A   1      27.398  49.694  49.957  1.00  0.00    +0.000 F 
ATOM     40  C27 UNL A   1      26.117  48.296  48.548  1.00  0.00    +0.000 C 
ATOM     41  F4  UNL A   1      26.149  49.222  47.580  1.00  0.00    +0.000 F 
ATOM     42  C28 UNL A   1      25.428  47.104  48.346  1.00  0.00    +0.000 C 
ATOM     43  F5  UNL A   1      24.793  46.915  47.179  1.00  0.00    +0.000 F 
ENDBRANCH   32   33
BRANCH   49   50
ATOM     50  C34 UNL A   1      18.924  43.270  50.829  1.00  0.00    +0.000 C 
ATOM     51  C35 UNL A   1      17.917  43.924  50.106  1.00  0.00    +0.000 C 
ATOM     52  F6  UNL A   1      18.108  44.235  48.815  1.00  0.00    +0.000 F 
ATOM     53  C36 UNL A   1      16.723  44.296  50.718  1.00  0.00    +0.000 C 
ATOM     54  F7  UNL A   1      15.792  44.958  50.019  1.00  0.00    +0.000 F 
ATOM     55  C37 UNL A   1      16.501  43.992  52.053  1.00  0.00    +0.000 C 
ATOM     56  F8  UNL A   1      15.348  44.344  52.639  1.00  0.00    +0.000 F 
ATOM     57  C38 UNL A   1      17.477  43.331  52.783  1.00  0.00    +0.000 C 
ATOM     58  F9  UNL A   1      17.260  43.028  54.071  1.00  0.00    +0.000 F 
ATOM     59  C39 UNL A   1      18.683  42.983  52.182  1.00  0.00    +0.000 C 
ATOM     60  F10 UNL A   1      19.613  42.353  52.916  1.00  0.00    +0.000 F 
ENDBRANCH   49   50
BRANCH   64   65
ATOM     65  C43 UNL A   1      20.996  37.265  47.952  1.00  0.00    +0.000 C 
ATOM     66  C44 UNL A   1      20.075  37.012  46.927  1.00  0.00    +0.000 C 
ATOM     67  F11 UNL A   1      19.710  38.000  46.096  1.00  0.00    +0.000 F 
ATOM     68  C45 UNL A   1      19.505  35.751  46.767  1.00  0.00    +0.000 C 
ATOM     69  F12 UNL A   1      18.606  35.542  45.796  1.00  0.00    +0.000 F 
ATOM     70  C46 UNL A   1      19.863  34.713  47.615  1.00  0.00    +0.000 C 
ATOM     71  F13 UNL A   1      19.326  33.496  47.452  1.00  0.00    +0.000 F 
ATOM     72  C47 UNL A   1      20.779  34.938  48.631  1.00  0.00    +0.000 C 
ATOM     73  F14 UNL A   1      21.140  33.934  49.442  1.00  0.00    +0.000 F 
ATOM     74  C48 UNL A   1      21.331  36.205  48.807  1.00  0.00    +0.000 C 
ATOM     75  F15 UNL A   1      22.214  36.395  49.798  1.00  0.00    +0.000 F 
ENDBRANCH   64   65
TORSDOF 19
ENDMDL
MODEL 5
REMARK VINA RESULT:     -11.1     45.565     50.274
ROOT
ATOM     28  C19 UNL A   1      16.518  54.622   0.469  1.00  0.00    +0.000 C 
ATOM     29  C20 UNL A   1      16.638  53.143   0.235  1.00  0.00    +0.000 C 
ATOM     30  N5  UNL A   1      16.351  52.151   1.040  1.00  0.00    +0.000 N 
ATOM     31  C21 UNL A   1      16.598  50.994   0.314  1.00  0.00    +0.000 C 
ATOM     32  C22 UNL A   1      16.516  49.704   0.723  1.00  0.00    +0.000 C 
ATOM     44  C29 UNL A   1      16.134  49.299   2.051  1.00  0.00    +0.000 C 
ATOM     45  C30 UNL A   1      16.084  48.024   2.585  1.00  0.00    +0.000 C 
ATOM     46  C31 UNL A   1      15.611  48.118   3.899  1.00  0.00    +0.000 C 
ATOM     47  C32 UNL A   1      15.410  49.455   4.199  1.00  0.00    +0.000 C 
ATOM     48  N6  UNL A   1      15.731  50.169   3.055  1.00  0.00    +0.000 N 
ATOM     49  C33 UNL A   1      14.961  50.040   5.437  1.00  0.00    +0.000 C 
ATOM     61  C40 UNL A   1      14.802  51.369   5.658  1.00  0.00    +0.000 C 
ATOM     62  N7  UNL A   1      15.017  52.428   4.788  1.00  0.00    +0.000 N 
ATOM     63  C41 UNL A   1      14.713  53.513   5.458  1.00  0.00    +0.000 C 
ATOM     64  C42 UNL A   1      14.778  54.948   5.016  1.00  0.00    +0.000 C 
ATOM     76  C49 UNL A   1      15.260  55.241   3.794  1.00  0.00    +0.000 C 
ATOM     77  C50 UNL A   1      15.401  56.585   3.240  1.00  0.00    +0.000 C 
ATOM     78  C51 UNL A   1      15.862  56.494   1.983  1.00  0.00    +0.000 C 
ATOM     79  C52 UNL A   1      16.077  55.084   1.654  1.00  0.00    +0.000 C 
ATOM     80  N8  UNL A   1      15.711  54.415   2.796  1.00  0.00    +0.000 N 
ATOM     81  C53 UNL A   1      14.251  53.262   6.830  1.00  0.00    +0.000 C 
ATOM     82  C54 UNL A   1      14.356  51.942   6.911  1.00  0.00    +0.000 C 
ATOM     83  C55 UNL A   1      17.004  51.405  -1.012  1.00  0.00    +0.000 C 
ATOM     84  C56 UNL A   1      17.113  52.723  -1.091  1.00  0.00    +0.000 C 
ATOM    117  H22 UNL A   1      16.350  47.153   2.098  1.00  0.00    +0.000 H 
ATOM    118  H23 UNL A   1      15.442  47.323   4.537  1.00  0.00    +0.000 H 
ATOM    119  H24 UNL A   1      15.681  51.147   2.967  1.00  0.00    +0.000 H 
ATOM    120  H25 UNL A   1      15.180  57.463   3.735  1.00  0.00    +0.000 H 
ATOM    121  H26 UNL A   1      16.037  57.289   1.349  1.00  0.00    +0.000 H 
ATOM    122  H27 UNL A   1      15.767  53.436   2.888  1.00  0.00    +0.000 H 
ATOM    123  H28 UNL A   1      13.930  53.935   7.544  1.00  0.00    +0.000 H 
ATOM    124  H29 UNL A   1      14.147  51.393   7.760  1.00  0.00    +0.000 H 
ATOM    125  H30 UNL A   1      17.185  50.757  -1.795  1.00  0.00    +0.000 H 
ATOM    126  H31 UNL A   1      17.445  53.303  -1.877  1.00  0.00    +0.000 H 
ENDROOT
BRANCH   28   27
ATOM    115  H20 UNL A   1      15.359  57.223  -3.172  1.00  0.00    +0.000 H 
ATOM    116  H21 UNL A   1      14.822  55.751  -1.318  1.00  0.00    +0.000 H 
ATOM     85  C57 UNL A   1      18.130  56.028  -0.817  1.00  0.00    +0.000 C 
ATOM     86  C58 UNL A   1      18.422  56.938  -1.832  1.00  0.00    +0.000 C 
ATOM     24  C15 UNL A   1      17.422  57.327  -2.727  1.00  0.00    +0.000 C 
ATOM     25  C16 UNL A   1      16.104  56.903  -2.534  1.00  0.00    +0.000 C 
ATOM     26  C17 UNL A   1      15.798  56.044  -1.476  1.00  0.00    +0.000 C 
ATOM     27  C18 UNL A   1      16.815  55.578  -0.627  1.00  0.00    +0.000 C 
ATOM    127  H32 UNL A   1      18.885  55.684  -0.204  1.00  0.00    +0.000 H 
ATOM    128  H33 UNL A   1      19.376  57.321  -1.922  1.00  0.00    +0.000 H 
BRANCH   24   22
ATOM     22  C14 UNL A   1      17.723  58.208  -3.876  1.00  0.00    +0.000 C 
ATOM     23  O4  UNL A   1      17.204  59.318  -3.944  1.00  0.00    +0.000 O 
BRANCH   22   21
ATOM    114  H19 UNL A   1      19.035  58.489  -5.362  1.00  0.00    +0.000 H 
ATOM     21  N4  UNL A   1      18.562  57.778  -4.871  1.00  0.00    +0.000 N 
BRANCH   21   20
ATOM    113  H18 UNL A   1      19.167  55.867  -4.451  1.00  0.00    +0.000 H 
ATOM     20  C13 UNL A   1      18.853  56.424  -5.308  1.00  0.00    +0.000 C 
ATOM    112  H17 UNL A   1      19.618  56.461  -6.055  1.00  0.00    +0.000 H 
BRANCH   20   19
ATOM     19  C12 UNL A   1      17.630  55.726  -5.893  1.00  0.00    +0.000 C 
ATOM    110  H15 UNL A   1      16.814  56.419  -5.879  1.00  0.00    +0.000 H 
ATOM    111  H16 UNL A   1      17.909  55.415  -6.878  1.00  0.00    +0.000 H 
BRANCH   19   18
ATOM     18  C11 UNL A   1      17.189  54.459  -5.156  1.00  0.00    +0.000 C 
ATOM    108  H13 UNL A   1      17.481  53.616  -5.747  1.00  0.00    +0.000 H 
ATOM    109  H14 UNL A   1      17.659  54.499  -4.197  1.00  0.00    +0.000 H 
BRANCH   18   17
ATOM     17  C10 UNL A   1      15.686  54.343  -4.881  1.00  0.00    +0.000 C 
ATOM    106  H11 UNL A   1      15.415  55.122  -4.199  1.00  0.00    +0.000 H 
ATOM    107  H12 UNL A   1      15.206  54.419  -5.834  1.00  0.00    +0.000 H 
BRANCH   17   16
ATOM    105  H10 UNL A   1      15.090  53.182  -3.234  1.00  0.00    +0.000 H 
ATOM    104  H9  UNL A   1      15.973  52.275  -4.493  1.00  0.00    +0.000 H 
ATOM     16  C9  UNL A   1      15.226  53.011  -4.281  1.00  0.00    +0.000 C 
BRANCH   16   15
ATOM    103  H8  UNL A   1      13.974  52.360  -5.871  1.00  0.00    +0.000 H 
ATOM    102  H7  UNL A   1      13.127  53.214  -4.590  1.00  0.00    +0.000 H 
ATOM     15  C8  UNL A   1      13.891  52.499  -4.813  1.00  0.00    +0.000 C 
BRANCH   15   14
ATOM    101  H6  UNL A   1      14.167  50.509  -4.450  1.00  0.00    +0.000 H 
ATOM     14  N3  UNL A   1      13.545  51.232  -4.206  1.00  0.00    +0.000 N 
BRANCH   14   12
ATOM     12  C7  UNL A   1      12.545  50.814  -3.367  1.00  0.00    +0.000 C 
ATOM     13  O3  UNL A   1      11.505  50.415  -3.889  1.00  0.00    +0.000 O 
BRANCH   12   11
ATOM    129  H34 UNL A   1      13.113  52.889  -1.335  1.00  0.00    +0.000 H 
ATOM    130  H35 UNL A   1      14.462  51.872  -1.297  1.00  0.00    +0.000 H 
ATOM    131  H36 UNL A   1      13.847  51.137   0.939  1.00  0.00    +0.000 H 
ATOM      9  N1  UNL A   1      11.998  50.514   0.157  1.00  0.00    +0.000 N 
ATOM     10  N2  UNL A   1      11.927  50.057  -1.122  1.00  0.00    +0.000 N 
ATOM     11  C6  UNL A   1      12.618  50.882  -1.850  1.00  0.00    +0.000 C 
ATOM     87  C59 UNL A   1      13.412  51.890  -1.092  1.00  0.00    +0.000 C 
ATOM     88  C60 UNL A   1      13.041  51.526   0.351  1.00  0.00    +0.000 C 
BRANCH    9    8
ATOM     99  H4  UNL A   1      12.671  47.410   3.429  1.00  0.00    +0.000 H 
ATOM    100  H5  UNL A   1      13.480  48.867   1.663  1.00  0.00    +0.000 H 
ATOM      5  C2  UNL A   1      10.646  47.984   3.224  1.00  0.00    +0.000 C 
ATOM      6  C3  UNL A   1      12.011  48.012   2.913  1.00  0.00    +0.000 C 
ATOM      7  C4  UNL A   1      12.475  48.858   1.898  1.00  0.00    +0.000 C 
ATOM    136  H41 UNL A   1       8.745  48.779   2.763  1.00  0.00    +0.000 H 
ATOM    135  H40 UNL A   1       9.566  50.242   1.021  1.00  0.00    +0.000 H 
ATOM      8  C5  UNL A   1      11.592  49.691   1.201  1.00  0.00    +0.000 C 
ATOM     94  C65 UNL A   1      10.230  49.640   1.532  1.00  0.00    +0.000 C 
ATOM     95  C66 UNL A   1       9.752  48.798   2.535  1.00  0.00    +0.000 C 
BRANCH    5    2
ATOM      2  S1  UNL A   1      10.093  46.854   4.476  1.00  0.00    +0.000 S 
ATOM      3  O1  UNL A   1       9.169  45.945   3.827  1.00  0.00    +0.000 O 
ATOM      4  O2  UNL A   1       9.686  47.657   5.613  1.00  0.00    +0.000 O 
BRANCH    2    1
ATOM      1  C1  UNL A   1      11.507  45.912   4.982  1.00  0.00    +0.000 C 
ATOM     98  H3  UNL A   1      12.008  46.421   5.780  1.00  0.00    +0.000 H 
ATOM     97  H2  UNL A   1      11.191  44.947   5.316  1.00  0.00    +0.000 H 
ATOM     96  H1  UNL A   1      12.177  45.802   4.155  1.00  0.00    +0.000 H 
ENDBRANCH    2    1
ENDBRANCH    5    2
ENDBRANCH    9    8
BRANCH   88   89
ATOM    132  H37 UNL A   1      12.075  52.108   3.160  1.00  0.00    +0.000 H 
ATOM    133  H38 UNL A   1      11.606  54.693   3.524  1.00  0.00    +0.000 H 
ATOM    134  H39 UNL A   1      12.257  55.884   1.326  1.00  0.00    +0.000 H 
ATOM     89  C61 UNL A   1      12.668  52.725   1.173  1.00  0.00    +0.000 C 
ATOM     90  C62 UNL A   1      12.211  52.864   2.470  1.00  0.00    +0.000 C 
ATOM     91  C63 UNL A   1      11.967  54.244   2.668  1.00  0.00    +0.000 C 
ATOM     92  C64 UNL A   1      12.310  54.866   1.491  1.00  0.00    +0.000 C 
ATOM     93  O5  UNL A   1      12.729  53.955   0.579  1.00  0.00    +0.000 O 
ENDBRANCH   88   89
ENDBRANCH   12   11
ENDBRANCH   14   12
ENDBRANCH   15   14
ENDBRANCH   16   15
ENDBRANCH   17   16
ENDBRANCH   18   17
ENDBRANCH   19   18
ENDBRANCH   20   19
ENDBRANCH   21   20
ENDBRANCH   22   21
ENDBRANCH   24   22
ENDBRANCH   28   27
BRANCH   32   33
ATOM     33  C23 UNL A   1      16.848  48.641  -0.283  1.00  0.00    +0.000 C 
ATOM     34  C24 UNL A   1      15.847  47.983  -1.017  1.00  0.00    +0.000 C 
ATOM     35  F1  UNL A   1      14.555  48.284  -0.814  1.00  0.00    +0.000 F 
ATOM     36  C25 UNL A   1      16.167  46.977  -1.924  1.00  0.00    +0.000 C 
ATOM     37  F2  UNL A   1      15.189  46.322  -2.566  1.00  0.00    +0.000 F 
ATOM     38  C26 UNL A   1      17.492  46.637  -2.147  1.00  0.00    +0.000 C 
ATOM     39  F3  UNL A   1      17.798  45.666  -3.019  1.00  0.00    +0.000 F 
ATOM     40  C27 UNL A   1      18.499  47.294  -1.457  1.00  0.00    +0.000 C 
ATOM     41  F4  UNL A   1      19.782  46.974  -1.681  1.00  0.00    +0.000 F 
ATOM     42  C28 UNL A   1      18.182  48.280  -0.527  1.00  0.00    +0.000 C 
ATOM     43  F5  UNL A   1      19.178  48.881   0.142  1.00  0.00    +0.000 F 
ENDBRANCH   32   33
BRANCH   49   50
ATOM     50  C34 UNL A   1      14.663  49.116   6.580  1.00  0.00    +0.000 C 
ATOM     51  C35 UNL A   1      13.374  48.608   6.797  1.00  0.00    +0.000 C 
ATOM     52  F6  UNL A   1      12.358  48.989   6.007  1.00  0.00    +0.000 F 
ATOM     53  C36 UNL A   1      13.116  47.736   7.851  1.00  0.00    +0.000 C 
ATOM     54  F7  UNL A   1      11.868  47.298   8.065  1.00  0.00    +0.000 F 
ATOM     55  C37 UNL A   1      14.146  47.331   8.687  1.00  0.00    +0.000 C 
ATOM     56  F8  UNL A   1      13.898  46.485   9.697  1.00  0.00    +0.000 F 
ATOM     57  C38 UNL A   1      15.432  47.807   8.480  1.00  0.00    +0.000 C 
ATOM     58  F9  UNL A   1      16.430  47.407   9.281  1.00  0.00    +0.000 F 
ATOM     59  C39 UNL A   1      15.687  48.700   7.445  1.00  0.00    +0.000 C 
ATOM     60  F10 UNL A   1      16.939  49.153   7.276  1.00  0.00    +0.000 F 
ENDBRANCH   49   50
BRANCH   64   65
ATOM     65  C43 UNL A   1      14.345  56.050   5.913  1.00  0.00    +0.000 C 
ATOM     66  C44 UNL A   1      15.285  56.863   6.560  1.00  0.00    +0.000 C 
ATOM     67  F11 UNL A   1      16.595  56.619   6.412  1.00  0.00    +0.000 F 
ATOM     68  C45 UNL A   1      14.882  57.913   7.382  1.00  0.00    +0.000 C 
ATOM     69  F12 UNL A   1      15.800  58.658   8.013  1.00  0.00    +0.000 F 
ATOM     70  C46 UNL A   1      13.532  58.183   7.555  1.00  0.00    +0.000 C 
ATOM     71  F13 UNL A   1      13.145  59.202   8.335  1.00  0.00    +0.000 F 
ATOM     72  C47 UNL A   1      12.585  57.398   6.917  1.00  0.00    +0.000 C 
ATOM     73  F14 UNL A   1      11.281  57.666   7.067  1.00  0.00    +0.000 F 
ATOM     74  C48 UNL A   1      12.986  56.332   6.114  1.00  0.00    +0.000 C 
ATOM     75  F15 UNL A   1      12.049  55.588   5.509  1.00  0.00    +0.000 F 
ENDBRANCH   64   65
TORSDOF 19
ENDMDL
MODEL 6
REMARK VINA RESULT:     -11.1      1.045      7.194
ROOT
ATOM     28  C19 UNL A   1      53.459  19.747  11.724  1.00  0.00    +0.000 C 
ATOM     29  C20 UNL A   1      54.806  19.098  11.582  1.00  0.00    +0.000 C 
ATOM     30  N5  UNL A   1      55.795  19.045  12.439  1.00  0.00    +0.000 N 
ATOM     31  C21 UNL A   1      56.782  18.286  11.827  1.00  0.00    +0.000 C 
ATOM     32  C22 UNL A   1      58.028  17.995  12.278  1.00  0.00    +0.000 C 
ATOM     44  C29 UNL A   1      58.559  18.446  13.537  1.00  0.00    +0.000 C 
ATOM     45  C30 UNL A   1      59.827  18.263  14.056  1.00  0.00    +0.000 C 
ATOM     46  C31 UNL A   1      59.867  18.841  15.330  1.00  0.00    +0.000 C 
ATOM     47  C32 UNL A   1      58.638  19.425  15.587  1.00  0.00    +0.000 C 
ATOM     48  N6  UNL A   1      57.842  19.172  14.480  1.00  0.00    +0.000 N 
ATOM     49  C33 UNL A   1      58.217  20.161  16.752  1.00  0.00    +0.000 C 
ATOM     61  C40 UNL A   1      56.992  20.717  16.922  1.00  0.00    +0.000 C 
ATOM     62  N7  UNL A   1      55.904  20.707  16.062  1.00  0.00    +0.000 N 
ATOM     63  C41 UNL A   1      54.952  21.366  16.677  1.00  0.00    +0.000 C 
ATOM     64  C42 UNL A   1      53.560  21.681  16.203  1.00  0.00    +0.000 C 
ATOM     76  C49 UNL A   1      53.188  21.318  14.961  1.00  0.00    +0.000 C 
ATOM     77  C50 UNL A   1      51.883  21.575  14.361  1.00  0.00    +0.000 C 
ATOM     78  C51 UNL A   1      51.849  21.028  13.136  1.00  0.00    +0.000 C 
ATOM     79  C52 UNL A   1      53.144  20.406  12.855  1.00  0.00    +0.000 C 
ATOM     80  N8  UNL A   1      53.882  20.645  13.987  1.00  0.00    +0.000 N 
ATOM     81  C53 UNL A   1      55.324  21.854  18.012  1.00  0.00    +0.000 C 
ATOM     82  C54 UNL A   1      56.588  21.461  18.098  1.00  0.00    +0.000 C 
ATOM     83  C55 UNL A   1      56.254  17.853  10.552  1.00  0.00    +0.000 C 
ATOM     84  C56 UNL A   1      55.064  18.386  10.322  1.00  0.00    +0.000 C 
ATOM    117  H22 UNL A   1      60.610  17.783  13.585  1.00  0.00    +0.000 H 
ATOM    118  H23 UNL A   1      60.678  18.835  15.971  1.00  0.00    +0.000 H 
ATOM    119  H24 UNL A   1      56.908  19.464  14.376  1.00  0.00    +0.000 H 
ATOM    120  H25 UNL A   1      51.110  22.094  14.806  1.00  0.00    +0.000 H 
ATOM    121  H26 UNL A   1      51.040  21.042  12.495  1.00  0.00    +0.000 H 
ATOM    122  H27 UNL A   1      54.819  20.360  14.090  1.00  0.00    +0.000 H 
ATOM    123  H28 UNL A   1      54.753  22.368  18.701  1.00  0.00    +0.000 H 
ATOM    124  H29 UNL A   1      57.205  21.660  18.901  1.00  0.00    +0.000 H 
ATOM    125  H30 UNL A   1      56.741  17.211   9.906  1.00  0.00    +0.000 H 
ATOM    126  H31 UNL A   1      54.472  18.320   9.479  1.00  0.00    +0.000 H 
ENDROOT
BRANCH   28   27
ATOM    115  H20 UNL A   1      51.135  21.224   8.011  1.00  0.00    +0.000 H 
ATOM    116  H21 UNL A   1      52.881  21.435   9.684  1.00  0.00    +0.000 H 
ATOM     85  C57 UNL A   1      51.645  18.451  10.601  1.00  0.00    +0.000 C 
ATOM     86  C58 UNL A   1      50.699  18.295   9.590  1.00  0.00    +0.000 C 
ATOM     24  C15 UNL A   1      50.473  19.332   8.681  1.00  0.00    +0.000 C 
ATOM     25  C16 UNL A   1      51.276  20.475   8.707  1.00  0.00    +0.000 C 
ATOM     26  C17 UNL A   1      52.271  20.603   9.679  1.00  0.00    +0.000 C 
ATOM     27  C18 UNL A   1      52.444  19.604  10.651  1.00  0.00    +0.000 C 
ATOM    127  H32 UNL A   1      51.759  17.715  11.315  1.00  0.00    +0.000 H 
ATOM    128  H33 UNL A   1      50.166  17.415   9.514  1.00  0.00    +0.000 H 
BRANCH   24   22
ATOM     22  C14 UNL A   1      49.404  19.240   7.663  1.00  0.00    +0.000 C 
ATOM     23  O4  UNL A   1      48.547  20.116   7.600  1.00  0.00    +0.000 O 
BRANCH   22   21
ATOM    114  H19 UNL A   1      49.647  17.310   7.191  1.00  0.00    +0.000 H 
ATOM     21  N4  UNL A   1      49.360  18.170   6.807  1.00  0.00    +0.000 N 
BRANCH   21   20
ATOM    113  H18 UNL A   1      49.800  18.387   4.818  1.00  0.00    +0.000 H 
ATOM     20  C13 UNL A   1      48.952  18.123   5.414  1.00  0.00    +0.000 C 
ATOM    112  H17 UNL A   1      48.141  18.808   5.271  1.00  0.00    +0.000 H 
BRANCH   20   19
ATOM     19  C12 UNL A   1      48.499  16.731   4.987  1.00  0.00    +0.000 C 
ATOM    110  H15 UNL A   1      49.297  16.277   4.436  1.00  0.00    +0.000 H 
ATOM    111  H16 UNL A   1      48.251  16.210   5.887  1.00  0.00    +0.000 H 
BRANCH   19   18
ATOM     18  C11 UNL A   1      47.241  16.696   4.114  1.00  0.00    +0.000 C 
ATOM    108  H13 UNL A   1      47.493  17.106   3.158  1.00  0.00    +0.000 H 
ATOM    109  H14 UNL A   1      46.938  15.672   4.079  1.00  0.00    +0.000 H 
BRANCH   18   17
ATOM     17  C10 UNL A   1      46.037  17.472   4.658  1.00  0.00    +0.000 C 
ATOM    106  H11 UNL A   1      46.170  17.591   5.712  1.00  0.00    +0.000 H 
ATOM    107  H12 UNL A   1      46.016  18.396   4.119  1.00  0.00    +0.000 H 
BRANCH   17   16
ATOM    105  H10 UNL A   1      44.533  16.117   5.223  1.00  0.00    +0.000 H 
ATOM    104  H9  UNL A   1      44.683  16.356   3.460  1.00  0.00    +0.000 H 
ATOM     16  C9  UNL A   1      44.672  16.817   4.426  1.00  0.00    +0.000 C 
BRANCH   16   15
ATOM    103  H8  UNL A   1      43.772  18.639   5.045  1.00  0.00    +0.000 H 
ATOM    102  H7  UNL A   1      42.658  17.284   4.946  1.00  0.00    +0.000 H 
ATOM     15  C8  UNL A   1      43.487  17.776   4.481  1.00  0.00    +0.000 C 
BRANCH   15   14
ATOM    101  H6  UNL A   1      43.316  17.530   2.461  1.00  0.00    +0.000 H 
ATOM     14  N3  UNL A   1      43.102  18.198   3.152  1.00  0.00    +0.000 N 
BRANCH   14   12
ATOM     12  C7  UNL A   1      42.505  19.321   2.640  1.00  0.00    +0.000 C 
ATOM     13  O3  UNL A   1      43.217  20.309   2.474  1.00  0.00    +0.000 O 
BRANCH   12   11
ATOM    129  H34 UNL A   1      39.974  18.998   4.140  1.00  0.00    +0.000 H 
ATOM    130  H35 UNL A   1      40.026  17.670   3.098  1.00  0.00    +0.000 H 
ATOM    131  H36 UNL A   1      38.127  18.560   1.867  1.00  0.00    +0.000 H 
ATOM      9  N1  UNL A   1      39.252  20.301   1.516  1.00  0.00    +0.000 N 
ATOM     10  N2  UNL A   1      40.603  20.215   1.384  1.00  0.00    +0.000 N 
ATOM     11  C6  UNL A   1      41.020  19.436   2.336  1.00  0.00    +0.000 C 
ATOM     87  C59 UNL A   1      39.949  18.736   3.103  1.00  0.00    +0.000 C 
ATOM     88  C60 UNL A   1      38.694  19.285   2.414  1.00  0.00    +0.000 C 
BRANCH    9    8
ATOM     99  H4  UNL A   1      38.660  22.760  -2.279  1.00  0.00    +0.000 H 
ATOM    100  H5  UNL A   1      40.067  21.806  -0.545  1.00  0.00    +0.000 H 
ATOM      5  C2  UNL A   1      36.859  21.963  -1.508  1.00  0.00    +0.000 C 
ATOM      6  C3  UNL A   1      38.240  22.187  -1.531  1.00  0.00    +0.000 C 
ATOM      7  C4  UNL A   1      39.050  21.630  -0.533  1.00  0.00    +0.000 C 
ATOM    136  H41 UNL A   1      35.270  21.020  -0.486  1.00  0.00    +0.000 H 
ATOM    135  H40 UNL A   1      36.685  20.058   1.222  1.00  0.00    +0.000 H 
ATOM      8  C5  UNL A   1      38.496  20.838   0.479  1.00  0.00    +0.000 C 
ATOM     94  C65 UNL A   1      37.109  20.633   0.478  1.00  0.00    +0.000 C 
ATOM     95  C66 UNL A   1      36.289  21.186  -0.504  1.00  0.00    +0.000 C 
BRANCH    5    2
ATOM      2  S1  UNL A   1      35.863  22.736  -2.758  1.00  0.00    +0.000 S 
ATOM      3  O1  UNL A   1      35.978  21.909  -3.943  1.00  0.00    +0.000 O 
ATOM      4  O2  UNL A   1      36.234  24.138  -2.780  1.00  0.00    +0.000 O 
BRANCH    2    1
ATOM      1  C1  UNL A   1      34.181  22.650  -2.204  1.00  0.00    +0.000 C 
ATOM     98  H3  UNL A   1      34.037  21.752  -1.639  1.00  0.00    +0.000 H 
ATOM     97  H2  UNL A   1      33.964  23.497  -1.589  1.00  0.00    +0.000 H 
ATOM     96  H1  UNL A   1      33.527  22.646  -3.051  1.00  0.00    +0.000 H 
ENDBRANCH    2    1
ENDBRANCH    5    2
ENDBRANCH    9    8
BRANCH   88   89
ATOM    132  H37 UNL A   1      36.370  18.104   3.952  1.00  0.00    +0.000 H 
ATOM    133  H38 UNL A   1      35.089  19.945   5.368  1.00  0.00    +0.000 H 
ATOM    134  H39 UNL A   1      36.366  22.164   5.030  1.00  0.00    +0.000 H 
ATOM     89  C61 UNL A   1      37.654  19.751   3.390  1.00  0.00    +0.000 C 
ATOM     90  C62 UNL A   1      36.608  19.106   4.022  1.00  0.00    +0.000 C 
ATOM     91  C63 UNL A   1      35.928  20.086   4.784  1.00  0.00    +0.000 C 
ATOM     92  C64 UNL A   1      36.612  21.262   4.592  1.00  0.00    +0.000 C 
ATOM     93  O5  UNL A   1      37.653  21.072   3.746  1.00  0.00    +0.000 O 
ENDBRANCH   88   89
ENDBRANCH   12   11
ENDBRANCH   14   12
ENDBRANCH   15   14
ENDBRANCH   16   15
ENDBRANCH   17   16
ENDBRANCH   18   17
ENDBRANCH   19   18
ENDBRANCH   20   19
ENDBRANCH   21   20
ENDBRANCH   22   21
ENDBRANCH   24   22
ENDBRANCH   28   27
BRANCH   32   33
ATOM     33  C23 UNL A   1      58.896  17.146  11.396  1.00  0.00    +0.000 C 
ATOM     34  C24 UNL A   1      58.930  15.747  11.522  1.00  0.00    +0.000 C 
ATOM     35  F1  UNL A   1      58.188  15.137  12.459  1.00  0.00    +0.000 F 
ATOM     36  C25 UNL A   1      59.764  14.975  10.719  1.00  0.00    +0.000 C 
ATOM     37  F2  UNL A   1      59.823  13.648  10.900  1.00  0.00    +0.000 F 
ATOM     38  C26 UNL A   1      60.550  15.578   9.750  1.00  0.00    +0.000 C 
ATOM     39  F3  UNL A   1      61.355  14.833   8.979  1.00  0.00    +0.000 F 
ATOM     40  C27 UNL A   1      60.511  16.954   9.586  1.00  0.00    +0.000 C 
ATOM     41  F4  UNL A   1      61.262  17.537   8.641  1.00  0.00    +0.000 F 
ATOM     42  C28 UNL A   1      59.700  17.733  10.408  1.00  0.00    +0.000 C 
ATOM     43  F5  UNL A   1      59.703  19.064  10.240  1.00  0.00    +0.000 F 
ENDBRANCH   32   33
BRANCH   49   50
ATOM     50  C34 UNL A   1      59.213  20.346  17.859  1.00  0.00    +0.000 C 
ATOM     51  C35 UNL A   1      59.498  19.319  18.770  1.00  0.00    +0.000 C 
ATOM     52  F6  UNL A   1      58.836  18.154  18.701  1.00  0.00    +0.000 F 
ATOM     53  C36 UNL A   1      60.439  19.499  19.781  1.00  0.00    +0.000 C 
ATOM     54  F7  UNL A   1      60.663  18.519  20.666  1.00  0.00    +0.000 F 
ATOM     55  C37 UNL A   1      61.134  20.695  19.879  1.00  0.00    +0.000 C 
ATOM     56  F8  UNL A   1      62.044  20.864  20.848  1.00  0.00    +0.000 F 
ATOM     57  C38 UNL A   1      60.880  21.719  18.978  1.00  0.00    +0.000 C 
ATOM     58  F9  UNL A   1      61.559  22.871  19.066  1.00  0.00    +0.000 F 
ATOM     59  C39 UNL A   1      59.921  21.552  17.984  1.00  0.00    +0.000 C 
ATOM     60  F10 UNL A   1      59.689  22.563  17.134  1.00  0.00    +0.000 F 
ENDBRANCH   49   50
BRANCH   64   65
ATOM     65  C43 UNL A   1      52.599  22.408  17.070  1.00  0.00    +0.000 C 
ATOM     66  C44 UNL A   1      52.425  23.793  16.950  1.00  0.00    +0.000 C 
ATOM     67  F11 UNL A   1      53.169  24.487  16.076  1.00  0.00    +0.000 F 
ATOM     68  C45 UNL A   1      51.505  24.474  17.744  1.00  0.00    +0.000 C 
ATOM     69  F12 UNL A   1      51.378  25.803  17.629  1.00  0.00    +0.000 F 
ATOM     70  C46 UNL A   1      50.726  23.779  18.658  1.00  0.00    +0.000 C 
ATOM     71  F13 UNL A   1      49.832  24.432  19.412  1.00  0.00    +0.000 F 
ATOM     72  C47 UNL A   1      50.875  22.407  18.787  1.00  0.00    +0.000 C 
ATOM     73  F14 UNL A   1      50.113  21.729  19.657  1.00  0.00    +0.000 F 
ATOM     74  C48 UNL A   1      51.811  21.728  18.011  1.00  0.00    +0.000 C 
ATOM     75  F15 UNL A   1      51.935  20.401  18.157  1.00  0.00    +0.000 F 
ENDBRANCH   64   65
TORSDOF 19
ENDMDL
MODEL 7
REMARK VINA RESULT:     -11.0     42.702     47.978
ROOT
ATOM     28  C19 UNL A   1      25.011  38.940  46.466  1.00  0.00    +0.000 C 
ATOM     29  C20 UNL A   1      25.184  40.312  47.053  1.00  0.00    +0.000 C 
ATOM     30  N5  UNL A   1      26.283  40.996  47.250  1.00  0.00    +0.000 N 
ATOM     31  C21 UNL A   1      25.877  42.217  47.770  1.00  0.00    +0.000 C 
ATOM     32  C22 UNL A   1      26.643  43.250  48.202  1.00  0.00    +0.000 C 
ATOM     44  C29 UNL A   1      28.082  43.252  48.187  1.00  0.00    +0.000 C 
ATOM     45  C30 UNL A   1      28.950  44.218  48.662  1.00  0.00    +0.000 C 
ATOM     46  C31 UNL A   1      30.259  43.804  48.388  1.00  0.00    +0.000 C 
ATOM     47  C32 UNL A   1      30.208  42.558  47.785  1.00  0.00    +0.000 C 
ATOM     48  N6  UNL A   1      28.866  42.233  47.664  1.00  0.00    +0.000 N 
ATOM     49  C33 UNL A   1      31.301  41.724  47.352  1.00  0.00    +0.000 C 
ATOM     61  C40 UNL A   1      31.168  40.502  46.779  1.00  0.00    +0.000 C 
ATOM     62  N7  UNL A   1      30.009  39.801  46.481  1.00  0.00    +0.000 N 
ATOM     63  C41 UNL A   1      30.398  38.679  45.926  1.00  0.00    +0.000 C 
ATOM     64  C42 UNL A   1      29.565  37.532  45.423  1.00  0.00    +0.000 C 
ATOM     76  C49 UNL A   1      28.230  37.567  45.585  1.00  0.00    +0.000 C 
ATOM     77  C50 UNL A   1      27.300  36.520  45.168  1.00  0.00    +0.000 C 
ATOM     78  C51 UNL A   1      26.047  36.916  45.439  1.00  0.00    +0.000 C 
ATOM     79  C52 UNL A   1      26.087  38.233  46.075  1.00  0.00    +0.000 C 
ATOM     80  N8  UNL A   1      27.426  38.531  46.139  1.00  0.00    +0.000 N 
ATOM     81  C53 UNL A   1      31.855  38.549  45.791  1.00  0.00    +0.000 C 
ATOM     82  C54 UNL A   1      32.278  39.672  46.356  1.00  0.00    +0.000 C 
ATOM     83  C55 UNL A   1      24.431  42.203  47.805  1.00  0.00    +0.000 C 
ATOM     84  C56 UNL A   1      23.956  41.022  47.439  1.00  0.00    +0.000 C 
ATOM    117  H22 UNL A   1      28.680  45.095  49.136  1.00  0.00    +0.000 H 
ATOM    118  H23 UNL A   1      31.118  44.337  48.602  1.00  0.00    +0.000 H 
ATOM    119  H24 UNL A   1      28.520  41.402  47.266  1.00  0.00    +0.000 H 
ATOM    120  H25 UNL A   1      27.564  35.622  44.735  1.00  0.00    +0.000 H 
ATOM    121  H26 UNL A   1      25.190  36.378  45.231  1.00  0.00    +0.000 H 
ATOM    122  H27 UNL A   1      27.775  39.359  46.543  1.00  0.00    +0.000 H 
ATOM    123  H28 UNL A   1      32.406  37.786  45.367  1.00  0.00    +0.000 H 
ATOM    124  H29 UNL A   1      33.271  39.923  46.480  1.00  0.00    +0.000 H 
ATOM    125  H30 UNL A   1      23.846  43.008  48.079  1.00  0.00    +0.000 H 
ATOM    126  H31 UNL A   1      22.980  40.687  47.428  1.00  0.00    +0.000 H 
ENDROOT
BRANCH   28   27
ATOM    115  H20 UNL A   1      21.399  37.782  43.824  1.00  0.00    +0.000 H 
ATOM    116  H21 UNL A   1      23.669  38.582  44.139  1.00  0.00    +0.000 H 
ATOM     85  C57 UNL A   1      22.897  37.945  47.343  1.00  0.00    +0.000 C 
ATOM     86  C58 UNL A   1      21.624  37.409  47.151  1.00  0.00    +0.000 C 
ATOM     24  C15 UNL A   1      21.056  37.405  45.875  1.00  0.00    +0.000 C 
ATOM     25  C16 UNL A   1      21.805  37.823  44.771  1.00  0.00    +0.000 C 
ATOM     26  C17 UNL A   1      23.106  38.297  44.955  1.00  0.00    +0.000 C 
ATOM     27  C18 UNL A   1      23.651  38.388  46.246  1.00  0.00    +0.000 C 
ATOM    127  H32 UNL A   1      23.285  38.015  48.296  1.00  0.00    +0.000 H 
ATOM    128  H33 UNL A   1      21.103  37.018  47.951  1.00  0.00    +0.000 H 
BRANCH   24   22
ATOM     22  C14 UNL A   1      19.668  36.941  45.655  1.00  0.00    +0.000 C 
ATOM     23  O4  UNL A   1      18.751  37.756  45.632  1.00  0.00    +0.000 O 
BRANCH   22   21
ATOM    114  H19 UNL A   1      18.484  35.383  45.237  1.00  0.00    +0.000 H 
ATOM     21  N4  UNL A   1      19.407  35.604  45.498  1.00  0.00    +0.000 N 
BRANCH   21   20
ATOM    113  H18 UNL A   1      21.243  34.733  45.240  1.00  0.00    +0.000 H 
ATOM     20  C13 UNL A   1      20.296  34.468  45.662  1.00  0.00    +0.000 C 
ATOM    112  H17 UNL A   1      19.867  33.622  45.165  1.00  0.00    +0.000 H 
BRANCH   20   19
ATOM     19  C12 UNL A   1      20.522  34.112  47.127  1.00  0.00    +0.000 C 
ATOM    110  H15 UNL A   1      20.411  35.006  47.706  1.00  0.00    +0.000 H 
ATOM    111  H16 UNL A   1      19.801  33.358  47.364  1.00  0.00    +0.000 H 
BRANCH   19   18
ATOM     18  C11 UNL A   1      21.891  33.508  47.446  1.00  0.00    +0.000 C 
ATOM    108  H13 UNL A   1      22.595  33.893  46.736  1.00  0.00    +0.000 H 
ATOM    109  H14 UNL A   1      22.104  33.781  48.457  1.00  0.00    +0.000 H 
BRANCH   18   17
ATOM     17  C10 UNL A   1      21.966  31.978  47.400  1.00  0.00    +0.000 C 
ATOM    106  H11 UNL A   1      22.115  31.625  48.399  1.00  0.00    +0.000 H 
ATOM    107  H12 UNL A   1      21.047  31.652  46.961  1.00  0.00    +0.000 H 
BRANCH   17   16
ATOM    105  H10 UNL A   1      23.029  30.335  46.633  1.00  0.00    +0.000 H 
ATOM    104  H9  UNL A   1      24.012  31.808  46.855  1.00  0.00    +0.000 H 
ATOM     16  C9  UNL A   1      23.081  31.398  46.524  1.00  0.00    +0.000 C 
BRANCH   16   15
ATOM    103  H8  UNL A   1      23.771  31.257  44.519  1.00  0.00    +0.000 H 
ATOM    102  H7  UNL A   1      22.911  32.747  44.882  1.00  0.00    +0.000 H 
ATOM     15  C8  UNL A   1      22.937  31.688  45.034  1.00  0.00    +0.000 C 
BRANCH   15   14
ATOM    101  H6  UNL A   1      21.440  31.507  43.657  1.00  0.00    +0.000 H 
ATOM     14  N3  UNL A   1      21.720  31.105  44.510  1.00  0.00    +0.000 N 
BRANCH   14   12
ATOM     12  C7  UNL A   1      20.870  30.119  44.939  1.00  0.00    +0.000 C 
ATOM     13  O3  UNL A   1      21.375  29.148  45.499  1.00  0.00    +0.000 O 
BRANCH   12   11
ATOM    129  H34 UNL A   1      18.772  32.155  44.481  1.00  0.00    +0.000 H 
ATOM    130  H35 UNL A   1      18.467  31.569  46.035  1.00  0.00    +0.000 H 
ATOM    131  H36 UNL A   1      16.393  30.568  45.252  1.00  0.00    +0.000 H 
ATOM      9  N1  UNL A   1      17.522  29.482  43.849  1.00  0.00    +0.000 N 
ATOM     10  N2  UNL A   1      18.788  29.094  44.158  1.00  0.00    +0.000 N 
ATOM     11  C6  UNL A   1      19.369  30.122  44.701  1.00  0.00    +0.000 C 
ATOM     87  C59 UNL A   1      18.473  31.273  45.007  1.00  0.00    +0.000 C 
ATOM     88  C60 UNL A   1      17.130  30.739  44.494  1.00  0.00    +0.000 C 
BRANCH    9    8
ATOM     99  H4  UNL A   1      14.614  26.092  44.772  1.00  0.00    +0.000 H 
ATOM    100  H5  UNL A   1      16.209  27.790  45.458  1.00  0.00    +0.000 H 
ATOM      5  C2  UNL A   1      14.753  26.538  42.710  1.00  0.00    +0.000 C 
ATOM      6  C3  UNL A   1      15.060  26.697  44.066  1.00  0.00    +0.000 C 
ATOM      7  C4  UNL A   1      15.975  27.682  44.459  1.00  0.00    +0.000 C 
ATOM    136  H41 UNL A   1      15.120  27.240  40.752  1.00  0.00    +0.000 H 
ATOM    135  H40 UNL A   1      16.690  28.942  41.451  1.00  0.00    +0.000 H 
ATOM      8  C5  UNL A   1      16.575  28.521  43.512  1.00  0.00    +0.000 C 
ATOM     94  C65 UNL A   1      16.250  28.336  42.161  1.00  0.00    +0.000 C 
ATOM     95  C66 UNL A   1      15.346  27.356  41.753  1.00  0.00    +0.000 C 
BRANCH    5    2
ATOM      2  S1  UNL A   1      13.633  25.239  42.250  1.00  0.00    +0.000 S 
ATOM      3  O1  UNL A   1      13.420  25.369  40.822  1.00  0.00    +0.000 O 
ATOM      4  O2  UNL A   1      12.525  25.293  43.184  1.00  0.00    +0.000 O 
BRANCH    2    1
ATOM      1  C1  UNL A   1      14.478  23.706  42.530  1.00  0.00    +0.000 C 
ATOM     98  H3  UNL A   1      14.049  23.212  43.378  1.00  0.00    +0.000 H 
ATOM     97  H2  UNL A   1      14.381  23.083  41.667  1.00  0.00    +0.000 H 
ATOM     96  H1  UNL A   1      15.514  23.899  42.717  1.00  0.00    +0.000 H 
ENDBRANCH    2    1
ENDBRANCH    5    2
ENDBRANCH    9    8
BRANCH   88   89
ATOM    132  H37 UNL A   1      16.951  31.473  41.562  1.00  0.00    +0.000 H 
ATOM    133  H38 UNL A   1      15.360  33.557  41.164  1.00  0.00    +0.000 H 
ATOM    134  H39 UNL A   1      14.388  34.202  43.468  1.00  0.00    +0.000 H 
ATOM     89  C61 UNL A   1      16.401  31.733  43.638  1.00  0.00    +0.000 C 
ATOM     90  C62 UNL A   1      16.419  31.990  42.280  1.00  0.00    +0.000 C 
ATOM     91  C63 UNL A   1      15.564  33.097  42.065  1.00  0.00    +0.000 C 
ATOM     92  C64 UNL A   1      15.058  33.435  43.297  1.00  0.00    +0.000 C 
ATOM     93  O5  UNL A   1      15.563  32.621  44.256  1.00  0.00    +0.000 O 
ENDBRANCH   88   89
ENDBRANCH   12   11
ENDBRANCH   14   12
ENDBRANCH   15   14
ENDBRANCH   16   15
ENDBRANCH   17   16
ENDBRANCH   18   17
ENDBRANCH   19   18
ENDBRANCH   20   19
ENDBRANCH   21   20
ENDBRANCH   22   21
ENDBRANCH   24   22
ENDBRANCH   28   27
BRANCH   32   33
ATOM     33  C23 UNL A   1      25.929  44.462  48.725  1.00  0.00    +0.000 C 
ATOM     34  C24 UNL A   1      25.457  45.468  47.865  1.00  0.00    +0.000 C 
ATOM     35  F1  UNL A   1      25.655  45.371  46.542  1.00  0.00    +0.000 F 
ATOM     36  C25 UNL A   1      24.825  46.602  48.367  1.00  0.00    +0.000 C 
ATOM     37  F2  UNL A   1      24.439  47.576  47.531  1.00  0.00    +0.000 F 
ATOM     38  C26 UNL A   1      24.616  46.736  49.730  1.00  0.00    +0.000 C 
ATOM     39  F3  UNL A   1      24.010  47.830  50.212  1.00  0.00    +0.000 F 
ATOM     40  C27 UNL A   1      25.045  45.742  50.596  1.00  0.00    +0.000 C 
ATOM     41  F4  UNL A   1      24.833  45.865  51.914  1.00  0.00    +0.000 F 
ATOM     42  C28 UNL A   1      25.705  44.620  50.101  1.00  0.00    +0.000 C 
ATOM     43  F5  UNL A   1      26.130  43.687  50.967  1.00  0.00    +0.000 F 
ENDBRANCH   32   33
BRANCH   49   50
ATOM     50  C34 UNL A   1      32.696  42.232  47.567  1.00  0.00    +0.000 C 
ATOM     51  C35 UNL A   1      33.345  43.022  46.608  1.00  0.00    +0.000 C 
ATOM     52  F6  UNL A   1      32.743  43.296  45.440  1.00  0.00    +0.000 F 
ATOM     53  C36 UNL A   1      34.634  43.502  46.829  1.00  0.00    +0.000 C 
ATOM     54  F7  UNL A   1      35.251  44.218  45.881  1.00  0.00    +0.000 F 
ATOM     55  C37 UNL A   1      35.282  43.228  48.024  1.00  0.00    +0.000 C 
ATOM     56  F8  UNL A   1      36.519  43.697  48.239  1.00  0.00    +0.000 F 
ATOM     57  C38 UNL A   1      34.652  42.463  48.994  1.00  0.00    +0.000 C 
ATOM     58  F9  UNL A   1      35.274  42.207  50.154  1.00  0.00    +0.000 F 
ATOM     59  C39 UNL A   1      33.375  41.959  48.764  1.00  0.00    +0.000 C 
ATOM     60  F10 UNL A   1      32.795  41.212  49.716  1.00  0.00    +0.000 F 
ENDBRANCH   49   50
BRANCH   64   65
ATOM     65  C43 UNL A   1      30.192  36.352  44.777  1.00  0.00    +0.000 C 
ATOM     66  C44 UNL A   1      30.622  36.404  43.444  1.00  0.00    +0.000 C 
ATOM     67  F11 UNL A   1      30.423  37.516  42.720  1.00  0.00    +0.000 F 
ATOM     68  C45 UNL A   1      31.232  35.306  42.842  1.00  0.00    +0.000 C 
ATOM     69  F12 UNL A   1      31.608  35.372  41.558  1.00  0.00    +0.000 F 
ATOM     70  C46 UNL A   1      31.446  34.144  43.568  1.00  0.00    +0.000 C 
ATOM     71  F13 UNL A   1      32.045  33.092  42.993  1.00  0.00    +0.000 F 
ATOM     72  C47 UNL A   1      31.037  34.073  44.891  1.00  0.00    +0.000 C 
ATOM     73  F14 UNL A   1      31.255  32.957  45.601  1.00  0.00    +0.000 F 
ATOM     74  C48 UNL A   1      30.404  35.162  45.487  1.00  0.00    +0.000 C 
ATOM     75  F15 UNL A   1      30.018  35.065  46.768  1.00  0.00    +0.000 F 
ENDBRANCH   64   65
TORSDOF 19
ENDMDL
MODEL 8
REMARK VINA RESULT:     -10.9      3.322      5.539
ROOT
ATOM     28  C19 UNL A   1      54.929  17.194   8.915  1.00  0.00    +0.000 C 
ATOM     29  C20 UNL A   1      55.274  17.650  10.303  1.00  0.00    +0.000 C 
ATOM     30  N5  UNL A   1      56.297  17.323  11.053  1.00  0.00    +0.000 N 
ATOM     31  C21 UNL A   1      56.162  18.065  12.218  1.00  0.00    +0.000 C 
ATOM     32  C22 UNL A   1      56.931  18.036  13.334  1.00  0.00    +0.000 C 
ATOM     44  C29 UNL A   1      58.081  17.186  13.502  1.00  0.00    +0.000 C 
ATOM     45  C30 UNL A   1      58.887  17.033  14.616  1.00  0.00    +0.000 C 
ATOM     46  C31 UNL A   1      59.909  16.132  14.296  1.00  0.00    +0.000 C 
ATOM     47  C32 UNL A   1      59.714  15.689  12.998  1.00  0.00    +0.000 C 
ATOM     48  N6  UNL A   1      58.591  16.347  12.521  1.00  0.00    +0.000 N 
ATOM     49  C33 UNL A   1      60.491  14.735  12.247  1.00  0.00    +0.000 C 
ATOM     61  C40 UNL A   1      60.225  14.341  10.977  1.00  0.00    +0.000 C 
ATOM     62  N7  UNL A   1      59.197  14.744  10.137  1.00  0.00    +0.000 N 
ATOM     63  C41 UNL A   1      59.372  14.092   9.014  1.00  0.00    +0.000 C 
ATOM     64  C42 UNL A   1      58.543  14.126   7.760  1.00  0.00    +0.000 C 
ATOM     76  C49 UNL A   1      57.416  14.862   7.734  1.00  0.00    +0.000 C 
ATOM     77  C50 UNL A   1      56.505  14.973   6.599  1.00  0.00    +0.000 C 
ATOM     78  C51 UNL A   1      55.521  15.831   6.910  1.00  0.00    +0.000 C 
ATOM     79  C52 UNL A   1      55.718  16.308   8.280  1.00  0.00    +0.000 C 
ATOM     80  N8  UNL A   1      56.857  15.664   8.696  1.00  0.00    +0.000 N 
ATOM     81  C53 UNL A   1      60.548  13.211   9.007  1.00  0.00    +0.000 C 
ATOM     82  C54 UNL A   1      61.013  13.374  10.239  1.00  0.00    +0.000 C 
ATOM     83  C55 UNL A   1      54.992  18.900  12.055  1.00  0.00    +0.000 C 
ATOM     84  C56 UNL A   1      54.368  18.631  10.918  1.00  0.00    +0.000 C 
ATOM    117  H22 UNL A   1      58.757  17.501  15.526  1.00  0.00    +0.000 H 
ATOM    118  H23 UNL A   1      60.679  15.844  14.922  1.00  0.00    +0.000 H 
ATOM    119  H24 UNL A   1      58.211  16.235  11.620  1.00  0.00    +0.000 H 
ATOM    120  H25 UNL A   1      56.602  14.473   5.701  1.00  0.00    +0.000 H 
ATOM    121  H26 UNL A   1      54.749  16.111   6.285  1.00  0.00    +0.000 H 
ATOM    122  H27 UNL A   1      57.235  15.769   9.600  1.00  0.00    +0.000 H 
ATOM    123  H28 UNL A   1      60.916  12.619   8.245  1.00  0.00    +0.000 H 
ATOM    124  H29 UNL A   1      61.831  12.876  10.622  1.00  0.00    +0.000 H 
ATOM    125  H30 UNL A   1      54.685  19.614  12.735  1.00  0.00    +0.000 H 
ATOM    126  H31 UNL A   1      53.477  19.010  10.558  1.00  0.00    +0.000 H 
ENDROOT
BRANCH   28   27
ATOM    115  H20 UNL A   1      50.523  17.169   7.517  1.00  0.00    +0.000 H 
ATOM    116  H21 UNL A   1      52.388  16.261   8.776  1.00  0.00    +0.000 H 
ATOM     85  C57 UNL A   1      53.896  18.980   7.509  1.00  0.00    +0.000 C 
ATOM     86  C58 UNL A   1      52.801  19.542   6.855  1.00  0.00    +0.000 C 
ATOM     24  C15 UNL A   1      51.587  18.852   6.808  1.00  0.00    +0.000 C 
ATOM     25  C16 UNL A   1      51.431  17.658   7.519  1.00  0.00    +0.000 C 
ATOM     26  C17 UNL A   1      52.509  17.128   8.232  1.00  0.00    +0.000 C 
ATOM     27  C18 UNL A   1      53.757  17.771   8.208  1.00  0.00    +0.000 C 
ATOM    127  H32 UNL A   1      54.811  19.455   7.480  1.00  0.00    +0.000 H 
ATOM    128  H33 UNL A   1      52.889  20.466   6.404  1.00  0.00    +0.000 H 
BRANCH   24   22
ATOM     22  C14 UNL A   1      50.439  19.371   6.033  1.00  0.00    +0.000 C 
ATOM     23  O4  UNL A   1      50.418  19.237   4.814  1.00  0.00    +0.000 O 
BRANCH   22   21
ATOM    114  H19 UNL A   1      49.682  20.777   7.241  1.00  0.00    +0.000 H 
ATOM     21  N4  UNL A   1      49.414  20.018   6.673  1.00  0.00    +0.000 N 
BRANCH   21   20
ATOM    113  H18 UNL A   1      47.553  20.166   7.517  1.00  0.00    +0.000 H 
ATOM     20  C13 UNL A   1      47.989  19.743   6.636  1.00  0.00    +0.000 C 
ATOM    112  H17 UNL A   1      47.845  18.682   6.598  1.00  0.00    +0.000 H 
BRANCH   20   19
ATOM     19  C12 UNL A   1      47.305  20.374   5.429  1.00  0.00    +0.000 C 
ATOM    110  H15 UNL A   1      46.483  20.962   5.783  1.00  0.00    +0.000 H 
ATOM    111  H16 UNL A   1      48.056  20.949   4.929  1.00  0.00    +0.000 H 
BRANCH   19   18
ATOM     18  C11 UNL A   1      46.767  19.383   4.394  1.00  0.00    +0.000 C 
ATOM    108  H13 UNL A   1      47.346  19.493   3.500  1.00  0.00    +0.000 H 
ATOM    109  H14 UNL A   1      46.846  18.417   4.844  1.00  0.00    +0.000 H 
BRANCH   18   17
ATOM     17  C10 UNL A   1      45.290  19.551   4.021  1.00  0.00    +0.000 C 
ATOM    106  H11 UNL A   1      44.946  18.625   3.611  1.00  0.00    +0.000 H 
ATOM    107  H12 UNL A   1      44.790  19.836   4.923  1.00  0.00    +0.000 H 
BRANCH   17   16
ATOM    105  H10 UNL A   1      45.548  20.420   2.125  1.00  0.00    +0.000 H 
ATOM    104  H9  UNL A   1      45.268  21.595   3.440  1.00  0.00    +0.000 H 
ATOM     16  C9  UNL A   1      44.988  20.658   3.006  1.00  0.00    +0.000 C 
BRANCH   16   15
ATOM    103  H8  UNL A   1      43.481  21.222   1.619  1.00  0.00    +0.000 H 
ATOM    102  H7  UNL A   1      42.984  21.321   3.301  1.00  0.00    +0.000 H 
ATOM     15  C8  UNL A   1      43.527  20.750   2.578  1.00  0.00    +0.000 C 
BRANCH   15   14
ATOM    101  H6  UNL A   1      43.387  18.862   1.811  1.00  0.00    +0.000 H 
ATOM     14  N3  UNL A   1      42.936  19.433   2.474  1.00  0.00    +0.000 N 
BRANCH   14   12
ATOM     12  C7  UNL A   1      41.887  18.804   3.093  1.00  0.00    +0.000 C 
ATOM     13  O3  UNL A   1      42.161  17.898   3.878  1.00  0.00    +0.000 O 
BRANCH   12   11
ATOM    129  H34 UNL A   1      39.358  18.769   4.629  1.00  0.00    +0.000 H 
ATOM    130  H35 UNL A   1      39.228  17.465   3.563  1.00  0.00    +0.000 H 
ATOM    131  H36 UNL A   1      37.438  18.609   2.379  1.00  0.00    +0.000 H 
ATOM      9  N1  UNL A   1      38.766  20.203   2.040  1.00  0.00    +0.000 N 
ATOM     10  N2  UNL A   1      40.094  19.953   1.885  1.00  0.00    +0.000 N 
ATOM     11  C6  UNL A   1      40.424  19.109   2.816  1.00  0.00    +0.000 C 
ATOM     87  C59 UNL A   1      39.286  18.533   3.588  1.00  0.00    +0.000 C 
ATOM     88  C60 UNL A   1      38.099  19.247   2.929  1.00  0.00    +0.000 C 
BRANCH    9    8
ATOM     99  H4  UNL A   1      35.139  20.915  -0.630  1.00  0.00    +0.000 H 
ATOM    100  H5  UNL A   1      36.258  19.779   1.201  1.00  0.00    +0.000 H 
ATOM      5  C2  UNL A   1      36.789  22.146  -1.114  1.00  0.00    +0.000 C 
ATOM      6  C3  UNL A   1      36.110  21.162  -0.386  1.00  0.00    +0.000 C 
ATOM      7  C4  UNL A   1      36.756  20.513   0.674  1.00  0.00    +0.000 C 
ATOM    136  H41 UNL A   1      38.599  23.214  -1.320  1.00  0.00    +0.000 H 
ATOM    135  H40 UNL A   1      39.694  22.091   0.521  1.00  0.00    +0.000 H 
ATOM      8  C5  UNL A   1      38.069  20.850   1.026  1.00  0.00    +0.000 C 
ATOM     94  C65 UNL A   1      38.724  21.838   0.278  1.00  0.00    +0.000 C 
ATOM     95  C66 UNL A   1      38.097  22.488  -0.784  1.00  0.00    +0.000 C 
BRANCH    5    2
ATOM      2  S1  UNL A   1      35.953  22.901  -2.486  1.00  0.00    +0.000 S 
ATOM      3  O1  UNL A   1      36.482  24.246  -2.598  1.00  0.00    +0.000 O 
ATOM      4  O2  UNL A   1      34.536  22.663  -2.294  1.00  0.00    +0.000 O 
BRANCH    2    1
ATOM      1  C1  UNL A   1      36.440  22.010  -3.940  1.00  0.00    +0.000 C 
ATOM     98  H3  UNL A   1      37.031  21.163  -3.658  1.00  0.00    +0.000 H 
ATOM     97  H2  UNL A   1      35.568  21.679  -4.463  1.00  0.00    +0.000 H 
ATOM     96  H1  UNL A   1      37.016  22.651  -4.574  1.00  0.00    +0.000 H 
ENDBRANCH    2    1
ENDBRANCH    5    2
ENDBRANCH    9    8
BRANCH   88   89
ATOM    132  H37 UNL A   1      35.944  18.241   4.803  1.00  0.00    +0.000 H 
ATOM    133  H38 UNL A   1      34.754  20.229   6.093  1.00  0.00    +0.000 H 
ATOM    134  H39 UNL A   1      35.949  22.403   5.373  1.00  0.00    +0.000 H 
ATOM     89  C61 UNL A   1      37.139  19.820   3.931  1.00  0.00    +0.000 C 
ATOM     90  C62 UNL A   1      36.166  19.246   4.728  1.00  0.00    +0.000 C 
ATOM     91  C63 UNL A   1      35.536  20.306   5.423  1.00  0.00    +0.000 C 
ATOM     92  C64 UNL A   1      36.174  21.457   5.027  1.00  0.00    +0.000 C 
ATOM     93  O5  UNL A   1      37.141  21.174   4.121  1.00  0.00    +0.000 O 
ENDBRANCH   88   89
ENDBRANCH   12   11
ENDBRANCH   14   12
ENDBRANCH   15   14
ENDBRANCH   16   15
ENDBRANCH   17   16
ENDBRANCH   18   17
ENDBRANCH   19   18
ENDBRANCH   20   19
ENDBRANCH   21   20
ENDBRANCH   22   21
ENDBRANCH   24   22
ENDBRANCH   28   27
BRANCH   32   33
ATOM     33  C23 UNL A   1      56.547  18.954  14.457  1.00  0.00    +0.000 C 
ATOM     34  C24 UNL A   1      56.766  20.339  14.384  1.00  0.00    +0.000 C 
ATOM     35  F1  UNL A   1      57.349  20.873  13.300  1.00  0.00    +0.000 F 
ATOM     36  C25 UNL A   1      56.434  21.175  15.447  1.00  0.00    +0.000 C 
ATOM     37  F2  UNL A   1      56.710  22.485  15.377  1.00  0.00    +0.000 F 
ATOM     38  C26 UNL A   1      55.842  20.651  16.585  1.00  0.00    +0.000 C 
ATOM     39  F3  UNL A   1      55.525  21.457  17.609  1.00  0.00    +0.000 F 
ATOM     40  C27 UNL A   1      55.587  19.291  16.668  1.00  0.00    +0.000 C 
ATOM     41  F4  UNL A   1      55.003  18.785  17.763  1.00  0.00    +0.000 F 
ATOM     42  C28 UNL A   1      55.945  18.447  15.619  1.00  0.00    +0.000 C 
ATOM     43  F5  UNL A   1      55.708  17.132  15.740  1.00  0.00    +0.000 F 
ENDBRANCH   32   33
BRANCH   49   50
ATOM     50  C34 UNL A   1      61.677  14.112  12.923  1.00  0.00    +0.000 C 
ATOM     51  C35 UNL A   1      61.558  12.933  13.673  1.00  0.00    +0.000 C 
ATOM     52  F6  UNL A   1      60.356  12.362  13.847  1.00  0.00    +0.000 F 
ATOM     53  C36 UNL A   1      62.670  12.355  14.280  1.00  0.00    +0.000 C 
ATOM     54  F7  UNL A   1      62.526  11.253  15.027  1.00  0.00    +0.000 F 
ATOM     55  C37 UNL A   1      63.924  12.927  14.122  1.00  0.00    +0.000 C 
ATOM     56  F8  UNL A   1      64.994  12.366  14.701  1.00  0.00    +0.000 F 
ATOM     57  C38 UNL A   1      64.067  14.084  13.371  1.00  0.00    +0.000 C 
ATOM     58  F9  UNL A   1      65.280  14.631  13.210  1.00  0.00    +0.000 F 
ATOM     59  C39 UNL A   1      62.953  14.679  12.787  1.00  0.00    +0.000 C 
ATOM     60  F10 UNL A   1      63.120  15.804  12.075  1.00  0.00    +0.000 F 
ENDBRANCH   49   50
BRANCH   64   65
ATOM     65  C43 UNL A   1      58.930  13.342   6.560  1.00  0.00    +0.000 C 
ATOM     66  C44 UNL A   1      59.670  13.928   5.524  1.00  0.00    +0.000 C 
ATOM     67  F11 UNL A   1      59.996  15.227   5.587  1.00  0.00    +0.000 F 
ATOM     68  C45 UNL A   1      60.056  13.188   4.409  1.00  0.00    +0.000 C 
ATOM     69  F12 UNL A   1      60.739  13.779   3.419  1.00  0.00    +0.000 F 
ATOM     70  C46 UNL A   1      59.729  11.843   4.319  1.00  0.00    +0.000 C 
ATOM     71  F13 UNL A   1      60.112  11.128   3.252  1.00  0.00    +0.000 F 
ATOM     72  C47 UNL A   1      59.005  11.240   5.336  1.00  0.00    +0.000 C 
ATOM     73  F14 UNL A   1      58.700   9.937   5.260  1.00  0.00    +0.000 F 
ATOM     74  C48 UNL A   1      58.597  11.985   6.440  1.00  0.00    +0.000 C 
ATOM     75  F15 UNL A   1      57.897  11.377   7.409  1.00  0.00    +0.000 F 
ENDBRANCH   64   65
TORSDOF 19
ENDMDL
MODEL 9
REMARK VINA RESULT:     -10.9     48.235     57.469
ROOT
ATOM     28  C19 UNL A   1       2.019  10.621  38.269  1.00  0.00    +0.000 C 
ATOM     29  C20 UNL A   1       3.095   9.579  38.362  1.00  0.00    +0.000 C 
ATOM     30  N5  UNL A   1       3.102   8.351  37.906  1.00  0.00    +0.000 N 
ATOM     31  C21 UNL A   1       4.355   7.841  38.218  1.00  0.00    +0.000 C 
ATOM     32  C22 UNL A   1       4.833   6.588  38.016  1.00  0.00    +0.000 C 
ATOM     44  C29 UNL A   1       4.080   5.523  37.406  1.00  0.00    +0.000 C 
ATOM     45  C30 UNL A   1       4.447   4.203  37.216  1.00  0.00    +0.000 C 
ATOM     46  C31 UNL A   1       3.409   3.552  36.541  1.00  0.00    +0.000 C 
ATOM     47  C32 UNL A   1       2.375   4.454  36.351  1.00  0.00    +0.000 C 
ATOM     48  N6  UNL A   1       2.801   5.661  36.883  1.00  0.00    +0.000 N 
ATOM     49  C33 UNL A   1       1.092   4.234  35.732  1.00  0.00    +0.000 C 
ATOM     61  C40 UNL A   1       0.122   5.171  35.596  1.00  0.00    +0.000 C 
ATOM     62  N7  UNL A   1       0.132   6.500  35.995  1.00  0.00    +0.000 N 
ATOM     63  C41 UNL A   1      -1.027   6.995  35.633  1.00  0.00    +0.000 C 
ATOM     64  C42 UNL A   1      -1.567   8.384  35.830  1.00  0.00    +0.000 C 
ATOM     76  C49 UNL A   1      -0.837   9.284  36.515  1.00  0.00    +0.000 C 
ATOM     77  C50 UNL A   1      -1.241  10.657  36.802  1.00  0.00    +0.000 C 
ATOM     78  C51 UNL A   1      -0.248  11.278  37.457  1.00  0.00    +0.000 C 
ATOM     79  C52 UNL A   1       0.853  10.334  37.662  1.00  0.00    +0.000 C 
ATOM     80  N8  UNL A   1       0.405   9.171  37.087  1.00  0.00    +0.000 N 
ATOM     81  C53 UNL A   1      -1.901   6.036  34.944  1.00  0.00    +0.000 C 
ATOM     82  C54 UNL A   1      -1.167   4.931  34.977  1.00  0.00    +0.000 C 
ATOM     83  C55 UNL A   1       5.100   8.906  38.852  1.00  0.00    +0.000 C 
ATOM     84  C56 UNL A   1       4.344   9.979  39.028  1.00  0.00    +0.000 C 
ATOM    117  H22 UNL A   1       5.335   3.772  37.520  1.00  0.00    +0.000 H 
ATOM    118  H23 UNL A   1       3.412   2.565  36.237  1.00  0.00    +0.000 H 
ATOM    119  H24 UNL A   1       2.275   6.493  36.890  1.00  0.00    +0.000 H 
ATOM    120  H25 UNL A   1      -2.144  11.083  36.542  1.00  0.00    +0.000 H 
ATOM    121  H26 UNL A   1      -0.256  12.262  37.767  1.00  0.00    +0.000 H 
ATOM    122  H27 UNL A   1       0.927   8.335  37.085  1.00  0.00    +0.000 H 
ATOM    123  H28 UNL A   1      -2.839   6.181  34.540  1.00  0.00    +0.000 H 
ATOM    124  H29 UNL A   1      -1.474   4.017  34.610  1.00  0.00    +0.000 H 
ATOM    125  H30 UNL A   1       6.092   8.840  39.129  1.00  0.00    +0.000 H 
ATOM    126  H31 UNL A   1       4.570  10.864  39.508  1.00  0.00    +0.000 H 
ENDROOT
BRANCH   28   27
ATOM    115  H20 UNL A   1       1.785  13.934  41.485  1.00  0.00    +0.000 H 
ATOM    116  H21 UNL A   1       1.480  11.652  40.717  1.00  0.00    +0.000 H 
ATOM     85  C57 UNL A   1       2.873  12.945  37.950  1.00  0.00    +0.000 C 
ATOM     86  C58 UNL A   1       3.122  14.233  38.421  1.00  0.00    +0.000 C 
ATOM     24  C15 UNL A   1       2.672  14.610  39.689  1.00  0.00    +0.000 C 
ATOM     25  C16 UNL A   1       2.081  13.665  40.534  1.00  0.00    +0.000 C 
ATOM     26  C17 UNL A   1       1.893  12.356  40.086  1.00  0.00    +0.000 C 
ATOM     27  C18 UNL A   1       2.261  11.994  38.781  1.00  0.00    +0.000 C 
ATOM    127  H32 UNL A   1       3.140  12.691  36.986  1.00  0.00    +0.000 H 
ATOM    128  H33 UNL A   1       3.637  14.907  37.833  1.00  0.00    +0.000 H 
BRANCH   24   22
ATOM     22  C14 UNL A   1       2.826  15.998  40.176  1.00  0.00    +0.000 C 
ATOM     23  O4  UNL A   1       1.833  16.702  40.334  1.00  0.00    +0.000 O 
BRANCH   22   21
ATOM    114  H19 UNL A   1       4.415  17.144  39.766  1.00  0.00    +0.000 H 
ATOM     21  N4  UNL A   1       4.076  16.502  40.431  1.00  0.00    +0.000 N 
BRANCH   21   20
ATOM    113  H18 UNL A   1       4.519  15.462  42.139  1.00  0.00    +0.000 H 
ATOM     20  C13 UNL A   1       4.971  16.224  41.540  1.00  0.00    +0.000 C 
ATOM    112  H17 UNL A   1       5.118  17.126  42.097  1.00  0.00    +0.000 H 
BRANCH   20   19
ATOM     19  C12 UNL A   1       6.328  15.707  41.077  1.00  0.00    +0.000 C 
ATOM    110  H15 UNL A   1       6.935  15.546  41.944  1.00  0.00    +0.000 H 
ATOM    111  H16 UNL A   1       6.133  14.814  40.521  1.00  0.00    +0.000 H 
BRANCH   19   18
ATOM     18  C11 UNL A   1       7.091  16.639  40.131  1.00  0.00    +0.000 C 
ATOM    108  H13 UNL A   1       6.789  16.411  39.130  1.00  0.00    +0.000 H 
ATOM    109  H14 UNL A   1       6.848  17.633  40.440  1.00  0.00    +0.000 H 
BRANCH   18   17
ATOM     17  C10 UNL A   1       8.619  16.541  40.196  1.00  0.00    +0.000 C 
ATOM    106  H11 UNL A   1       8.879  16.045  41.107  1.00  0.00    +0.000 H 
ATOM    107  H12 UNL A   1       8.917  16.010  39.316  1.00  0.00    +0.000 H 
BRANCH   17   16
ATOM    105  H10 UNL A   1       8.970  18.470  40.953  1.00  0.00    +0.000 H 
ATOM    104  H9  UNL A   1       9.216  18.315  39.191  1.00  0.00    +0.000 H 
ATOM     16  C9  UNL A   1       9.367  17.877  40.156  1.00  0.00    +0.000 C 
BRANCH   16   15
ATOM    103  H8  UNL A   1      11.284  17.081  39.699  1.00  0.00    +0.000 H 
ATOM    102  H7  UNL A   1      11.040  17.439  41.402  1.00  0.00    +0.000 H 
ATOM     15  C8  UNL A   1      10.869  17.774  40.401  1.00  0.00    +0.000 C 
BRANCH   15   14
ATOM    101  H6  UNL A   1      11.761  19.229  39.279  1.00  0.00    +0.000 H 
ATOM     14  N3  UNL A   1      11.511  19.058  40.215  1.00  0.00    +0.000 N 
BRANCH   14   12
ATOM     12  C7  UNL A   1      11.848  20.089  41.054  1.00  0.00    +0.000 C 
ATOM     13  O3  UNL A   1      11.221  20.184  42.107  1.00  0.00    +0.000 O 
BRANCH   12   11
ATOM    129  H34 UNL A   1      13.296  21.010  38.642  1.00  0.00    +0.000 H 
ATOM    130  H35 UNL A   1      14.468  20.226  39.571  1.00  0.00    +0.000 H 
ATOM    131  H36 UNL A   1      15.592  22.349  39.950  1.00  0.00    +0.000 H 
ATOM      9  N1  UNL A   1      13.804  23.074  40.785  1.00  0.00    +0.000 N 
ATOM     10  N2  UNL A   1      12.980  22.224  41.453  1.00  0.00    +0.000 N 
ATOM     11  C6  UNL A   1      12.889  21.149  40.729  1.00  0.00    +0.000 C 
ATOM     87  C59 UNL A   1      13.824  21.080  39.570  1.00  0.00    +0.000 C 
ATOM     88  C60 UNL A   1      14.552  22.423  39.705  1.00  0.00    +0.000 C 
BRANCH    9    8
ATOM     99  H4  UNL A   1      15.979  25.192  44.188  1.00  0.00    +0.000 H 
ATOM    100  H5  UNL A   1      15.185  23.184  43.078  1.00  0.00    +0.000 H 
ATOM      5  C2  UNL A   1      15.203  26.519  42.736  1.00  0.00    +0.000 C 
ATOM      6  C3  UNL A   1      15.459  25.265  43.300  1.00  0.00    +0.000 C 
ATOM      7  C4  UNL A   1      15.006  24.107  42.654  1.00  0.00    +0.000 C 
ATOM    136  H41 UNL A   1      14.317  27.547  41.117  1.00  0.00    +0.000 H 
ATOM    135  H40 UNL A   1      13.552  25.538  40.011  1.00  0.00    +0.000 H 
ATOM      8  C5  UNL A   1      14.312  24.190  41.441  1.00  0.00    +0.000 C 
ATOM     94  C65 UNL A   1      14.068  25.461  40.901  1.00  0.00    +0.000 C 
ATOM     95  C66 UNL A   1      14.507  26.622  41.535  1.00  0.00    +0.000 C 
BRANCH    5    2
ATOM      2  S1  UNL A   1      15.744  27.962  43.618  1.00  0.00    +0.000 S 
ATOM      3  O1  UNL A   1      15.532  27.685  45.025  1.00  0.00    +0.000 O 
ATOM      4  O2  UNL A   1      15.122  29.103  42.974  1.00  0.00    +0.000 O 
BRANCH    2    1
ATOM      1  C1  UNL A   1      17.491  28.103  43.355  1.00  0.00    +0.000 C 
ATOM     98  H3  UNL A   1      17.785  29.127  43.455  1.00  0.00    +0.000 H 
ATOM     97  H2  UNL A   1      18.010  27.510  44.078  1.00  0.00    +0.000 H 
ATOM     96  H1  UNL A   1      17.732  27.758  42.371  1.00  0.00    +0.000 H 
ENDBRANCH    2    1
ENDBRANCH    5    2
ENDBRANCH    9    8
BRANCH   88   89
ATOM    132  H37 UNL A   1      14.742  25.297  38.774  1.00  0.00    +0.000 H 
ATOM    133  H38 UNL A   1      14.727  25.478  36.127  1.00  0.00    +0.000 H 
ATOM    134  H39 UNL A   1      14.665  23.061  35.218  1.00  0.00    +0.000 H 
ATOM     89  C61 UNL A   1      14.638  23.168  38.405  1.00  0.00    +0.000 C 
ATOM     90  C62 UNL A   1      14.701  24.515  38.101  1.00  0.00    +0.000 C 
ATOM     91  C63 UNL A   1      14.701  24.612  36.689  1.00  0.00    +0.000 C 
ATOM     92  C64 UNL A   1      14.662  23.322  36.217  1.00  0.00    +0.000 C 
ATOM     93  O5  UNL A   1      14.617  22.442  37.246  1.00  0.00    +0.000 O 
ENDBRANCH   88   89
ENDBRANCH   12   11
ENDBRANCH   14   12
ENDBRANCH   15   14
ENDBRANCH   16   15
ENDBRANCH   17   16
ENDBRANCH   18   17
ENDBRANCH   19   18
ENDBRANCH   20   19
ENDBRANCH   21   20
ENDBRANCH   22   21
ENDBRANCH   24   22
ENDBRANCH   28   27
BRANCH   32   33
ATOM     33  C23 UNL A   1       6.238   6.309  38.461  1.00  0.00    +0.000 C 
ATOM     34  C24 UNL A   1       7.347   6.736  37.712  1.00  0.00    +0.000 C 
ATOM     35  F1  UNL A   1       7.166   7.395  36.557  1.00  0.00    +0.000 F 
ATOM     36  C25 UNL A   1       8.645   6.442  38.120  1.00  0.00    +0.000 C 
ATOM     37  F2  UNL A   1       9.684   6.807  37.355  1.00  0.00    +0.000 F 
ATOM     38  C26 UNL A   1       8.863   5.753  39.302  1.00  0.00    +0.000 C 
ATOM     39  F3  UNL A   1      10.113   5.469  39.693  1.00  0.00    +0.000 F 
ATOM     40  C27 UNL A   1       7.786   5.349  40.075  1.00  0.00    +0.000 C 
ATOM     41  F4  UNL A   1       7.996   4.693  41.225  1.00  0.00    +0.000 F 
ATOM     42  C28 UNL A   1       6.485   5.614  39.655  1.00  0.00    +0.000 C 
ATOM     43  F5  UNL A   1       5.463   5.188  40.413  1.00  0.00    +0.000 F 
ENDBRANCH   32   33
BRANCH   49   50
ATOM     50  C34 UNL A   1       0.793   2.859  35.213  1.00  0.00    +0.000 C 
ATOM     51  C35 UNL A   1       1.262   2.427  33.964  1.00  0.00    +0.000 C 
ATOM     52  F6  UNL A   1       1.950   3.267  33.175  1.00  0.00    +0.000 F 
ATOM     53  C36 UNL A   1       0.993   1.141  33.503  1.00  0.00    +0.000 C 
ATOM     54  F7  UNL A   1       1.414   0.765  32.289  1.00  0.00    +0.000 F 
ATOM     55  C37 UNL A   1       0.279   0.254  34.295  1.00  0.00    +0.000 C 
ATOM     56  F8  UNL A   1       0.026  -0.986  33.853  1.00  0.00    +0.000 F 
ATOM     57  C38 UNL A   1      -0.181   0.654  35.541  1.00  0.00    +0.000 C 
ATOM     58  F9  UNL A   1      -0.862  -0.206  36.311  1.00  0.00    +0.000 F 
ATOM     59  C39 UNL A   1       0.063   1.947  35.992  1.00  0.00    +0.000 C 
ATOM     60  F10 UNL A   1      -0.403   2.310  37.197  1.00  0.00    +0.000 F 
ENDBRANCH   49   50
BRANCH   64   65
ATOM     65  C43 UNL A   1      -2.900   8.773  35.305  1.00  0.00    +0.000 C 
ATOM     66  C44 UNL A   1      -4.067   8.499  36.029  1.00  0.00    +0.000 C 
ATOM     67  F11 UNL A   1      -3.993   7.832  37.190  1.00  0.00    +0.000 F 
ATOM     68  C45 UNL A   1      -5.317   8.885  35.551  1.00  0.00    +0.000 C 
ATOM     69  F12 UNL A   1      -6.421   8.585  36.249  1.00  0.00    +0.000 F 
ATOM     70  C46 UNL A   1      -5.421   9.573  34.351  1.00  0.00    +0.000 C 
ATOM     71  F13 UNL A   1      -6.623   9.956  33.897  1.00  0.00    +0.000 F 
ATOM     72  C47 UNL A   1      -4.279   9.863  33.622  1.00  0.00    +0.000 C 
ATOM     73  F14 UNL A   1      -4.373  10.541  32.470  1.00  0.00    +0.000 F 
ATOM     74  C48 UNL A   1      -3.030   9.456  34.087  1.00  0.00    +0.000 C 
ATOM     75  F15 UNL A   1      -1.941   9.749  33.361  1.00  0.00    +0.000 F 
ENDBRANCH   64   65
TORSDOF 19
ENDMDL
MODEL 10
REMARK VINA RESULT:     -10.8     45.004     48.999
ROOT
ATOM     28  C19 UNL A   1       7.077   2.727  25.871  1.00  0.00    +0.000 C 
ATOM     29  C20 UNL A   1       6.345   3.866  25.220  1.00  0.00    +0.000 C 
ATOM     30  N5  UNL A   1       6.551   5.154  25.330  1.00  0.00    +0.000 N 
ATOM     31  C21 UNL A   1       5.631   5.756  24.483  1.00  0.00    +0.000 C 
ATOM     32  C22 UNL A   1       5.396   7.077  24.289  1.00  0.00    +0.000 C 
ATOM     44  C29 UNL A   1       6.105   8.133  24.964  1.00  0.00    +0.000 C 
ATOM     45  C30 UNL A   1       5.900   9.498  24.888  1.00  0.00    +0.000 C 
ATOM     46  C31 UNL A   1       6.861  10.131  25.685  1.00  0.00    +0.000 C 
ATOM     47  C32 UNL A   1       7.637   9.158  26.294  1.00  0.00    +0.000 C 
ATOM     48  N6  UNL A   1       7.165   7.936  25.839  1.00  0.00    +0.000 N 
ATOM     49  C33 UNL A   1       8.726   9.326  27.222  1.00  0.00    +0.000 C 
ATOM     61  C40 UNL A   1       9.431   8.316  27.788  1.00  0.00    +0.000 C 
ATOM     62  N7  UNL A   1       9.284   6.947  27.614  1.00  0.00    +0.000 N 
ATOM     63  C41 UNL A   1      10.203   6.387  28.363  1.00  0.00    +0.000 C 
ATOM     64  C42 UNL A   1      10.491   4.927  28.575  1.00  0.00    +0.000 C 
ATOM     76  C49 UNL A   1       9.700   4.007  27.993  1.00  0.00    +0.000 C 
ATOM     77  C50 UNL A   1       9.845   2.560  28.126  1.00  0.00    +0.000 C 
ATOM     78  C51 UNL A   1       8.918   1.956  27.368  1.00  0.00    +0.000 C 
ATOM     79  C52 UNL A   1       8.093   2.975  26.718  1.00  0.00    +0.000 C 
ATOM     80  N8  UNL A   1       8.618   4.163  27.163  1.00  0.00    +0.000 N 
ATOM     81  C53 UNL A   1      11.053   7.343  29.085  1.00  0.00    +0.000 C 
ATOM     82  C54 UNL A   1      10.519   8.503  28.726  1.00  0.00    +0.000 C 
ATOM     83  C55 UNL A   1       4.903   4.693  23.824  1.00  0.00    +0.000 C 
ATOM     84  C56 UNL A   1       5.258   3.507  24.297  1.00  0.00    +0.000 C 
ATOM    117  H22 UNL A   1       5.164   9.970  24.339  1.00  0.00    +0.000 H 
ATOM    118  H23 UNL A   1       6.973  11.151  25.801  1.00  0.00    +0.000 H 
ATOM    119  H24 UNL A   1       7.527   7.058  26.099  1.00  0.00    +0.000 H 
ATOM    120  H25 UNL A   1      10.549   2.080  28.709  1.00  0.00    +0.000 H 
ATOM    121  H26 UNL A   1       8.804   0.936  27.259  1.00  0.00    +0.000 H 
ATOM    122  H27 UNL A   1       8.253   5.042  26.910  1.00  0.00    +0.000 H 
ATOM    123  H28 UNL A   1      11.855   7.161  29.709  1.00  0.00    +0.000 H 
ATOM    124  H29 UNL A   1      10.838   9.421  29.071  1.00  0.00    +0.000 H 
ATOM    125  H30 UNL A   1       4.201   4.839  23.082  1.00  0.00    +0.000 H 
ATOM    126  H31 UNL A   1       4.873   2.576  24.075  1.00  0.00    +0.000 H 
ENDROOT
BRANCH   28   27
ATOM    115  H20 UNL A   1       5.006  -1.330  26.660  1.00  0.00    +0.000 H 
ATOM    116  H21 UNL A   1       5.458   0.997  27.185  1.00  0.00    +0.000 H 
ATOM     85  C57 UNL A   1       7.260   0.746  24.364  1.00  0.00    +0.000 C 
ATOM     86  C58 UNL A   1       6.933  -0.565  24.021  1.00  0.00    +0.000 C 
ATOM     24  C15 UNL A   1       6.159  -1.340  24.888  1.00  0.00    +0.000 C 
ATOM     25  C16 UNL A   1       5.610  -0.768  26.040  1.00  0.00    +0.000 C 
ATOM     26  C17 UNL A   1       5.882   0.566  26.350  1.00  0.00    +0.000 C 
ATOM     27  C18 UNL A   1       6.732   1.324  25.528  1.00  0.00    +0.000 C 
ATOM    127  H32 UNL A   1       7.892   1.292  23.759  1.00  0.00    +0.000 H 
ATOM    128  H33 UNL A   1       7.264  -0.962  23.127  1.00  0.00    +0.000 H 
BRANCH   24   22
ATOM     22  C14 UNL A   1       5.883  -2.765  24.604  1.00  0.00    +0.000 C 
ATOM     23  O4  UNL A   1       4.816  -3.260  24.954  1.00  0.00    +0.000 O 
BRANCH   22   21
ATOM    114  H19 UNL A   1       6.588  -3.826  23.060  1.00  0.00    +0.000 H 
ATOM     21  N4  UNL A   1       6.824  -3.535  23.970  1.00  0.00    +0.000 N 
BRANCH   21   20
ATOM    113  H18 UNL A   1       8.859  -3.317  24.063  1.00  0.00    +0.000 H 
ATOM     20  C13 UNL A   1       8.118  -3.985  24.450  1.00  0.00    +0.000 C 
ATOM    112  H17 UNL A   1       8.279  -4.989  24.113  1.00  0.00    +0.000 H 
BRANCH   20   19
ATOM     19  C12 UNL A   1       8.217  -3.958  25.971  1.00  0.00    +0.000 C 
ATOM    110  H15 UNL A   1       7.223  -3.920  26.367  1.00  0.00    +0.000 H 
ATOM    111  H16 UNL A   1       8.754  -4.841  26.250  1.00  0.00    +0.000 H 
BRANCH   19   18
ATOM     18  C11 UNL A   1       9.005  -2.781  26.551  1.00  0.00    +0.000 C 
ATOM    108  H13 UNL A   1       8.337  -1.949  26.638  1.00  0.00    +0.000 H 
ATOM    109  H14 UNL A   1       9.395  -3.122  27.487  1.00  0.00    +0.000 H 
BRANCH   18   17
ATOM     17  C10 UNL A   1      10.218  -2.327  25.731  1.00  0.00    +0.000 C 
ATOM    106  H11 UNL A   1       9.991  -2.479  24.697  1.00  0.00    +0.000 H 
ATOM    107  H12 UNL A   1      10.381  -1.303  25.991  1.00  0.00    +0.000 H 
BRANCH   17   16
ATOM    105  H10 UNL A   1      12.112  -3.020  25.141  1.00  0.00    +0.000 H 
ATOM    104  H9  UNL A   1      11.294  -4.053  26.346  1.00  0.00    +0.000 H 
ATOM     16  C9  UNL A   1      11.530  -3.055  26.038  1.00  0.00    +0.000 C 
BRANCH   16   15
ATOM    103  H8  UNL A   1      13.300  -2.946  27.209  1.00  0.00    +0.000 H 
ATOM    102  H7  UNL A   1      11.844  -2.444  28.056  1.00  0.00    +0.000 H 
ATOM     15  C8  UNL A   1      12.378  -2.409  27.129  1.00  0.00    +0.000 C 
BRANCH   15   14
ATOM    101  H6  UNL A   1      12.309  -0.396  27.464  1.00  0.00    +0.000 H 
ATOM     14  N3  UNL A   1      12.672  -1.030  26.805  1.00  0.00    +0.000 N 
BRANCH   14   12
ATOM     12  C7  UNL A   1      13.344  -0.410  25.783  1.00  0.00    +0.000 C 
ATOM     13  O3  UNL A   1      14.508  -0.078  25.998  1.00  0.00    +0.000 O 
BRANCH   12   11
ATOM    129  H34 UNL A   1      12.303  -1.880  23.435  1.00  0.00    +0.000 H 
ATOM    130  H35 UNL A   1      13.736  -1.168  22.893  1.00  0.00    +0.000 H 
ATOM    131  H36 UNL A   1      12.459   0.282  21.415  1.00  0.00    +0.000 H 
ATOM      9  N1  UNL A   1      11.428   0.990  23.105  1.00  0.00    +0.000 N 
ATOM     10  N2  UNL A   1      12.068   1.064  24.302  1.00  0.00    +0.000 N 
ATOM     11  C6  UNL A   1      12.720  -0.050  24.444  1.00  0.00    +0.000 C 
ATOM     87  C59 UNL A   1      12.753  -0.928  23.240  1.00  0.00    +0.000 C 
ATOM     88  C60 UNL A   1      11.918  -0.101  22.256  1.00  0.00    +0.000 C 
BRANCH    9    8
ATOM     99  H4  UNL A   1       8.578   4.550  23.042  1.00  0.00    +0.000 H 
ATOM    100  H5  UNL A   1       9.532   2.591  24.115  1.00  0.00    +0.000 H 
ATOM      5  C2  UNL A   1       9.755   4.388  21.292  1.00  0.00    +0.000 C 
ATOM      6  C3  UNL A   1       9.312   4.005  22.563  1.00  0.00    +0.000 C 
ATOM      7  C4  UNL A   1       9.869   2.879  23.182  1.00  0.00    +0.000 C 
ATOM    136  H41 UNL A   1      11.077   3.942  19.707  1.00  0.00    +0.000 H 
ATOM    135  H40 UNL A   1      12.035   2.007  20.795  1.00  0.00    +0.000 H 
ATOM      8  C5  UNL A   1      10.877   2.140  22.551  1.00  0.00    +0.000 C 
ATOM     94  C65 UNL A   1      11.298   2.546  21.277  1.00  0.00    +0.000 C 
ATOM     95  C66 UNL A   1      10.749   3.660  20.645  1.00  0.00    +0.000 C 
BRANCH    5    2
ATOM      2  S1  UNL A   1       8.980   5.786  20.520  1.00  0.00    +0.000 S 
ATOM      3  O1  UNL A   1       8.955   6.841  21.514  1.00  0.00    +0.000 O 
ATOM      4  O2  UNL A   1       7.759   5.301  19.907  1.00  0.00    +0.000 O 
BRANCH    2    1
ATOM      1  C1  UNL A   1      10.051   6.310  19.208  1.00  0.00    +0.000 C 
ATOM     98  H3  UNL A   1      10.998   6.601  19.615  1.00  0.00    +0.000 H 
ATOM     97  H2  UNL A   1      10.191   5.505  18.519  1.00  0.00    +0.000 H 
ATOM     96  H1  UNL A   1       9.611   7.143  18.700  1.00  0.00    +0.000 H 
ENDBRANCH    2    1
ENDBRANCH    5    2
ENDBRANCH    9    8
BRANCH   88   89
ATOM    132  H37 UNL A   1       9.175  -1.239  22.845  1.00  0.00    +0.000 H 
ATOM    133  H38 UNL A   1       8.253  -2.685  20.822  1.00  0.00    +0.000 H 
ATOM    134  H39 UNL A   1      10.013  -2.534  18.937  1.00  0.00    +0.000 H 
ATOM     89  C61 UNL A   1      10.877  -0.919  21.549  1.00  0.00    +0.000 C 
ATOM     90  C62 UNL A   1       9.643  -1.404  21.940  1.00  0.00    +0.000 C 
ATOM     91  C63 UNL A   1       9.147  -2.170  20.858  1.00  0.00    +0.000 C 
ATOM     92  C64 UNL A   1      10.093  -2.088  19.865  1.00  0.00    +0.000 C 
ATOM     93  O5  UNL A   1      11.146  -1.340  20.275  1.00  0.00    +0.000 O 
ENDBRANCH   88   89
ENDBRANCH   12   11
ENDBRANCH   14   12
ENDBRANCH   15   14
ENDBRANCH   16   15
ENDBRANCH   17   16
ENDBRANCH   18   17
ENDBRANCH   19   18
ENDBRANCH   20   19
ENDBRANCH   21   20
ENDBRANCH   22   21
ENDBRANCH   24   22
ENDBRANCH   28   27
BRANCH   32   33
ATOM     33  C23 UNL A   1       4.326   7.448  23.304  1.00  0.00    +0.000 C 
ATOM     34  C24 UNL A   1       3.037   7.818  23.721  1.00  0.00    +0.000 C 
ATOM     35  F1  UNL A   1       2.729   7.830  25.027  1.00  0.00    +0.000 F 
ATOM     36  C25 UNL A   1       2.045   8.129  22.796  1.00  0.00    +0.000 C 
ATOM     37  F2  UNL A   1       0.806   8.419  23.218  1.00  0.00    +0.000 F 
ATOM     38  C26 UNL A   1       2.330   8.115  21.440  1.00  0.00    +0.000 C 
ATOM     39  F3  UNL A   1       1.373   8.411  20.549  1.00  0.00    +0.000 F 
ATOM     40  C27 UNL A   1       3.604   7.783  21.005  1.00  0.00    +0.000 C 
ATOM     41  F4  UNL A   1       3.883   7.781  19.694  1.00  0.00    +0.000 F 
ATOM     42  C28 UNL A   1       4.590   7.442  21.926  1.00  0.00    +0.000 C 
ATOM     43  F5  UNL A   1       5.807   7.102  21.472  1.00  0.00    +0.000 F 
ENDBRANCH   32   33
BRANCH   49   50
ATOM     50  C34 UNL A   1       9.102  10.726  27.611  1.00  0.00    +0.000 C 
ATOM     51  C35 UNL A   1       8.430  11.408  28.635  1.00  0.00    +0.000 C 
ATOM     52  F6  UNL A   1       7.388  10.834  29.257  1.00  0.00    +0.000 F 
ATOM     53  C36 UNL A   1       8.802  12.700  28.999  1.00  0.00    +0.000 C 
ATOM     54  F7  UNL A   1       8.118  13.348  29.951  1.00  0.00    +0.000 F 
ATOM     55  C37 UNL A   1       9.871  13.319  28.369  1.00  0.00    +0.000 C 
ATOM     56  F8  UNL A   1      10.232  14.559  28.725  1.00  0.00    +0.000 F 
ATOM     57  C38 UNL A   1      10.561  12.656  27.365  1.00  0.00    +0.000 C 
ATOM     58  F9  UNL A   1      11.600  13.250  26.763  1.00  0.00    +0.000 F 
ATOM     59  C39 UNL A   1      10.173  11.376  26.980  1.00  0.00    +0.000 C 
ATOM     60  F10 UNL A   1      10.852  10.764  25.998  1.00  0.00    +0.000 F 
ENDBRANCH   49   50
BRANCH   64   65
ATOM     65  C43 UNL A   1      11.616   4.482  29.436  1.00  0.00    +0.000 C 
ATOM     66  C44 UNL A   1      11.523   4.545  30.833  1.00  0.00    +0.000 C 
ATOM     67  F11 UNL A   1      10.425   5.058  31.407  1.00  0.00    +0.000 F 
ATOM     68  C45 UNL A   1      12.567   4.105  31.643  1.00  0.00    +0.000 C 
ATOM     69  F12 UNL A   1      12.464   4.202  32.976  1.00  0.00    +0.000 F 
ATOM     70  C46 UNL A   1      13.714   3.573  31.073  1.00  0.00    +0.000 C 
ATOM     71  F13 UNL A   1      14.713   3.137  31.853  1.00  0.00    +0.000 F 
ATOM     72  C47 UNL A   1      13.824   3.493  29.693  1.00  0.00    +0.000 C 
ATOM     73  F14 UNL A   1      14.924   2.965  29.139  1.00  0.00    +0.000 F 
ATOM     74  C48 UNL A   1      12.791   3.955  28.881  1.00  0.00    +0.000 C 
ATOM     75  F15 UNL A   1      12.925   3.867  27.550  1.00  0.00    +0.000 F 
ENDBRANCH   64   65
TORSDOF 19
ENDMDL
