MODEL 1
REMARK VINA RESULT:     -10.4      0.000      0.000
ROOT
ATOM    129  H34 UNL A   1      53.950  19.103   9.093  1.00  0.00    +0.000 H 
ATOM    130  H35 UNL A   1      55.435  19.654  12.936  1.00  0.00    +0.000 H 
ATOM    131  H36 UNL A   1      60.161  17.952  12.826  1.00  0.00    +0.000 H 
ATOM    132  H37 UNL A   1      60.304  18.588  15.301  1.00  0.00    +0.000 H 
ATOM    133  H38 UNL A   1      50.977  22.344  14.984  1.00  0.00    +0.000 H 
ATOM    134  H39 UNL A   1      50.718  21.489  12.583  1.00  0.00    +0.000 H 
ATOM     37  C29 UNL A   1      53.062  20.222  11.556  1.00  0.00    +0.000 C 
ATOM     38  C30 UNL A   1      52.842  20.779  12.932  1.00  0.00    +0.000 C 
ATOM     39  N3  UNL A   1      53.664  20.798  13.952  1.00  0.00    +0.000 N 
ATOM     40  C31 UNL A   1      52.988  21.444  14.977  1.00  0.00    +0.000 C 
ATOM     41  C32 UNL A   1      53.414  21.693  16.238  1.00  0.00    +0.000 C 
ATOM     53  C39 UNL A   1      54.698  21.294  16.757  1.00  0.00    +0.000 C 
ATOM     54  C40 UNL A   1      55.192  21.441  18.042  1.00  0.00    +0.000 C 
ATOM     55  C41 UNL A   1      56.504  20.957  18.067  1.00  0.00    +0.000 C 
ATOM     56  C42 UNL A   1      56.813  20.468  16.809  1.00  0.00    +0.000 C 
ATOM     57  N4  UNL A   1      55.694  20.677  16.016  1.00  0.00    +0.000 N 
ATOM     58  C43 UNL A   1      58.039  19.861  16.360  1.00  0.00    +0.000 C 
ATOM     70  C50 UNL A   1      58.246  19.348  15.123  1.00  0.00    +0.000 C 
ATOM     71  N5  UNL A   1      57.380  19.306  14.041  1.00  0.00    +0.000 N 
ATOM     72  C51 UNL A   1      58.052  18.746  13.066  1.00  0.00    +0.000 C 
ATOM     73  C52 UNL A   1      57.607  18.442  11.664  1.00  0.00    +0.000 C 
ATOM     85  C59 UNL A   1      56.360  18.776  11.289  1.00  0.00    +0.000 C 
ATOM     86  C60 UNL A   1      55.795  18.553   9.964  1.00  0.00    +0.000 C 
ATOM     87  C61 UNL A   1      54.566  19.085   9.921  1.00  0.00    +0.000 C 
ATOM     88  C62 UNL A   1      54.233  19.636  11.238  1.00  0.00    +0.000 C 
ATOM     89  N6  UNL A   1      55.356  19.400  11.988  1.00  0.00    +0.000 N 
ATOM     90  C63 UNL A   1      59.429  18.377  13.416  1.00  0.00    +0.000 C 
ATOM     91  C64 UNL A   1      59.484  18.732  14.692  1.00  0.00    +0.000 C 
ATOM     92  C65 UNL A   1      51.690  21.820  14.454  1.00  0.00    +0.000 C 
ATOM     93  C66 UNL A   1      51.537  21.401  13.203  1.00  0.00    +0.000 C 
ATOM    125  H30 UNL A   1      54.679  21.840  18.845  1.00  0.00    +0.000 H 
ATOM    126  H31 UNL A   1      57.135  20.965  18.883  1.00  0.00    +0.000 H 
ATOM    127  H32 UNL A   1      55.619  20.425  15.067  1.00  0.00    +0.000 H 
ATOM    128  H33 UNL A   1      56.266  18.066   9.185  1.00  0.00    +0.000 H 
ENDROOT
BRANCH   37   36
ATOM     33  C25 UNL A   1      49.912  20.548   8.671  1.00  0.00    +0.000 C 
ATOM     34  C26 UNL A   1      50.814  21.598   8.858  1.00  0.00    +0.000 C 
ATOM     35  C27 UNL A   1      51.888  21.445   9.729  1.00  0.00    +0.000 C 
ATOM     36  C28 UNL A   1      52.006  20.286  10.514  1.00  0.00    +0.000 C 
ATOM    135  H40 UNL A   1      51.125  18.413  10.956  1.00  0.00    +0.000 H 
ATOM    136  H41 UNL A   1      49.344  18.618   9.317  1.00  0.00    +0.000 H 
ATOM    123  H28 UNL A   1      50.684  22.488   8.351  1.00  0.00    +0.000 H 
ATOM    124  H29 UNL A   1      52.602  22.186   9.798  1.00  0.00    +0.000 H 
ATOM     94  C67 UNL A   1      51.060  19.261  10.371  1.00  0.00    +0.000 C 
ATOM     95  C68 UNL A   1      50.024  19.385   9.438  1.00  0.00    +0.000 C 
BRANCH   33    2
ATOM      1  O1  UNL A   1      48.237  21.734   7.537  1.00  0.00    +0.000 O 
ATOM      2  C1  UNL A   1      48.805  20.661   7.692  1.00  0.00    +0.000 C 
BRANCH    2    3
ATOM      3  N1  UNL A   1      48.412  19.557   6.972  1.00  0.00    +0.000 N 
ATOM     96  H1  UNL A   1      48.149  18.774   7.506  1.00  0.00    +0.000 H 
BRANCH    3    4
ATOM     97  H2  UNL A   1      49.151  18.783   5.211  1.00  0.00    +0.000 H 
ATOM     98  H3  UNL A   1      48.360  20.361   5.088  1.00  0.00    +0.000 H 
ATOM      4  C2  UNL A   1      48.330  19.388   5.531  1.00  0.00    +0.000 C 
BRANCH    4    5
ATOM     99  H4  UNL A   1      47.195  18.279   4.135  1.00  0.00    +0.000 H 
ATOM    100  H5  UNL A   1      46.290  19.492   5.092  1.00  0.00    +0.000 H 
ATOM      5  C3  UNL A   1      47.034  18.722   5.095  1.00  0.00    +0.000 C 
BRANCH    5    6
ATOM    102  H7  UNL A   1      47.211  17.599   6.846  1.00  0.00    +0.000 H 
ATOM    101  H6  UNL A   1      45.518  17.900   6.323  1.00  0.00    +0.000 H 
ATOM      6  C4  UNL A   1      46.514  17.635   6.036  1.00  0.00    +0.000 C 
BRANCH    6    7
ATOM    103  H8  UNL A   1      45.468  16.017   5.154  1.00  0.00    +0.000 H 
ATOM      7  C5  UNL A   1      46.473  16.213   5.466  1.00  0.00    +0.000 C 
ATOM    104  H9  UNL A   1      46.826  15.583   6.256  1.00  0.00    +0.000 H 
BRANCH    7    8
ATOM    105  H10 UNL A   1      47.671  16.858   3.838  1.00  0.00    +0.000 H 
ATOM    106  H11 UNL A   1      46.834  15.283   3.624  1.00  0.00    +0.000 H 
ATOM      8  C6  UNL A   1      47.395  15.921   4.275  1.00  0.00    +0.000 C 
BRANCH    8    9
ATOM      9  C7  UNL A   1      48.679  15.158   4.596  1.00  0.00    +0.000 C 
ATOM    107  H12 UNL A   1      49.099  14.796   3.681  1.00  0.00    +0.000 H 
ATOM    108  H13 UNL A   1      48.418  14.360   5.259  1.00  0.00    +0.000 H 
BRANCH    9   10
ATOM     10  N2  UNL A   1      49.666  15.972   5.267  1.00  0.00    +0.000 N 
ATOM    109  H14 UNL A   1      49.362  16.864   5.554  1.00  0.00    +0.000 H 
BRANCH   10   11
ATOM     11  C8  UNL A   1      50.963  15.666   5.556  1.00  0.00    +0.000 C 
ATOM     12  O2  UNL A   1      51.219  14.495   5.840  1.00  0.00    +0.000 O 
BRANCH   11   13
ATOM     13  C9  UNL A   1      52.029  16.785   5.542  1.00  0.00    +0.000 C 
ATOM     14  C10 UNL A   1      53.351  16.329   6.146  1.00  0.00    +0.000 C 
ATOM    110  H15 UNL A   1      51.624  17.576   6.141  1.00  0.00    +0.000 H 
ATOM    111  H16 UNL A   1      53.337  15.272   6.310  1.00  0.00    +0.000 H 
ATOM     15  C11 UNL A   1      54.437  16.694   5.133  1.00  0.00    +0.000 C 
ATOM    112  H17 UNL A   1      53.528  16.798   7.091  1.00  0.00    +0.000 H 
ATOM    118  H23 UNL A   1      54.175  17.750   3.360  1.00  0.00    +0.000 H 
ATOM     24  C18 UNL A   1      53.629  16.961   3.833  1.00  0.00    +0.000 C 
ATOM     32  O4  UNL A   1      52.276  17.269   4.222  1.00  0.00    +0.000 O 
BRANCH   15   16
ATOM    113  H18 UNL A   1      55.028  14.848   5.588  1.00  0.00    +0.000 H 
ATOM     16  O3  UNL A   1      55.273  15.532   4.944  1.00  0.00    +0.000 O 
ENDBRANCH   15   16
BRANCH   15   17
ATOM     17  C12 UNL A   1      55.364  17.761   5.753  1.00  0.00    +0.000 C 
ATOM     18  C13 UNL A   1      56.696  17.326   6.019  1.00  0.00    +0.000 C 
ATOM     19  C14 UNL A   1      57.682  18.167   6.536  1.00  0.00    +0.000 C 
ATOM    114  H19 UNL A   1      56.942  16.343   5.821  1.00  0.00    +0.000 H 
ATOM     21  C16 UNL A   1      56.084  19.947   6.586  1.00  0.00    +0.000 C 
ATOM     22  C17 UNL A   1      55.073  19.091   6.105  1.00  0.00    +0.000 C 
ATOM     23 Cl1  UNL A   1      53.502  19.807   6.095  1.00  0.00    +0.000 Cl
ATOM    115  H20 UNL A   1      58.630  17.804   6.722  1.00  0.00    +0.000 H 
ATOM     20  C15 UNL A   1      57.382  19.492   6.796  1.00  0.00    +0.000 C 
ATOM    117  H22 UNL A   1      55.856  20.933   6.787  1.00  0.00    +0.000 H 
ATOM    116  H21 UNL A   1      58.111  20.136   7.142  1.00  0.00    +0.000 H 
ENDBRANCH   15   17
BRANCH   24   25
ATOM    122  H27 UNL A   1      55.257  14.713   0.065  1.00  0.00    +0.000 H 
ATOM    121  H26 UNL A   1      53.250  13.373  -0.173  1.00  0.00    +0.000 H 
ATOM    119  H24 UNL A   1      51.687  15.121   3.307  1.00  0.00    +0.000 H 
ATOM    120  H25 UNL A   1      51.480  13.563   1.473  1.00  0.00    +0.000 H 
ATOM     25  C19 UNL A   1      53.572  15.890   2.744  1.00  0.00    +0.000 C 
ATOM     26  C20 UNL A   1      52.445  15.059   2.610  1.00  0.00    +0.000 C 
ATOM     27  C21 UNL A   1      52.326  14.149   1.555  1.00  0.00    +0.000 C 
ATOM     28  C22 UNL A   1      53.343  14.032   0.616  1.00  0.00    +0.000 C 
ATOM     29  C23 UNL A   1      54.489  14.810   0.748  1.00  0.00    +0.000 C 
ATOM     30  C24 UNL A   1      54.609  15.726   1.802  1.00  0.00    +0.000 C 
ATOM     31 Cl2  UNL A   1      56.096  16.611   1.876  1.00  0.00    +0.000 Cl
ENDBRANCH   24   25
ENDBRANCH   11   13
ENDBRANCH   10   11
ENDBRANCH    9   10
ENDBRANCH    8    9
ENDBRANCH    7    8
ENDBRANCH    6    7
ENDBRANCH    5    6
ENDBRANCH    4    5
ENDBRANCH    3    4
ENDBRANCH    2    3
ENDBRANCH   33    2
ENDBRANCH   37   36
BRANCH   41   42
ATOM     42  C33 UNL A   1      52.497  22.440  17.161  1.00  0.00    +0.000 C 
ATOM     43  C34 UNL A   1      52.357  23.833  17.090  1.00  0.00    +0.000 C 
ATOM     44  F1  UNL A   1      53.124  24.547  16.253  1.00  0.00    +0.000 F 
ATOM     45  C35 UNL A   1      51.431  24.501  17.888  1.00  0.00    +0.000 C 
ATOM     46  F2  UNL A   1      51.326  25.836  17.817  1.00  0.00    +0.000 F 
ATOM     47  C36 UNL A   1      50.615  23.788  18.755  1.00  0.00    +0.000 C 
ATOM     48  F3  UNL A   1      49.710  24.431  19.508  1.00  0.00    +0.000 F 
ATOM     49  C37 UNL A   1      50.735  22.410  18.840  1.00  0.00    +0.000 C 
ATOM     50  F4  UNL A   1      49.938  21.718  19.667  1.00  0.00    +0.000 F 
ATOM     51  C38 UNL A   1      51.674  21.742  18.059  1.00  0.00    +0.000 C 
ATOM     52  F5  UNL A   1      51.764  20.407  18.159  1.00  0.00    +0.000 F 
ENDBRANCH   41   42
BRANCH   58   59
ATOM     65  F8  UNL A   1      62.309  19.480  20.034  1.00  0.00    +0.000 F 
ATOM     66  C48 UNL A   1      60.532  18.454  18.863  1.00  0.00    +0.000 C 
ATOM     67  F9  UNL A   1      60.807  17.280  19.449  1.00  0.00    +0.000 F 
ATOM     68  C49 UNL A   1      59.491  18.544  17.944  1.00  0.00    +0.000 C 
ATOM     69  F10 UNL A   1      58.785  17.440  17.656  1.00  0.00    +0.000 F 
ATOM     59  C44 UNL A   1      59.175  19.765  17.332  1.00  0.00    +0.000 C 
ATOM     60  C45 UNL A   1      59.941  20.891  17.671  1.00  0.00    +0.000 C 
ATOM     61  F6  UNL A   1      59.689  22.077  17.096  1.00  0.00    +0.000 F 
ATOM     62  C46 UNL A   1      61.000  20.791  18.568  1.00  0.00    +0.000 C 
ATOM     63  F7  UNL A   1      61.750  21.868  18.840  1.00  0.00    +0.000 F 
ATOM     64  C47 UNL A   1      61.291  19.574  19.168  1.00  0.00    +0.000 C 
ENDBRANCH   58   59
BRANCH   73   74
ATOM     74  C53 UNL A   1      58.527  17.800  10.690  1.00  0.00    +0.000 C 
ATOM     75  C54 UNL A   1      58.539  16.410  10.514  1.00  0.00    +0.000 C 
ATOM     76  F11 UNL A   1      57.724  15.636  11.245  1.00  0.00    +0.000 F 
ATOM     77  C55 UNL A   1      59.417  15.808   9.614  1.00  0.00    +0.000 C 
ATOM     78  F12 UNL A   1      59.442  14.474   9.499  1.00  0.00    +0.000 F 
ATOM     79  C56 UNL A   1      60.276  16.586   8.853  1.00  0.00    +0.000 C 
ATOM     80  F13 UNL A   1      61.117  16.007   7.986  1.00  0.00    +0.000 F 
ATOM     81  C57 UNL A   1      60.267  17.965   8.996  1.00  0.00    +0.000 C 
ATOM     82  F14 UNL A   1      61.083  18.722   8.250  1.00  0.00    +0.000 F 
ATOM     83  C58 UNL A   1      59.412  18.565   9.916  1.00  0.00    +0.000 C 
ATOM     84  F15 UNL A   1      59.435  19.900  10.045  1.00  0.00    +0.000 F 
ENDBRANCH   73   74
TORSDOF 18
ENDMDL
MODEL 2
REMARK VINA RESULT:      -9.9     42.480     46.336
ROOT
ATOM    129  H34 UNL A   1      29.090 -13.583  28.212  1.00  0.00    +0.000 H 
ATOM    130  H35 UNL A   1      26.781 -12.516  31.500  1.00  0.00    +0.000 H 
ATOM    131  H36 UNL A   1      22.877  -9.953  29.647  1.00  0.00    +0.000 H 
ATOM    132  H37 UNL A   1      22.069  -9.702  32.063  1.00  0.00    +0.000 H 
ATOM    133  H38 UNL A   1      29.763 -15.301  35.328  1.00  0.00    +0.000 H 
ATOM    134  H39 UNL A   1      30.729 -15.351  32.956  1.00  0.00    +0.000 H 
ATOM     37  C29 UNL A   1      29.108 -14.006  31.027  1.00  0.00    +0.000 C 
ATOM     38  C30 UNL A   1      28.880 -14.120  32.506  1.00  0.00    +0.000 C 
ATOM     39  N3  UNL A   1      27.904 -13.626  33.227  1.00  0.00    +0.000 N 
ATOM     40  C31 UNL A   1      28.145 -14.036  34.531  1.00  0.00    +0.000 C 
ATOM     41  C32 UNL A   1      27.425 -13.761  35.645  1.00  0.00    +0.000 C 
ATOM     53  C39 UNL A   1      26.238 -12.945  35.665  1.00  0.00    +0.000 C 
ATOM     54  C40 UNL A   1      25.479 -12.555  36.756  1.00  0.00    +0.000 C 
ATOM     55  C41 UNL A   1      24.387 -11.814  36.290  1.00  0.00    +0.000 C 
ATOM     56  C42 UNL A   1      24.490 -11.706  34.913  1.00  0.00    +0.000 C 
ATOM     57  N4  UNL A   1      25.631 -12.401  34.544  1.00  0.00    +0.000 N 
ATOM     58  C43 UNL A   1      23.608 -11.024  34.001  1.00  0.00    +0.000 C 
ATOM     70  C50 UNL A   1      23.808 -10.910  32.665  1.00  0.00    +0.000 C 
ATOM     71  N5  UNL A   1      24.844 -11.412  31.893  1.00  0.00    +0.000 N 
ATOM     72  C51 UNL A   1      24.571 -11.066  30.659  1.00  0.00    +0.000 C 
ATOM     73  C52 UNL A   1      25.353 -11.339  29.406  1.00  0.00    +0.000 C 
ATOM     85  C59 UNL A   1      26.496 -12.042  29.491  1.00  0.00    +0.000 C 
ATOM     86  C60 UNL A   1      27.352 -12.390  28.364  1.00  0.00    +0.000 C 
ATOM     87  C61 UNL A   1      28.355 -13.162  28.803  1.00  0.00    +0.000 C 
ATOM     88  C62 UNL A   1      28.246 -13.315  30.256  1.00  0.00    +0.000 C 
ATOM     89  N6  UNL A   1      27.116 -12.608  30.578  1.00  0.00    +0.000 N 
ATOM     90  C63 UNL A   1      23.321 -10.312  30.506  1.00  0.00    +0.000 C 
ATOM     91  C64 UNL A   1      22.914 -10.212  31.763  1.00  0.00    +0.000 C 
ATOM     92  C65 UNL A   1      29.353 -14.835  34.504  1.00  0.00    +0.000 C 
ATOM     93  C66 UNL A   1      29.865 -14.890  33.280  1.00  0.00    +0.000 C 
ATOM    125  H30 UNL A   1      25.684 -12.773  37.744  1.00  0.00    +0.000 H 
ATOM    126  H31 UNL A   1      23.634 -11.418  36.873  1.00  0.00    +0.000 H 
ATOM    127  H32 UNL A   1      25.963 -12.493  33.621  1.00  0.00    +0.000 H 
ATOM    128  H33 UNL A   1      27.207 -12.092  27.386  1.00  0.00    +0.000 H 
ENDROOT
BRANCH   37   36
ATOM     33  C25 UNL A   1      32.511 -15.954  29.302  1.00  0.00    +0.000 C 
ATOM     34  C26 UNL A   1      31.273 -16.599  29.350  1.00  0.00    +0.000 C 
ATOM     35  C27 UNL A   1      30.154 -15.922  29.826  1.00  0.00    +0.000 C 
ATOM     36  C28 UNL A   1      30.283 -14.634  30.372  1.00  0.00    +0.000 C 
ATOM    135  H40 UNL A   1      31.651 -13.078  30.799  1.00  0.00    +0.000 H 
ATOM    136  H41 UNL A   1      33.570 -14.200  29.819  1.00  0.00    +0.000 H 
ATOM    123  H28 UNL A   1      31.188 -17.578  29.033  1.00  0.00    +0.000 H 
ATOM    124  H29 UNL A   1      29.226 -16.369  29.777  1.00  0.00    +0.000 H 
ATOM     94  C67 UNL A   1      31.541 -14.016  30.383  1.00  0.00    +0.000 C 
ATOM     95  C68 UNL A   1      32.650 -14.668  29.832  1.00  0.00    +0.000 C 
BRANCH   33    2
ATOM      1  O1  UNL A   1      34.165 -17.615  29.282  1.00  0.00    +0.000 O 
ATOM      2  C1  UNL A   1      33.700 -16.628  28.728  1.00  0.00    +0.000 C 
BRANCH    2    3
ATOM      3  N1  UNL A   1      34.282 -16.135  27.584  1.00  0.00    +0.000 N 
ATOM     96  H1  UNL A   1      35.151 -15.690  27.709  1.00  0.00    +0.000 H 
BRANCH    3    4
ATOM     97  H2  UNL A   1      33.309 -17.119  26.057  1.00  0.00    +0.000 H 
ATOM     98  H3  UNL A   1      34.634 -16.053  25.568  1.00  0.00    +0.000 H 
ATOM      4  C2  UNL A   1      33.793 -16.179  26.217  1.00  0.00    +0.000 C 
BRANCH    4    5
ATOM     99  H4  UNL A   1      31.866 -15.323  26.358  1.00  0.00    +0.000 H 
ATOM    100  H5  UNL A   1      32.766 -14.981  24.849  1.00  0.00    +0.000 H 
ATOM      5  C3  UNL A   1      32.805 -15.064  25.915  1.00  0.00    +0.000 C 
BRANCH    5    6
ATOM    102  H7  UNL A   1      32.463 -13.009  26.060  1.00  0.00    +0.000 H 
ATOM    101  H6  UNL A   1      33.255 -13.735  27.500  1.00  0.00    +0.000 H 
ATOM      6  C4  UNL A   1      33.206 -13.682  26.433  1.00  0.00    +0.000 C 
BRANCH    6    7
ATOM    103  H8  UNL A   1      34.442 -12.939  24.882  1.00  0.00    +0.000 H 
ATOM      7  C5  UNL A   1      34.546 -13.136  25.929  1.00  0.00    +0.000 C 
ATOM    104  H9  UNL A   1      35.266 -13.889  26.172  1.00  0.00    +0.000 H 
BRANCH    7    8
ATOM    105  H10 UNL A   1      35.947 -12.102  27.142  1.00  0.00    +0.000 H 
ATOM    106  H11 UNL A   1      34.257 -11.498  27.202  1.00  0.00    +0.000 H 
ATOM      8  C6  UNL A   1      35.062 -11.853  26.594  1.00  0.00    +0.000 C 
BRANCH    8    9
ATOM      9  C7  UNL A   1      35.405 -10.703  25.649  1.00  0.00    +0.000 C 
ATOM    107  H12 UNL A   1      36.381 -10.872  25.245  1.00  0.00    +0.000 H 
ATOM    108  H13 UNL A   1      35.359  -9.798  26.218  1.00  0.00    +0.000 H 
BRANCH    9   10
ATOM     10  N2  UNL A   1      34.470 -10.574  24.556  1.00  0.00    +0.000 N 
ATOM    109  H14 UNL A   1      34.318 -11.387  24.022  1.00  0.00    +0.000 H 
BRANCH   10   11
ATOM     11  C8  UNL A   1      33.768  -9.471  24.166  1.00  0.00    +0.000 C 
ATOM     12  O2  UNL A   1      34.403  -8.432  23.977  1.00  0.00    +0.000 O 
BRANCH   11   13
ATOM     13  C9  UNL A   1      32.233  -9.564  24.005  1.00  0.00    +0.000 C 
ATOM     14  C10 UNL A   1      31.669 -10.849  24.599  1.00  0.00    +0.000 C 
ATOM    110  H15 UNL A   1      32.054  -9.558  22.950  1.00  0.00    +0.000 H 
ATOM    111  H16 UNL A   1      32.423 -11.359  25.161  1.00  0.00    +0.000 H 
ATOM     15  C11 UNL A   1      30.518 -10.431  25.516  1.00  0.00    +0.000 C 
ATOM    112  H17 UNL A   1      31.333 -11.516  23.833  1.00  0.00    +0.000 H 
ATOM    118  H23 UNL A   1      29.770  -8.506  25.769  1.00  0.00    +0.000 H 
ATOM     24  C18 UNL A   1      30.760  -8.908  25.711  1.00  0.00    +0.000 C 
ATOM     32  O4  UNL A   1      31.566  -8.454  24.607  1.00  0.00    +0.000 O 
BRANCH   15   16
ATOM    113  H18 UNL A   1      30.881 -12.045  26.622  1.00  0.00    +0.000 H 
ATOM     16  O3  UNL A   1      30.692 -11.107  26.779  1.00  0.00    +0.000 O 
ENDBRANCH   15   16
BRANCH   15   17
ATOM     17  C12 UNL A   1      29.194 -10.981  24.943  1.00  0.00    +0.000 C 
ATOM     18  C13 UNL A   1      28.280  -9.994  24.473  1.00  0.00    +0.000 C 
ATOM     19  C14 UNL A   1      27.055 -10.310  23.882  1.00  0.00    +0.000 C 
ATOM    114  H19 UNL A   1      28.535  -8.999  24.574  1.00  0.00    +0.000 H 
ATOM     21  C16 UNL A   1      27.544 -12.631  24.202  1.00  0.00    +0.000 C 
ATOM     22  C17 UNL A   1      28.762 -12.316  24.837  1.00  0.00    +0.000 C 
ATOM     23 Cl1  UNL A   1      29.565 -13.684  25.518  1.00  0.00    +0.000 Cl
ATOM    115  H20 UNL A   1      26.422  -9.559  23.567  1.00  0.00    +0.000 H 
ATOM     20  C15 UNL A   1      26.697 -11.636  23.722  1.00  0.00    +0.000 C 
ATOM    117  H22 UNL A   1      27.274 -13.620  24.090  1.00  0.00    +0.000 H 
ATOM    116  H21 UNL A   1      25.812 -11.886  23.253  1.00  0.00    +0.000 H 
ENDBRANCH   15   17
BRANCH   24   25
ATOM    122  H27 UNL A   1      30.782  -6.542  29.749  1.00  0.00    +0.000 H 
ATOM    121  H26 UNL A   1      33.155  -6.898  30.103  1.00  0.00    +0.000 H 
ATOM    119  H24 UNL A   1      33.311  -9.228  26.616  1.00  0.00    +0.000 H 
ATOM    120  H25 UNL A   1      34.406  -8.269  28.545  1.00  0.00    +0.000 H 
ATOM     25  C19 UNL A   1      31.405  -8.405  27.002  1.00  0.00    +0.000 C 
ATOM     26  C20 UNL A   1      32.767  -8.639  27.266  1.00  0.00    +0.000 C 
ATOM     27  C21 UNL A   1      33.401  -8.093  28.386  1.00  0.00    +0.000 C 
ATOM     28  C22 UNL A   1      32.684  -7.315  29.285  1.00  0.00    +0.000 C 
ATOM     29  C23 UNL A   1      31.325  -7.102  29.073  1.00  0.00    +0.000 C 
ATOM     30  C24 UNL A   1      30.687  -7.644  27.949  1.00  0.00    +0.000 C 
ATOM     31 Cl2  UNL A   1      28.988  -7.336  27.816  1.00  0.00    +0.000 Cl
ENDBRANCH   24   25
ENDBRANCH   11   13
ENDBRANCH   10   11
ENDBRANCH    9   10
ENDBRANCH    8    9
ENDBRANCH    7    8
ENDBRANCH    6    7
ENDBRANCH    5    6
ENDBRANCH    4    5
ENDBRANCH    3    4
ENDBRANCH    2    3
ENDBRANCH   33    2
ENDBRANCH   37   36
BRANCH   41   42
ATOM     42  C33 UNL A   1      27.883 -14.350  36.947  1.00  0.00    +0.000 C 
ATOM     43  C34 UNL A   1      28.863 -13.726  37.732  1.00  0.00    +0.000 C 
ATOM     44  F1  UNL A   1      29.491 -12.629  37.281  1.00  0.00    +0.000 F 
ATOM     45  C35 UNL A   1      29.208 -14.233  38.982  1.00  0.00    +0.000 C 
ATOM     46  F2  UNL A   1      30.160 -13.630  39.709  1.00  0.00    +0.000 F 
ATOM     47  C36 UNL A   1      28.567 -15.358  39.479  1.00  0.00    +0.000 C 
ATOM     48  F3  UNL A   1      28.887 -15.833  40.692  1.00  0.00    +0.000 F 
ATOM     49  C37 UNL A   1      27.594 -15.990  38.721  1.00  0.00    +0.000 C 
ATOM     50  F4  UNL A   1      26.964 -17.070  39.205  1.00  0.00    +0.000 F 
ATOM     51  C38 UNL A   1      27.262 -15.498  37.462  1.00  0.00    +0.000 C 
ATOM     52  F5  UNL A   1      26.312 -16.128  36.753  1.00  0.00    +0.000 F 
ENDBRANCH   41   42
BRANCH   58   59
ATOM     65  F8  UNL A   1      18.968  -8.581  36.093  1.00  0.00    +0.000 F 
ATOM     66  C48 UNL A   1      19.987 -10.396  34.976  1.00  0.00    +0.000 C 
ATOM     67  F9  UNL A   1      18.802 -11.013  34.871  1.00  0.00    +0.000 F 
ATOM     68  C49 UNL A   1      21.134 -11.006  34.477  1.00  0.00    +0.000 C 
ATOM     69  F10 UNL A   1      21.027 -12.215  33.903  1.00  0.00    +0.000 F 
ATOM     59  C44 UNL A   1      22.381 -10.372  34.561  1.00  0.00    +0.000 C 
ATOM     60  C45 UNL A   1      22.439  -9.107  35.165  1.00  0.00    +0.000 C 
ATOM     61  F6  UNL A   1      23.614  -8.470  35.287  1.00  0.00    +0.000 F 
ATOM     62  C46 UNL A   1      21.295  -8.513  35.690  1.00  0.00    +0.000 C 
ATOM     63  F7  UNL A   1      21.381  -7.327  36.308  1.00  0.00    +0.000 F 
ATOM     64  C47 UNL A   1      20.069  -9.155  35.589  1.00  0.00    +0.000 C 
ENDBRANCH   58   59
BRANCH   73   74
ATOM     74  C53 UNL A   1      24.872 -10.864  28.083  1.00  0.00    +0.000 C 
ATOM     75  C54 UNL A   1      25.383  -9.695  27.506  1.00  0.00    +0.000 C 
ATOM     76  F11 UNL A   1      26.309  -8.975  28.157  1.00  0.00    +0.000 F 
ATOM     77  C55 UNL A   1      24.915  -9.239  26.274  1.00  0.00    +0.000 C 
ATOM     78  F12 UNL A   1      25.386  -8.093  25.765  1.00  0.00    +0.000 F 
ATOM     79  C56 UNL A   1      23.953  -9.961  25.584  1.00  0.00    +0.000 C 
ATOM     80  F13 UNL A   1      23.506  -9.524  24.399  1.00  0.00    +0.000 F 
ATOM     81  C57 UNL A   1      23.447 -11.132  26.128  1.00  0.00    +0.000 C 
ATOM     82  F14 UNL A   1      22.529 -11.841  25.458  1.00  0.00    +0.000 F 
ATOM     83  C58 UNL A   1      23.891 -11.571  27.372  1.00  0.00    +0.000 C 
ATOM     84  F15 UNL A   1      23.374 -12.699  27.882  1.00  0.00    +0.000 F 
ENDBRANCH   73   74
TORSDOF 18
ENDMDL
MODEL 3
REMARK VINA RESULT:      -9.8     34.819     41.751
ROOT
ATOM    129  H34 UNL A   1      40.947  13.070  54.739  1.00  0.00    +0.000 H 
ATOM    130  H35 UNL A   1      43.887  10.749  52.936  1.00  0.00    +0.000 H 
ATOM    131  H36 UNL A   1      44.886   7.052  56.189  1.00  0.00    +0.000 H 
ATOM    132  H37 UNL A   1      46.599   6.202  54.487  1.00  0.00    +0.000 H 
ATOM    133  H38 UNL A   1      43.961  13.465  48.045  1.00  0.00    +0.000 H 
ATOM    134  H39 UNL A   1      42.428  14.484  49.827  1.00  0.00    +0.000 H 
ATOM     37  C29 UNL A   1      42.349  12.994  52.262  1.00  0.00    +0.000 C 
ATOM     38  C30 UNL A   1      43.178  12.723  51.041  1.00  0.00    +0.000 C 
ATOM     39  N3  UNL A   1      44.042  11.761  50.832  1.00  0.00    +0.000 N 
ATOM     40  C31 UNL A   1      44.517  11.946  49.541  1.00  0.00    +0.000 C 
ATOM     41  C32 UNL A   1      45.442  11.216  48.873  1.00  0.00    +0.000 C 
ATOM     53  C39 UNL A   1      46.135  10.080  49.425  1.00  0.00    +0.000 C 
ATOM     54  C40 UNL A   1      47.139   9.319  48.849  1.00  0.00    +0.000 C 
ATOM     55  C41 UNL A   1      47.469   8.286  49.732  1.00  0.00    +0.000 C 
ATOM     56  C42 UNL A   1      46.702   8.428  50.877  1.00  0.00    +0.000 C 
ATOM     57  N4  UNL A   1      45.891   9.535  50.676  1.00  0.00    +0.000 N 
ATOM     58  C43 UNL A   1      46.704   7.611  52.063  1.00  0.00    +0.000 C 
ATOM     70  C50 UNL A   1      45.964   7.850  53.173  1.00  0.00    +0.000 C 
ATOM     71  N5  UNL A   1      45.060   8.873  53.414  1.00  0.00    +0.000 N 
ATOM     72  C51 UNL A   1      44.580   8.652  54.613  1.00  0.00    +0.000 C 
ATOM     73  C52 UNL A   1      43.568   9.446  55.387  1.00  0.00    +0.000 C 
ATOM     85  C59 UNL A   1      43.031  10.543  54.824  1.00  0.00    +0.000 C 
ATOM     86  C60 UNL A   1      42.034  11.403  55.450  1.00  0.00    +0.000 C 
ATOM     87  C61 UNL A   1      41.666  12.347  54.573  1.00  0.00    +0.000 C 
ATOM     88  C62 UNL A   1      42.445  12.194  53.342  1.00  0.00    +0.000 C 
ATOM     89  N6  UNL A   1      43.236  11.101  53.586  1.00  0.00    +0.000 N 
ATOM     90  C63 UNL A   1      45.120   7.453  55.267  1.00  0.00    +0.000 C 
ATOM     91  C64 UNL A   1      45.986   7.022  54.362  1.00  0.00    +0.000 C 
ATOM     92  C65 UNL A   1      43.833  13.104  49.003  1.00  0.00    +0.000 C 
ATOM     93  C66 UNL A   1      43.019  13.642  49.904  1.00  0.00    +0.000 C 
ATOM    125  H30 UNL A   1      47.570   9.486  47.926  1.00  0.00    +0.000 H 
ATOM    126  H31 UNL A   1      48.164   7.543  49.560  1.00  0.00    +0.000 H 
ATOM    127  H32 UNL A   1      45.239   9.883  51.327  1.00  0.00    +0.000 H 
ATOM    128  H33 UNL A   1      41.671  11.301  56.410  1.00  0.00    +0.000 H 
ENDROOT
BRANCH   37   36
ATOM     33  C25 UNL A   1      39.650  16.297  52.658  1.00  0.00    +0.000 C 
ATOM     34  C26 UNL A   1      40.990  16.427  53.030  1.00  0.00    +0.000 C 
ATOM     35  C27 UNL A   1      41.878  15.379  52.809  1.00  0.00    +0.000 C 
ATOM     36  C28 UNL A   1      41.413  14.145  52.326  1.00  0.00    +0.000 C 
ATOM    135  H40 UNL A   1      39.697  13.089  51.680  1.00  0.00    +0.000 H 
ATOM    136  H41 UNL A   1      38.181  14.973  51.914  1.00  0.00    +0.000 H 
ATOM    123  H28 UNL A   1      41.322  17.301  53.469  1.00  0.00    +0.000 H 
ATOM    124  H29 UNL A   1      42.883  15.510  53.000  1.00  0.00    +0.000 H 
ATOM     94  C67 UNL A   1      40.053  13.997  52.017  1.00  0.00    +0.000 C 
ATOM     95  C68 UNL A   1      39.176  15.077  52.166  1.00  0.00    +0.000 C 
BRANCH   33    2
ATOM      1  O1  UNL A   1      38.272  17.710  53.923  1.00  0.00    +0.000 O 
ATOM      2  C1  UNL A   1      38.704  17.427  52.814  1.00  0.00    +0.000 C 
BRANCH    2    3
ATOM      3  N1  UNL A   1      38.303  18.143  51.710  1.00  0.00    +0.000 N 
ATOM     96  H1  UNL A   1      37.340  18.113  51.512  1.00  0.00    +0.000 H 
BRANCH    3    4
ATOM     97  H2  UNL A   1      38.450  19.500  50.165  1.00  0.00    +0.000 H 
ATOM     98  H3  UNL A   1      39.715  18.263  50.230  1.00  0.00    +0.000 H 
ATOM      4  C2  UNL A   1      39.106  18.937  50.796  1.00  0.00    +0.000 C 
BRANCH    4    5
ATOM     99  H4  UNL A   1      39.811  19.852  52.566  1.00  0.00    +0.000 H 
ATOM    100  H5  UNL A   1      39.855  20.864  51.090  1.00  0.00    +0.000 H 
ATOM      5  C3  UNL A   1      40.033  19.901  51.520  1.00  0.00    +0.000 C 
BRANCH    5    6
ATOM    102  H7  UNL A   1      41.956  20.558  51.043  1.00  0.00    +0.000 H 
ATOM    101  H6  UNL A   1      41.902  19.243  52.266  1.00  0.00    +0.000 H 
ATOM      6  C4  UNL A   1      41.526  19.625  51.340  1.00  0.00    +0.000 C 
BRANCH    6    7
ATOM    103  H8  UNL A   1      41.211  18.768  49.428  1.00  0.00    +0.000 H 
ATOM      7  C5  UNL A   1      41.900  18.630  50.236  1.00  0.00    +0.000 C 
ATOM    104  H9  UNL A   1      41.857  17.667  50.700  1.00  0.00    +0.000 H 
BRANCH    7    8
ATOM    105  H10 UNL A   1      43.981  18.978  50.467  1.00  0.00    +0.000 H 
ATOM    106  H11 UNL A   1      43.266  19.490  48.901  1.00  0.00    +0.000 H 
ATOM      8  C6  UNL A   1      43.319  18.739  49.661  1.00  0.00    +0.000 C 
BRANCH    8    9
ATOM      9  C7  UNL A   1      43.855  17.487  48.970  1.00  0.00    +0.000 C 
ATOM    107  H12 UNL A   1      43.200  16.670  49.186  1.00  0.00    +0.000 H 
ATOM    108  H13 UNL A   1      44.844  17.316  49.344  1.00  0.00    +0.000 H 
BRANCH    9   10
ATOM     10  N2  UNL A   1      43.955  17.632  47.537  1.00  0.00    +0.000 N 
ATOM    109  H14 UNL A   1      43.182  18.052  47.094  1.00  0.00    +0.000 H 
BRANCH   10   11
ATOM     11  C8  UNL A   1      44.980  17.264  46.715  1.00  0.00    +0.000 C 
ATOM     12  O2  UNL A   1      45.818  16.484  47.171  1.00  0.00    +0.000 O 
BRANCH   11   13
ATOM     13  C9  UNL A   1      45.058  17.850  45.287  1.00  0.00    +0.000 C 
ATOM     14  C10 UNL A   1      46.280  17.353  44.527  1.00  0.00    +0.000 C 
ATOM    110  H15 UNL A   1      45.132  18.911  45.415  1.00  0.00    +0.000 H 
ATOM    111  H16 UNL A   1      46.758  16.565  45.069  1.00  0.00    +0.000 H 
ATOM     15  C11 UNL A   1      45.771  16.837  43.180  1.00  0.00    +0.000 C 
ATOM    112  H17 UNL A   1      47.000  18.134  44.397  1.00  0.00    +0.000 H 
ATOM    118  H23 UNL A   1      43.819  16.945  42.468  1.00  0.00    +0.000 H 
ATOM     24  C18 UNL A   1      44.242  16.689  43.417  1.00  0.00    +0.000 C 
ATOM     32  O4  UNL A   1      43.892  17.545  44.521  1.00  0.00    +0.000 O 
BRANCH   15   16
ATOM    113  H18 UNL A   1      45.981  14.904  43.603  1.00  0.00    +0.000 H 
ATOM     16  O3  UNL A   1      46.348  15.532  42.961  1.00  0.00    +0.000 O 
ENDBRANCH   15   16
BRANCH   15   17
ATOM     17  C12 UNL A   1      46.341  17.724  42.054  1.00  0.00    +0.000 C 
ATOM     18  C13 UNL A   1      47.446  17.168  41.344  1.00  0.00    +0.000 C 
ATOM     19  C14 UNL A   1      48.059  17.809  40.266  1.00  0.00    +0.000 C 
ATOM    114  H19 UNL A   1      47.809  16.249  41.641  1.00  0.00    +0.000 H 
ATOM     21  C16 UNL A   1      46.528  19.630  40.528  1.00  0.00    +0.000 C 
ATOM     22  C17 UNL A   1      45.934  19.007  41.644  1.00  0.00    +0.000 C 
ATOM     23 Cl1  UNL A   1      44.778  19.997  42.459  1.00  0.00    +0.000 Cl
ATOM    115  H20 UNL A   1      48.862  17.371  39.790  1.00  0.00    +0.000 H 
ATOM     20  C15 UNL A   1      47.580  19.034  39.839  1.00  0.00    +0.000 C 
ATOM    117  H22 UNL A   1      46.176  20.548  40.216  1.00  0.00    +0.000 H 
ATOM    116  H21 UNL A   1      47.999  19.502  39.019  1.00  0.00    +0.000 H 
ENDBRANCH   15   17
BRANCH   24   25
ATOM    122  H27 UNL A   1      41.779  12.878  42.273  1.00  0.00    +0.000 H 
ATOM    121  H26 UNL A   1      41.912  11.952  44.510  1.00  0.00    +0.000 H 
ATOM    119  H24 UNL A   1      44.309  15.186  45.691  1.00  0.00    +0.000 H 
ATOM    120  H25 UNL A   1      43.207  13.100  46.207  1.00  0.00    +0.000 H 
ATOM     25  C19 UNL A   1      43.649  15.306  43.688  1.00  0.00    +0.000 C 
ATOM     26  C20 UNL A   1      43.754  14.714  44.960  1.00  0.00    +0.000 C 
ATOM     27  C21 UNL A   1      43.125  13.502  45.259  1.00  0.00    +0.000 C 
ATOM     28  C22 UNL A   1      42.391  12.838  44.286  1.00  0.00    +0.000 C 
ATOM     29  C23 UNL A   1      42.306  13.377  43.006  1.00  0.00    +0.000 C 
ATOM     30  C24 UNL A   1      42.932  14.595  42.705  1.00  0.00    +0.000 C 
ATOM     31 Cl2  UNL A   1      42.780  15.144  41.069  1.00  0.00    +0.000 Cl
ENDBRANCH   24   25
ENDBRANCH   11   13
ENDBRANCH   10   11
ENDBRANCH    9   10
ENDBRANCH    8    9
ENDBRANCH    7    8
ENDBRANCH    6    7
ENDBRANCH    5    6
ENDBRANCH    4    5
ENDBRANCH    3    4
ENDBRANCH    2    3
ENDBRANCH   33    2
ENDBRANCH   37   36
BRANCH   41   42
ATOM     42  C33 UNL A   1      45.768  11.606  47.461  1.00  0.00    +0.000 C 
ATOM     43  C34 UNL A   1      46.550  12.732  47.171  1.00  0.00    +0.000 C 
ATOM     44  F1  UNL A   1      46.946  13.552  48.157  1.00  0.00    +0.000 F 
ATOM     45  C35 UNL A   1      46.923  13.027  45.862  1.00  0.00    +0.000 C 
ATOM     46  F2  UNL A   1      47.657  14.119  45.605  1.00  0.00    +0.000 F 
ATOM     47  C36 UNL A   1      46.540  12.191  44.823  1.00  0.00    +0.000 C 
ATOM     48  F3  UNL A   1      46.917  12.465  43.566  1.00  0.00    +0.000 F 
ATOM     49  C37 UNL A   1      45.767  11.071  45.088  1.00  0.00    +0.000 C 
ATOM     50  F4  UNL A   1      45.406  10.255  44.087  1.00  0.00    +0.000 F 
ATOM     51  C38 UNL A   1      45.375  10.786  46.392  1.00  0.00    +0.000 C 
ATOM     52  F5  UNL A   1      44.632   9.692  46.618  1.00  0.00    +0.000 F 
ENDBRANCH   41   42
BRANCH   58   59
ATOM     65  F8  UNL A   1      50.065   3.076  52.180  1.00  0.00    +0.000 F 
ATOM     66  C48 UNL A   1      47.905   4.005  51.951  1.00  0.00    +0.000 C 
ATOM     67  F9  UNL A   1      47.383   2.782  51.786  1.00  0.00    +0.000 F 
ATOM     68  C49 UNL A   1      47.080   5.125  51.905  1.00  0.00    +0.000 C 
ATOM     69  F10 UNL A   1      45.767   4.952  51.684  1.00  0.00    +0.000 F 
ATOM     59  C44 UNL A   1      47.601   6.412  52.092  1.00  0.00    +0.000 C 
ATOM     60  C45 UNL A   1      48.980   6.538  52.324  1.00  0.00    +0.000 C 
ATOM     61  F6  UNL A   1      49.528   7.752  52.489  1.00  0.00    +0.000 F 
ATOM     62  C46 UNL A   1      49.806   5.419  52.341  1.00  0.00    +0.000 C 
ATOM     63  F7  UNL A   1      51.127   5.566  52.515  1.00  0.00    +0.000 F 
ATOM     64  C47 UNL A   1      49.268   4.153  52.161  1.00  0.00    +0.000 C 
ENDBRANCH   58   59
BRANCH   73   74
ATOM     74  C53 UNL A   1      43.142   9.027  56.747  1.00  0.00    +0.000 C 
ATOM     75  C54 UNL A   1      43.727   9.583  57.892  1.00  0.00    +0.000 C 
ATOM     76  F11 UNL A   1      44.702  10.495  57.770  1.00  0.00    +0.000 F 
ATOM     77  C55 UNL A   1      43.340   9.172  59.167  1.00  0.00    +0.000 C 
ATOM     78  F12 UNL A   1      43.949   9.685  60.245  1.00  0.00    +0.000 F 
ATOM     79  C56 UNL A   1      42.340   8.224  59.320  1.00  0.00    +0.000 C 
ATOM     80  F13 UNL A   1      41.966   7.834  60.546  1.00  0.00    +0.000 F 
ATOM     81  C57 UNL A   1      41.733   7.675  58.201  1.00  0.00    +0.000 C 
ATOM     82  F14 UNL A   1      40.755   6.771  58.345  1.00  0.00    +0.000 F 
ATOM     83  C58 UNL A   1      42.140   8.062  56.927  1.00  0.00    +0.000 C 
ATOM     84  F15 UNL A   1      41.546   7.503  55.861  1.00  0.00    +0.000 F 
ENDBRANCH   73   74
TORSDOF 18
ENDMDL
MODEL 4
REMARK VINA RESULT:      -9.7      1.368      2.445
ROOT
ATOM    129  H34 UNL A   1      54.122  20.544   8.844  1.00  0.00    +0.000 H 
ATOM    130  H35 UNL A   1      55.567  20.631  12.741  1.00  0.00    +0.000 H 
ATOM    131  H36 UNL A   1      60.374  19.202  12.443  1.00  0.00    +0.000 H 
ATOM    132  H37 UNL A   1      60.477  19.495  14.984  1.00  0.00    +0.000 H 
ATOM    133  H38 UNL A   1      50.970  22.782  15.098  1.00  0.00    +0.000 H 
ATOM    134  H39 UNL A   1      50.762  22.256  12.599  1.00  0.00    +0.000 H 
ATOM     37  C29 UNL A   1      53.171  21.264  11.429  1.00  0.00    +0.000 C 
ATOM     38  C30 UNL A   1      52.919  21.613  12.867  1.00  0.00    +0.000 C 
ATOM     39  N3  UNL A   1      53.736  21.532  13.887  1.00  0.00    +0.000 N 
ATOM     40  C31 UNL A   1      53.025  21.995  14.985  1.00  0.00    +0.000 C 
ATOM     41  C32 UNL A   1      53.434  22.087  16.273  1.00  0.00    +0.000 C 
ATOM     53  C39 UNL A   1      54.735  21.686  16.744  1.00  0.00    +0.000 C 
ATOM     54  C40 UNL A   1      55.218  21.678  18.043  1.00  0.00    +0.000 C 
ATOM     55  C41 UNL A   1      56.553  21.262  18.013  1.00  0.00    +0.000 C 
ATOM     56  C42 UNL A   1      56.890  20.968  16.702  1.00  0.00    +0.000 C 
ATOM     57  N4  UNL A   1      55.764  21.229  15.935  1.00  0.00    +0.000 N 
ATOM     58  C43 UNL A   1      58.146  20.492  16.186  1.00  0.00    +0.000 C 
ATOM     70  C50 UNL A   1      58.384  20.168  14.892  1.00  0.00    +0.000 C 
ATOM     71  N5  UNL A   1      57.524  20.232  13.806  1.00  0.00    +0.000 N 
ATOM     72  C51 UNL A   1      58.226  19.847  12.769  1.00  0.00    +0.000 C 
ATOM     73  C52 UNL A   1      57.802  19.718  11.334  1.00  0.00    +0.000 C 
ATOM     85  C59 UNL A   1      56.540  20.038  10.997  1.00  0.00    +0.000 C 
ATOM     86  C60 UNL A   1      55.991  19.972   9.648  1.00  0.00    +0.000 C 
ATOM     87  C61 UNL A   1      54.736  20.442   9.668  1.00  0.00    +0.000 C 
ATOM     88  C62 UNL A   1      54.371  20.788  11.045  1.00  0.00    +0.000 C 
ATOM     89  N6  UNL A   1      55.503  20.507  11.766  1.00  0.00    +0.000 N 
ATOM     90  C63 UNL A   1      59.620  19.503  13.079  1.00  0.00    +0.000 C 
ATOM     91  C64 UNL A   1      59.653  19.680  14.392  1.00  0.00    +0.000 C 
ATOM     92  C65 UNL A   1      51.711  22.373  14.507  1.00  0.00    +0.000 C 
ATOM     93  C66 UNL A   1      51.583  22.125  13.209  1.00  0.00    +0.000 C 
ATOM    125  H30 UNL A   1      54.683  21.935  18.888  1.00  0.00    +0.000 H 
ATOM    126  H31 UNL A   1      57.180  21.188  18.829  1.00  0.00    +0.000 H 
ATOM    127  H32 UNL A   1      55.704  21.107  14.960  1.00  0.00    +0.000 H 
ATOM    128  H33 UNL A   1      56.488  19.622   8.815  1.00  0.00    +0.000 H 
ENDROOT
BRANCH   37   36
ATOM     33  C25 UNL A   1      50.007  21.808   8.593  1.00  0.00    +0.000 C 
ATOM     34  C26 UNL A   1      50.765  22.897   9.028  1.00  0.00    +0.000 C 
ATOM     35  C27 UNL A   1      51.849  22.696   9.876  1.00  0.00    +0.000 C 
ATOM     36  C28 UNL A   1      52.116  21.418  10.396  1.00  0.00    +0.000 C 
ATOM    135  H40 UNL A   1      51.485  19.399  10.400  1.00  0.00    +0.000 H 
ATOM    136  H41 UNL A   1      49.693  19.727   8.793  1.00  0.00    +0.000 H 
ATOM    123  H28 UNL A   1      50.520  23.852   8.721  1.00  0.00    +0.000 H 
ATOM    124  H29 UNL A   1      52.461  23.488  10.123  1.00  0.00    +0.000 H 
ATOM     94  C67 UNL A   1      51.311  20.338  10.009  1.00  0.00    +0.000 C 
ATOM     95  C68 UNL A   1      50.268  20.529   9.095  1.00  0.00    +0.000 C 
BRANCH   33    2
ATOM      1  O1  UNL A   1      47.986  22.765   7.891  1.00  0.00    +0.000 O 
ATOM      2  C1  UNL A   1      48.894  21.989   7.630  1.00  0.00    +0.000 C 
BRANCH    2    3
ATOM      3  N1  UNL A   1      48.882  21.275   6.455  1.00  0.00    +0.000 N 
ATOM     96  H1  UNL A   1      49.749  20.902   6.176  1.00  0.00    +0.000 H 
BRANCH    3    4
ATOM     97  H2  UNL A   1      48.146  20.810   4.587  1.00  0.00    +0.000 H 
ATOM     98  H3  UNL A   1      47.115  21.842   5.588  1.00  0.00    +0.000 H 
ATOM      4  C2  UNL A   1      47.765  20.993   5.569  1.00  0.00    +0.000 C 
BRANCH    4    5
ATOM     99  H4  UNL A   1      46.104  20.134   6.553  1.00  0.00    +0.000 H 
ATOM    100  H5  UNL A   1      47.621  19.185   6.605  1.00  0.00    +0.000 H 
ATOM      5  C3  UNL A   1      46.959  19.783   6.014  1.00  0.00    +0.000 C 
BRANCH    5    6
ATOM    102  H7  UNL A   1      45.451  19.164   4.710  1.00  0.00    +0.000 H 
ATOM    101  H6  UNL A   1      47.114  19.024   4.044  1.00  0.00    +0.000 H 
ATOM      6  C4  UNL A   1      46.467  18.879   4.883  1.00  0.00    +0.000 C 
BRANCH    6    7
ATOM    103  H8  UNL A   1      45.412  17.053   5.085  1.00  0.00    +0.000 H 
ATOM      7  C5  UNL A   1      46.426  17.378   5.189  1.00  0.00    +0.000 C 
ATOM    104  H9  UNL A   1      46.826  17.282   6.177  1.00  0.00    +0.000 H 
BRANCH    7    8
ATOM    105  H10 UNL A   1      47.505  16.997   3.402  1.00  0.00    +0.000 H 
ATOM    106  H11 UNL A   1      46.735  15.571   4.176  1.00  0.00    +0.000 H 
ATOM      8  C6  UNL A   1      47.298  16.471   4.310  1.00  0.00    +0.000 C 
BRANCH    8    9
ATOM      9  C7  UNL A   1      48.631  16.038   4.916  1.00  0.00    +0.000 C 
ATOM    107  H12 UNL A   1      49.327  15.865   4.121  1.00  0.00    +0.000 H 
ATOM    108  H13 UNL A   1      48.450  15.151   5.487  1.00  0.00    +0.000 H 
BRANCH    9   10
ATOM     10  N2  UNL A   1      49.190  17.023   5.812  1.00  0.00    +0.000 N 
ATOM    109  H14 UNL A   1      48.844  17.009   6.734  1.00  0.00    +0.000 H 
BRANCH   10   11
ATOM     11  C8  UNL A   1      50.135  17.970   5.550  1.00  0.00    +0.000 C 
ATOM     12  O2  UNL A   1      49.974  18.669   4.547  1.00  0.00    +0.000 O 
BRANCH   11   13
ATOM     13  C9  UNL A   1      51.356  18.107   6.487  1.00  0.00    +0.000 C 
ATOM     14  C10 UNL A   1      51.590  16.850   7.315  1.00  0.00    +0.000 C 
ATOM    110  H15 UNL A   1      51.125  18.921   7.144  1.00  0.00    +0.000 H 
ATOM    111  H16 UNL A   1      50.965  16.055   6.965  1.00  0.00    +0.000 H 
ATOM     15  C11 UNL A   1      53.064  16.483   7.135  1.00  0.00    +0.000 C 
ATOM    112  H17 UNL A   1      51.354  17.014   8.345  1.00  0.00    +0.000 H 
ATOM    118  H23 UNL A   1      54.497  17.578   6.099  1.00  0.00    +0.000 H 
ATOM     24  C18 UNL A   1      53.482  17.312   5.889  1.00  0.00    +0.000 C 
ATOM     32  O4  UNL A   1      52.552  18.405   5.766  1.00  0.00    +0.000 O 
BRANCH   15   16
ATOM    113  H18 UNL A   1      52.253  14.679   6.911  1.00  0.00    +0.000 H 
ATOM     16  O3  UNL A   1      53.133  15.076   6.816  1.00  0.00    +0.000 O 
ENDBRANCH   15   16
BRANCH   15   17
ATOM     17  C12 UNL A   1      53.787  16.625   8.491  1.00  0.00    +0.000 C 
ATOM     18  C13 UNL A   1      52.947  16.961   9.594  1.00  0.00    +0.000 C 
ATOM     19  C14 UNL A   1      53.420  17.086  10.901  1.00  0.00    +0.000 C 
ATOM    114  H19 UNL A   1      51.942  17.120   9.417  1.00  0.00    +0.000 H 
ATOM     21  C16 UNL A   1      55.620  16.570  10.113  1.00  0.00    +0.000 C 
ATOM     22  C17 UNL A   1      55.156  16.486   8.785  1.00  0.00    +0.000 C 
ATOM     23 Cl1  UNL A   1      56.414  16.298   7.619  1.00  0.00    +0.000 Cl
ATOM    115  H20 UNL A   1      52.775  17.341  11.664  1.00  0.00    +0.000 H 
ATOM     20  C15 UNL A   1      54.759  16.863  11.166  1.00  0.00    +0.000 C 
ATOM    117  H22 UNL A   1      56.620  16.412  10.308  1.00  0.00    +0.000 H 
ATOM    116  H21 UNL A   1      55.116  16.914  12.133  1.00  0.00    +0.000 H 
ENDBRANCH   15   17
BRANCH   24   25
ATOM    122  H27 UNL A   1      55.669  16.210   1.901  1.00  0.00    +0.000 H 
ATOM    121  H26 UNL A   1      53.706  15.143   0.959  1.00  0.00    +0.000 H 
ATOM    119  H24 UNL A   1      51.623  15.852   4.531  1.00  0.00    +0.000 H 
ATOM    120  H25 UNL A   1      51.694  14.942   2.295  1.00  0.00    +0.000 H 
ATOM     25  C19 UNL A   1      53.587  16.628   4.526  1.00  0.00    +0.000 C 
ATOM     26  C20 UNL A   1      52.484  15.954   3.972  1.00  0.00    +0.000 C 
ATOM     27  C21 UNL A   1      52.525  15.417   2.681  1.00  0.00    +0.000 C 
ATOM     28  C22 UNL A   1      53.680  15.523   1.918  1.00  0.00    +0.000 C 
ATOM     29  C23 UNL A   1      54.802  16.146   2.456  1.00  0.00    +0.000 C 
ATOM     30  C24 UNL A   1      54.762  16.689   3.747  1.00  0.00    +0.000 C 
ATOM     31 Cl2  UNL A   1      56.231  17.409   4.316  1.00  0.00    +0.000 Cl
ENDBRANCH   24   25
ENDBRANCH   11   13
ENDBRANCH   10   11
ENDBRANCH    9   10
ENDBRANCH    8    9
ENDBRANCH    7    8
ENDBRANCH    6    7
ENDBRANCH    5    6
ENDBRANCH    4    5
ENDBRANCH    3    4
ENDBRANCH    2    3
ENDBRANCH   33    2
ENDBRANCH   37   36
BRANCH   41   42
ATOM     42  C33 UNL A   1      52.477  22.652  17.282  1.00  0.00    +0.000 C 
ATOM     43  C34 UNL A   1      52.240  24.030  17.380  1.00  0.00    +0.000 C 
ATOM     44  F1  UNL A   1      52.947  24.891  16.633  1.00  0.00    +0.000 F 
ATOM     45  C35 UNL A   1      51.279  24.530  18.255  1.00  0.00    +0.000 C 
ATOM     46  F2  UNL A   1      51.081  25.853  18.346  1.00  0.00    +0.000 F 
ATOM     47  C36 UNL A   1      50.523  23.663  19.031  1.00  0.00    +0.000 C 
ATOM     48  F3  UNL A   1      49.584  24.146  19.858  1.00  0.00    +0.000 F 
ATOM     49  C37 UNL A   1      50.740  22.296  18.948  1.00  0.00    +0.000 C 
ATOM     50  F4  UNL A   1      50.001  21.456  19.688  1.00  0.00    +0.000 F 
ATOM     51  C38 UNL A   1      51.714  21.795  18.090  1.00  0.00    +0.000 C 
ATOM     52  F5  UNL A   1      51.898  20.467  18.028  1.00  0.00    +0.000 F 
ENDBRANCH   41   42
BRANCH   58   59
ATOM     65  F8  UNL A   1      62.446  19.863  19.791  1.00  0.00    +0.000 F 
ATOM     66  C48 UNL A   1      61.291  21.184  18.210  1.00  0.00    +0.000 C 
ATOM     67  F9  UNL A   1      62.184  22.171  18.363  1.00  0.00    +0.000 F 
ATOM     68  C49 UNL A   1      60.221  21.346  17.335  1.00  0.00    +0.000 C 
ATOM     69  F10 UNL A   1      60.102  22.502  16.664  1.00  0.00    +0.000 F 
ATOM     59  C44 UNL A   1      59.284  20.320  17.146  1.00  0.00    +0.000 C 
ATOM     60  C45 UNL A   1      59.455  19.129  17.868  1.00  0.00    +0.000 C 
ATOM     61  F6  UNL A   1      58.572  18.127  17.736  1.00  0.00    +0.000 F 
ATOM     62  C46 UNL A   1      60.509  18.982  18.764  1.00  0.00    +0.000 C 
ATOM     63  F7  UNL A   1      60.626  17.855  19.480  1.00  0.00    +0.000 F 
ATOM     64  C47 UNL A   1      61.430  20.006  18.930  1.00  0.00    +0.000 C 
ENDBRANCH   58   59
BRANCH   73   74
ATOM     74  C53 UNL A   1      58.756  19.265  10.290  1.00  0.00    +0.000 C 
ATOM     75  C54 UNL A   1      59.394  20.182   9.447  1.00  0.00    +0.000 C 
ATOM     76  F11 UNL A   1      59.134  21.493   9.563  1.00  0.00    +0.000 F 
ATOM     77  C55 UNL A   1      60.273  19.753   8.453  1.00  0.00    +0.000 C 
ATOM     78  F12 UNL A   1      60.835  20.647   7.629  1.00  0.00    +0.000 F 
ATOM     79  C56 UNL A   1      60.553  18.403   8.307  1.00  0.00    +0.000 C 
ATOM     80  F13 UNL A   1      61.400  17.991   7.354  1.00  0.00    +0.000 F 
ATOM     81  C57 UNL A   1      59.947  17.478   9.144  1.00  0.00    +0.000 C 
ATOM     82  F14 UNL A   1      60.226  16.174   9.016  1.00  0.00    +0.000 F 
ATOM     83  C58 UNL A   1      59.045  17.904  10.115  1.00  0.00    +0.000 C 
ATOM     84  F15 UNL A   1      58.462  16.986  10.902  1.00  0.00    +0.000 F 
ENDBRANCH   73   74
TORSDOF 18
ENDMDL
MODEL 5
REMARK VINA RESULT:      -9.6     35.677     41.185
ROOT
ATOM    129  H34 UNL A   1      49.187   9.008  52.815  1.00  0.00    +0.000 H 
ATOM    130  H35 UNL A   1      48.848  12.014  49.963  1.00  0.00    +0.000 H 
ATOM    131  H36 UNL A   1      52.530  15.277  50.982  1.00  0.00    +0.000 H 
ATOM    132  H37 UNL A   1      51.683  16.645  48.991  1.00  0.00    +0.000 H 
ATOM    133  H38 UNL A   1      44.758   9.631  46.980  1.00  0.00    +0.000 H 
ATOM    134  H39 UNL A   1      45.417   8.373  49.113  1.00  0.00    +0.000 H 
ATOM     37  C29 UNL A   1      47.582   9.578  50.534  1.00  0.00    +0.000 C 
ATOM     38  C30 UNL A   1      46.904  10.075  49.290  1.00  0.00    +0.000 C 
ATOM     39  N3  UNL A   1      47.150  11.159  48.598  1.00  0.00    +0.000 N 
ATOM     40  C31 UNL A   1      46.264  11.142  47.531  1.00  0.00    +0.000 C 
ATOM     41  C32 UNL A   1      46.117  12.060  46.546  1.00  0.00    +0.000 C 
ATOM     53  C39 UNL A   1      46.883  13.276  46.446  1.00  0.00    +0.000 C 
ATOM     54  C40 UNL A   1      46.758  14.300  45.522  1.00  0.00    +0.000 C 
ATOM     55  C41 UNL A   1      47.752  15.250  45.781  1.00  0.00    +0.000 C 
ATOM     56  C42 UNL A   1      48.469  14.840  46.893  1.00  0.00    +0.000 C 
ATOM     57  N4  UNL A   1      47.922  13.629  47.293  1.00  0.00    +0.000 N 
ATOM     58  C43 UNL A   1      49.574  15.498  47.540  1.00  0.00    +0.000 C 
ATOM     70  C50 UNL A   1      50.188  15.063  48.666  1.00  0.00    +0.000 C 
ATOM     71  N5  UNL A   1      49.927  13.927  49.418  1.00  0.00    +0.000 N 
ATOM     72  C51 UNL A   1      50.809  13.928  50.387  1.00  0.00    +0.000 C 
ATOM     73  C52 UNL A   1      50.990  12.938  51.501  1.00  0.00    +0.000 C 
ATOM     85  C59 UNL A   1      50.174  11.871  51.564  1.00  0.00    +0.000 C 
ATOM     86  C60 UNL A   1      50.237  10.827  52.579  1.00  0.00    +0.000 C 
ATOM     87  C61 UNL A   1      49.334   9.881  52.285  1.00  0.00    +0.000 C 
ATOM     88  C62 UNL A   1      48.586  10.284  51.090  1.00  0.00    +0.000 C 
ATOM     89  N6  UNL A   1      49.149  11.483  50.736  1.00  0.00    +0.000 N 
ATOM     90  C63 UNL A   1      51.739  15.064  50.355  1.00  0.00    +0.000 C 
ATOM     91  C64 UNL A   1      51.294  15.745  49.309  1.00  0.00    +0.000 C 
ATOM     92  C65 UNL A   1      45.481   9.929  47.653  1.00  0.00    +0.000 C 
ATOM     93  C66 UNL A   1      45.816   9.250  48.744  1.00  0.00    +0.000 C 
ATOM    125  H30 UNL A   1      46.052  14.354  44.771  1.00  0.00    +0.000 H 
ATOM    126  H31 UNL A   1      47.924  16.109  45.236  1.00  0.00    +0.000 H 
ATOM    127  H32 UNL A   1      48.227  13.099  48.065  1.00  0.00    +0.000 H 
ATOM    128  H33 UNL A   1      50.875  10.816  53.390  1.00  0.00    +0.000 H 
ENDROOT
BRANCH   37   36
ATOM     33  C25 UNL A   1      46.512   5.980  52.598  1.00  0.00    +0.000 C 
ATOM     34  C26 UNL A   1      46.069   7.222  53.060  1.00  0.00    +0.000 C 
ATOM     35  C27 UNL A   1      46.343   8.374  52.330  1.00  0.00    +0.000 C 
ATOM     36  C28 UNL A   1      47.166   8.315  51.193  1.00  0.00    +0.000 C 
ATOM    135  H40 UNL A   1      48.286   7.021  49.948  1.00  0.00    +0.000 H 
ATOM    136  H41 UNL A   1      47.672   4.991  51.134  1.00  0.00    +0.000 H 
ATOM    123  H28 UNL A   1      45.539   7.285  53.944  1.00  0.00    +0.000 H 
ATOM    124  H29 UNL A   1      45.939   9.276  52.624  1.00  0.00    +0.000 H 
ATOM     94  C67 UNL A   1      47.665   7.074  50.771  1.00  0.00    +0.000 C 
ATOM     95  C68 UNL A   1      47.324   5.906  51.462  1.00  0.00    +0.000 C 
BRANCH   33    2
ATOM      1  O1  UNL A   1      46.028   4.751  54.535  1.00  0.00    +0.000 O 
ATOM      2  C1  UNL A   1      46.167   4.732  53.319  1.00  0.00    +0.000 C 
BRANCH    2    3
ATOM      3  N1  UNL A   1      46.018   3.556  52.621  1.00  0.00    +0.000 N 
ATOM     96  H1  UNL A   1      46.718   2.881  52.774  1.00  0.00    +0.000 H 
BRANCH    3    4
ATOM     97  H2  UNL A   1      44.918   2.105  51.656  1.00  0.00    +0.000 H 
ATOM     98  H3  UNL A   1      45.219   3.586  50.735  1.00  0.00    +0.000 H 
ATOM      4  C2  UNL A   1      44.971   3.173  51.690  1.00  0.00    +0.000 C 
BRANCH    4    5
ATOM     99  H4  UNL A   1      43.740   4.348  52.943  1.00  0.00    +0.000 H 
ATOM    100  H5  UNL A   1      42.991   2.864  52.279  1.00  0.00    +0.000 H 
ATOM      5  C3  UNL A   1      43.608   3.717  52.089  1.00  0.00    +0.000 C 
BRANCH    5    6
ATOM    102  H7  UNL A   1      43.217   4.115  50.077  1.00  0.00    +0.000 H 
ATOM    101  H6  UNL A   1      41.838   4.443  51.183  1.00  0.00    +0.000 H 
ATOM      6  C4  UNL A   1      42.891   4.527  51.009  1.00  0.00    +0.000 C 
BRANCH    6    7
ATOM    103  H8  UNL A   1      42.764   6.423  50.071  1.00  0.00    +0.000 H 
ATOM      7  C5  UNL A   1      43.237   6.018  50.942  1.00  0.00    +0.000 C 
ATOM    104  H9  UNL A   1      44.307   6.058  50.928  1.00  0.00    +0.000 H 
BRANCH    7    8
ATOM    105  H10 UNL A   1      43.697   7.105  52.706  1.00  0.00    +0.000 H 
ATOM    106  H11 UNL A   1      42.093   6.298  52.674  1.00  0.00    +0.000 H 
ATOM      8  C6  UNL A   1      42.817   6.878  52.141  1.00  0.00    +0.000 C 
BRANCH    8    9
ATOM      9  C7  UNL A   1      42.124   8.197  51.805  1.00  0.00    +0.000 C 
ATOM    107  H12 UNL A   1      41.278   8.312  52.449  1.00  0.00    +0.000 H 
ATOM    108  H13 UNL A   1      41.838   8.154  50.774  1.00  0.00    +0.000 H 
BRANCH    9   10
ATOM     10  N2  UNL A   1      42.986   9.345  51.967  1.00  0.00    +0.000 N 
ATOM    109  H14 UNL A   1      43.953   9.156  51.981  1.00  0.00    +0.000 H 
BRANCH   10   11
ATOM     11  C8  UNL A   1      42.637  10.656  52.103  1.00  0.00    +0.000 C 
ATOM     12  O2  UNL A   1      41.904  10.952  53.048  1.00  0.00    +0.000 O 
BRANCH   11   13
ATOM     13  C9  UNL A   1      43.143  11.688  51.070  1.00  0.00    +0.000 C 
ATOM     14  C10 UNL A   1      42.738  13.111  51.431  1.00  0.00    +0.000 C 
ATOM    110  H15 UNL A   1      42.682  11.417  50.142  1.00  0.00    +0.000 H 
ATOM    111  H16 UNL A   1      42.325  13.139  52.418  1.00  0.00    +0.000 H 
ATOM     15  C11 UNL A   1      44.013  13.953  51.367  1.00  0.00    +0.000 C 
ATOM    112  H17 UNL A   1      41.992  13.485  50.761  1.00  0.00    +0.000 H 
ATOM    118  H23 UNL A   1      45.893  13.311  50.749  1.00  0.00    +0.000 H 
ATOM     24  C18 UNL A   1      45.140  12.883  51.377  1.00  0.00    +0.000 C 
ATOM     32  O4  UNL A   1      44.563  11.644  50.923  1.00  0.00    +0.000 O 
BRANCH   15   16
ATOM    113  H18 UNL A   1      43.754  15.630  52.408  1.00  0.00    +0.000 H 
ATOM     16  O3  UNL A   1      44.088  14.735  52.579  1.00  0.00    +0.000 O 
ENDBRANCH   15   16
BRANCH   15   17
ATOM     17  C12 UNL A   1      43.877  14.986  50.229  1.00  0.00    +0.000 C 
ATOM     18  C13 UNL A   1      45.008  15.090  49.366  1.00  0.00    +0.000 C 
ATOM     19  C14 UNL A   1      45.044  15.938  48.258  1.00  0.00    +0.000 C 
ATOM    114  H19 UNL A   1      45.838  14.511  49.570  1.00  0.00    +0.000 H 
ATOM     21  C16 UNL A   1      42.829  16.669  48.793  1.00  0.00    +0.000 C 
ATOM     22  C17 UNL A   1      42.804  15.847  49.937  1.00  0.00    +0.000 C 
ATOM     23 Cl1  UNL A   1      41.414  16.085  50.933  1.00  0.00    +0.000 Cl
ATOM    115  H20 UNL A   1      45.890  15.986  47.668  1.00  0.00    +0.000 H 
ATOM     20  C15 UNL A   1      43.939  16.712  47.954  1.00  0.00    +0.000 C 
ATOM    117  H22 UNL A   1      42.008  17.252  48.572  1.00  0.00    +0.000 H 
ATOM    116  H21 UNL A   1      43.937  17.315  47.116  1.00  0.00    +0.000 H 
ENDBRANCH   15   17
BRANCH   24   25
ATOM    122  H27 UNL A   1      48.673  13.483  54.388  1.00  0.00    +0.000 H 
ATOM    121  H26 UNL A   1      47.962  11.645  55.801  1.00  0.00    +0.000 H 
ATOM    119  H24 UNL A   1      44.612  11.068  53.342  1.00  0.00    +0.000 H 
ATOM    120  H25 UNL A   1      45.911  10.461  55.286  1.00  0.00    +0.000 H 
ATOM     25  C19 UNL A   1      45.903  12.600  52.672  1.00  0.00    +0.000 C 
ATOM     26  C20 UNL A   1      45.488  11.576  53.542  1.00  0.00    +0.000 C 
ATOM     27  C21 UNL A   1      46.232  11.228  54.674  1.00  0.00    +0.000 C 
ATOM     28  C22 UNL A   1      47.403  11.911  54.976  1.00  0.00    +0.000 C 
ATOM     29  C23 UNL A   1      47.815  12.958  54.157  1.00  0.00    +0.000 C 
ATOM     30  C24 UNL A   1      47.073  13.306  53.020  1.00  0.00    +0.000 C 
ATOM     31 Cl2  UNL A   1      47.672  14.647  52.102  1.00  0.00    +0.000 Cl
ENDBRANCH   24   25
ENDBRANCH   11   13
ENDBRANCH   10   11
ENDBRANCH    9   10
ENDBRANCH    8    9
ENDBRANCH    7    8
ENDBRANCH    6    7
ENDBRANCH    5    6
ENDBRANCH    4    5
ENDBRANCH    3    4
ENDBRANCH    2    3
ENDBRANCH   33    2
ENDBRANCH   37   36
BRANCH   41   42
ATOM     42  C33 UNL A   1      45.095  11.797  45.479  1.00  0.00    +0.000 C 
ATOM     43  C34 UNL A   1      45.255  10.764  44.545  1.00  0.00    +0.000 C 
ATOM     44  F1  UNL A   1      46.388  10.045  44.522  1.00  0.00    +0.000 F 
ATOM     45  C35 UNL A   1      44.255  10.471  43.622  1.00  0.00    +0.000 C 
ATOM     46  F2  UNL A   1      44.436   9.491  42.726  1.00  0.00    +0.000 F 
ATOM     47  C36 UNL A   1      43.067  11.190  43.629  1.00  0.00    +0.000 C 
ATOM     48  F3  UNL A   1      42.097  10.893  42.753  1.00  0.00    +0.000 F 
ATOM     49  C37 UNL A   1      42.887  12.214  44.545  1.00  0.00    +0.000 C 
ATOM     50  F4  UNL A   1      41.735  12.901  44.562  1.00  0.00    +0.000 F 
ATOM     51  C38 UNL A   1      43.894  12.523  45.455  1.00  0.00    +0.000 C 
ATOM     52  F5  UNL A   1      43.688  13.517  46.333  1.00  0.00    +0.000 F 
ENDBRANCH   41   42
BRANCH   58   59
ATOM     65  F8  UNL A   1      51.515  20.295  45.281  1.00  0.00    +0.000 F 
ATOM     66  C48 UNL A   1      51.699  17.957  45.565  1.00  0.00    +0.000 C 
ATOM     67  F9  UNL A   1      52.788  17.935  44.785  1.00  0.00    +0.000 F 
ATOM     68  C49 UNL A   1      51.210  16.772  46.108  1.00  0.00    +0.000 C 
ATOM     69  F10 UNL A   1      51.841  15.622  45.826  1.00  0.00    +0.000 F 
ATOM     59  C44 UNL A   1      50.082  16.774  46.941  1.00  0.00    +0.000 C 
ATOM     60  C45 UNL A   1      49.461  18.004  47.208  1.00  0.00    +0.000 C 
ATOM     61  F6  UNL A   1      48.367  18.052  47.983  1.00  0.00    +0.000 F 
ATOM     62  C46 UNL A   1      49.935  19.182  46.641  1.00  0.00    +0.000 C 
ATOM     63  F7  UNL A   1      49.297  20.338  46.869  1.00  0.00    +0.000 F 
ATOM     64  C47 UNL A   1      51.058  19.159  45.825  1.00  0.00    +0.000 C 
ENDBRANCH   58   59
BRANCH   73   74
ATOM     74  C53 UNL A   1      52.063  13.111  52.514  1.00  0.00    +0.000 C 
ATOM     75  C54 UNL A   1      53.308  12.489  52.362  1.00  0.00    +0.000 C 
ATOM     76  F11 UNL A   1      53.541  11.708  51.297  1.00  0.00    +0.000 F 
ATOM     77  C55 UNL A   1      54.306  12.636  53.324  1.00  0.00    +0.000 C 
ATOM     78  F12 UNL A   1      55.472  11.993  53.178  1.00  0.00    +0.000 F 
ATOM     79  C56 UNL A   1      54.088  13.431  54.439  1.00  0.00    +0.000 C 
ATOM     80  F13 UNL A   1      55.049  13.574  55.361  1.00  0.00    +0.000 F 
ATOM     81  C57 UNL A   1      52.869  14.072  54.600  1.00  0.00    +0.000 C 
ATOM     82  F14 UNL A   1      52.660  14.855  55.667  1.00  0.00    +0.000 F 
ATOM     83  C58 UNL A   1      51.861  13.902  53.655  1.00  0.00    +0.000 C 
ATOM     84  F15 UNL A   1      50.686  14.522  53.844  1.00  0.00    +0.000 F 
ENDBRANCH   73   74
TORSDOF 18
ENDMDL
MODEL 6
REMARK VINA RESULT:      -9.5     28.885     34.389
ROOT
ATOM    129  H34 UNL A   1      44.882  52.262  16.065  1.00  0.00    +0.000 H 
ATOM    130  H35 UNL A   1      48.483  52.863  18.054  1.00  0.00    +0.000 H 
ATOM    131  H36 UNL A   1      50.128  57.368  16.558  1.00  0.00    +0.000 H 
ATOM    132  H37 UNL A   1      52.152  56.983  18.078  1.00  0.00    +0.000 H 
ATOM    133  H38 UNL A   1      48.276  48.239  21.198  1.00  0.00    +0.000 H 
ATOM    134  H39 UNL A   1      46.373  48.480  19.499  1.00  0.00    +0.000 H 
ATOM     37  C29 UNL A   1      46.472  50.910  18.001  1.00  0.00    +0.000 C 
ATOM     38  C30 UNL A   1      47.450  50.418  19.027  1.00  0.00    +0.000 C 
ATOM     39  N3  UNL A   1      48.554  50.985  19.448  1.00  0.00    +0.000 N 
ATOM     40  C31 UNL A   1      49.076  50.135  20.414  1.00  0.00    +0.000 C 
ATOM     41  C32 UNL A   1      50.219  50.277  21.127  1.00  0.00    +0.000 C 
ATOM     53  C39 UNL A   1      51.135  51.380  20.986  1.00  0.00    +0.000 C 
ATOM     54  C40 UNL A   1      52.353  51.576  21.617  1.00  0.00    +0.000 C 
ATOM     55  C41 UNL A   1      52.864  52.813  21.211  1.00  0.00    +0.000 C 
ATOM     56  C42 UNL A   1      51.987  53.369  20.294  1.00  0.00    +0.000 C 
ATOM     57  N4  UNL A   1      50.933  52.477  20.163  1.00  0.00    +0.000 N 
ATOM     58  C43 UNL A   1      52.098  54.623  19.595  1.00  0.00    +0.000 C 
ATOM     70  C50 UNL A   1      51.224  55.074  18.663  1.00  0.00    +0.000 C 
ATOM     71  N5  UNL A   1      50.063  54.477  18.196  1.00  0.00    +0.000 N 
ATOM     72  C51 UNL A   1      49.552  55.316  17.329  1.00  0.00    +0.000 C 
ATOM     73  C52 UNL A   1      48.300  55.185  16.510  1.00  0.00    +0.000 C 
ATOM     85  C59 UNL A   1      47.545  54.081  16.648  1.00  0.00    +0.000 C 
ATOM     86  C60 UNL A   1      46.304  53.820  15.929  1.00  0.00    +0.000 C 
ATOM     87  C61 UNL A   1      45.779  52.670  16.374  1.00  0.00    +0.000 C 
ATOM     88  C62 UNL A   1      46.679  52.082  17.370  1.00  0.00    +0.000 C 
ATOM     89  N6  UNL A   1      47.706  52.986  17.461  1.00  0.00    +0.000 N 
ATOM     90  C63 UNL A   1      50.329  56.550  17.154  1.00  0.00    +0.000 C 
ATOM     91  C64 UNL A   1      51.357  56.335  17.962  1.00  0.00    +0.000 C 
ATOM     92  C65 UNL A   1      48.161  49.019  20.532  1.00  0.00    +0.000 C 
ATOM     93  C66 UNL A   1      47.156  49.129  19.672  1.00  0.00    +0.000 C 
ATOM    125  H30 UNL A   1      52.806  50.920  22.273  1.00  0.00    +0.000 H 
ATOM    126  H31 UNL A   1      53.744  53.240  21.540  1.00  0.00    +0.000 H 
ATOM    127  H32 UNL A   1      50.155  52.604  19.571  1.00  0.00    +0.000 H 
ATOM    128  H33 UNL A   1      45.895  54.423  15.199  1.00  0.00    +0.000 H 
ENDROOT
BRANCH   37   36
ATOM     33  C25 UNL A   1      42.999  48.549  17.154  1.00  0.00    +0.000 C 
ATOM     34  C26 UNL A   1      42.953  49.556  18.121  1.00  0.00    +0.000 C 
ATOM     35  C27 UNL A   1      44.058  50.378  18.320  1.00  0.00    +0.000 C 
ATOM     36  C28 UNL A   1      45.263  50.126  17.643  1.00  0.00    +0.000 C 
ATOM    135  H40 UNL A   1      46.209  48.864  16.233  1.00  0.00    +0.000 H 
ATOM    136  H41 UNL A   1      44.230  47.534  15.768  1.00  0.00    +0.000 H 
ATOM    123  H28 UNL A   1      42.101  49.691  18.687  1.00  0.00    +0.000 H 
ATOM    124  H29 UNL A   1      43.992  51.177  18.969  1.00  0.00    +0.000 H 
ATOM     94  C67 UNL A   1      45.324  49.071  16.722  1.00  0.00    +0.000 C 
ATOM     95  C68 UNL A   1      44.189  48.294  16.465  1.00  0.00    +0.000 C 
BRANCH   33    2
ATOM      1  O1  UNL A   1      40.721  48.025  17.334  1.00  0.00    +0.000 O 
ATOM      2  C1  UNL A   1      41.810  47.711  16.871  1.00  0.00    +0.000 C 
BRANCH    2    3
ATOM      3  N1  UNL A   1      41.937  46.578  16.101  1.00  0.00    +0.000 N 
ATOM     96  H1  UNL A   1      41.839  46.711  15.131  1.00  0.00    +0.000 H 
BRANCH    3    4
ATOM     97  H2  UNL A   1      43.230  44.994  16.359  1.00  0.00    +0.000 H 
ATOM     98  H3  UNL A   1      41.562  44.570  15.948  1.00  0.00    +0.000 H 
ATOM      4  C2  UNL A   1      42.195  45.212  16.523  1.00  0.00    +0.000 C 
BRANCH    4    5
ATOM     99  H4  UNL A   1      41.102  44.247  18.052  1.00  0.00    +0.000 H 
ATOM    100  H5  UNL A   1      41.589  45.938  18.385  1.00  0.00    +0.000 H 
ATOM      5  C3  UNL A   1      41.875  44.984  17.992  1.00  0.00    +0.000 C 
BRANCH    5    6
ATOM    102  H7  UNL A   1      42.873  44.907  19.823  1.00  0.00    +0.000 H 
ATOM    101  H6  UNL A   1      43.072  43.440  18.805  1.00  0.00    +0.000 H 
ATOM      6  C4  UNL A   1      43.050  44.508  18.847  1.00  0.00    +0.000 C 
BRANCH    6    7
ATOM    103  H8  UNL A   1      44.385  45.297  17.404  1.00  0.00    +0.000 H 
ATOM      7  C5  UNL A   1      44.434  45.023  18.437  1.00  0.00    +0.000 C 
ATOM    104  H9  UNL A   1      45.108  44.221  18.655  1.00  0.00    +0.000 H 
BRANCH    7    8
ATOM    105  H10 UNL A   1      44.173  46.922  19.348  1.00  0.00    +0.000 H 
ATOM    106  H11 UNL A   1      45.787  46.611  18.625  1.00  0.00    +0.000 H 
ATOM      8  C6  UNL A   1      44.978  46.230  19.213  1.00  0.00    +0.000 C 
BRANCH    8    9
ATOM      9  C7  UNL A   1      45.571  45.927  20.587  1.00  0.00    +0.000 C 
ATOM    107  H12 UNL A   1      44.784  45.599  21.233  1.00  0.00    +0.000 H 
ATOM    108  H13 UNL A   1      46.030  46.828  20.942  1.00  0.00    +0.000 H 
BRANCH    9   10
ATOM     10  N2  UNL A   1      46.593  44.907  20.549  1.00  0.00    +0.000 N 
ATOM    109  H14 UNL A   1      47.398  45.127  20.026  1.00  0.00    +0.000 H 
BRANCH   10   11
ATOM     11  C8  UNL A   1      46.588  43.680  21.142  1.00  0.00    +0.000 C 
ATOM     12  O2  UNL A   1      46.243  42.718  20.452  1.00  0.00    +0.000 O 
BRANCH   11   13
ATOM     13  C9  UNL A   1      46.984  43.553  22.631  1.00  0.00    +0.000 C 
ATOM     14  C10 UNL A   1      46.791  44.859  23.391  1.00  0.00    +0.000 C 
ATOM    110  H15 UNL A   1      48.024  43.298  22.632  1.00  0.00    +0.000 H 
ATOM    111  H16 UNL A   1      46.261  45.564  22.786  1.00  0.00    +0.000 H 
ATOM     15  C11 UNL A   1      45.977  44.516  24.640  1.00  0.00    +0.000 C 
ATOM    112  H17 UNL A   1      47.730  45.301  23.649  1.00  0.00    +0.000 H 
ATOM    118  H23 UNL A   1      45.394  42.617  25.257  1.00  0.00    +0.000 H 
ATOM     24  C18 UNL A   1      45.401  43.111  24.308  1.00  0.00    +0.000 C 
ATOM     32  O4  UNL A   1      46.243  42.529  23.294  1.00  0.00    +0.000 O 
BRANCH   15   16
ATOM    113  H18 UNL A   1      45.223  46.355  24.537  1.00  0.00    +0.000 H 
ATOM     16  O3  UNL A   1      44.892  45.465  24.735  1.00  0.00    +0.000 O 
ENDBRANCH   15   16
BRANCH   15   17
ATOM     17  C12 UNL A   1      46.845  44.769  25.890  1.00  0.00    +0.000 C 
ATOM     18  C13 UNL A   1      48.136  45.316  25.632  1.00  0.00    +0.000 C 
ATOM     19  C14 UNL A   1      49.037  45.651  26.644  1.00  0.00    +0.000 C 
ATOM    114  H19 UNL A   1      48.418  45.471  24.651  1.00  0.00    +0.000 H 
ATOM     21  C16 UNL A   1      47.441  44.900  28.261  1.00  0.00    +0.000 C 
ATOM     22  C17 UNL A   1      46.545  44.520  27.242  1.00  0.00    +0.000 C 
ATOM     23 Cl1  UNL A   1      45.157  43.671  27.818  1.00  0.00    +0.000 Cl
ATOM    115  H20 UNL A   1      49.965  46.034  26.407  1.00  0.00    +0.000 H 
ATOM     20  C15 UNL A   1      48.678  45.466  27.967  1.00  0.00    +0.000 C 
ATOM    117  H22 UNL A   1      47.175  44.754  29.247  1.00  0.00    +0.000 H 
ATOM    116  H21 UNL A   1      49.318  45.745  28.727  1.00  0.00    +0.000 H 
ENDBRANCH   15   17
BRANCH   24   25
ATOM    122  H27 UNL A   1      41.093  41.290  24.470  1.00  0.00    +0.000 H 
ATOM    121  H26 UNL A   1      40.380  42.446  22.462  1.00  0.00    +0.000 H 
ATOM    119  H24 UNL A   1      44.114  44.347  22.246  1.00  0.00    +0.000 H 
ATOM    120  H25 UNL A   1      41.889  43.998  21.373  1.00  0.00    +0.000 H 
ATOM     25  C19 UNL A   1      43.950  42.978  23.846  1.00  0.00    +0.000 C 
ATOM     26  C20 UNL A   1      43.487  43.676  22.716  1.00  0.00    +0.000 C 
ATOM     27  C21 UNL A   1      42.196  43.484  22.214  1.00  0.00    +0.000 C 
ATOM     28  C22 UNL A   1      41.327  42.602  22.842  1.00  0.00    +0.000 C 
ATOM     29  C23 UNL A   1      41.742  41.930  23.988  1.00  0.00    +0.000 C 
ATOM     30  C24 UNL A   1      43.037  42.117  24.491  1.00  0.00    +0.000 C 
ATOM     31 Cl2  UNL A   1      43.422  41.251  25.940  1.00  0.00    +0.000 Cl
ENDBRANCH   24   25
ENDBRANCH   11   13
ENDBRANCH   10   11
ENDBRANCH    9   10
ENDBRANCH    8    9
ENDBRANCH    7    8
ENDBRANCH    6    7
ENDBRANCH    5    6
ENDBRANCH    4    5
ENDBRANCH    3    4
ENDBRANCH    2    3
ENDBRANCH   33    2
ENDBRANCH   37   36
BRANCH   41   42
ATOM     42  C33 UNL A   1      50.555  49.224  22.142  1.00  0.00    +0.000 C 
ATOM     43  C34 UNL A   1      51.355  48.119  21.817  1.00  0.00    +0.000 C 
ATOM     44  F1  UNL A   1      51.758  47.926  20.552  1.00  0.00    +0.000 F 
ATOM     45  C35 UNL A   1      51.737  47.201  22.792  1.00  0.00    +0.000 C 
ATOM     46  F2  UNL A   1      52.488  46.142  22.457  1.00  0.00    +0.000 F 
ATOM     47  C36 UNL A   1      51.346  47.382  24.112  1.00  0.00    +0.000 C 
ATOM     48  F3  UNL A   1      51.732  46.508  25.053  1.00  0.00    +0.000 F 
ATOM     49  C37 UNL A   1      50.557  48.468  24.455  1.00  0.00    +0.000 C 
ATOM     50  F4  UNL A   1      50.189  48.651  25.731  1.00  0.00    +0.000 F 
ATOM     51  C38 UNL A   1      50.156  49.375  23.478  1.00  0.00    +0.000 C 
ATOM     52  F5  UNL A   1      49.396  50.421  23.842  1.00  0.00    +0.000 F 
ENDBRANCH   41   42
BRANCH   58   59
ATOM     65  F8  UNL A   1      56.516  57.942  20.754  1.00  0.00    +0.000 F 
ATOM     66  C48 UNL A   1      54.269  57.330  21.151  1.00  0.00    +0.000 C 
ATOM     67  F9  UNL A   1      54.157  58.292  22.077  1.00  0.00    +0.000 F 
ATOM     68  C49 UNL A   1      53.185  56.500  20.877  1.00  0.00    +0.000 C 
ATOM     69  F10 UNL A   1      52.045  56.678  21.562  1.00  0.00    +0.000 F 
ATOM     59  C44 UNL A   1      53.274  55.498  19.901  1.00  0.00    +0.000 C 
ATOM     60  C45 UNL A   1      54.488  55.356  19.210  1.00  0.00    +0.000 C 
ATOM     61  F6  UNL A   1      54.627  54.398  18.280  1.00  0.00    +0.000 F 
ATOM     62  C46 UNL A   1      55.578  56.168  19.506  1.00  0.00    +0.000 C 
ATOM     63  F7  UNL A   1      56.742  55.983  18.870  1.00  0.00    +0.000 F 
ATOM     64  C47 UNL A   1      55.466  57.159  20.471  1.00  0.00    +0.000 C 
ENDBRANCH   58   59
BRANCH   73   74
ATOM     74  C53 UNL A   1      47.879  56.258  15.574  1.00  0.00    +0.000 C 
ATOM     75  C54 UNL A   1      47.174  57.379  16.030  1.00  0.00    +0.000 C 
ATOM     76  F11 UNL A   1      46.853  57.487  17.327  1.00  0.00    +0.000 F 
ATOM     77  C55 UNL A   1      46.762  58.376  15.146  1.00  0.00    +0.000 C 
ATOM     78  F12 UNL A   1      46.048  59.415  15.600  1.00  0.00    +0.000 F 
ATOM     79  C56 UNL A   1      47.074  58.285  13.798  1.00  0.00    +0.000 C 
ATOM     80  F13 UNL A   1      46.681  59.245  12.951  1.00  0.00    +0.000 F 
ATOM     81  C57 UNL A   1      47.789  57.193  13.329  1.00  0.00    +0.000 C 
ATOM     82  F14 UNL A   1      48.107  57.109  12.030  1.00  0.00    +0.000 F 
ATOM     83  C58 UNL A   1      48.174  56.183  14.205  1.00  0.00    +0.000 C 
ATOM     84  F15 UNL A   1      48.852  55.131  13.721  1.00  0.00    +0.000 F 
ENDBRANCH   73   74
TORSDOF 18
ENDMDL
MODEL 7
REMARK VINA RESULT:      -9.5     48.373     53.400
ROOT
ATOM    129  H34 UNL A   1      15.187  56.635   4.569  1.00  0.00    +0.000 H 
ATOM    130  H35 UNL A   1      15.259  52.900   2.745  1.00  0.00    +0.000 H 
ATOM    131  H36 UNL A   1      18.560  53.288  -1.023  1.00  0.00    +0.000 H 
ATOM    132  H37 UNL A   1      18.040  50.838  -1.551  1.00  0.00    +0.000 H 
ATOM    133  H38 UNL A   1      11.883  50.325   6.389  1.00  0.00    +0.000 H 
ATOM    134  H39 UNL A   1      12.189  52.838   6.784  1.00  0.00    +0.000 H 
ATOM     37  C29 UNL A   1      14.007  54.075   4.962  1.00  0.00    +0.000 C 
ATOM     38  C30 UNL A   1      13.550  52.645   4.982  1.00  0.00    +0.000 C 
ATOM     39  N3  UNL A   1      13.876  51.667   4.174  1.00  0.00    +0.000 N 
ATOM     40  C31 UNL A   1      13.201  50.546   4.637  1.00  0.00    +0.000 C 
ATOM     41  C32 UNL A   1      13.201  49.293   4.123  1.00  0.00    +0.000 C 
ATOM     53  C39 UNL A   1      13.924  48.899   2.941  1.00  0.00    +0.000 C 
ATOM     54  C40 UNL A   1      13.931  47.669   2.304  1.00  0.00    +0.000 C 
ATOM     55  C41 UNL A   1      14.822  47.735   1.228  1.00  0.00    +0.000 C 
ATOM     56  C42 UNL A   1      15.338  49.019   1.167  1.00  0.00    +0.000 C 
ATOM     57  N4  UNL A   1      14.776  49.723   2.222  1.00  0.00    +0.000 N 
ATOM     58  C43 UNL A   1      16.279  49.562   0.223  1.00  0.00    +0.000 C 
ATOM     70  C50 UNL A   1      16.693  50.852   0.190  1.00  0.00    +0.000 C 
ATOM     71  N5  UNL A   1      16.344  51.900   1.028  1.00  0.00    +0.000 N 
ATOM     72  C51 UNL A   1      17.032  52.935   0.613  1.00  0.00    +0.000 C 
ATOM     73  C52 UNL A   1      17.045  54.339   1.148  1.00  0.00    +0.000 C 
ATOM     85  C59 UNL A   1      16.274  54.638   2.208  1.00  0.00    +0.000 C 
ATOM     86  C60 UNL A   1      16.191  55.950   2.840  1.00  0.00    +0.000 C 
ATOM     87  C61 UNL A   1      15.395  55.864   3.914  1.00  0.00    +0.000 C 
ATOM     88  C62 UNL A   1      14.863  54.502   4.013  1.00  0.00    +0.000 C 
ATOM     89  N6  UNL A   1      15.434  53.847   2.953  1.00  0.00    +0.000 N 
ATOM     90  C63 UNL A   1      17.907  52.657  -0.533  1.00  0.00    +0.000 C 
ATOM     91  C64 UNL A   1      17.634  51.384  -0.775  1.00  0.00    +0.000 C 
ATOM     92  C65 UNL A   1      12.458  50.957   5.811  1.00  0.00    +0.000 C 
ATOM     93  C66 UNL A   1      12.614  52.255   6.047  1.00  0.00    +0.000 C 
ATOM    125  H30 UNL A   1      13.373  46.844   2.577  1.00  0.00    +0.000 H 
ATOM    126  H31 UNL A   1      15.057  46.959   0.590  1.00  0.00    +0.000 H 
ATOM    127  H32 UNL A   1      14.954  50.670   2.428  1.00  0.00    +0.000 H 
ATOM    128  H33 UNL A   1      16.669  56.804   2.513  1.00  0.00    +0.000 H 
ENDROOT
BRANCH   37   36
ATOM     33  C25 UNL A   1      12.573  56.747   7.986  1.00  0.00    +0.000 C 
ATOM     34  C26 UNL A   1      13.761  56.036   8.173  1.00  0.00    +0.000 C 
ATOM     35  C27 UNL A   1      14.265  55.244   7.146  1.00  0.00    +0.000 C 
ATOM     36  C28 UNL A   1      13.528  55.057   5.965  1.00  0.00    +0.000 C 
ATOM    135  H40 UNL A   1      11.743  55.576   4.955  1.00  0.00    +0.000 H 
ATOM    136  H41 UNL A   1      10.944  57.085   6.683  1.00  0.00    +0.000 H 
ATOM    123  H28 UNL A   1      14.264  56.098   9.072  1.00  0.00    +0.000 H 
ATOM    124  H29 UNL A   1      15.186  54.793   7.253  1.00  0.00    +0.000 H 
ATOM     94  C67 UNL A   1      12.302  55.721   5.810  1.00  0.00    +0.000 C 
ATOM     95  C68 UNL A   1      11.834  56.579   6.811  1.00  0.00    +0.000 C 
BRANCH   33    2
ATOM      1  O1  UNL A   1      12.272  58.859   8.960  1.00  0.00    +0.000 O 
ATOM      2  C1  UNL A   1      12.057  57.657   9.037  1.00  0.00    +0.000 C 
BRANCH    2    3
ATOM      3  N1  UNL A   1      11.350  57.145  10.100  1.00  0.00    +0.000 N 
ATOM     96  H1  UNL A   1      11.133  57.786  10.814  1.00  0.00    +0.000 H 
BRANCH    3    4
ATOM     97  H2  UNL A   1      10.957  55.248   9.394  1.00  0.00    +0.000 H 
ATOM     98  H3  UNL A   1       9.867  55.845  10.654  1.00  0.00    +0.000 H 
ATOM      4  C2  UNL A   1      10.880  55.787  10.315  1.00  0.00    +0.000 C 
BRANCH    4    5
ATOM     99  H4  UNL A   1      11.005  54.456  11.951  1.00  0.00    +0.000 H 
ATOM    100  H5  UNL A   1      12.177  55.809  11.952  1.00  0.00    +0.000 H 
ATOM      5  C3  UNL A   1      11.682  55.053  11.378  1.00  0.00    +0.000 C 
BRANCH    5    6
ATOM    102  H7  UNL A   1      12.284  53.260  10.495  1.00  0.00    +0.000 H 
ATOM    101  H6  UNL A   1      13.314  54.674  10.084  1.00  0.00    +0.000 H 
ATOM      6  C4  UNL A   1      12.785  54.138  10.843  1.00  0.00    +0.000 C 
BRANCH    6    7
ATOM    103  H8  UNL A   1      13.276  53.127  12.639  1.00  0.00    +0.000 H 
ATOM      7  C5  UNL A   1      13.810  53.646  11.871  1.00  0.00    +0.000 C 
ATOM    104  H9  UNL A   1      14.322  54.526  12.200  1.00  0.00    +0.000 H 
BRANCH    7    8
ATOM    105  H10 UNL A   1      14.699  51.725  11.720  1.00  0.00    +0.000 H 
ATOM    106  H11 UNL A   1      15.831  53.120  11.709  1.00  0.00    +0.000 H 
ATOM      8  C6  UNL A   1      14.909  52.709  11.354  1.00  0.00    +0.000 C 
BRANCH    8    9
ATOM      9  C7  UNL A   1      15.052  52.622   9.836  1.00  0.00    +0.000 C 
ATOM    107  H12 UNL A   1      15.890  53.216   9.537  1.00  0.00    +0.000 H 
ATOM    108  H13 UNL A   1      14.137  52.979   9.408  1.00  0.00    +0.000 H 
BRANCH    9   10
ATOM     10  N2  UNL A   1      15.252  51.272   9.364  1.00  0.00    +0.000 N 
ATOM    109  H14 UNL A   1      15.982  51.148   8.715  1.00  0.00    +0.000 H 
BRANCH   10   11
ATOM     11  C8  UNL A   1      14.562  50.145   9.700  1.00  0.00    +0.000 C 
ATOM     12  O2  UNL A   1      15.161  49.286  10.351  1.00  0.00    +0.000 O 
BRANCH   11   13
ATOM     13  C9  UNL A   1      13.096  49.984   9.237  1.00  0.00    +0.000 C 
ATOM     14  C10 UNL A   1      12.545  48.597   9.541  1.00  0.00    +0.000 C 
ATOM    110  H15 UNL A   1      13.112  50.131   8.177  1.00  0.00    +0.000 H 
ATOM    111  H16 UNL A   1      13.224  48.058  10.166  1.00  0.00    +0.000 H 
ATOM     15  C11 UNL A   1      11.214  48.810  10.265  1.00  0.00    +0.000 C 
ATOM    112  H17 UNL A   1      12.413  48.027   8.645  1.00  0.00    +0.000 H 
ATOM    118  H23 UNL A   1      10.271  50.631  10.616  1.00  0.00    +0.000 H 
ATOM     24  C18 UNL A   1      11.286  50.301  10.698  1.00  0.00    +0.000 C 
ATOM     32  O4  UNL A   1      12.238  50.955   9.837  1.00  0.00    +0.000 O 
BRANCH   15   16
ATOM    113  H18 UNL A   1      10.443  48.189  11.992  1.00  0.00    +0.000 H 
ATOM     16  O3  UNL A   1      11.212  47.972  11.440  1.00  0.00    +0.000 O 
ENDBRANCH   15   16
BRANCH   15   17
ATOM     17  C12 UNL A   1      10.070  48.269   9.382  1.00  0.00    +0.000 C 
ATOM     18  C13 UNL A   1       9.689  46.920   9.642  1.00  0.00    +0.000 C 
ATOM     19  C14 UNL A   1       8.644  46.281   8.972  1.00  0.00    +0.000 C 
ATOM    114  H19 UNL A   1      10.211  46.391  10.358  1.00  0.00    +0.000 H 
ATOM     21  C16 UNL A   1       8.284  48.281   7.708  1.00  0.00    +0.000 C 
ATOM     22  C17 UNL A   1       9.365  48.916   8.350  1.00  0.00    +0.000 C 
ATOM     23 Cl1  UNL A   1       9.759  50.460   7.686  1.00  0.00    +0.000 Cl
ATOM    115  H20 UNL A   1       8.413  45.299   9.188  1.00  0.00    +0.000 H 
ATOM     20  C15 UNL A   1       7.920  46.974   8.019  1.00  0.00    +0.000 C 
ATOM    117  H22 UNL A   1       7.749  48.796   6.991  1.00  0.00    +0.000 H 
ATOM    116  H21 UNL A   1       7.120  46.528   7.542  1.00  0.00    +0.000 H 
ENDBRANCH   15   17
BRANCH   24   25
ATOM    122  H27 UNL A   1      10.747  52.675  14.695  1.00  0.00    +0.000 H 
ATOM    121  H26 UNL A   1      12.749  51.733  15.685  1.00  0.00    +0.000 H 
ATOM    119  H24 UNL A   1      13.305  49.360  12.269  1.00  0.00    +0.000 H 
ATOM    120  H25 UNL A   1      14.007  50.051  14.475  1.00  0.00    +0.000 H 
ATOM     25  C19 UNL A   1      11.639  50.653  12.143  1.00  0.00    +0.000 C 
ATOM     26  C20 UNL A   1      12.764  50.084  12.768  1.00  0.00    +0.000 C 
ATOM     27  C21 UNL A   1      13.168  50.475  14.048  1.00  0.00    +0.000 C 
ATOM     28  C22 UNL A   1      12.443  51.431  14.747  1.00  0.00    +0.000 C 
ATOM     29  C23 UNL A   1      11.300  51.980  14.172  1.00  0.00    +0.000 C 
ATOM     30  C24 UNL A   1      10.896  51.593  12.886  1.00  0.00    +0.000 C 
ATOM     31 Cl2  UNL A   1       9.441  52.322  12.295  1.00  0.00    +0.000 Cl
ENDBRANCH   24   25
ENDBRANCH   11   13
ENDBRANCH   10   11
ENDBRANCH    9   10
ENDBRANCH    8    9
ENDBRANCH    7    8
ENDBRANCH    6    7
ENDBRANCH    5    6
ENDBRANCH    4    5
ENDBRANCH    3    4
ENDBRANCH    2    3
ENDBRANCH   33    2
ENDBRANCH   37   36
BRANCH   41   42
ATOM     42  C33 UNL A   1      12.403  48.237   4.830  1.00  0.00    +0.000 C 
ATOM     43  C34 UNL A   1      11.148  47.826   4.361  1.00  0.00    +0.000 C 
ATOM     44  F1  UNL A   1      10.583  48.446   3.314  1.00  0.00    +0.000 F 
ATOM     45  C35 UNL A   1      10.463  46.779   4.972  1.00  0.00    +0.000 C 
ATOM     46  F2  UNL A   1       9.256  46.413   4.518  1.00  0.00    +0.000 F 
ATOM     47  C36 UNL A   1      11.028  46.111   6.049  1.00  0.00    +0.000 C 
ATOM     48  F3  UNL A   1      10.376  45.089   6.624  1.00  0.00    +0.000 F 
ATOM     49  C37 UNL A   1      12.269  46.500   6.529  1.00  0.00    +0.000 C 
ATOM     50  F4  UNL A   1      12.823  45.847   7.561  1.00  0.00    +0.000 F 
ATOM     51  C38 UNL A   1      12.946  47.560   5.933  1.00  0.00    +0.000 C 
ATOM     52  F5  UNL A   1      14.149  47.911   6.416  1.00  0.00    +0.000 F 
ENDBRANCH   41   42
BRANCH   58   59
ATOM     65  F8  UNL A   1      18.361  46.101  -3.723  1.00  0.00    +0.000 F 
ATOM     66  C48 UNL A   1      16.630  47.518  -2.965  1.00  0.00    +0.000 C 
ATOM     67  F9  UNL A   1      15.923  47.270  -4.076  1.00  0.00    +0.000 F 
ATOM     68  C49 UNL A   1      16.125  48.385  -2.000  1.00  0.00    +0.000 C 
ATOM     69  F10 UNL A   1      14.934  48.966  -2.212  1.00  0.00    +0.000 F 
ATOM     59  C44 UNL A   1      16.838  48.645  -0.822  1.00  0.00    +0.000 C 
ATOM     60  C45 UNL A   1      18.077  48.009  -0.646  1.00  0.00    +0.000 C 
ATOM     61  F6  UNL A   1      18.805  48.243   0.456  1.00  0.00    +0.000 F 
ATOM     62  C46 UNL A   1      18.591  47.165  -1.626  1.00  0.00    +0.000 C 
ATOM     63  F7  UNL A   1      19.798  46.607  -1.460  1.00  0.00    +0.000 F 
ATOM     64  C47 UNL A   1      17.865  46.915  -2.781  1.00  0.00    +0.000 C 
ENDBRANCH   58   59
BRANCH   73   74
ATOM     74  C53 UNL A   1      17.906  55.384   0.539  1.00  0.00    +0.000 C 
ATOM     75  C54 UNL A   1      19.128  55.744   1.120  1.00  0.00    +0.000 C 
ATOM     76  F11 UNL A   1      19.529  55.154   2.256  1.00  0.00    +0.000 F 
ATOM     77  C55 UNL A   1      19.924  56.740   0.558  1.00  0.00    +0.000 C 
ATOM     78  F12 UNL A   1      21.067  57.099   1.159  1.00  0.00    +0.000 F 
ATOM     79  C56 UNL A   1      19.529  57.371  -0.612  1.00  0.00    +0.000 C 
ATOM     80  F13 UNL A   1      20.297  58.327  -1.153  1.00  0.00    +0.000 F 
ATOM     81  C57 UNL A   1      18.332  57.017  -1.216  1.00  0.00    +0.000 C 
ATOM     82  F14 UNL A   1      17.954  57.613  -2.354  1.00  0.00    +0.000 F 
ATOM     83  C58 UNL A   1      17.521  56.044  -0.638  1.00  0.00    +0.000 C 
ATOM     84  F15 UNL A   1      16.361  55.732  -1.235  1.00  0.00    +0.000 F 
ENDBRANCH   73   74
TORSDOF 18
ENDMDL
MODEL 8
REMARK VINA RESULT:      -9.5     18.981     26.997
ROOT
ATOM    129  H34 UNL A   1      44.110  26.650  31.994  1.00  0.00    +0.000 H 
ATOM    130  H35 UNL A   1      40.887  29.255  31.666  1.00  0.00    +0.000 H 
ATOM    131  H36 UNL A   1      39.191  28.737  26.965  1.00  0.00    +0.000 H 
ATOM    132  H37 UNL A   1      37.425  30.494  27.553  1.00  0.00    +0.000 H 
ATOM    133  H38 UNL A   1      40.806  30.877  37.021  1.00  0.00    +0.000 H 
ATOM    134  H39 UNL A   1      42.738  29.316  36.391  1.00  0.00    +0.000 H 
ATOM     37  C29 UNL A   1      42.664  28.436  33.675  1.00  0.00    +0.000 C 
ATOM     38  C30 UNL A   1      41.734  29.394  34.360  1.00  0.00    +0.000 C 
ATOM     39  N3  UNL A   1      40.703  30.035  33.865  1.00  0.00    +0.000 N 
ATOM     40  C31 UNL A   1      40.172  30.773  34.913  1.00  0.00    +0.000 C 
ATOM     41  C32 UNL A   1      39.109  31.612  34.896  1.00  0.00    +0.000 C 
ATOM     53  C39 UNL A   1      38.323  31.905  33.724  1.00  0.00    +0.000 C 
ATOM     54  C40 UNL A   1      37.270  32.795  33.593  1.00  0.00    +0.000 C 
ATOM     55  C41 UNL A   1      36.778  32.703  32.287  1.00  0.00    +0.000 C 
ATOM     56  C42 UNL A   1      37.551  31.790  31.591  1.00  0.00    +0.000 C 
ATOM     57  N4  UNL A   1      38.499  31.311  32.484  1.00  0.00    +0.000 N 
ATOM     58  C43 UNL A   1      37.433  31.378  30.216  1.00  0.00    +0.000 C 
ATOM     70  C50 UNL A   1      38.270  30.519  29.586  1.00  0.00    +0.000 C 
ATOM     71  N5  UNL A   1      39.373  29.849  30.092  1.00  0.00    +0.000 N 
ATOM     72  C51 UNL A   1      39.828  29.113  29.108  1.00  0.00    +0.000 C 
ATOM     73  C52 UNL A   1      41.009  28.186  29.087  1.00  0.00    +0.000 C 
ATOM     85  C59 UNL A   1      41.737  28.035  30.208  1.00  0.00    +0.000 C 
ATOM     86  C60 UNL A   1      42.901  27.166  30.340  1.00  0.00    +0.000 C 
ATOM     87  C61 UNL A   1      43.324  27.199  31.611  1.00  0.00    +0.000 C 
ATOM     88  C62 UNL A   1      42.496  28.139  32.371  1.00  0.00    +0.000 C 
ATOM     89  N6  UNL A   1      41.584  28.593  31.453  1.00  0.00    +0.000 N 
ATOM     90  C63 UNL A   1      39.056  29.227  27.864  1.00  0.00    +0.000 C 
ATOM     91  C64 UNL A   1      38.140  30.124  28.198  1.00  0.00    +0.000 C 
ATOM     92  C65 UNL A   1      40.983  30.491  36.080  1.00  0.00    +0.000 C 
ATOM     93  C66 UNL A   1      41.983  29.670  35.783  1.00  0.00    +0.000 C 
ATOM    125  H30 UNL A   1      36.910  33.419  34.332  1.00  0.00    +0.000 H 
ATOM    126  H31 UNL A   1      35.973  33.227  31.907  1.00  0.00    +0.000 H 
ATOM    127  H32 UNL A   1      39.193  30.647  32.269  1.00  0.00    +0.000 H 
ATOM    128  H33 UNL A   1      43.327  26.615  29.579  1.00  0.00    +0.000 H 
ENDROOT
BRANCH   37   36
ATOM     33  C25 UNL A   1      46.005  26.542  35.571  1.00  0.00    +0.000 C 
ATOM     34  C26 UNL A   1      46.170  27.743  34.877  1.00  0.00    +0.000 C 
ATOM     35  C27 UNL A   1      45.063  28.397  34.346  1.00  0.00    +0.000 C 
ATOM     36  C28 UNL A   1      43.793  27.798  34.397  1.00  0.00    +0.000 C 
ATOM    135  H40 UNL A   1      42.718  26.102  35.064  1.00  0.00    +0.000 H 
ATOM    136  H41 UNL A   1      44.626  25.041  36.130  1.00  0.00    +0.000 H 
ATOM    123  H28 UNL A   1      47.113  28.145  34.758  1.00  0.00    +0.000 H 
ATOM    124  H29 UNL A   1      45.175  29.326  33.914  1.00  0.00    +0.000 H 
ATOM     94  C67 UNL A   1      43.643  26.560  35.037  1.00  0.00    +0.000 C 
ATOM     95  C68 UNL A   1      44.744  25.940  35.639  1.00  0.00    +0.000 C 
BRANCH   33    2
ATOM      1  O1  UNL A   1      47.641  26.328  37.236  1.00  0.00    +0.000 O 
ATOM      2  C1  UNL A   1      47.159  25.867  36.211  1.00  0.00    +0.000 C 
BRANCH    2    3
ATOM      3  N1  UNL A   1      47.692  24.734  35.641  1.00  0.00    +0.000 N 
ATOM     96  H1  UNL A   1      47.576  23.905  36.158  1.00  0.00    +0.000 H 
BRANCH    3    4
ATOM     97  H2  UNL A   1      47.693  24.626  33.583  1.00  0.00    +0.000 H 
ATOM     98  H3  UNL A   1      48.924  23.658  34.407  1.00  0.00    +0.000 H 
ATOM      4  C2  UNL A   1      48.403  24.592  34.382  1.00  0.00    +0.000 C 
BRANCH    4    5
ATOM     99  H4  UNL A   1      50.402  25.239  34.158  1.00  0.00    +0.000 H 
ATOM    100  H5  UNL A   1      49.293  26.389  34.965  1.00  0.00    +0.000 H 
ATOM      5  C3  UNL A   1      49.432  25.690  34.167  1.00  0.00    +0.000 C 
BRANCH    5    6
ATOM    102  H7  UNL A   1      48.815  25.815  32.176  1.00  0.00    +0.000 H 
ATOM    101  H6  UNL A   1      48.684  27.355  33.094  1.00  0.00    +0.000 H 
ATOM      6  C4  UNL A   1      49.270  26.488  32.872  1.00  0.00    +0.000 C 
BRANCH    6    7
ATOM    103  H8  UNL A   1      51.259  27.209  32.979  1.00  0.00    +0.000 H 
ATOM      7  C5  UNL A   1      50.566  26.958  32.203  1.00  0.00    +0.000 C 
ATOM    104  H9  UNL A   1      50.278  27.777  31.578  1.00  0.00    +0.000 H 
BRANCH    7    8
ATOM    105  H10 UNL A   1      52.008  25.445  31.833  1.00  0.00    +0.000 H 
ATOM    106  H11 UNL A   1      51.648  26.543  30.458  1.00  0.00    +0.000 H 
ATOM      8  C6  UNL A   1      51.260  25.959  31.266  1.00  0.00    +0.000 C 
BRANCH    8    9
ATOM      9  C7  UNL A   1      50.356  24.910  30.623  1.00  0.00    +0.000 C 
ATOM    107  H12 UNL A   1      49.488  24.785  31.236  1.00  0.00    +0.000 H 
ATOM    108  H13 UNL A   1      50.923  24.005  30.545  1.00  0.00    +0.000 H 
BRANCH    9   10
ATOM     10  N2  UNL A   1      49.932  25.271  29.291  1.00  0.00    +0.000 N 
ATOM    109  H14 UNL A   1      50.600  25.141  28.579  1.00  0.00    +0.000 H 
BRANCH   10   11
ATOM     11  C8  UNL A   1      48.727  25.767  28.889  1.00  0.00    +0.000 C 
ATOM     12  O2  UNL A   1      48.290  26.750  29.491  1.00  0.00    +0.000 O 
BRANCH   11   13
ATOM     13  C9  UNL A   1      47.964  25.073  27.737  1.00  0.00    +0.000 C 
ATOM     14  C10 UNL A   1      46.612  24.535  28.184  1.00  0.00    +0.000 C 
ATOM    110  H15 UNL A   1      48.585  24.255  27.434  1.00  0.00    +0.000 H 
ATOM    111  H16 UNL A   1      46.379  24.888  29.166  1.00  0.00    +0.000 H 
ATOM     15  C11 UNL A   1      45.585  25.056  27.176  1.00  0.00    +0.000 C 
ATOM    112  H17 UNL A   1      46.612  23.466  28.220  1.00  0.00    +0.000 H 
ATOM    118  H23 UNL A   1      45.985  26.145  25.450  1.00  0.00    +0.000 H 
ATOM     24  C18 UNL A   1      46.352  26.198  26.453  1.00  0.00    +0.000 C 
ATOM     32  O4  UNL A   1      47.761  25.950  26.629  1.00  0.00    +0.000 O 
BRANCH   15   16
ATOM    113  H18 UNL A   1      43.689  25.079  27.780  1.00  0.00    +0.000 H 
ATOM     16  O3  UNL A   1      44.483  25.619  27.920  1.00  0.00    +0.000 O 
ENDBRANCH   15   16
BRANCH   15   17
ATOM     17  C12 UNL A   1      44.984  23.861  26.407  1.00  0.00    +0.000 C 
ATOM     18  C13 UNL A   1      45.370  23.765  25.038  1.00  0.00    +0.000 C 
ATOM     19  C14 UNL A   1      44.960  22.725  24.202  1.00  0.00    +0.000 C 
ATOM    114  H19 UNL A   1      45.981  24.499  24.646  1.00  0.00    +0.000 H 
ATOM     21  C16 UNL A   1      43.723  21.797  26.029  1.00  0.00    +0.000 C 
ATOM     22  C17 UNL A   1      44.099  22.867  26.865  1.00  0.00    +0.000 C 
ATOM     23 Cl1  UNL A   1      43.308  22.863  28.399  1.00  0.00    +0.000 Cl
ATOM    115  H20 UNL A   1      45.257  22.704  23.215  1.00  0.00    +0.000 H 
ATOM     20  C15 UNL A   1      44.153  21.721  24.708  1.00  0.00    +0.000 C 
ATOM    117  H22 UNL A   1      43.115  21.053  26.405  1.00  0.00    +0.000 H 
ATOM    116  H21 UNL A   1      43.873  20.925  24.113  1.00  0.00    +0.000 H 
ENDBRANCH   15   17
BRANCH   24   25
ATOM    122  H27 UNL A   1      46.221  30.804  25.633  1.00  0.00    +0.000 H 
ATOM    121  H26 UNL A   1      45.675  31.337  27.934  1.00  0.00    +0.000 H 
ATOM    119  H24 UNL A   1      45.540  27.242  28.838  1.00  0.00    +0.000 H 
ATOM    120  H25 UNL A   1      45.306  29.547  29.524  1.00  0.00    +0.000 H 
ATOM     25  C19 UNL A   1      46.080  27.653  26.837  1.00  0.00    +0.000 C 
ATOM     26  C20 UNL A   1      45.709  27.994  28.151  1.00  0.00    +0.000 C 
ATOM     27  C21 UNL A   1      45.564  29.326  28.549  1.00  0.00    +0.000 C 
ATOM     28  C22 UNL A   1      45.765  30.353  27.637  1.00  0.00    +0.000 C 
ATOM     29  C23 UNL A   1      46.090  30.045  26.319  1.00  0.00    +0.000 C 
ATOM     30  C24 UNL A   1      46.242  28.710  25.918  1.00  0.00    +0.000 C 
ATOM     31 Cl2  UNL A   1      46.614  28.456  24.246  1.00  0.00    +0.000 Cl
ENDBRANCH   24   25
ENDBRANCH   11   13
ENDBRANCH   10   11
ENDBRANCH    9   10
ENDBRANCH    8    9
ENDBRANCH    7    8
ENDBRANCH    6    7
ENDBRANCH    5    6
ENDBRANCH    4    5
ENDBRANCH    3    4
ENDBRANCH    2    3
ENDBRANCH   33    2
ENDBRANCH   37   36
BRANCH   41   42
ATOM     42  C33 UNL A   1      38.712  32.279  36.180  1.00  0.00    +0.000 C 
ATOM     43  C34 UNL A   1      38.031  31.585  37.190  1.00  0.00    +0.000 C 
ATOM     44  F1  UNL A   1      37.628  30.322  36.986  1.00  0.00    +0.000 F 
ATOM     45  C35 UNL A   1      37.754  32.190  38.413  1.00  0.00    +0.000 C 
ATOM     46  F2  UNL A   1      37.087  31.513  39.359  1.00  0.00    +0.000 F 
ATOM     47  C36 UNL A   1      38.170  33.491  38.657  1.00  0.00    +0.000 C 
ATOM     48  F3  UNL A   1      37.921  34.065  39.843  1.00  0.00    +0.000 F 
ATOM     49  C37 UNL A   1      38.846  34.196  37.673  1.00  0.00    +0.000 C 
ATOM     50  F4  UNL A   1      39.261  35.448  37.912  1.00  0.00    +0.000 F 
ATOM     51  C38 UNL A   1      39.106  33.600  36.442  1.00  0.00    +0.000 C 
ATOM     52  F5  UNL A   1      39.766  34.306  35.511  1.00  0.00    +0.000 F 
ENDBRANCH   41   42
BRANCH   58   59
ATOM     65  F8  UNL A   1      33.203  33.510  27.143  1.00  0.00    +0.000 F 
ATOM     66  C48 UNL A   1      34.218  31.660  28.205  1.00  0.00    +0.000 C 
ATOM     67  F9  UNL A   1      33.223  30.862  27.794  1.00  0.00    +0.000 F 
ATOM     68  C49 UNL A   1      35.252  31.138  28.977  1.00  0.00    +0.000 C 
ATOM     69  F10 UNL A   1      35.222  29.837  29.304  1.00  0.00    +0.000 F 
ATOM     59  C44 UNL A   1      36.312  31.951  29.404  1.00  0.00    +0.000 C 
ATOM     60  C45 UNL A   1      36.298  33.304  29.031  1.00  0.00    +0.000 C 
ATOM     61  F6  UNL A   1      37.280  34.124  29.433  1.00  0.00    +0.000 F 
ATOM     62  C46 UNL A   1      35.248  33.828  28.284  1.00  0.00    +0.000 C 
ATOM     63  F7  UNL A   1      35.229  35.133  27.982  1.00  0.00    +0.000 F 
ATOM     64  C47 UNL A   1      34.212  33.004  27.865  1.00  0.00    +0.000 C 
ENDBRANCH   58   59
BRANCH   73   74
ATOM     74  C53 UNL A   1      41.367  27.426  27.863  1.00  0.00    +0.000 C 
ATOM     75  C54 UNL A   1      40.926  26.111  27.673  1.00  0.00    +0.000 C 
ATOM     76  F11 UNL A   1      40.182  25.511  28.614  1.00  0.00    +0.000 F 
ATOM     77  C55 UNL A   1      41.281  25.393  26.532  1.00  0.00    +0.000 C 
ATOM     78  F12 UNL A   1      40.885  24.120  26.396  1.00  0.00    +0.000 F 
ATOM     79  C56 UNL A   1      42.055  25.987  25.547  1.00  0.00    +0.000 C 
ATOM     80  F13 UNL A   1      42.393  25.296  24.449  1.00  0.00    +0.000 F 
ATOM     81  C57 UNL A   1      42.487  27.295  25.705  1.00  0.00    +0.000 C 
ATOM     82  F14 UNL A   1      43.222  27.878  24.749  1.00  0.00    +0.000 F 
ATOM     83  C58 UNL A   1      42.159  28.003  26.858  1.00  0.00    +0.000 C 
ATOM     84  F15 UNL A   1      42.602  29.262  26.992  1.00  0.00    +0.000 F 
ENDBRANCH   73   74
TORSDOF 18
ENDMDL
MODEL 9
REMARK VINA RESULT:      -9.5     42.072     50.875
ROOT
ATOM    129  H34 UNL A   1      23.267  36.790  48.832  1.00  0.00    +0.000 H 
ATOM    130  H35 UNL A   1      26.981  36.730  46.965  1.00  0.00    +0.000 H 
ATOM    131  H36 UNL A   1      26.929  32.705  43.959  1.00  0.00    +0.000 H 
ATOM    132  H37 UNL A   1      29.312  33.349  43.283  1.00  0.00    +0.000 H 
ATOM    133  H38 UNL A   1      28.839  41.581  49.045  1.00  0.00    +0.000 H 
ATOM    134  H39 UNL A   1      26.557  40.825  49.932  1.00  0.00    +0.000 H 
ATOM     37  C29 UNL A   1      25.612  38.401  48.754  1.00  0.00    +0.000 C 
ATOM     38  C30 UNL A   1      26.923  39.093  48.517  1.00  0.00    +0.000 C 
ATOM     39  N3  UNL A   1      27.911  38.736  47.733  1.00  0.00    +0.000 N 
ATOM     40  C31 UNL A   1      28.876  39.725  47.858  1.00  0.00    +0.000 C 
ATOM     41  C32 UNL A   1      30.089  39.796  47.260  1.00  0.00    +0.000 C 
ATOM     53  C39 UNL A   1      30.612  38.798  46.362  1.00  0.00    +0.000 C 
ATOM     54  C40 UNL A   1      31.859  38.749  45.760  1.00  0.00    +0.000 C 
ATOM     55  C41 UNL A   1      31.901  37.626  44.927  1.00  0.00    +0.000 C 
ATOM     56  C42 UNL A   1      30.697  36.951  45.043  1.00  0.00    +0.000 C 
ATOM     57  N4  UNL A   1      29.917  37.679  45.929  1.00  0.00    +0.000 N 
ATOM     58  C43 UNL A   1      30.285  35.736  44.389  1.00  0.00    +0.000 C 
ATOM     70  C50 UNL A   1      29.107  35.100  44.600  1.00  0.00    +0.000 C 
ATOM     71  N5  UNL A   1      28.062  35.457  45.438  1.00  0.00    +0.000 N 
ATOM     72  C51 UNL A   1      27.137  34.545  45.266  1.00  0.00    +0.000 C 
ATOM     73  C52 UNL A   1      25.791  34.427  45.922  1.00  0.00    +0.000 C 
ATOM     85  C59 UNL A   1      25.416  35.363  46.812  1.00  0.00    +0.000 C 
ATOM     86  C60 UNL A   1      24.141  35.385  47.518  1.00  0.00    +0.000 C 
ATOM     87  C61 UNL A   1      24.074  36.500  48.257  1.00  0.00    +0.000 C 
ATOM     88  C62 UNL A   1      25.329  37.245  48.122  1.00  0.00    +0.000 C 
ATOM     89  N6  UNL A   1      26.069  36.489  47.250  1.00  0.00    +0.000 N 
ATOM     90  C63 UNL A   1      27.488  33.507  44.287  1.00  0.00    +0.000 C 
ATOM     91  C64 UNL A   1      28.714  33.872  43.940  1.00  0.00    +0.000 C 
ATOM     92  C65 UNL A   1      28.351  40.711  48.781  1.00  0.00    +0.000 C 
ATOM     93  C66 UNL A   1      27.160  40.350  49.243  1.00  0.00    +0.000 C 
ATOM    125  H30 UNL A   1      32.626  39.425  45.902  1.00  0.00    +0.000 H 
ATOM    126  H31 UNL A   1      32.693  37.349  44.327  1.00  0.00    +0.000 H 
ATOM    127  H32 UNL A   1      29.005  37.437  46.211  1.00  0.00    +0.000 H 
ATOM    128  H33 UNL A   1      23.409  34.660  47.457  1.00  0.00    +0.000 H 
ENDROOT
BRANCH   37   36
ATOM     33  C25 UNL A   1      22.805  40.177  51.458  1.00  0.00    +0.000 C 
ATOM     34  C26 UNL A   1      22.889  40.615  50.134  1.00  0.00    +0.000 C 
ATOM     35  C27 UNL A   1      23.737  39.967  49.240  1.00  0.00    +0.000 C 
ATOM     36  C28 UNL A   1      24.600  38.954  49.688  1.00  0.00    +0.000 C 
ATOM    135  H40 UNL A   1      25.203  37.834  51.378  1.00  0.00    +0.000 H 
ATOM    136  H41 UNL A   1      23.607  38.855  52.898  1.00  0.00    +0.000 H 
ATOM    123  H28 UNL A   1      22.322  41.418  49.818  1.00  0.00    +0.000 H 
ATOM    124  H29 UNL A   1      23.730  40.233  48.244  1.00  0.00    +0.000 H 
ATOM     94  C67 UNL A   1      24.561  38.564  51.034  1.00  0.00    +0.000 C 
ATOM     95  C68 UNL A   1      23.651  39.162  51.914  1.00  0.00    +0.000 C 
BRANCH   33    2
ATOM      1  O1  UNL A   1      21.386  41.905  52.161  1.00  0.00    +0.000 O 
ATOM      2  C1  UNL A   1      21.853  40.802  52.407  1.00  0.00    +0.000 C 
BRANCH    2    3
ATOM      3  N1  UNL A   1      21.510  40.145  53.566  1.00  0.00    +0.000 N 
ATOM     96  H1  UNL A   1      22.175  40.188  54.290  1.00  0.00    +0.000 H 
BRANCH    3    4
ATOM     97  H2  UNL A   1      19.502  39.784  53.275  1.00  0.00    +0.000 H 
ATOM     98  H3  UNL A   1      20.108  39.503  54.914  1.00  0.00    +0.000 H 
ATOM      4  C2  UNL A   1      20.303  39.395  53.868  1.00  0.00    +0.000 C 
BRANCH    4    5
ATOM     99  H4  UNL A   1      20.647  37.795  52.531  1.00  0.00    +0.000 H 
ATOM    100  H5  UNL A   1      19.535  37.453  53.891  1.00  0.00    +0.000 H 
ATOM      5  C3  UNL A   1      20.450  37.910  53.576  1.00  0.00    +0.000 C 
BRANCH    5    6
ATOM    102  H7  UNL A   1      22.434  37.812  54.218  1.00  0.00    +0.000 H 
ATOM    101  H6  UNL A   1      21.245  37.104  55.365  1.00  0.00    +0.000 H 
ATOM      6  C4  UNL A   1      21.564  37.203  54.349  1.00  0.00    +0.000 C 
BRANCH    6    7
ATOM    103  H8  UNL A   1      21.167  35.461  53.211  1.00  0.00    +0.000 H 
ATOM      7  C5  UNL A   1      21.957  35.811  53.843  1.00  0.00    +0.000 C 
ATOM    104  H9  UNL A   1      22.116  35.226  54.724  1.00  0.00    +0.000 H 
BRANCH    7    8
ATOM    105  H10 UNL A   1      23.930  35.070  53.593  1.00  0.00    +0.000 H 
ATOM    106  H11 UNL A   1      23.618  36.714  52.942  1.00  0.00    +0.000 H 
ATOM      8  C6  UNL A   1      23.267  35.710  53.049  1.00  0.00    +0.000 C 
BRANCH    8    9
ATOM      9  C7  UNL A   1      23.145  35.159  51.630  1.00  0.00    +0.000 C 
ATOM    107  H12 UNL A   1      23.811  34.328  51.527  1.00  0.00    +0.000 H 
ATOM    108  H13 UNL A   1      23.393  35.954  50.957  1.00  0.00    +0.000 H 
BRANCH    9   10
ATOM     10  N2  UNL A   1      21.807  34.721  51.307  1.00  0.00    +0.000 N 
ATOM    109  H14 UNL A   1      21.381  34.125  51.964  1.00  0.00    +0.000 H 
BRANCH   10   11
ATOM     11  C8  UNL A   1      21.056  35.027  50.210  1.00  0.00    +0.000 C 
ATOM     12  O2  UNL A   1      21.194  34.316  49.213  1.00  0.00    +0.000 O 
BRANCH   11   13
ATOM     13  C9  UNL A   1      20.102  36.242  50.257  1.00  0.00    +0.000 C 
ATOM     14  C10 UNL A   1      20.803  37.539  49.874  1.00  0.00    +0.000 C 
ATOM    110  H15 UNL A   1      19.771  36.309  51.273  1.00  0.00    +0.000 H 
ATOM    111  H16 UNL A   1      21.777  37.332  49.485  1.00  0.00    +0.000 H 
ATOM     15  C11 UNL A   1      19.934  38.199  48.802  1.00  0.00    +0.000 C 
ATOM    112  H17 UNL A   1      20.926  38.179  50.722  1.00  0.00    +0.000 H 
ATOM    118  H23 UNL A   1      18.082  37.535  48.125  1.00  0.00    +0.000 H 
ATOM     24  C18 UNL A   1      19.006  37.041  48.341  1.00  0.00    +0.000 C 
ATOM     32  O4  UNL A   1      18.973  36.066  49.401  1.00  0.00    +0.000 O 
BRANCH   15   16
ATOM    113  H18 UNL A   1      21.085  39.501  47.831  1.00  0.00    +0.000 H 
ATOM     16  O3  UNL A   1      20.796  38.583  47.709  1.00  0.00    +0.000 O 
ENDBRANCH   15   16
BRANCH   15   17
ATOM     17  C12 UNL A   1      19.372  39.525  49.356  1.00  0.00    +0.000 C 
ATOM     18  C13 UNL A   1      19.931  40.706  48.787  1.00  0.00    +0.000 C 
ATOM     19  C14 UNL A   1      19.512  41.991  49.135  1.00  0.00    +0.000 C 
ATOM    114  H19 UNL A   1      20.682  40.607  48.085  1.00  0.00    +0.000 H 
ATOM     21  C16 UNL A   1      17.950  41.025  50.669  1.00  0.00    +0.000 C 
ATOM     22  C17 UNL A   1      18.400  39.727  50.354  1.00  0.00    +0.000 C 
ATOM     23 Cl1  UNL A   1      17.722  38.494  51.353  1.00  0.00    +0.000 Cl
ATOM    115  H20 UNL A   1      19.954  42.817  48.703  1.00  0.00    +0.000 H 
ATOM     20  C15 UNL A   1      18.497  42.151  50.061  1.00  0.00    +0.000 C 
ATOM    117  H22 UNL A   1      17.199  41.143  51.367  1.00  0.00    +0.000 H 
ATOM    116  H21 UNL A   1      18.150  43.093  50.300  1.00  0.00    +0.000 H 
ENDBRANCH   15   17
BRANCH   24   25
ATOM    122  H27 UNL A   1      17.822  34.629  44.508  1.00  0.00    +0.000 H 
ATOM    121  H26 UNL A   1      20.129  34.189  43.905  1.00  0.00    +0.000 H 
ATOM    119  H24 UNL A   1      21.408  36.487  47.175  1.00  0.00    +0.000 H 
ATOM    120  H25 UNL A   1      21.917  35.149  45.229  1.00  0.00    +0.000 H 
ATOM     25  C19 UNL A   1      19.308  36.304  47.035  1.00  0.00    +0.000 C 
ATOM     26  C20 UNL A   1      20.635  36.077  46.627  1.00  0.00    +0.000 C 
ATOM     27  C21 UNL A   1      20.933  35.312  45.495  1.00  0.00    +0.000 C 
ATOM     28  C22 UNL A   1      19.910  34.769  44.730  1.00  0.00    +0.000 C 
ATOM     29  C23 UNL A   1      18.586  35.013  45.085  1.00  0.00    +0.000 C 
ATOM     30  C24 UNL A   1      18.284  35.776  46.221  1.00  0.00    +0.000 C 
ATOM     31 Cl2  UNL A   1      16.601  36.036  46.538  1.00  0.00    +0.000 Cl
ENDBRANCH   24   25
ENDBRANCH   11   13
ENDBRANCH   10   11
ENDBRANCH    9   10
ENDBRANCH    8    9
ENDBRANCH    7    8
ENDBRANCH    6    7
ENDBRANCH    5    6
ENDBRANCH    4    5
ENDBRANCH    3    4
ENDBRANCH    2    3
ENDBRANCH   33    2
ENDBRANCH   37   36
BRANCH   41   42
ATOM     42  C33 UNL A   1      30.948  40.994  47.540  1.00  0.00    +0.000 C 
ATOM     43  C34 UNL A   1      31.967  40.960  48.501  1.00  0.00    +0.000 C 
ATOM     44  F1  UNL A   1      32.133  39.874  49.271  1.00  0.00    +0.000 F 
ATOM     45  C35 UNL A   1      32.817  42.048  48.682  1.00  0.00    +0.000 C 
ATOM     46  F2  UNL A   1      33.775  42.001  49.619  1.00  0.00    +0.000 F 
ATOM     47  C36 UNL A   1      32.678  43.181  47.892  1.00  0.00    +0.000 C 
ATOM     48  F3  UNL A   1      33.510  44.220  48.054  1.00  0.00    +0.000 F 
ATOM     49  C37 UNL A   1      31.678  43.235  46.934  1.00  0.00    +0.000 C 
ATOM     50  F4  UNL A   1      31.550  44.323  46.161  1.00  0.00    +0.000 F 
ATOM     51  C38 UNL A   1      30.813  42.157  46.766  1.00  0.00    +0.000 C 
ATOM     52  F5  UNL A   1      29.857  42.237  45.827  1.00  0.00    +0.000 F 
ENDBRANCH   41   42
BRANCH   58   59
ATOM     65  F8  UNL A   1      33.826  33.372  40.680  1.00  0.00    +0.000 F 
ATOM     66  C48 UNL A   1      32.110  34.926  41.153  1.00  0.00    +0.000 C 
ATOM     67  F9  UNL A   1      32.102  35.326  39.874  1.00  0.00    +0.000 F 
ATOM     68  C49 UNL A   1      31.250  35.521  42.071  1.00  0.00    +0.000 C 
ATOM     69  F10 UNL A   1      30.431  36.498  41.652  1.00  0.00    +0.000 F 
ATOM     59  C44 UNL A   1      31.229  35.107  43.410  1.00  0.00    +0.000 C 
ATOM     60  C45 UNL A   1      32.102  34.079  43.797  1.00  0.00    +0.000 C 
ATOM     61  F6  UNL A   1      32.132  33.663  45.073  1.00  0.00    +0.000 F 
ATOM     62  C46 UNL A   1      32.981  33.507  42.883  1.00  0.00    +0.000 C 
ATOM     63  F7  UNL A   1      33.841  32.561  43.285  1.00  0.00    +0.000 F 
ATOM     64  C47 UNL A   1      32.980  33.926  41.560  1.00  0.00    +0.000 C 
ENDBRANCH   58   59
BRANCH   73   74
ATOM     74  C53 UNL A   1      24.870  33.311  45.587  1.00  0.00    +0.000 C 
ATOM     75  C54 UNL A   1      24.954  32.081  46.250  1.00  0.00    +0.000 C 
ATOM     76  F11 UNL A   1      25.890  31.889  47.191  1.00  0.00    +0.000 F 
ATOM     77  C55 UNL A   1      24.102  31.028  45.920  1.00  0.00    +0.000 C 
ATOM     78  F12 UNL A   1      24.234  29.846  46.536  1.00  0.00    +0.000 F 
ATOM     79  C56 UNL A   1      23.131  31.197  44.945  1.00  0.00    +0.000 C 
ATOM     80  F13 UNL A   1      22.310  30.186  44.630  1.00  0.00    +0.000 F 
ATOM     81  C57 UNL A   1      23.017  32.414  44.289  1.00  0.00    +0.000 C 
ATOM     82  F14 UNL A   1      22.070  32.587  43.358  1.00  0.00    +0.000 F 
ATOM     83  C58 UNL A   1      23.887  33.455  44.597  1.00  0.00    +0.000 C 
ATOM     84  F15 UNL A   1      23.764  34.617  43.936  1.00  0.00    +0.000 F 
ENDBRANCH   73   74
TORSDOF 18
ENDMDL
MODEL 10
REMARK VINA RESULT:      -9.5     48.638     54.139
ROOT
ATOM    129  H34 UNL A   1      15.204  57.533   3.803  1.00  0.00    +0.000 H 
ATOM    130  H35 UNL A   1      15.467  53.505   2.812  1.00  0.00    +0.000 H 
ATOM    131  H36 UNL A   1      17.231  53.373  -1.891  1.00  0.00    +0.000 H 
ATOM    132  H37 UNL A   1      17.094  50.822  -1.726  1.00  0.00    +0.000 H 
ATOM    133  H38 UNL A   1      14.050  51.497   7.839  1.00  0.00    +0.000 H 
ATOM    134  H39 UNL A   1      13.934  54.047   7.619  1.00  0.00    +0.000 H 
ATOM     37  C29 UNL A   1      14.773  55.019   5.067  1.00  0.00    +0.000 C 
ATOM     38  C30 UNL A   1      14.656  53.592   5.519  1.00  0.00    +0.000 C 
ATOM     39  N3  UNL A   1      14.903  52.495   4.847  1.00  0.00    +0.000 N 
ATOM     40  C31 UNL A   1      14.662  51.447   5.723  1.00  0.00    +0.000 C 
ATOM     41  C32 UNL A   1      14.759  50.116   5.488  1.00  0.00    +0.000 C 
ATOM     53  C39 UNL A   1      15.132  49.539   4.222  1.00  0.00    +0.000 C 
ATOM     54  C40 UNL A   1      15.191  48.201   3.868  1.00  0.00    +0.000 C 
ATOM     55  C41 UNL A   1      15.657  48.114   2.552  1.00  0.00    +0.000 C 
ATOM     56  C42 UNL A   1      15.846  49.398   2.070  1.00  0.00    +0.000 C 
ATOM     57  N4  UNL A   1      15.516  50.263   3.103  1.00  0.00    +0.000 N 
ATOM     58  C43 UNL A   1      16.300  49.808   0.767  1.00  0.00    +0.000 C 
ATOM     70  C50 UNL A   1      16.403  51.092   0.346  1.00  0.00    +0.000 C 
ATOM     71  N5  UNL A   1      16.129  52.261   1.041  1.00  0.00    +0.000 N 
ATOM     72  C51 UNL A   1      16.416  53.241   0.220  1.00  0.00    +0.000 C 
ATOM     73  C52 UNL A   1      16.306  54.722   0.441  1.00  0.00    +0.000 C 
ATOM     85  C59 UNL A   1      15.870  55.173   1.630  1.00  0.00    +0.000 C 
ATOM     86  C60 UNL A   1      15.721  56.577   1.991  1.00  0.00    +0.000 C 
ATOM     87  C61 UNL A   1      15.347  56.658   3.275  1.00  0.00    +0.000 C 
ATOM     88  C62 UNL A   1      15.172  55.306   3.813  1.00  0.00    +0.000 C 
ATOM     89  N6  UNL A   1      15.497  54.488   2.761  1.00  0.00    +0.000 N 
ATOM     90  C63 UNL A   1      16.916  52.804  -1.090  1.00  0.00    +0.000 C 
ATOM     91  C64 UNL A   1      16.853  51.485  -0.974  1.00  0.00    +0.000 C 
ATOM     92  C65 UNL A   1      14.265  52.036   6.985  1.00  0.00    +0.000 C 
ATOM     93  C66 UNL A   1      14.213  53.360   6.902  1.00  0.00    +0.000 C 
ATOM    125  H30 UNL A   1      14.935  47.404   4.473  1.00  0.00    +0.000 H 
ATOM    126  H31 UNL A   1      15.832  47.241   2.030  1.00  0.00    +0.000 H 
ATOM    127  H32 UNL A   1      15.550  51.246   3.051  1.00  0.00    +0.000 H 
ATOM    128  H33 UNL A   1      15.880  57.379   1.361  1.00  0.00    +0.000 H 
ENDROOT
BRANCH   37   36
ATOM     33  C25 UNL A   1      13.777  58.395   7.508  1.00  0.00    +0.000 C 
ATOM     34  C26 UNL A   1      12.775  57.665   6.864  1.00  0.00    +0.000 C 
ATOM     35  C27 UNL A   1      13.102  56.516   6.152  1.00  0.00    +0.000 C 
ATOM     36  C28 UNL A   1      14.446  56.149   5.972  1.00  0.00    +0.000 C 
ATOM    135  H40 UNL A   1      16.445  56.675   6.424  1.00  0.00    +0.000 H 
ATOM    136  H41 UNL A   1      15.861  58.589   7.801  1.00  0.00    +0.000 H 
ATOM    123  H28 UNL A   1      11.793  57.978   6.917  1.00  0.00    +0.000 H 
ATOM    124  H29 UNL A   1      12.353  55.929   5.754  1.00  0.00    +0.000 H 
ATOM     94  C67 UNL A   1      15.454  56.924   6.565  1.00  0.00    +0.000 C 
ATOM     95  C68 UNL A   1      15.119  58.036   7.346  1.00  0.00    +0.000 C 
BRANCH   33    2
ATOM      1  O1  UNL A   1      12.663  59.467   9.270  1.00  0.00    +0.000 O 
ATOM      2  C1  UNL A   1      13.444  59.580   8.335  1.00  0.00    +0.000 C 
BRANCH    2    3
ATOM      3  N1  UNL A   1      14.004  60.801   8.041  1.00  0.00    +0.000 N 
ATOM     96  H1  UNL A   1      14.895  60.962   8.425  1.00  0.00    +0.000 H 
BRANCH    3    4
ATOM     97  H2  UNL A   1      14.261  62.544   6.971  1.00  0.00    +0.000 H 
ATOM     98  H3  UNL A   1      12.721  62.383   7.828  1.00  0.00    +0.000 H 
ATOM      4  C2  UNL A   1      13.462  61.885   7.240  1.00  0.00    +0.000 C 
BRANCH    4    5
ATOM     99  H4  UNL A   1      12.051  62.111   5.683  1.00  0.00    +0.000 H 
ATOM    100  H5  UNL A   1      12.379  60.430   6.204  1.00  0.00    +0.000 H 
ATOM      5  C3  UNL A   1      12.789  61.391   5.969  1.00  0.00    +0.000 C 
BRANCH    5    6
ATOM    102  H7  UNL A   1      13.426  61.890   4.045  1.00  0.00    +0.000 H 
ATOM    101  H6  UNL A   1      14.729  61.293   5.129  1.00  0.00    +0.000 H 
ATOM      6  C4  UNL A   1      13.725  61.173   4.780  1.00  0.00    +0.000 C 
BRANCH    6    7
ATOM    103  H8  UNL A   1      14.032  59.077   4.755  1.00  0.00    +0.000 H 
ATOM      7  C5  UNL A   1      13.629  59.810   4.087  1.00  0.00    +0.000 C 
ATOM    104  H9  UNL A   1      14.167  59.922   3.169  1.00  0.00    +0.000 H 
BRANCH    7    8
ATOM    105  H10 UNL A   1      11.650  60.210   3.433  1.00  0.00    +0.000 H 
ATOM    106  H11 UNL A   1      11.850  58.789   4.512  1.00  0.00    +0.000 H 
ATOM      8  C6  UNL A   1      12.226  59.342   3.677  1.00  0.00    +0.000 C 
BRANCH    8    9
ATOM      9  C7  UNL A   1      12.163  58.388   2.486  1.00  0.00    +0.000 C 
ATOM    107  H12 UNL A   1      13.117  58.382   2.003  1.00  0.00    +0.000 H 
ATOM    108  H13 UNL A   1      11.387  58.739   1.837  1.00  0.00    +0.000 H 
BRANCH    9   10
ATOM     10  N2  UNL A   1      11.829  57.034   2.864  1.00  0.00    +0.000 N 
ATOM    109  H14 UNL A   1      12.491  56.570   3.426  1.00  0.00    +0.000 H 
BRANCH   10   11
ATOM     11  C8  UNL A   1      10.715  56.315   2.546  1.00  0.00    +0.000 C 
ATOM     12  O2  UNL A   1       9.675  56.582   3.152  1.00  0.00    +0.000 O 
BRANCH   11   13
ATOM     13  C9  UNL A   1      10.809  55.201   1.479  1.00  0.00    +0.000 C 
ATOM     14  C10 UNL A   1      12.224  54.655   1.339  1.00  0.00    +0.000 C 
ATOM    110  H15 UNL A   1      10.518  55.661   0.557  1.00  0.00    +0.000 H 
ATOM    111  H16 UNL A   1      12.845  55.032   2.124  1.00  0.00    +0.000 H 
ATOM     15  C11 UNL A   1      12.112  53.133   1.436  1.00  0.00    +0.000 C 
ATOM    112  H17 UNL A   1      12.665  54.953   0.411  1.00  0.00    +0.000 H 
ATOM    118  H23 UNL A   1      10.356  52.025   1.569  1.00  0.00    +0.000 H 
ATOM     24  C18 UNL A   1      10.695  52.924   2.039  1.00  0.00    +0.000 C 
ATOM     32  O4  UNL A   1       9.929  54.113   1.764  1.00  0.00    +0.000 O 
BRANCH   15   16
ATOM    113  H18 UNL A   1      12.701  52.596   3.260  1.00  0.00    +0.000 H 
ATOM     16  O3  UNL A   1      13.103  52.676   2.381  1.00  0.00    +0.000 O 
ENDBRANCH   15   16
BRANCH   15   17
ATOM     17  C12 UNL A   1      12.525  52.511   0.086  1.00  0.00    +0.000 C 
ATOM     18  C13 UNL A   1      12.878  53.446  -0.930  1.00  0.00    +0.000 C 
ATOM     19  C14 UNL A   1      13.319  53.063  -2.198  1.00  0.00    +0.000 C 
ATOM    114  H19 UNL A   1      12.803  54.454  -0.719  1.00  0.00    +0.000 H 
ATOM     21  C16 UNL A   1      13.071  50.773  -1.549  1.00  0.00    +0.000 C 
ATOM     22  C17 UNL A   1      12.584  51.154  -0.284  1.00  0.00    +0.000 C 
ATOM     23 Cl1  UNL A   1      12.010  49.833   0.667  1.00  0.00    +0.000 Cl
ATOM    115  H20 UNL A   1      13.553  53.778  -2.904  1.00  0.00    +0.000 H 
ATOM     20  C15 UNL A   1      13.442  51.719  -2.500  1.00  0.00    +0.000 C 
ATOM    117  H22 UNL A   1      13.155  49.770  -1.777  1.00  0.00    +0.000 H 
ATOM    116  H21 UNL A   1      13.803  51.421  -3.420  1.00  0.00    +0.000 H 
ENDBRANCH   15   17
BRANCH   24   25
ATOM    122  H27 UNL A   1       9.180  50.363   5.652  1.00  0.00    +0.000 H 
ATOM    121  H26 UNL A   1       9.927  51.984   7.292  1.00  0.00    +0.000 H 
ATOM    119  H24 UNL A   1      11.539  54.336   4.214  1.00  0.00    +0.000 H 
ATOM    120  H25 UNL A   1      11.134  53.956   6.565  1.00  0.00    +0.000 H 
ATOM     25  C19 UNL A   1      10.546  52.603   3.527  1.00  0.00    +0.000 C 
ATOM     26  C20 UNL A   1      11.015  53.496   4.507  1.00  0.00    +0.000 C 
ATOM     27  C21 UNL A   1      10.791  53.275   5.869  1.00  0.00    +0.000 C 
ATOM     28  C22 UNL A   1      10.109  52.141   6.289  1.00  0.00    +0.000 C 
ATOM     29  C23 UNL A   1       9.670  51.217   5.345  1.00  0.00    +0.000 C 
ATOM     30  C24 UNL A   1       9.889  51.439   3.978  1.00  0.00    +0.000 C 
ATOM     31 Cl2  UNL A   1       9.325  50.201   2.906  1.00  0.00    +0.000 Cl
ENDBRANCH   24   25
ENDBRANCH   11   13
ENDBRANCH   10   11
ENDBRANCH    9   10
ENDBRANCH    8    9
ENDBRANCH    7    8
ENDBRANCH    6    7
ENDBRANCH    5    6
ENDBRANCH    4    5
ENDBRANCH    3    4
ENDBRANCH    2    3
ENDBRANCH   33    2
ENDBRANCH   37   36
BRANCH   41   42
ATOM     42  C33 UNL A   1      14.469  49.174   6.619  1.00  0.00    +0.000 C 
ATOM     43  C34 UNL A   1      13.178  48.680   6.852  1.00  0.00    +0.000 C 
ATOM     44  F1  UNL A   1      12.143  49.123   6.122  1.00  0.00    +0.000 F 
ATOM     45  C35 UNL A   1      12.942  47.734   7.846  1.00  0.00    +0.000 C 
ATOM     46  F2  UNL A   1      11.696  47.288   8.064  1.00  0.00    +0.000 F 
ATOM     47  C36 UNL A   1      13.994  47.248   8.610  1.00  0.00    +0.000 C 
ATOM     48  F3  UNL A   1      13.768  46.321   9.552  1.00  0.00    +0.000 F 
ATOM     49  C37 UNL A   1      15.279  47.721   8.395  1.00  0.00    +0.000 C 
ATOM     50  F4  UNL A   1      16.298  47.243   9.123  1.00  0.00    +0.000 F 
ATOM     51  C38 UNL A   1      15.513  48.682   7.417  1.00  0.00    +0.000 C 
ATOM     52  F5  UNL A   1      16.769  49.118   7.228  1.00  0.00    +0.000 F 
ENDBRANCH   41   42
BRANCH   58   59
ATOM     65  F8  UNL A   1      17.686  45.777  -2.936  1.00  0.00    +0.000 F 
ATOM     66  C48 UNL A   1      16.026  47.029  -1.814  1.00  0.00    +0.000 C 
ATOM     67  F9  UNL A   1      15.064  46.354  -2.459  1.00  0.00    +0.000 F 
ATOM     68  C49 UNL A   1      15.685  48.035  -0.915  1.00  0.00    +0.000 C 
ATOM     69  F10 UNL A   1      14.388  48.315  -0.719  1.00  0.00    +0.000 F 
ATOM     59  C44 UNL A   1      16.674  48.742  -0.217  1.00  0.00    +0.000 C 
ATOM     60  C45 UNL A   1      18.016  48.407  -0.454  1.00  0.00    +0.000 C 
ATOM     61  F6  UNL A   1      18.998  49.070   0.175  1.00  0.00    +0.000 F 
ATOM     62  C46 UNL A   1      18.354  47.421  -1.376  1.00  0.00    +0.000 C 
ATOM     63  F7  UNL A   1      19.643  47.152  -1.624  1.00  0.00    +0.000 F 
ATOM     64  C47 UNL A   1      17.359  46.728  -2.050  1.00  0.00    +0.000 C 
ENDBRANCH   58   59
BRANCH   73   74
ATOM     74  C53 UNL A   1      16.688  55.687  -0.622  1.00  0.00    +0.000 C 
ATOM     75  C54 UNL A   1      18.030  56.016  -0.851  1.00  0.00    +0.000 C 
ATOM     76  F11 UNL A   1      18.992  55.470  -0.093  1.00  0.00    +0.000 F 
ATOM     77  C55 UNL A   1      18.385  56.937  -1.835  1.00  0.00    +0.000 C 
ATOM     78  F12 UNL A   1      19.672  57.270  -2.003  1.00  0.00    +0.000 F 
ATOM     79  C56 UNL A   1      17.408  57.522  -2.627  1.00  0.00    +0.000 C 
ATOM     80  F13 UNL A   1      17.751  58.405  -3.575  1.00  0.00    +0.000 F 
ATOM     81  C57 UNL A   1      16.075  57.196  -2.431  1.00  0.00    +0.000 C 
ATOM     82  F14 UNL A   1      15.129  57.746  -3.204  1.00  0.00    +0.000 F 
ATOM     83  C58 UNL A   1      15.717  56.299  -1.428  1.00  0.00    +0.000 C 
ATOM     84  F15 UNL A   1      14.418  56.013  -1.250  1.00  0.00    +0.000 F 
ENDBRANCH   73   74
TORSDOF 18
ENDMDL
