MODEL 1
REMARK VINA RESULT:      -7.7      0.000      0.000
ROOT
ATOM    163  H58 UNL A   1      33.645  29.357  50.535  1.00  0.00    +0.000 H 
ATOM    164  H59 UNL A   1      35.558  30.468  49.157  1.00  0.00    +0.000 H 
ATOM    165  H60 UNL A   1      31.935  31.726  47.599  1.00  0.00    +0.000 H 
ATOM    166  H61 UNL A   1      28.671  35.025  43.203  1.00  0.00    +0.000 H 
ATOM    167  H62 UNL A   1      26.810  33.986  44.586  1.00  0.00    +0.000 H 
ATOM    168  H63 UNL A   1      30.434  32.743  46.197  1.00  0.00    +0.000 H 
ATOM    169  H64 UNL A   1      34.015  34.964  43.475  1.00  0.00    +0.000 H 
ATOM    170  H65 UNL A   1      35.706  33.624  44.849  1.00  0.00    +0.000 H 
ATOM    171  H66 UNL A   1      28.293  29.766  50.414  1.00  0.00    +0.000 H 
ATOM    172  H67 UNL A   1      26.585  30.634  48.714  1.00  0.00    +0.000 H 
ATOM     47  C38 UNL A   1      27.721  32.299  46.698  1.00  0.00    +0.000 C 
ATOM     48  C39 UNL A   1      28.444  31.517  47.760  1.00  0.00    +0.000 C 
ATOM     49  N5  UNL A   1      29.729  31.423  47.991  1.00  0.00    +0.000 N 
ATOM     50  C40 UNL A   1      29.853  30.612  49.112  1.00  0.00    +0.000 C 
ATOM     51  C41 UNL A   1      30.981  30.152  49.702  1.00  0.00    +0.000 C 
ATOM     63  C48 UNL A   1      32.311  30.451  49.240  1.00  0.00    +0.000 C 
ATOM     64  C49 UNL A   1      33.521  30.006  49.743  1.00  0.00    +0.000 C 
ATOM     65  C50 UNL A   1      34.547  30.588  48.991  1.00  0.00    +0.000 C 
ATOM     66  C51 UNL A   1      33.976  31.352  47.987  1.00  0.00    +0.000 C 
ATOM     67  N6  UNL A   1      32.603  31.271  48.160  1.00  0.00    +0.000 N 
ATOM     68  C52 UNL A   1      34.633  32.098  46.945  1.00  0.00    +0.000 C 
ATOM     80  C59 UNL A   1      34.003  32.851  46.010  1.00  0.00    +0.000 C 
ATOM     81  N7  UNL A   1      32.642  33.057  45.823  1.00  0.00    +0.000 N 
ATOM     82  C60 UNL A   1      32.537  33.866  44.798  1.00  0.00    +0.000 C 
ATOM     83  C61 UNL A   1      31.298  34.392  44.122  1.00  0.00    +0.000 C 
ATOM     95  C68 UNL A   1      30.092  34.006  44.577  1.00  0.00    +0.000 C 
ATOM     96  C69 UNL A   1      28.803  34.410  44.021  1.00  0.00    +0.000 C 
ATOM     97  C70 UNL A   1      27.820  33.852  44.745  1.00  0.00    +0.000 C 
ATOM     98  C71 UNL A   1      28.411  33.023  45.797  1.00  0.00    +0.000 C 
ATOM     99  N8  UNL A   1      29.763  33.181  45.624  1.00  0.00    +0.000 N 
ATOM    100  C72 UNL A   1      33.826  34.300  44.242  1.00  0.00    +0.000 C 
ATOM    101  C73 UNL A   1      34.683  33.614  44.984  1.00  0.00    +0.000 C 
ATOM    102  C74 UNL A   1      28.513  30.292  49.553  1.00  0.00    +0.000 C 
ATOM    103  C75 UNL A   1      27.609  30.763  48.709  1.00  0.00    +0.000 C 
ENDROOT
BRANCH   47   46
ATOM    161  H56 UNL A   1      23.599  30.494  45.648  1.00  0.00    +0.000 H 
ATOM    162  H57 UNL A   1      26.025  30.455  45.669  1.00  0.00    +0.000 H 
ATOM    104  C76 UNL A   1      25.542  33.366  47.273  1.00  0.00    +0.000 C 
ATOM    105  C77 UNL A   1      24.154  33.340  47.342  1.00  0.00    +0.000 C 
ATOM     43  C34 UNL A   1      23.443  32.314  46.711  1.00  0.00    +0.000 C 
ATOM     44  C35 UNL A   1      24.124  31.260  46.098  1.00  0.00    +0.000 C 
ATOM     45  C36 UNL A   1      25.519  31.248  46.096  1.00  0.00    +0.000 C 
ATOM    174  H69 UNL A   1      23.647  34.077  47.859  1.00  0.00    +0.000 H 
ATOM    173  H68 UNL A   1      26.062  34.166  47.667  1.00  0.00    +0.000 H 
ATOM     46  C37 UNL A   1      26.238  32.308  46.671  1.00  0.00    +0.000 C 
BRANCH   43   41
ATOM     41  C33 UNL A   1      21.967  32.301  46.715  1.00  0.00    +0.000 C 
ATOM     42  O4  UNL A   1      21.352  32.677  47.711  1.00  0.00    +0.000 O 
BRANCH   41   40
ATOM    160  H55 UNL A   1      20.877  30.981  45.677  1.00  0.00    +0.000 H 
ATOM     40  N4  UNL A   1      21.286  31.874  45.608  1.00  0.00    +0.000 N 
BRANCH   40   39
ATOM    159  H54 UNL A   1      20.607  31.879  43.666  1.00  0.00    +0.000 H 
ATOM    158  H53 UNL A   1      22.036  32.869  43.960  1.00  0.00    +0.000 H 
ATOM     39  C32 UNL A   1      21.086  32.558  44.341  1.00  0.00    +0.000 C 
BRANCH   39   38
ATOM    156  H51 UNL A   1      19.497  33.797  43.682  1.00  0.00    +0.000 H 
ATOM    157  H52 UNL A   1      19.711  33.693  45.448  1.00  0.00    +0.000 H 
ATOM     38  C31 UNL A   1      20.192  33.782  44.496  1.00  0.00    +0.000 C 
BRANCH   38   37
ATOM    154  H49 UNL A   1      20.603  35.701  43.682  1.00  0.00    +0.000 H 
ATOM    155  H50 UNL A   1      20.753  35.564  45.457  1.00  0.00    +0.000 H 
ATOM     37  C30 UNL A   1      20.949  35.113  44.507  1.00  0.00    +0.000 C 
BRANCH   37   36
ATOM    153  H48 UNL A   1      22.672  34.483  43.473  1.00  0.00    +0.000 H 
ATOM     36  C29 UNL A   1      22.474  34.985  44.396  1.00  0.00    +0.000 C 
ATOM    152  H47 UNL A   1      22.827  34.445  45.249  1.00  0.00    +0.000 H 
BRANCH   36   35
ATOM     35  C28 UNL A   1      23.214  36.323  44.336  1.00  0.00    +0.000 C 
ATOM    150  H45 UNL A   1      23.378  36.577  43.310  1.00  0.00    +0.000 H 
ATOM    151  H46 UNL A   1      22.608  37.050  44.833  1.00  0.00    +0.000 H 
BRANCH   35   34
ATOM     34  C27 UNL A   1      24.565  36.285  45.049  1.00  0.00    +0.000 C 
ATOM    148  H43 UNL A   1      24.778  35.280  45.345  1.00  0.00    +0.000 H 
ATOM    149  H44 UNL A   1      25.317  36.644  44.379  1.00  0.00    +0.000 H 
BRANCH   34   33
ATOM     33  N3  UNL A   1      24.547  37.136  46.231  1.00  0.00    +0.000 N 
ATOM    147  H42 UNL A   1      23.752  37.711  46.314  1.00  0.00    +0.000 H 
BRANCH   33   31
ATOM     31  C26 UNL A   1      25.459  37.267  47.246  1.00  0.00    +0.000 C 
ATOM     32  O3  UNL A   1      25.198  36.730  48.327  1.00  0.00    +0.000 O 
BRANCH   31    5
ATOM    115  H10 UNL A   1      27.357  38.421  47.852  1.00  0.00    +0.000 H 
ATOM      5  C5  UNL A   1      26.772  38.050  47.036  1.00  0.00    +0.000 C 
BRANCH    5    4
ATOM    113  H8  UNL A   1      27.420  36.067  46.651  1.00  0.00    +0.000 H 
ATOM    114  H9  UNL A   1      27.847  37.363  45.411  1.00  0.00    +0.000 H 
ATOM      4  C4  UNL A   1      27.794  37.045  46.431  1.00  0.00    +0.000 C 
BRANCH    4    3
ATOM      3  C3  UNL A   1      29.265  37.042  46.842  1.00  0.00    +0.000 C 
ATOM    111  H6  UNL A   1      29.849  36.930  45.952  1.00  0.00    +0.000 H 
ATOM    112  H7  UNL A   1      29.409  37.965  47.364  1.00  0.00    +0.000 H 
BRANCH    3    2
ATOM      2  C2  UNL A   1      29.711  35.959  47.824  1.00  0.00    +0.000 C 
ATOM    109  H4  UNL A   1      29.385  36.235  48.805  1.00  0.00    +0.000 H 
ATOM    110  H5  UNL A   1      29.274  35.037  47.501  1.00  0.00    +0.000 H 
BRANCH    2    1
ATOM      1  C1  UNL A   1      31.215  35.762  47.852  1.00  0.00    +0.000 C 
ATOM    106  H1  UNL A   1      31.641  36.372  48.622  1.00  0.00    +0.000 H 
ATOM    107  H2  UNL A   1      31.629  36.041  46.907  1.00  0.00    +0.000 H 
ATOM    108  H3  UNL A   1      31.436  34.733  48.049  1.00  0.00    +0.000 H 
ENDBRANCH    2    1
ENDBRANCH    3    2
ENDBRANCH    4    3
ENDBRANCH    5    4
BRANCH    5    6
ATOM      6  S1  UNL A   1      26.174  39.607  46.173  1.00  0.00    +0.000 S 
BRANCH    6    7
ATOM    131  H26 UNL A   1      29.314  43.793  46.197  1.00  0.00    +0.000 H 
ATOM      7  C6  UNL A   1      27.218  40.881  46.794  1.00  0.00    +0.000 C 
ATOM      8  N1  UNL A   1      26.643  42.085  46.995  1.00  0.00    +0.000 N 
ATOM      9  C7  UNL A   1      27.448  43.145  46.888  1.00  0.00    +0.000 C 
ATOM     19  C16 UNL A   1      28.750  42.989  46.515  1.00  0.00    +0.000 C 
ATOM     20  C17 UNL A   1      29.282  41.736  46.577  1.00  0.00    +0.000 C 
ATOM     30  N2  UNL A   1      28.525  40.657  46.722  1.00  0.00    +0.000 N 
BRANCH    9   10
ATOM     10  O1  UNL A   1      26.884  44.363  47.191  1.00  0.00    +0.000 O 
BRANCH   10   11
ATOM     11  C8  UNL A   1      26.113  44.482  48.394  1.00  0.00    +0.000 C 
ATOM    116  H11 UNL A   1      26.415  45.383  48.885  1.00  0.00    +0.000 H 
ATOM    117  H12 UNL A   1      26.309  43.586  48.945  1.00  0.00    +0.000 H 
BRANCH   11   12
ATOM     12  C9  UNL A   1      24.569  44.530  48.230  1.00  0.00    +0.000 C 
ATOM    118  H13 UNL A   1      24.143  43.911  48.992  1.00  0.00    +0.000 H 
ATOM    119  H14 UNL A   1      24.384  44.200  47.229  1.00  0.00    +0.000 H 
BRANCH   12   13
ATOM    129  H24 UNL A   1      22.635  45.302  49.939  1.00  0.00    +0.000 H 
ATOM    130  H25 UNL A   1      21.824  45.404  48.395  1.00  0.00    +0.000 H 
ATOM     13  C10 UNL A   1      23.902  45.911  48.326  1.00  0.00    +0.000 C 
ATOM     14  C11 UNL A   1      23.743  46.637  46.981  1.00  0.00    +0.000 C 
ATOM     15  C12 UNL A   1      23.264  48.076  47.208  1.00  0.00    +0.000 C 
ATOM     16  C13 UNL A   1      22.042  48.181  48.122  1.00  0.00    +0.000 C 
ATOM     17  C14 UNL A   1      22.101  47.289  49.363  1.00  0.00    +0.000 C 
ATOM     18  C15 UNL A   1      22.548  45.867  49.034  1.00  0.00    +0.000 C 
ATOM    120  H15 UNL A   1      24.592  46.478  48.916  1.00  0.00    +0.000 H 
ATOM    121  H16 UNL A   1      23.024  46.116  46.382  1.00  0.00    +0.000 H 
ATOM    122  H17 UNL A   1      24.689  46.657  46.482  1.00  0.00    +0.000 H 
ATOM    123  H18 UNL A   1      23.013  48.503  46.259  1.00  0.00    +0.000 H 
ATOM    124  H19 UNL A   1      24.063  48.599  47.691  1.00  0.00    +0.000 H 
ATOM    125  H20 UNL A   1      21.176  47.909  47.557  1.00  0.00    +0.000 H 
ATOM    126  H21 UNL A   1      22.010  49.191  48.475  1.00  0.00    +0.000 H 
ATOM    127  H22 UNL A   1      21.128  47.251  49.806  1.00  0.00    +0.000 H 
ATOM    128  H23 UNL A   1      22.820  47.710  50.034  1.00  0.00    +0.000 H 
ENDBRANCH   12   13
ENDBRANCH   11   12
ENDBRANCH   10   11
ENDBRANCH    9   10
BRANCH   20   21
ATOM     21  O2  UNL A   1      30.572  41.489  46.194  1.00  0.00    +0.000 O 
BRANCH   21   22
ATOM    132  H27 UNL A   1      31.651  42.487  47.623  1.00  0.00    +0.000 H 
ATOM    133  H28 UNL A   1      31.166  43.450  46.250  1.00  0.00    +0.000 H 
ATOM     22  C18 UNL A   1      31.521  42.491  46.561  1.00  0.00    +0.000 C 
BRANCH   22   23
ATOM    135  H30 UNL A   1      33.503  41.710  46.593  1.00  0.00    +0.000 H 
ATOM    134  H29 UNL A   1      32.696  41.567  45.023  1.00  0.00    +0.000 H 
ATOM     23  C19 UNL A   1      32.874  42.191  45.873  1.00  0.00    +0.000 C 
BRANCH   23   24
ATOM    136  H31 UNL A   1      33.018  43.720  44.540  1.00  0.00    +0.000 H 
ATOM    137  H32 UNL A   1      34.388  44.397  47.165  1.00  0.00    +0.000 H 
ATOM    138  H33 UNL A   1      32.674  44.574  47.000  1.00  0.00    +0.000 H 
ATOM    139  H34 UNL A   1      33.704  46.696  46.430  1.00  0.00    +0.000 H 
ATOM    140  H35 UNL A   1      33.097  45.997  44.956  1.00  0.00    +0.000 H 
ATOM    141  H36 UNL A   1      35.921  46.005  45.965  1.00  0.00    +0.000 H 
ATOM    142  H37 UNL A   1      35.272  46.713  44.469  1.00  0.00    +0.000 H 
ATOM    143  H38 UNL A   1      36.648  44.560  44.314  1.00  0.00    +0.000 H 
ATOM    144  H39 UNL A   1      35.100  44.718  43.424  1.00  0.00    +0.000 H 
ATOM    145  H40 UNL A   1      35.136  42.521  44.254  1.00  0.00    +0.000 H 
ATOM    146  H41 UNL A   1      35.650  43.051  45.840  1.00  0.00    +0.000 H 
ATOM     24  C20 UNL A   1      33.598  43.464  45.403  1.00  0.00    +0.000 C 
ATOM     25  C21 UNL A   1      33.599  44.564  46.462  1.00  0.00    +0.000 C 
ATOM     26  C22 UNL A   1      33.817  45.886  45.740  1.00  0.00    +0.000 C 
ATOM     27  C23 UNL A   1      35.225  45.898  45.160  1.00  0.00    +0.000 C 
ATOM     28  C24 UNL A   1      35.581  44.623  44.375  1.00  0.00    +0.000 C 
ATOM     29  C25 UNL A   1      35.061  43.301  44.982  1.00  0.00    +0.000 C 
ENDBRANCH   23   24
ENDBRANCH   22   23
ENDBRANCH   21   22
ENDBRANCH   20   21
ENDBRANCH    6    7
ENDBRANCH    5    6
ENDBRANCH   31    5
ENDBRANCH   33   31
ENDBRANCH   34   33
ENDBRANCH   35   34
ENDBRANCH   36   35
ENDBRANCH   37   36
ENDBRANCH   38   37
ENDBRANCH   39   38
ENDBRANCH   40   39
ENDBRANCH   41   40
ENDBRANCH   43   41
ENDBRANCH   47   46
BRANCH   51   52
ATOM     52  C42 UNL A   1      30.825  29.269  50.906  1.00  0.00    +0.000 C 
ATOM     53  C43 UNL A   1      30.803  29.797  52.207  1.00  0.00    +0.000 C 
ATOM     54  F1  UNL A   1      30.969  31.114  52.403  1.00  0.00    +0.000 F 
ATOM     55  C44 UNL A   1      30.652  28.967  53.315  1.00  0.00    +0.000 C 
ATOM     56  F2  UNL A   1      30.686  29.489  54.549  1.00  0.00    +0.000 F 
ATOM     57  C45 UNL A   1      30.482  27.603  53.144  1.00  0.00    +0.000 C 
ATOM     58  F3  UNL A   1      30.328  26.806  54.212  1.00  0.00    +0.000 F 
ATOM     59  C46 UNL A   1      30.478  27.061  51.868  1.00  0.00    +0.000 C 
ATOM     60  F4  UNL A   1      30.300  25.743  51.701  1.00  0.00    +0.000 F 
ATOM     61  C47 UNL A   1      30.661  27.883  50.759  1.00  0.00    +0.000 C 
ATOM     62  F5  UNL A   1      30.670  27.326  49.538  1.00  0.00    +0.000 F 
ENDBRANCH   51   52
BRANCH   68   69
ATOM     69  C53 UNL A   1      36.129  32.013  46.865  1.00  0.00    +0.000 C 
ATOM     70  C54 UNL A   1      36.776  31.014  46.124  1.00  0.00    +0.000 C 
ATOM     71  F6  UNL A   1      36.061  30.070  45.494  1.00  0.00    +0.000 F 
ATOM     72  C55 UNL A   1      38.166  30.958  46.062  1.00  0.00    +0.000 C 
ATOM     73  F7  UNL A   1      38.764  29.963  45.391  1.00  0.00    +0.000 F 
ATOM     74  C56 UNL A   1      38.932  31.917  46.707  1.00  0.00    +0.000 C 
ATOM     75  F8  UNL A   1      40.269  31.863  46.641  1.00  0.00    +0.000 F 
ATOM     76  C57 UNL A   1      38.313  32.927  47.427  1.00  0.00    +0.000 C 
ATOM     77  F9  UNL A   1      39.050  33.864  48.037  1.00  0.00    +0.000 F 
ATOM     78  C58 UNL A   1      36.925  32.969  47.517  1.00  0.00    +0.000 C 
ATOM     79  F10 UNL A   1      36.355  33.949  48.233  1.00  0.00    +0.000 F 
ENDBRANCH   68   69
BRANCH   83   84
ATOM     84  C62 UNL A   1      31.399  35.296  42.947  1.00  0.00    +0.000 C 
ATOM     85  C63 UNL A   1      31.655  34.783  41.666  1.00  0.00    +0.000 C 
ATOM     86  F11 UNL A   1      31.812  33.462  41.493  1.00  0.00    +0.000 F 
ATOM     87  C64 UNL A   1      31.802  35.628  40.568  1.00  0.00    +0.000 C 
ATOM     88  F12 UNL A   1      32.103  35.116  39.367  1.00  0.00    +0.000 F 
ATOM     89  C65 UNL A   1      31.659  36.999  40.722  1.00  0.00    +0.000 C 
ATOM     90  F13 UNL A   1      31.803  37.812  39.666  1.00  0.00    +0.000 F 
ATOM     91  C66 UNL A   1      31.379  37.527  41.973  1.00  0.00    +0.000 C 
ATOM     92  F14 UNL A   1      31.228  38.850  42.122  1.00  0.00    +0.000 F 
ATOM     93  C67 UNL A   1      31.263  36.685  43.077  1.00  0.00    +0.000 C 
ATOM     94  F15 UNL A   1      31.010  37.226  44.278  1.00  0.00    +0.000 F 
ENDBRANCH   83   84
TORSDOF 29
ENDMDL
MODEL 2
REMARK VINA RESULT:      -7.6      7.179     14.758
ROOT
ATOM    163  H58 UNL A   1      23.601  47.277  49.078  1.00  0.00    +0.000 H 
ATOM    164  H59 UNL A   1      25.178  49.327  49.412  1.00  0.00    +0.000 H 
ATOM    165  H60 UNL A   1      27.458  46.135  48.087  1.00  0.00    +0.000 H 
ATOM    166  H61 UNL A   1      33.170  43.681  46.601  1.00  0.00    +0.000 H 
ATOM    167  H62 UNL A   1      31.621  41.703  46.222  1.00  0.00    +0.000 H 
ATOM    168  H63 UNL A   1      29.302  44.904  47.508  1.00  0.00    +0.000 H 
ATOM    169  H64 UNL A   1      32.445  48.771  48.085  1.00  0.00    +0.000 H 
ATOM    170  H65 UNL A   1      30.450  50.085  49.000  1.00  0.00    +0.000 H 
ATOM    171  H66 UNL A   1      24.368  42.294  47.232  1.00  0.00    +0.000 H 
ATOM    172  H67 UNL A   1      26.414  40.800  46.861  1.00  0.00    +0.000 H 
ATOM     47  C38 UNL A   1      28.883  42.226  46.826  1.00  0.00    +0.000 C 
ATOM     48  C39 UNL A   1      27.516  42.761  47.154  1.00  0.00    +0.000 C 
ATOM     49  N5  UNL A   1      27.159  43.974  47.495  1.00  0.00    +0.000 N 
ATOM     50  C40 UNL A   1      25.779  43.934  47.641  1.00  0.00    +0.000 C 
ATOM     51  C41 UNL A   1      24.944  44.915  48.057  1.00  0.00    +0.000 C 
ATOM     63  C48 UNL A   1      25.377  46.236  48.431  1.00  0.00    +0.000 C 
ATOM     64  C49 UNL A   1      24.618  47.293  48.902  1.00  0.00    +0.000 C 
ATOM     65  C50 UNL A   1      25.467  48.387  49.098  1.00  0.00    +0.000 C 
ATOM     66  C51 UNL A   1      26.763  47.996  48.801  1.00  0.00    +0.000 C 
ATOM     67  N6  UNL A   1      26.691  46.677  48.380  1.00  0.00    +0.000 N 
ATOM     68  C52 UNL A   1      27.976  48.765  48.898  1.00  0.00    +0.000 C 
ATOM     80  C59 UNL A   1      29.210  48.320  48.559  1.00  0.00    +0.000 C 
ATOM     81  N7  UNL A   1      29.590  47.071  48.083  1.00  0.00    +0.000 N 
ATOM     82  C60 UNL A   1      30.886  47.136  47.896  1.00  0.00    +0.000 C 
ATOM     83  C61 UNL A   1      31.837  46.062  47.436  1.00  0.00    +0.000 C 
ATOM     95  C68 UNL A   1      31.356  44.833  47.173  1.00  0.00    +0.000 C 
ATOM     96  C69 UNL A   1      32.148  43.685  46.739  1.00  0.00    +0.000 C 
ATOM     97  C70 UNL A   1      31.330  42.637  46.549  1.00  0.00    +0.000 C 
ATOM     98  C71 UNL A   1      29.961  43.032  46.882  1.00  0.00    +0.000 C 
ATOM     99  N8  UNL A   1      30.071  44.353  47.235  1.00  0.00    +0.000 N 
ATOM    100  C72 UNL A   1      31.470  48.451  48.194  1.00  0.00    +0.000 C 
ATOM    101  C73 UNL A   1      30.416  49.118  48.641  1.00  0.00    +0.000 C 
ATOM    102  C74 UNL A   1      25.353  42.597  47.292  1.00  0.00    +0.000 C 
ATOM    103  C75 UNL A   1      26.394  41.813  47.058  1.00  0.00    +0.000 C 
ENDROOT
BRANCH   47   46
ATOM    161  H56 UNL A   1      29.636  37.734  47.601  1.00  0.00    +0.000 H 
ATOM    162  H57 UNL A   1      29.396  40.035  48.332  1.00  0.00    +0.000 H 
ATOM    104  C76 UNL A   1      28.875  40.482  45.045  1.00  0.00    +0.000 C 
ATOM    105  C77 UNL A   1      28.921  39.152  44.642  1.00  0.00    +0.000 C 
ATOM     43  C34 UNL A   1      29.242  38.154  45.567  1.00  0.00    +0.000 C 
ATOM     44  C35 UNL A   1      29.417  38.474  46.915  1.00  0.00    +0.000 C 
ATOM     45  C36 UNL A   1      29.296  39.799  47.332  1.00  0.00    +0.000 C 
ATOM    174  H69 UNL A   1      28.718  38.901  43.662  1.00  0.00    +0.000 H 
ATOM    173  H68 UNL A   1      28.721  41.227  44.347  1.00  0.00    +0.000 H 
ATOM     46  C37 UNL A   1      29.038  40.816  46.397  1.00  0.00    +0.000 C 
BRANCH   43   41
ATOM     41  C33 UNL A   1      29.360  36.743  45.149  1.00  0.00    +0.000 C 
ATOM     42  O4  UNL A   1      30.109  36.438  44.224  1.00  0.00    +0.000 O 
BRANCH   41   40
ATOM    160  H55 UNL A   1      28.872  35.632  46.742  1.00  0.00    +0.000 H 
ATOM     40  N4  UNL A   1      28.638  35.778  45.796  1.00  0.00    +0.000 N 
BRANCH   40   39
ATOM    159  H54 UNL A   1      27.399  34.146  45.980  1.00  0.00    +0.000 H 
ATOM    158  H53 UNL A   1      27.866  34.546  44.328  1.00  0.00    +0.000 H 
ATOM     39  C32 UNL A   1      27.571  34.936  45.279  1.00  0.00    +0.000 C 
BRANCH   39   38
ATOM    156  H51 UNL A   1      26.130  36.323  45.979  1.00  0.00    +0.000 H 
ATOM    157  H52 UNL A   1      26.370  36.289  44.215  1.00  0.00    +0.000 H 
ATOM     38  C31 UNL A   1      26.271  35.714  45.111  1.00  0.00    +0.000 C 
BRANCH   38   37
ATOM    154  H49 UNL A   1      24.165  35.433  45.116  1.00  0.00    +0.000 H 
ATOM    155  H50 UNL A   1      25.076  34.445  43.939  1.00  0.00    +0.000 H 
ATOM     37  C30 UNL A   1      25.032  34.832  44.935  1.00  0.00    +0.000 C 
BRANCH   37   36
ATOM    153  H48 UNL A   1      25.984  33.358  46.101  1.00  0.00    +0.000 H 
ATOM     36  C29 UNL A   1      24.972  33.615  45.868  1.00  0.00    +0.000 C 
ATOM    152  H47 UNL A   1      24.449  32.831  45.361  1.00  0.00    +0.000 H 
BRANCH   36   35
ATOM     35  C28 UNL A   1      24.268  33.878  47.200  1.00  0.00    +0.000 C 
ATOM    150  H45 UNL A   1      24.928  33.603  47.996  1.00  0.00    +0.000 H 
ATOM    151  H46 UNL A   1      24.017  34.917  47.233  1.00  0.00    +0.000 H 
BRANCH   35   34
ATOM     34  C27 UNL A   1      22.969  33.087  47.350  1.00  0.00    +0.000 C 
ATOM    148  H43 UNL A   1      23.138  32.075  47.051  1.00  0.00    +0.000 H 
ATOM    149  H44 UNL A   1      22.659  33.126  48.373  1.00  0.00    +0.000 H 
BRANCH   34   33
ATOM     33  N3  UNL A   1      21.918  33.661  46.522  1.00  0.00    +0.000 N 
ATOM    147  H42 UNL A   1      21.939  34.643  46.450  1.00  0.00    +0.000 H 
BRANCH   33   31
ATOM     31  C26 UNL A   1      20.904  33.055  45.826  1.00  0.00    +0.000 C 
ATOM     32  O3  UNL A   1      20.574  31.914  46.164  1.00  0.00    +0.000 O 
BRANCH   31    5
ATOM    115  H10 UNL A   1      20.003  33.317  43.723  1.00  0.00    +0.000 H 
ATOM      5  C5  UNL A   1      20.192  33.785  44.667  1.00  0.00    +0.000 C 
BRANCH    5    4
ATOM    113  H8  UNL A   1      18.700  33.799  46.175  1.00  0.00    +0.000 H 
ATOM    114  H9  UNL A   1      18.545  35.025  44.805  1.00  0.00    +0.000 H 
ATOM      4  C4  UNL A   1      18.724  34.021  45.128  1.00  0.00    +0.000 C 
BRANCH    4    3
ATOM      3  C3  UNL A   1      17.550  33.268  44.505  1.00  0.00    +0.000 C 
ATOM    111  H6  UNL A   1      17.697  32.226  44.697  1.00  0.00    +0.000 H 
ATOM    112  H7  UNL A   1      16.677  33.693  44.956  1.00  0.00    +0.000 H 
BRANCH    3    2
ATOM      2  C2  UNL A   1      17.337  33.434  43.001  1.00  0.00    +0.000 C 
ATOM    109  H4  UNL A   1      16.297  33.611  42.822  1.00  0.00    +0.000 H 
ATOM    110  H5  UNL A   1      17.944  34.256  42.682  1.00  0.00    +0.000 H 
BRANCH    2    1
ATOM      1  C1  UNL A   1      17.765  32.218  42.200  1.00  0.00    +0.000 C 
ATOM    106  H1  UNL A   1      17.219  31.360  42.535  1.00  0.00    +0.000 H 
ATOM    107  H2  UNL A   1      18.812  32.050  42.338  1.00  0.00    +0.000 H 
ATOM    108  H3  UNL A   1      17.564  32.386  41.162  1.00  0.00    +0.000 H 
ENDBRANCH    2    1
ENDBRANCH    3    2
ENDBRANCH    4    3
ENDBRANCH    5    4
BRANCH    5    6
ATOM      6  S1  UNL A   1      21.408  35.153  44.250  1.00  0.00    +0.000 S 
BRANCH    6    7
ATOM    131  H26 UNL A   1      20.794  37.862  48.684  1.00  0.00    +0.000 H 
ATOM      7  C6  UNL A   1      20.967  36.474  45.326  1.00  0.00    +0.000 C 
ATOM      8  N1  UNL A   1      21.958  37.320  45.678  1.00  0.00    +0.000 N 
ATOM      9  C7  UNL A   1      21.828  37.916  46.866  1.00  0.00    +0.000 C 
ATOM     19  C16 UNL A   1      20.784  37.603  47.685  1.00  0.00    +0.000 C 
ATOM     20  C17 UNL A   1      19.728  36.935  47.141  1.00  0.00    +0.000 C 
ATOM     30  N2  UNL A   1      19.799  36.361  45.948  1.00  0.00    +0.000 N 
BRANCH    9   10
ATOM     10  O1  UNL A   1      22.786  38.852  47.178  1.00  0.00    +0.000 O 
BRANCH   10   11
ATOM     11  C8  UNL A   1      24.054  38.787  46.510  1.00  0.00    +0.000 C 
ATOM    116  H11 UNL A   1      24.199  39.715  45.998  1.00  0.00    +0.000 H 
ATOM    117  H12 UNL A   1      23.993  37.929  45.874  1.00  0.00    +0.000 H 
BRANCH   11   12
ATOM     12  C9  UNL A   1      25.300  38.543  47.405  1.00  0.00    +0.000 C 
ATOM    118  H13 UNL A   1      25.400  39.386  48.057  1.00  0.00    +0.000 H 
ATOM    119  H14 UNL A   1      26.112  38.407  46.722  1.00  0.00    +0.000 H 
BRANCH   12   13
ATOM    129  H24 UNL A   1      23.476  37.837  49.256  1.00  0.00    +0.000 H 
ATOM    130  H25 UNL A   1      24.909  38.076  50.225  1.00  0.00    +0.000 H 
ATOM     13  C10 UNL A   1      25.293  37.278  48.277  1.00  0.00    +0.000 C 
ATOM     14  C11 UNL A   1      26.688  36.781  48.689  1.00  0.00    +0.000 C 
ATOM     15  C12 UNL A   1      26.582  35.412  49.373  1.00  0.00    +0.000 C 
ATOM     16  C13 UNL A   1      25.545  35.364  50.496  1.00  0.00    +0.000 C 
ATOM     17  C14 UNL A   1      24.221  36.054  50.165  1.00  0.00    +0.000 C 
ATOM     18  C15 UNL A   1      24.425  37.425  49.527  1.00  0.00    +0.000 C 
ATOM    120  H15 UNL A   1      24.866  36.537  47.633  1.00  0.00    +0.000 H 
ATOM    121  H16 UNL A   1      27.126  37.483  49.369  1.00  0.00    +0.000 H 
ATOM    122  H17 UNL A   1      27.298  36.689  47.815  1.00  0.00    +0.000 H 
ATOM    123  H18 UNL A   1      27.539  35.166  49.786  1.00  0.00    +0.000 H 
ATOM    124  H19 UNL A   1      26.269  34.713  48.627  1.00  0.00    +0.000 H 
ATOM    125  H20 UNL A   1      25.963  35.840  51.359  1.00  0.00    +0.000 H 
ATOM    126  H21 UNL A   1      25.318  34.331  50.659  1.00  0.00    +0.000 H 
ATOM    127  H22 UNL A   1      23.661  36.175  51.069  1.00  0.00    +0.000 H 
ATOM    128  H23 UNL A   1      23.700  35.440  49.462  1.00  0.00    +0.000 H 
ENDBRANCH   12   13
ENDBRANCH   11   12
ENDBRANCH   10   11
ENDBRANCH    9   10
BRANCH   20   21
ATOM     21  O2  UNL A   1      18.655  36.559  47.900  1.00  0.00    +0.000 O 
BRANCH   21   22
ATOM    132  H27 UNL A   1      17.285  38.083  47.950  1.00  0.00    +0.000 H 
ATOM    133  H28 UNL A   1      18.720  38.342  48.910  1.00  0.00    +0.000 H 
ATOM     22  C18 UNL A   1      17.998  37.617  48.598  1.00  0.00    +0.000 C 
BRANCH   22   23
ATOM    135  H30 UNL A   1      17.717  36.094  50.060  1.00  0.00    +0.000 H 
ATOM    134  H29 UNL A   1      17.381  37.731  50.649  1.00  0.00    +0.000 H 
ATOM     23  C19 UNL A   1      17.273  37.042  49.838  1.00  0.00    +0.000 C 
BRANCH   23   24
ATOM    136  H31 UNL A   1      15.618  35.902  50.149  1.00  0.00    +0.000 H 
ATOM    137  H32 UNL A   1      14.884  38.740  49.356  1.00  0.00    +0.000 H 
ATOM    138  H33 UNL A   1      15.300  38.368  50.995  1.00  0.00    +0.000 H 
ATOM    139  H34 UNL A   1      12.893  38.158  50.769  1.00  0.00    +0.000 H 
ATOM    140  H35 UNL A   1      13.543  36.554  50.947  1.00  0.00    +0.000 H 
ATOM    141  H36 UNL A   1      12.685  37.923  48.421  1.00  0.00    +0.000 H 
ATOM    142  H37 UNL A   1      12.045  36.434  49.153  1.00  0.00    +0.000 H 
ATOM    143  H38 UNL A   1      13.530  36.245  47.075  1.00  0.00    +0.000 H 
ATOM    144  H39 UNL A   1      13.802  35.179  48.490  1.00  0.00    +0.000 H 
ATOM    145  H40 UNL A   1      15.940  35.778  47.723  1.00  0.00    +0.000 H 
ATOM    146  H41 UNL A   1      15.494  37.464  47.579  1.00  0.00    +0.000 H 
ATOM     24  C20 UNL A   1      15.773  36.804  49.593  1.00  0.00    +0.000 C 
ATOM     25  C21 UNL A   1      14.907  37.960  50.087  1.00  0.00    +0.000 C 
ATOM     26  C22 UNL A   1      13.504  37.411  50.307  1.00  0.00    +0.000 C 
ATOM     27  C23 UNL A   1      12.914  37.027  48.957  1.00  0.00    +0.000 C 
ATOM     28  C24 UNL A   1      13.856  36.170  48.092  1.00  0.00    +0.000 C 
ATOM     29  C25 UNL A   1      15.348  36.566  48.142  1.00  0.00    +0.000 C 
ENDBRANCH   23   24
ENDBRANCH   22   23
ENDBRANCH   21   22
ENDBRANCH   20   21
ENDBRANCH    6    7
ENDBRANCH    5    6
ENDBRANCH   31    5
ENDBRANCH   33   31
ENDBRANCH   34   33
ENDBRANCH   35   34
ENDBRANCH   36   35
ENDBRANCH   37   36
ENDBRANCH   38   37
ENDBRANCH   39   38
ENDBRANCH   40   39
ENDBRANCH   41   40
ENDBRANCH   43   41
ENDBRANCH   47   46
BRANCH   51   52
ATOM     52  C42 UNL A   1      23.480  44.594  48.140  1.00  0.00    +0.000 C 
ATOM     53  C43 UNL A   1      22.608  44.859  47.071  1.00  0.00    +0.000 C 
ATOM     54  F1  UNL A   1      23.065  45.454  45.959  1.00  0.00    +0.000 F 
ATOM     55  C44 UNL A   1      21.253  44.551  47.158  1.00  0.00    +0.000 C 
ATOM     56  F2  UNL A   1      20.431  44.860  46.146  1.00  0.00    +0.000 F 
ATOM     57  C45 UNL A   1      20.750  43.938  48.295  1.00  0.00    +0.000 C 
ATOM     58  F3  UNL A   1      19.446  43.634  48.374  1.00  0.00    +0.000 F 
ATOM     59  C46 UNL A   1      21.596  43.647  49.354  1.00  0.00    +0.000 C 
ATOM     60  F4  UNL A   1      21.113  43.043  50.449  1.00  0.00    +0.000 F 
ATOM     61  C47 UNL A   1      22.946  43.983  49.284  1.00  0.00    +0.000 C 
ATOM     62  F5  UNL A   1      23.735  43.703  50.333  1.00  0.00    +0.000 F 
ENDBRANCH   51   52
BRANCH   68   69
ATOM     69  C53 UNL A   1      27.874  50.159  49.447  1.00  0.00    +0.000 C 
ATOM     70  C54 UNL A   1      27.912  50.418  50.824  1.00  0.00    +0.000 C 
ATOM     71  F6  UNL A   1      27.997  49.405  51.700  1.00  0.00    +0.000 F 
ATOM     72  C55 UNL A   1      27.819  51.719  51.309  1.00  0.00    +0.000 C 
ATOM     73  F7  UNL A   1      27.804  51.939  52.631  1.00  0.00    +0.000 F 
ATOM     74  C56 UNL A   1      27.725  52.787  50.429  1.00  0.00    +0.000 C 
ATOM     75  F8  UNL A   1      27.642  54.039  50.898  1.00  0.00    +0.000 F 
ATOM     76  C57 UNL A   1      27.710  52.555  49.061  1.00  0.00    +0.000 C 
ATOM     77  F9  UNL A   1      27.635  53.586  48.208  1.00  0.00    +0.000 F 
ATOM     78  C58 UNL A   1      27.770  51.253  48.574  1.00  0.00    +0.000 C 
ATOM     79  F10 UNL A   1      27.737  51.061  47.247  1.00  0.00    +0.000 F 
ENDBRANCH   68   69
BRANCH   83   84
ATOM     84  C62 UNL A   1      33.291  46.340  47.307  1.00  0.00    +0.000 C 
ATOM     85  C63 UNL A   1      33.814  46.897  46.131  1.00  0.00    +0.000 C 
ATOM     86  F11 UNL A   1      32.997  47.188  45.107  1.00  0.00    +0.000 F 
ATOM     87  C64 UNL A   1      35.182  47.113  45.982  1.00  0.00    +0.000 C 
ATOM     88  F12 UNL A   1      35.661  47.595  44.827  1.00  0.00    +0.000 F 
ATOM     89  C65 UNL A   1      36.051  46.809  47.019  1.00  0.00    +0.000 C 
ATOM     90  F13 UNL A   1      37.367  47.013  46.875  1.00  0.00    +0.000 F 
ATOM     91  C66 UNL A   1      35.554  46.281  48.201  1.00  0.00    +0.000 C 
ATOM     92  F14 UNL A   1      36.389  45.998  49.210  1.00  0.00    +0.000 F 
ATOM     93  C67 UNL A   1      34.189  46.036  48.339  1.00  0.00    +0.000 C 
ATOM     94  F15 UNL A   1      33.740  45.508  49.487  1.00  0.00    +0.000 F 
ENDBRANCH   83   84
TORSDOF 29
ENDMDL
MODEL 3
REMARK VINA RESULT:      -7.6      1.740      3.047
ROOT
ATOM    163  H58 UNL A   1      33.674  29.370  50.644  1.00  0.00    +0.000 H 
ATOM    164  H59 UNL A   1      35.587  30.515  49.291  1.00  0.00    +0.000 H 
ATOM    165  H60 UNL A   1      31.962  31.710  47.685  1.00  0.00    +0.000 H 
ATOM    166  H61 UNL A   1      28.700  34.952  43.246  1.00  0.00    +0.000 H 
ATOM    167  H62 UNL A   1      26.839  33.880  44.604  1.00  0.00    +0.000 H 
ATOM    168  H63 UNL A   1      30.463  32.700  46.263  1.00  0.00    +0.000 H 
ATOM    169  H64 UNL A   1      34.040  34.985  43.589  1.00  0.00    +0.000 H 
ATOM    170  H65 UNL A   1      35.736  33.674  44.986  1.00  0.00    +0.000 H 
ATOM    171  H66 UNL A   1      28.318  29.686  50.452  1.00  0.00    +0.000 H 
ATOM    172  H67 UNL A   1      26.618  30.523  48.729  1.00  0.00    +0.000 H 
ATOM     47  C38 UNL A   1      27.751  32.209  46.728  1.00  0.00    +0.000 C 
ATOM     48  C39 UNL A   1      28.474  31.439  47.800  1.00  0.00    +0.000 C 
ATOM     49  N5  UNL A   1      29.757  31.368  48.047  1.00  0.00    +0.000 N 
ATOM     50  C40 UNL A   1      29.880  30.559  49.170  1.00  0.00    +0.000 C 
ATOM     51  C41 UNL A   1      31.009  30.119  49.775  1.00  0.00    +0.000 C 
ATOM     63  C48 UNL A   1      32.339  30.441  49.331  1.00  0.00    +0.000 C 
ATOM     64  C49 UNL A   1      33.550  30.017  49.850  1.00  0.00    +0.000 C 
ATOM     65  C50 UNL A   1      34.576  30.617  49.112  1.00  0.00    +0.000 C 
ATOM     66  C51 UNL A   1      34.004  31.372  48.100  1.00  0.00    +0.000 C 
ATOM     67  N6  UNL A   1      32.631  31.266  48.255  1.00  0.00    +0.000 N 
ATOM     68  C52 UNL A   1      34.662  32.129  47.067  1.00  0.00    +0.000 C 
ATOM     80  C59 UNL A   1      34.031  32.871  46.124  1.00  0.00    +0.000 C 
ATOM     81  N7  UNL A   1      32.670  33.053  45.919  1.00  0.00    +0.000 N 
ATOM     82  C60 UNL A   1      32.564  33.861  44.892  1.00  0.00    +0.000 C 
ATOM     83  C61 UNL A   1      31.325  34.365  44.200  1.00  0.00    +0.000 C 
ATOM     95  C68 UNL A   1      30.120  33.958  44.639  1.00  0.00    +0.000 C 
ATOM     96  C69 UNL A   1      28.833  34.339  44.065  1.00  0.00    +0.000 C 
ATOM     97  C70 UNL A   1      27.850  33.764  44.777  1.00  0.00    +0.000 C 
ATOM     98  C71 UNL A   1      28.441  32.945  45.836  1.00  0.00    +0.000 C 
ATOM     99  N8  UNL A   1      29.793  33.126  45.681  1.00  0.00    +0.000 N 
ATOM    100  C72 UNL A   1      33.853  34.317  44.354  1.00  0.00    +0.000 C 
ATOM    101  C73 UNL A   1      34.712  33.646  45.107  1.00  0.00    +0.000 C 
ATOM    102  C74 UNL A   1      28.541  30.215  49.594  1.00  0.00    +0.000 C 
ATOM    103  C75 UNL A   1      27.640  30.670  48.738  1.00  0.00    +0.000 C 
ENDROOT
BRANCH   47   46
ATOM    161  H56 UNL A   1      23.678  30.359  45.573  1.00  0.00    +0.000 H 
ATOM    162  H57 UNL A   1      26.104  30.364  45.626  1.00  0.00    +0.000 H 
ATOM    104  C76 UNL A   1      25.546  33.220  47.303  1.00  0.00    +0.000 C 
ATOM    105  C77 UNL A   1      24.158  33.167  47.352  1.00  0.00    +0.000 C 
ATOM     43  C34 UNL A   1      23.475  32.146  46.684  1.00  0.00    +0.000 C 
ATOM     44  C35 UNL A   1      24.183  31.122  46.051  1.00  0.00    +0.000 C 
ATOM     45  C36 UNL A   1      25.577  31.135  46.067  1.00  0.00    +0.000 C 
ATOM    174  H69 UNL A   1      23.631  33.879  47.882  1.00  0.00    +0.000 H 
ATOM    173  H68 UNL A   1      26.046  34.018  47.725  1.00  0.00    +0.000 H 
ATOM     46  C37 UNL A   1      26.270  32.192  46.681  1.00  0.00    +0.000 C 
BRANCH   43   41
ATOM     41  C33 UNL A   1      21.999  32.106  46.668  1.00  0.00    +0.000 C 
ATOM     42  O4  UNL A   1      21.366  32.406  47.677  1.00  0.00    +0.000 O 
BRANCH   41   40
ATOM    160  H55 UNL A   1      20.903  30.857  45.551  1.00  0.00    +0.000 H 
ATOM     40  N4  UNL A   1      21.340  31.739  45.526  1.00  0.00    +0.000 N 
BRANCH   40   39
ATOM    159  H54 UNL A   1      20.550  31.915  43.635  1.00  0.00    +0.000 H 
ATOM    158  H53 UNL A   1      22.163  32.597  43.837  1.00  0.00    +0.000 H 
ATOM     39  C32 UNL A   1      21.197  32.473  44.279  1.00  0.00    +0.000 C 
BRANCH   39   38
ATOM    156  H51 UNL A   1      19.854  34.018  43.732  1.00  0.00    +0.000 H 
ATOM    157  H52 UNL A   1      20.143  33.834  45.480  1.00  0.00    +0.000 H 
ATOM     38  C31 UNL A   1      20.576  33.847  44.502  1.00  0.00    +0.000 C 
BRANCH   38   37
ATOM    154  H49 UNL A   1      21.283  35.693  43.724  1.00  0.00    +0.000 H 
ATOM    155  H50 UNL A   1      21.579  35.422  45.465  1.00  0.00    +0.000 H 
ATOM     37  C30 UNL A   1      21.584  35.000  44.482  1.00  0.00    +0.000 C 
BRANCH   37   36
ATOM    153  H48 UNL A   1      23.005  33.947  43.337  1.00  0.00    +0.000 H 
ATOM     36  C29 UNL A   1      23.033  34.581  44.198  1.00  0.00    +0.000 C 
ATOM    152  H47 UNL A   1      23.415  34.088  45.067  1.00  0.00    +0.000 H 
BRANCH   36   35
ATOM     35  C28 UNL A   1      23.968  35.743  43.857  1.00  0.00    +0.000 C 
ATOM    150  H45 UNL A   1      24.540  35.479  42.993  1.00  0.00    +0.000 H 
ATOM    151  H46 UNL A   1      23.359  36.606  43.681  1.00  0.00    +0.000 H 
BRANCH   35   34
ATOM     34  C27 UNL A   1      24.930  36.084  44.994  1.00  0.00    +0.000 C 
ATOM    148  H43 UNL A   1      25.170  35.190  45.530  1.00  0.00    +0.000 H 
ATOM    149  H44 UNL A   1      25.814  36.517  44.578  1.00  0.00    +0.000 H 
BRANCH   34   33
ATOM     33  N3  UNL A   1      24.327  37.041  45.910  1.00  0.00    +0.000 N 
ATOM    147  H42 UNL A   1      23.642  37.623  45.507  1.00  0.00    +0.000 H 
BRANCH   33   31
ATOM     31  C26 UNL A   1      24.558  37.264  47.243  1.00  0.00    +0.000 C 
ATOM     32  O3  UNL A   1      23.995  36.526  48.057  1.00  0.00    +0.000 O 
BRANCH   31    5
ATOM    115  H10 UNL A   1      25.508  38.763  48.710  1.00  0.00    +0.000 H 
ATOM      5  C5  UNL A   1      25.502  38.395  47.705  1.00  0.00    +0.000 C 
BRANCH    5    4
ATOM    113  H8  UNL A   1      26.920  37.026  46.921  1.00  0.00    +0.000 H 
ATOM    114  H9  UNL A   1      27.527  38.693  47.427  1.00  0.00    +0.000 H 
ATOM      4  C4  UNL A   1      26.946  37.820  47.638  1.00  0.00    +0.000 C 
BRANCH    4    3
ATOM      3  C3  UNL A   1      27.650  37.257  48.872  1.00  0.00    +0.000 C 
ATOM    111  H6  UNL A   1      28.703  37.341  48.709  1.00  0.00    +0.000 H 
ATOM    112  H7  UNL A   1      27.272  37.830  49.693  1.00  0.00    +0.000 H 
BRANCH    3    2
ATOM      2  C2  UNL A   1      27.356  35.802  49.237  1.00  0.00    +0.000 C 
ATOM    109  H4  UNL A   1      26.974  35.773  50.236  1.00  0.00    +0.000 H 
ATOM    110  H5  UNL A   1      26.647  35.432  48.526  1.00  0.00    +0.000 H 
BRANCH    2    1
ATOM      1  C1  UNL A   1      28.580  34.909  49.162  1.00  0.00    +0.000 C 
ATOM    106  H1  UNL A   1      29.028  34.997  48.194  1.00  0.00    +0.000 H 
ATOM    107  H2  UNL A   1      28.292  33.894  49.331  1.00  0.00    +0.000 H 
ATOM    108  H3  UNL A   1      29.286  35.209  49.909  1.00  0.00    +0.000 H 
ENDBRANCH    2    1
ENDBRANCH    3    2
ENDBRANCH    4    3
ENDBRANCH    5    4
BRANCH    5    6
ATOM      6  S1  UNL A   1      24.893  39.859  46.699  1.00  0.00    +0.000 S 
BRANCH    6    7
ATOM    131  H26 UNL A   1      25.580  44.711  48.533  1.00  0.00    +0.000 H 
ATOM      7  C6  UNL A   1      24.909  41.206  47.832  1.00  0.00    +0.000 C 
ATOM      8  N1  UNL A   1      23.849  42.039  47.790  1.00  0.00    +0.000 N 
ATOM      9  C7  UNL A   1      24.079  43.302  48.161  1.00  0.00    +0.000 C 
ATOM     19  C16 UNL A   1      25.341  43.708  48.480  1.00  0.00    +0.000 C 
ATOM     20  C17 UNL A   1      26.275  42.747  48.725  1.00  0.00    +0.000 C 
ATOM     30  N2  UNL A   1      26.075  41.475  48.409  1.00  0.00    +0.000 N 
BRANCH    9   10
ATOM     10  O1  UNL A   1      22.978  44.125  48.213  1.00  0.00    +0.000 O 
BRANCH   10   11
ATOM     11  C8  UNL A   1      21.822  43.681  48.937  1.00  0.00    +0.000 C 
ATOM    116  H11 UNL A   1      21.743  44.281  49.819  1.00  0.00    +0.000 H 
ATOM    117  H12 UNL A   1      21.986  42.639  49.117  1.00  0.00    +0.000 H 
BRANCH   11   12
ATOM     12  C9  UNL A   1      20.462  43.757  48.192  1.00  0.00    +0.000 C 
ATOM    118  H13 UNL A   1      20.627  43.435  47.185  1.00  0.00    +0.000 H 
ATOM    119  H14 UNL A   1      20.146  44.775  48.290  1.00  0.00    +0.000 H 
BRANCH   12   13
ATOM    129  H24 UNL A   1      17.958  44.581  48.743  1.00  0.00    +0.000 H 
ATOM    130  H25 UNL A   1      18.572  44.183  50.329  1.00  0.00    +0.000 H 
ATOM     13  C10 UNL A   1      19.307  42.922  48.765  1.00  0.00    +0.000 C 
ATOM     14  C11 UNL A   1      19.741  41.836  49.762  1.00  0.00    +0.000 C 
ATOM     15  C12 UNL A   1      18.551  40.932  50.112  1.00  0.00    +0.000 C 
ATOM     16  C13 UNL A   1      17.297  41.700  50.532  1.00  0.00    +0.000 C 
ATOM     17  C14 UNL A   1      16.982  42.920  49.665  1.00  0.00    +0.000 C 
ATOM     18  C15 UNL A   1      18.215  43.780  49.404  1.00  0.00    +0.000 C 
ATOM    120  H15 UNL A   1      18.909  42.426  47.904  1.00  0.00    +0.000 H 
ATOM    121  H16 UNL A   1      20.105  42.301  50.655  1.00  0.00    +0.000 H 
ATOM    122  H17 UNL A   1      20.512  41.242  49.318  1.00  0.00    +0.000 H 
ATOM    123  H18 UNL A   1      18.840  40.290  50.919  1.00  0.00    +0.000 H 
ATOM    124  H19 UNL A   1      18.302  40.385  49.226  1.00  0.00    +0.000 H 
ATOM    125  H20 UNL A   1      17.430  42.032  51.540  1.00  0.00    +0.000 H 
ATOM    126  H21 UNL A   1      16.474  41.026  50.420  1.00  0.00    +0.000 H 
ATOM    127  H22 UNL A   1      16.245  43.515  50.164  1.00  0.00    +0.000 H 
ATOM    128  H23 UNL A   1      16.625  42.566  48.721  1.00  0.00    +0.000 H 
ENDBRANCH   12   13
ENDBRANCH   11   12
ENDBRANCH   10   11
ENDBRANCH    9   10
BRANCH   20   21
ATOM     21  O2  UNL A   1      27.570  43.070  49.023  1.00  0.00    +0.000 O 
BRANCH   21   22
ATOM    132  H27 UNL A   1      28.310  44.950  48.674  1.00  0.00    +0.000 H 
ATOM    133  H28 UNL A   1      27.551  44.184  47.301  1.00  0.00    +0.000 H 
ATOM     22  C18 UNL A   1      28.179  44.025  48.153  1.00  0.00    +0.000 C 
BRANCH   22   23
ATOM    135  H30 UNL A   1      30.035  44.273  47.138  1.00  0.00    +0.000 H 
ATOM    134  H29 UNL A   1      30.122  43.210  48.552  1.00  0.00    +0.000 H 
ATOM     23  C19 UNL A   1      29.555  43.492  47.689  1.00  0.00    +0.000 C 
BRANCH   23   24
ATOM    136  H31 UNL A   1      29.093  41.527  47.445  1.00  0.00    +0.000 H 
ATOM    137  H32 UNL A   1      28.963  43.039  44.813  1.00  0.00    +0.000 H 
ATOM    138  H33 UNL A   1      27.633  43.090  45.920  1.00  0.00    +0.000 H 
ATOM    139  H34 UNL A   1      27.249  41.259  44.373  1.00  0.00    +0.000 H 
ATOM    140  H35 UNL A   1      27.638  40.564  45.921  1.00  0.00    +0.000 H 
ATOM    141  H36 UNL A   1      29.442  40.905  43.550  1.00  0.00    +0.000 H 
ATOM    142  H37 UNL A   1      28.941  39.403  44.361  1.00  0.00    +0.000 H 
ATOM    143  H38 UNL A   1      31.323  40.266  44.731  1.00  0.00    +0.000 H 
ATOM    144  H39 UNL A   1      30.327  39.715  46.116  1.00  0.00    +0.000 H 
ATOM    145  H40 UNL A   1      31.473  41.620  46.873  1.00  0.00    +0.000 H 
ATOM    146  H41 UNL A   1      31.089  42.518  45.421  1.00  0.00    +0.000 H 
ATOM     24  C20 UNL A   1      29.439  42.273  46.759  1.00  0.00    +0.000 C 
ATOM     25  C21 UNL A   1      28.471  42.507  45.601  1.00  0.00    +0.000 C 
ATOM     26  C22 UNL A   1      28.021  41.140  45.105  1.00  0.00    +0.000 C 
ATOM     27  C23 UNL A   1      29.215  40.431  44.481  1.00  0.00    +0.000 C 
ATOM     28  C24 UNL A   1      30.479  40.457  45.361  1.00  0.00    +0.000 C 
ATOM     29  C25 UNL A   1      30.737  41.781  46.113  1.00  0.00    +0.000 C 
ENDBRANCH   23   24
ENDBRANCH   22   23
ENDBRANCH   21   22
ENDBRANCH   20   21
ENDBRANCH    6    7
ENDBRANCH    5    6
ENDBRANCH   31    5
ENDBRANCH   33   31
ENDBRANCH   34   33
ENDBRANCH   35   34
ENDBRANCH   36   35
ENDBRANCH   37   36
ENDBRANCH   38   37
ENDBRANCH   39   38
ENDBRANCH   40   39
ENDBRANCH   41   40
ENDBRANCH   43   41
ENDBRANCH   47   46
BRANCH   51   52
ATOM     52  C42 UNL A   1      30.852  29.233  50.977  1.00  0.00    +0.000 C 
ATOM     53  C43 UNL A   1      30.701  27.842  50.850  1.00  0.00    +0.000 C 
ATOM     54  F1  UNL A   1      30.647  27.278  49.634  1.00  0.00    +0.000 F 
ATOM     55  C44 UNL A   1      30.562  27.031  51.973  1.00  0.00    +0.000 C 
ATOM     56  F2  UNL A   1      30.367  25.713  51.825  1.00  0.00    +0.000 F 
ATOM     57  C45 UNL A   1      30.610  27.585  53.242  1.00  0.00    +0.000 C 
ATOM     58  F3  UNL A   1      30.485  26.801  54.323  1.00  0.00    +0.000 F 
ATOM     59  C46 UNL A   1      30.781  28.952  53.393  1.00  0.00    +0.000 C 
ATOM     60  F4  UNL A   1      30.841  29.488  54.620  1.00  0.00    +0.000 F 
ATOM     61  C47 UNL A   1      30.887  29.772  52.272  1.00  0.00    +0.000 C 
ATOM     62  F5  UNL A   1      31.035  31.093  52.451  1.00  0.00    +0.000 F 
ENDBRANCH   51   52
BRANCH   68   69
ATOM     69  C53 UNL A   1      36.160  32.070  47.007  1.00  0.00    +0.000 C 
ATOM     70  C54 UNL A   1      36.835  31.090  46.266  1.00  0.00    +0.000 C 
ATOM     71  F6  UNL A   1      36.145  30.139  45.618  1.00  0.00    +0.000 F 
ATOM     72  C55 UNL A   1      38.226  31.057  46.223  1.00  0.00    +0.000 C 
ATOM     73  F7  UNL A   1      38.850  30.079  45.552  1.00  0.00    +0.000 F 
ATOM     74  C56 UNL A   1      38.967  32.023  46.887  1.00  0.00    +0.000 C 
ATOM     75  F8  UNL A   1      40.306  31.993  46.839  1.00  0.00    +0.000 F 
ATOM     76  C57 UNL A   1      38.320  33.016  47.607  1.00  0.00    +0.000 C 
ATOM     77  F9  UNL A   1      39.033  33.960  48.236  1.00  0.00    +0.000 F 
ATOM     78  C58 UNL A   1      36.931  33.033  47.678  1.00  0.00    +0.000 C 
ATOM     79  F10 UNL A   1      36.335  33.997  48.395  1.00  0.00    +0.000 F 
ENDBRANCH   68   69
BRANCH   83   84
ATOM     84  C62 UNL A   1      31.426  35.271  43.026  1.00  0.00    +0.000 C 
ATOM     85  C63 UNL A   1      31.276  36.657  43.174  1.00  0.00    +0.000 C 
ATOM     86  F11 UNL A   1      31.039  37.180  44.387  1.00  0.00    +0.000 F 
ATOM     87  C64 UNL A   1      31.318  37.508  42.071  1.00  0.00    +0.000 C 
ATOM     88  F12 UNL A   1      31.115  38.823  42.234  1.00  0.00    +0.000 F 
ATOM     89  C65 UNL A   1      31.547  36.993  40.804  1.00  0.00    +0.000 C 
ATOM     90  F13 UNL A   1      31.584  37.811  39.744  1.00  0.00    +0.000 F 
ATOM     91  C66 UNL A   1      31.724  35.629  40.637  1.00  0.00    +0.000 C 
ATOM     92  F14 UNL A   1      31.959  35.129  39.416  1.00  0.00    +0.000 F 
ATOM     93  C67 UNL A   1      31.652  34.773  41.735  1.00  0.00    +0.000 C 
ATOM     94  F15 UNL A   1      31.810  33.456  41.540  1.00  0.00    +0.000 F 
ENDBRANCH   83   84
TORSDOF 29
ENDMDL
MODEL 4
REMARK VINA RESULT:      -7.5     50.560     55.006
ROOT
ATOM    163  H58 UNL A   1      21.584  56.307  -3.668  1.00  0.00    +0.000 H 
ATOM    164  H59 UNL A   1      19.722  56.764  -1.901  1.00  0.00    +0.000 H 
ATOM    165  H60 UNL A   1      22.564  59.758  -1.598  1.00  0.00    +0.000 H 
ATOM    166  H61 UNL A   1      24.752  65.009   1.318  1.00  0.00    +0.000 H 
ATOM    167  H62 UNL A   1      26.534  64.592  -0.444  1.00  0.00    +0.000 H 
ATOM    168  H63 UNL A   1      23.672  61.599  -0.799  1.00  0.00    +0.000 H 
ATOM    169  H64 UNL A   1      20.151  62.610   2.629  1.00  0.00    +0.000 H 
ATOM    170  H65 UNL A   1      19.040  60.410   1.943  1.00  0.00    +0.000 H 
ATOM    171  H66 UNL A   1      25.994  58.982  -5.157  1.00  0.00    +0.000 H 
ATOM    172  H67 UNL A   1      27.413  60.845  -4.121  1.00  0.00    +0.000 H 
ATOM     47  C38 UNL A   1      26.093  62.261  -2.028  1.00  0.00    +0.000 C 
ATOM     48  C39 UNL A   1      25.614  61.033  -2.753  1.00  0.00    +0.000 C 
ATOM     49  N5  UNL A   1      24.509  60.351  -2.587  1.00  0.00    +0.000 N 
ATOM     50  C40 UNL A   1      24.543  59.341  -3.541  1.00  0.00    +0.000 C 
ATOM     51  C41 UNL A   1      23.667  58.327  -3.729  1.00  0.00    +0.000 C 
ATOM     63  C48 UNL A   1      22.489  58.121  -2.929  1.00  0.00    +0.000 C 
ATOM     64  C49 UNL A   1      21.555  57.102  -3.011  1.00  0.00    +0.000 C 
ATOM     65  C50 UNL A   1      20.566  57.338  -2.051  1.00  0.00    +0.000 C 
ATOM     66  C51 UNL A   1      20.911  58.472  -1.334  1.00  0.00    +0.000 C 
ATOM     67  N6  UNL A   1      22.086  58.950  -1.893  1.00  0.00    +0.000 N 
ATOM     68  C52 UNL A   1      20.223  59.073  -0.221  1.00  0.00    +0.000 C 
ATOM     80  C59 UNL A   1      20.610  60.208   0.413  1.00  0.00    +0.000 C 
ATOM     81  N7  UNL A   1      21.717  61.011   0.173  1.00  0.00    +0.000 N 
ATOM     82  C60 UNL A   1      21.647  61.990   1.041  1.00  0.00    +0.000 C 
ATOM     83  C61 UNL A   1      22.605  63.129   1.272  1.00  0.00    +0.000 C 
ATOM     95  C68 UNL A   1      23.719  63.207   0.523  1.00  0.00    +0.000 C 
ATOM     96  C69 UNL A   1      24.751  64.234   0.637  1.00  0.00    +0.000 C 
ATOM     97  C70 UNL A   1      25.698  64.007  -0.287  1.00  0.00    +0.000 C 
ATOM     98  C71 UNL A   1      25.356  62.797  -1.036  1.00  0.00    +0.000 C 
ATOM     99  N8  UNL A   1      24.163  62.395  -0.491  1.00  0.00    +0.000 N 
ATOM    100  C72 UNL A   1      20.460  61.940   1.906  1.00  0.00    +0.000 C 
ATOM    101  C73 UNL A   1      19.890  60.810   1.516  1.00  0.00    +0.000 C 
ATOM    102  C74 UNL A   1      25.743  59.537  -4.323  1.00  0.00    +0.000 C 
ATOM    103  C75 UNL A   1      26.478  60.522  -3.829  1.00  0.00    +0.000 C 
ENDROOT
BRANCH   47   46
ATOM    161  H56 UNL A   1      28.598  65.202  -4.563  1.00  0.00    +0.000 H 
ATOM    162  H57 UNL A   1      26.506  64.153  -3.921  1.00  0.00    +0.000 H 
ATOM    104  C76 UNL A   1      28.553  62.578  -1.774  1.00  0.00    +0.000 C 
ATOM    105  C77 UNL A   1      29.733  63.247  -2.079  1.00  0.00    +0.000 C 
ATOM     43  C34 UNL A   1      29.758  64.173  -3.126  1.00  0.00    +0.000 C 
ATOM     44  C35 UNL A   1      28.582  64.505  -3.802  1.00  0.00    +0.000 C 
ATOM     45  C36 UNL A   1      27.383  63.888  -3.444  1.00  0.00    +0.000 C 
ATOM    174  H69 UNL A   1      30.589  63.061  -1.533  1.00  0.00    +0.000 H 
ATOM    173  H68 UNL A   1      28.553  61.834  -1.058  1.00  0.00    +0.000 H 
ATOM     46  C37 UNL A   1      27.362  62.909  -2.437  1.00  0.00    +0.000 C 
BRANCH   43   41
ATOM     41  C33 UNL A   1      31.014  64.848  -3.510  1.00  0.00    +0.000 C 
ATOM     42  O4  UNL A   1      31.985  64.183  -3.864  1.00  0.00    +0.000 O 
BRANCH   41   40
ATOM    160  H55 UNL A   1      31.505  66.637  -4.262  1.00  0.00    +0.000 H 
ATOM     40  N4  UNL A   1      31.092  66.214  -3.475  1.00  0.00    +0.000 N 
BRANCH   40   39
ATOM    159  H54 UNL A   1      31.456  67.789  -2.204  1.00  0.00    +0.000 H 
ATOM    158  H53 UNL A   1      30.364  66.558  -1.573  1.00  0.00    +0.000 H 
ATOM     39  C32 UNL A   1      30.648  67.126  -2.433  1.00  0.00    +0.000 C 
BRANCH   39   38
ATOM    156  H51 UNL A   1      29.830  68.811  -3.424  1.00  0.00    +0.000 H 
ATOM    157  H52 UNL A   1      28.847  67.328  -3.491  1.00  0.00    +0.000 H 
ATOM     38  C31 UNL A   1      29.459  67.964  -2.887  1.00  0.00    +0.000 C 
BRANCH   38   37
ATOM    154  H49 UNL A   1      29.013  68.150  -0.819  1.00  0.00    +0.000 H 
ATOM    155  H50 UNL A   1      28.530  69.532  -1.843  1.00  0.00    +0.000 H 
ATOM     37  C30 UNL A   1      28.576  68.468  -1.743  1.00  0.00    +0.000 C 
BRANCH   37   36
ATOM    153  H48 UNL A   1      27.019  67.275  -0.973  1.00  0.00    +0.000 H 
ATOM     36  C29 UNL A   1      27.126  67.968  -1.782  1.00  0.00    +0.000 C 
ATOM    152  H47 UNL A   1      26.951  67.521  -2.738  1.00  0.00    +0.000 H 
BRANCH   36   35
ATOM     35  C28 UNL A   1      26.077  69.060  -1.565  1.00  0.00    +0.000 C 
ATOM    150  H45 UNL A   1      25.757  69.421  -2.520  1.00  0.00    +0.000 H 
ATOM    151  H46 UNL A   1      25.269  68.627  -1.013  1.00  0.00    +0.000 H 
BRANCH   35   34
ATOM     34  C27 UNL A   1      26.609  70.239  -0.751  1.00  0.00    +0.000 C 
ATOM    148  H43 UNL A   1      27.616  70.444  -1.048  1.00  0.00    +0.000 H 
ATOM    149  H44 UNL A   1      25.987  71.090  -0.933  1.00  0.00    +0.000 H 
BRANCH   34   33
ATOM     33  N3  UNL A   1      26.583  69.936   0.673  1.00  0.00    +0.000 N 
ATOM    147  H42 UNL A   1      27.218  70.457   1.217  1.00  0.00    +0.000 H 
BRANCH   33   31
ATOM     31  C26 UNL A   1      25.818  69.043   1.378  1.00  0.00    +0.000 C 
ATOM     32  O3  UNL A   1      24.652  69.359   1.633  1.00  0.00    +0.000 O 
BRANCH   31    5
ATOM    115  H10 UNL A   1      26.510  66.859   1.156  1.00  0.00    +0.000 H 
ATOM      5  C5  UNL A   1      26.398  67.684   1.826  1.00  0.00    +0.000 C 
BRANCH    5    4
ATOM    113  H8  UNL A   1      28.207  68.761   1.567  1.00  0.00    +0.000 H 
ATOM    114  H9  UNL A   1      27.866  68.049   3.234  1.00  0.00    +0.000 H 
ATOM      4  C4  UNL A   1      27.894  67.934   2.170  1.00  0.00    +0.000 C 
BRANCH    4    3
ATOM      3  C3  UNL A   1      28.956  66.850   1.993  1.00  0.00    +0.000 C 
ATOM    111  H6  UNL A   1      28.453  65.947   1.721  1.00  0.00    +0.000 H 
ATOM    112  H7  UNL A   1      29.626  67.236   1.253  1.00  0.00    +0.000 H 
BRANCH    3    2
ATOM      2  C2  UNL A   1      29.840  66.538   3.200  1.00  0.00    +0.000 C 
ATOM    109  H4  UNL A   1      29.470  67.085   4.043  1.00  0.00    +0.000 H 
ATOM    110  H5  UNL A   1      29.800  65.481   3.360  1.00  0.00    +0.000 H 
BRANCH    2    1
ATOM      1  C1  UNL A   1      31.296  66.909   2.986  1.00  0.00    +0.000 C 
ATOM    106  H1  UNL A   1      31.801  66.931   3.929  1.00  0.00    +0.000 H 
ATOM    107  H2  UNL A   1      31.354  67.872   2.527  1.00  0.00    +0.000 H 
ATOM    108  H3  UNL A   1      31.758  66.181   2.351  1.00  0.00    +0.000 H 
ENDBRANCH    2    1
ENDBRANCH    3    2
ENDBRANCH    4    3
ENDBRANCH    5    4
BRANCH    5    6
ATOM      6  S1  UNL A   1      25.110  67.088   3.056  1.00  0.00    +0.000 S 
BRANCH    6    7
ATOM    131  H26 UNL A   1      26.259  63.947   7.080  1.00  0.00    +0.000 H 
ATOM      7  C6  UNL A   1      26.046  66.325   4.335  1.00  0.00    +0.000 C 
ATOM      8  N1  UNL A   1      26.591  65.125   4.048  1.00  0.00    +0.000 N 
ATOM      9  C7  UNL A   1      26.773  64.299   5.082  1.00  0.00    +0.000 C 
ATOM     19  C16 UNL A   1      26.347  64.650   6.329  1.00  0.00    +0.000 C 
ATOM     20  C17 UNL A   1      26.040  65.959   6.550  1.00  0.00    +0.000 C 
ATOM     30  N2  UNL A   1      25.889  66.823   5.557  1.00  0.00    +0.000 N 
BRANCH    9   10
ATOM     10  O1  UNL A   1      27.420  63.117   4.803  1.00  0.00    +0.000 O 
BRANCH   10   11
ATOM     11  C8  UNL A   1      28.460  63.120   3.815  1.00  0.00    +0.000 C 
ATOM    116  H11 UNL A   1      28.757  64.135   3.660  1.00  0.00    +0.000 H 
ATOM    117  H12 UNL A   1      28.034  62.642   2.957  1.00  0.00    +0.000 H 
BRANCH   11   12
ATOM     12  C9  UNL A   1      29.737  62.300   4.147  1.00  0.00    +0.000 C 
ATOM    118  H13 UNL A   1      29.484  61.263   4.071  1.00  0.00    +0.000 H 
ATOM    119  H14 UNL A   1      30.028  62.620   5.126  1.00  0.00    +0.000 H 
BRANCH   12   13
ATOM    129  H24 UNL A   1      29.871  63.767   1.892  1.00  0.00    +0.000 H 
ATOM    130  H25 UNL A   1      30.202  62.157   1.303  1.00  0.00    +0.000 H 
ATOM     13  C10 UNL A   1      30.969  62.546   3.263  1.00  0.00    +0.000 C 
ATOM     14  C11 UNL A   1      31.943  61.359   3.183  1.00  0.00    +0.000 C 
ATOM     15  C12 UNL A   1      33.227  61.776   2.454  1.00  0.00    +0.000 C 
ATOM     16  C13 UNL A   1      32.977  62.468   1.114  1.00  0.00    +0.000 C 
ATOM     17  C14 UNL A   1      31.852  63.504   1.137  1.00  0.00    +0.000 C 
ATOM     18  C15 UNL A   1      30.603  62.988   1.845  1.00  0.00    +0.000 C 
ATOM    120  H15 UNL A   1      31.477  63.345   3.763  1.00  0.00    +0.000 H 
ATOM    121  H16 UNL A   1      31.478  60.557   2.649  1.00  0.00    +0.000 H 
ATOM    122  H17 UNL A   1      32.190  61.045   4.175  1.00  0.00    +0.000 H 
ATOM    123  H18 UNL A   1      33.814  60.898   2.276  1.00  0.00    +0.000 H 
ATOM    124  H19 UNL A   1      33.729  62.481   3.083  1.00  0.00    +0.000 H 
ATOM    125  H20 UNL A   1      32.727  61.720   0.391  1.00  0.00    +0.000 H 
ATOM    126  H21 UNL A   1      33.874  62.999   0.872  1.00  0.00    +0.000 H 
ATOM    127  H22 UNL A   1      31.597  63.757   0.129  1.00  0.00    +0.000 H 
ATOM    128  H23 UNL A   1      32.205  64.357   1.677  1.00  0.00    +0.000 H 
ENDBRANCH   12   13
ENDBRANCH   11   12
ENDBRANCH   10   11
ENDBRANCH    9   10
BRANCH   20   21
ATOM     21  O2  UNL A   1      25.579  66.388   7.764  1.00  0.00    +0.000 O 
BRANCH   21   22
ATOM    132  H27 UNL A   1      25.410  68.027   8.984  1.00  0.00    +0.000 H 
ATOM    133  H28 UNL A   1      25.829  68.376   7.326  1.00  0.00    +0.000 H 
ATOM     22  C18 UNL A   1      25.986  67.704   8.143  1.00  0.00    +0.000 C 
BRANCH   22   23
ATOM    135  H30 UNL A   1      27.558  67.876   9.570  1.00  0.00    +0.000 H 
ATOM    134  H29 UNL A   1      27.896  66.735   8.258  1.00  0.00    +0.000 H 
ATOM     23  C19 UNL A   1      27.487  67.688   8.519  1.00  0.00    +0.000 C 
BRANCH   23   24
ATOM    136  H31 UNL A   1      27.533  69.517   7.633  1.00  0.00    +0.000 H 
ATOM    137  H32 UNL A   1      30.296  68.654   8.553  1.00  0.00    +0.000 H 
ATOM    138  H33 UNL A   1      29.179  69.359   9.673  1.00  0.00    +0.000 H 
ATOM    139  H34 UNL A   1      30.535  71.145   8.746  1.00  0.00    +0.000 H 
ATOM    140  H35 UNL A   1      28.933  71.306   8.084  1.00  0.00    +0.000 H 
ATOM    141  H36 UNL A   1      31.354  70.108   6.779  1.00  0.00    +0.000 H 
ATOM    142  H37 UNL A   1      30.394  71.515   6.266  1.00  0.00    +0.000 H 
ATOM    143  H38 UNL A   1      30.145  69.317   4.975  1.00  0.00    +0.000 H 
ATOM    144  H39 UNL A   1      28.698  70.252   5.471  1.00  0.00    +0.000 H 
ATOM    145  H40 UNL A   1      28.146  67.995   5.814  1.00  0.00    +0.000 H 
ATOM    146  H41 UNL A   1      29.672  67.667   6.605  1.00  0.00    +0.000 H 
ATOM     24  C20 UNL A   1      28.293  68.782   7.798  1.00  0.00    +0.000 C 
ATOM     25  C21 UNL A   1      29.453  69.308   8.640  1.00  0.00    +0.000 C 
ATOM     26  C22 UNL A   1      29.807  70.689   8.108  1.00  0.00    +0.000 C 
ATOM     27  C23 UNL A   1      30.377  70.538   6.704  1.00  0.00    +0.000 C 
ATOM     28  C24 UNL A   1      29.524  69.648   5.782  1.00  0.00    +0.000 C 
ATOM     29  C25 UNL A   1      28.908  68.399   6.449  1.00  0.00    +0.000 C 
ENDBRANCH   23   24
ENDBRANCH   22   23
ENDBRANCH   21   22
ENDBRANCH   20   21
ENDBRANCH    6    7
ENDBRANCH    5    6
ENDBRANCH   31    5
ENDBRANCH   33   31
ENDBRANCH   34   33
ENDBRANCH   35   34
ENDBRANCH   36   35
ENDBRANCH   37   36
ENDBRANCH   38   37
ENDBRANCH   39   38
ENDBRANCH   40   39
ENDBRANCH   41   40
ENDBRANCH   43   41
ENDBRANCH   47   46
BRANCH   51   52
ATOM     52  C42 UNL A   1      23.956  57.355  -4.837  1.00  0.00    +0.000 C 
ATOM     53  C43 UNL A   1      23.452  57.548  -6.133  1.00  0.00    +0.000 C 
ATOM     54  F1  UNL A   1      22.654  58.593  -6.398  1.00  0.00    +0.000 F 
ATOM     55  C44 UNL A   1      23.732  56.642  -7.153  1.00  0.00    +0.000 C 
ATOM     56  F2  UNL A   1      23.197  56.819  -8.369  1.00  0.00    +0.000 F 
ATOM     57  C45 UNL A   1      24.551  55.551  -6.910  1.00  0.00    +0.000 C 
ATOM     58  F3  UNL A   1      24.827  54.685  -7.895  1.00  0.00    +0.000 F 
ATOM     59  C46 UNL A   1      25.079  55.352  -5.643  1.00  0.00    +0.000 C 
ATOM     60  F4  UNL A   1      25.881  54.304  -5.409  1.00  0.00    +0.000 F 
ATOM     61  C47 UNL A   1      24.774  56.238  -4.612  1.00  0.00    +0.000 C 
ATOM     62  F5  UNL A   1      25.287  56.008  -3.393  1.00  0.00    +0.000 F 
ENDBRANCH   51   52
BRANCH   68   69
ATOM     69  C53 UNL A   1      19.001  58.376   0.301  1.00  0.00    +0.000 C 
ATOM     70  C54 UNL A   1      17.708  58.763  -0.078  1.00  0.00    +0.000 C 
ATOM     71  F6  UNL A   1      17.529  59.814  -0.893  1.00  0.00    +0.000 F 
ATOM     72  C55 UNL A   1      16.590  58.099   0.417  1.00  0.00    +0.000 C 
ATOM     73  F7  UNL A   1      15.362  58.520   0.084  1.00  0.00    +0.000 F 
ATOM     74  C56 UNL A   1      16.742  57.013   1.266  1.00  0.00    +0.000 C 
ATOM     75  F8  UNL A   1      15.664  56.371   1.736  1.00  0.00    +0.000 F 
ATOM     76  C57 UNL A   1      18.013  56.597   1.635  1.00  0.00    +0.000 C 
ATOM     77  F9  UNL A   1      18.163  55.539   2.443  1.00  0.00    +0.000 F 
ATOM     78  C58 UNL A   1      19.132  57.279   1.167  1.00  0.00    +0.000 C 
ATOM     79  F10 UNL A   1      20.347  56.863   1.554  1.00  0.00    +0.000 F 
ENDBRANCH   68   69
BRANCH   83   84
ATOM     84  C62 UNL A   1      22.347  64.136   2.335  1.00  0.00    +0.000 C 
ATOM     85  C63 UNL A   1      22.876  63.972   3.624  1.00  0.00    +0.000 C 
ATOM     86  F11 UNL A   1      23.626  62.896   3.907  1.00  0.00    +0.000 F 
ATOM     87  C64 UNL A   1      22.597  64.884   4.639  1.00  0.00    +0.000 C 
ATOM     88  F12 UNL A   1      23.069  64.673   5.875  1.00  0.00    +0.000 F 
ATOM     89  C65 UNL A   1      21.813  65.998   4.376  1.00  0.00    +0.000 C 
ATOM     90  F13 UNL A   1      21.542  66.873   5.354  1.00  0.00    +0.000 F 
ATOM     91  C66 UNL A   1      21.300  66.195   3.104  1.00  0.00    +0.000 C 
ATOM     92  F14 UNL A   1      20.553  67.277   2.843  1.00  0.00    +0.000 F 
ATOM     93  C67 UNL A   1      21.553  65.267   2.095  1.00  0.00    +0.000 C 
ATOM     94  F15 UNL A   1      21.029  65.474   0.879  1.00  0.00    +0.000 F 
ENDBRANCH   83   84
TORSDOF 29
ENDMDL
MODEL 5
REMARK VINA RESULT:      -7.3      5.336     13.023
ROOT
ATOM    163  H58 UNL A   1      19.989  40.011  48.712  1.00  0.00    +0.000 H 
ATOM    164  H59 UNL A   1      19.992  37.541  47.877  1.00  0.00    +0.000 H 
ATOM    165  H60 UNL A   1      23.861  38.996  47.643  1.00  0.00    +0.000 H 
ATOM    166  H61 UNL A   1      29.980  38.149  46.001  1.00  0.00    +0.000 H 
ATOM    167  H62 UNL A   1      29.983  40.536  46.869  1.00  0.00    +0.000 H 
ATOM    168  H63 UNL A   1      26.098  39.085  47.157  1.00  0.00    +0.000 H 
ATOM    169  H64 UNL A   1      26.252  34.337  45.547  1.00  0.00    +0.000 H 
ATOM    170  H65 UNL A   1      23.708  34.301  45.819  1.00  0.00    +0.000 H 
ATOM    171  H66 UNL A   1      23.860  43.652  49.473  1.00  0.00    +0.000 H 
ATOM    172  H67 UNL A   1      26.283  43.906  48.683  1.00  0.00    +0.000 H 
ATOM     47  C38 UNL A   1      27.422  41.489  47.687  1.00  0.00    +0.000 C 
ATOM     48  C39 UNL A   1      25.995  41.733  48.099  1.00  0.00    +0.000 C 
ATOM     49  N5  UNL A   1      24.977  40.910  48.089  1.00  0.00    +0.000 N 
ATOM     50  C40 UNL A   1      23.908  41.628  48.610  1.00  0.00    +0.000 C 
ATOM     51  C41 UNL A   1      22.616  41.245  48.737  1.00  0.00    +0.000 C 
ATOM     63  C48 UNL A   1      22.113  39.958  48.336  1.00  0.00    +0.000 C 
ATOM     64  C49 UNL A   1      20.814  39.483  48.387  1.00  0.00    +0.000 C 
ATOM     65  C50 UNL A   1      20.813  38.163  47.922  1.00  0.00    +0.000 C 
ATOM     66  C51 UNL A   1      22.101  37.835  47.531  1.00  0.00    +0.000 C 
ATOM     67  N6  UNL A   1      22.891  38.941  47.803  1.00  0.00    +0.000 N 
ATOM     68  C52 UNL A   1      22.575  36.607  46.948  1.00  0.00    +0.000 C 
ATOM     80  C59 UNL A   1      23.864  36.347  46.617  1.00  0.00    +0.000 C 
ATOM     81  N7  UNL A   1      24.979  37.168  46.731  1.00  0.00    +0.000 N 
ATOM     82  C60 UNL A   1      25.991  36.464  46.288  1.00  0.00    +0.000 C 
ATOM     83  C61 UNL A   1      27.435  36.863  46.135  1.00  0.00    +0.000 C 
ATOM     95  C68 UNL A   1      27.807  38.112  46.471  1.00  0.00    +0.000 C 
ATOM     96  C69 UNL A   1      29.157  38.656  46.363  1.00  0.00    +0.000 C 
ATOM     97  C70 UNL A   1      29.157  39.921  46.813  1.00  0.00    +0.000 C 
ATOM     98  C71 UNL A   1      27.796  40.288  47.208  1.00  0.00    +0.000 C 
ATOM     99  N8  UNL A   1      27.064  39.150  46.977  1.00  0.00    +0.000 N 
ATOM    100  C72 UNL A   1      25.638  35.096  45.881  1.00  0.00    +0.000 C 
ATOM    101  C73 UNL A   1      24.324  35.095  46.054  1.00  0.00    +0.000 C 
ATOM    102  C74 UNL A   1      24.413  42.930  48.985  1.00  0.00    +0.000 C 
ATOM    103  C75 UNL A   1      25.678  43.072  48.620  1.00  0.00    +0.000 C 
ENDROOT
BRANCH   47   46
ATOM    161  H56 UNL A   1      30.182  44.837  46.097  1.00  0.00    +0.000 H 
ATOM    162  H57 UNL A   1      28.538  43.077  45.798  1.00  0.00    +0.000 H 
ATOM    104  C76 UNL A   1      28.891  42.891  49.133  1.00  0.00    +0.000 C 
ATOM    105  C77 UNL A   1      29.761  43.960  49.312  1.00  0.00    +0.000 C 
ATOM     43  C34 UNL A   1      30.266  44.643  48.200  1.00  0.00    +0.000 C 
ATOM     44  C35 UNL A   1      29.822  44.321  46.916  1.00  0.00    +0.000 C 
ATOM     45  C36 UNL A   1      28.891  43.297  46.743  1.00  0.00    +0.000 C 
ATOM    174  H69 UNL A   1      30.034  44.251  50.264  1.00  0.00    +0.000 H 
ATOM    173  H68 UNL A   1      28.585  42.335  49.947  1.00  0.00    +0.000 H 
ATOM     46  C37 UNL A   1      28.429  42.565  47.850  1.00  0.00    +0.000 C 
BRANCH   43   41
ATOM     41  C33 UNL A   1      31.241  45.740  48.363  1.00  0.00    +0.000 C 
ATOM     42  O4  UNL A   1      32.401  45.487  48.682  1.00  0.00    +0.000 O 
BRANCH   41   40
ATOM    160  H55 UNL A   1      30.534  47.518  48.951  1.00  0.00    +0.000 H 
ATOM     40  N4  UNL A   1      30.851  47.034  48.154  1.00  0.00    +0.000 N 
BRANCH   40   39
ATOM    159  H54 UNL A   1      30.215  48.652  47.055  1.00  0.00    +0.000 H 
ATOM    158  H53 UNL A   1      30.462  47.172  46.129  1.00  0.00    +0.000 H 
ATOM     39  C32 UNL A   1      30.838  47.794  46.914  1.00  0.00    +0.000 C 
BRANCH   39   38
ATOM    156  H51 UNL A   1      32.148  49.262  46.128  1.00  0.00    +0.000 H 
ATOM    157  H52 UNL A   1      32.822  48.248  47.428  1.00  0.00    +0.000 H 
ATOM     38  C31 UNL A   1      32.233  48.277  46.535  1.00  0.00    +0.000 C 
BRANCH   38   37
ATOM    154  H49 UNL A   1      33.704  46.834  46.019  1.00  0.00    +0.000 H 
ATOM    155  H50 UNL A   1      32.191  46.772  45.071  1.00  0.00    +0.000 H 
ATOM     37  C30 UNL A   1      32.945  47.391  45.510  1.00  0.00    +0.000 C 
BRANCH   37   36
ATOM    153  H48 UNL A   1      33.398  49.188  44.510  1.00  0.00    +0.000 H 
ATOM     36  C29 UNL A   1      33.607  48.151  44.353  1.00  0.00    +0.000 C 
ATOM    152  H47 UNL A   1      33.204  47.780  43.434  1.00  0.00    +0.000 H 
BRANCH   36   35
ATOM     35  C28 UNL A   1      35.129  48.013  44.299  1.00  0.00    +0.000 C 
ATOM    150  H45 UNL A   1      35.563  48.989  44.359  1.00  0.00    +0.000 H 
ATOM    151  H46 UNL A   1      35.427  47.394  45.120  1.00  0.00    +0.000 H 
BRANCH   35   34
ATOM     34  C27 UNL A   1      35.618  47.341  43.017  1.00  0.00    +0.000 C 
ATOM    148  H43 UNL A   1      34.775  46.986  42.463  1.00  0.00    +0.000 H 
ATOM    149  H44 UNL A   1      36.166  48.057  42.441  1.00  0.00    +0.000 H 
BRANCH   34   33
ATOM     33  N3  UNL A   1      36.494  46.219  43.325  1.00  0.00    +0.000 N 
ATOM    147  H42 UNL A   1      37.457  46.421  43.271  1.00  0.00    +0.000 H 
BRANCH   33   31
ATOM     31  C26 UNL A   1      36.196  44.928  43.676  1.00  0.00    +0.000 C 
ATOM     32  O3  UNL A   1      36.211  44.071  42.787  1.00  0.00    +0.000 O 
BRANCH   31    5
ATOM    115  H10 UNL A   1      35.386  45.245  45.808  1.00  0.00    +0.000 H 
ATOM      5  C5  UNL A   1      35.864  44.561  45.138  1.00  0.00    +0.000 C 
BRANCH    5    4
ATOM    113  H8  UNL A   1      34.544  43.313  44.042  1.00  0.00    +0.000 H 
ATOM    114  H9  UNL A   1      35.219  42.661  45.630  1.00  0.00    +0.000 H 
ATOM      4  C4  UNL A   1      34.767  43.459  45.078  1.00  0.00    +0.000 C 
BRANCH    4    3
ATOM      3  C3  UNL A   1      33.423  43.617  45.786  1.00  0.00    +0.000 C 
ATOM    111  H6  UNL A   1      33.496  44.468  46.430  1.00  0.00    +0.000 H 
ATOM    112  H7  UNL A   1      32.703  43.706  44.999  1.00  0.00    +0.000 H 
BRANCH    3    2
ATOM      2  C2  UNL A   1      32.938  42.440  46.631  1.00  0.00    +0.000 C 
ATOM    109  H4  UNL A   1      33.787  41.979  47.091  1.00  0.00    +0.000 H 
ATOM    110  H5  UNL A   1      32.252  42.829  47.355  1.00  0.00    +0.000 H 
BRANCH    2    1
ATOM      1  C1  UNL A   1      32.198  41.390  45.824  1.00  0.00    +0.000 C 
ATOM    106  H1  UNL A   1      31.491  40.889  46.453  1.00  0.00    +0.000 H 
ATOM    107  H2  UNL A   1      32.897  40.680  45.436  1.00  0.00    +0.000 H 
ATOM    108  H3  UNL A   1      31.682  41.862  45.013  1.00  0.00    +0.000 H 
ENDBRANCH    2    1
ENDBRANCH    3    2
ENDBRANCH    4    3
ENDBRANCH    5    4
BRANCH    5    6
ATOM      6  S1  UNL A   1      37.569  44.324  45.887  1.00  0.00    +0.000 S 
BRANCH    6    7
ATOM    131  H26 UNL A   1      35.206  40.824  48.975  1.00  0.00    +0.000 H 
ATOM      7  C6  UNL A   1      37.303  43.243  47.250  1.00  0.00    +0.000 C 
ATOM      8  N1  UNL A   1      37.602  41.942  47.054  1.00  0.00    +0.000 N 
ATOM      9  C7  UNL A   1      36.905  41.063  47.779  1.00  0.00    +0.000 C 
ATOM     19  C16 UNL A   1      35.902  41.486  48.599  1.00  0.00    +0.000 C 
ATOM     20  C17 UNL A   1      35.848  42.813  48.905  1.00  0.00    +0.000 C 
ATOM     30  N2  UNL A   1      36.552  43.717  48.238  1.00  0.00    +0.000 N 
BRANCH    9   10
ATOM     10  O1  UNL A   1      37.280  39.746  47.651  1.00  0.00    +0.000 O 
BRANCH   10   11
ATOM     11  C8  UNL A   1      36.779  38.993  46.538  1.00  0.00    +0.000 C 
ATOM    116  H11 UNL A   1      36.875  37.955  46.779  1.00  0.00    +0.000 H 
ATOM    117  H12 UNL A   1      37.360  39.313  45.697  1.00  0.00    +0.000 H 
BRANCH   11   12
ATOM     12  C9  UNL A   1      35.301  39.249  46.134  1.00  0.00    +0.000 C 
ATOM    118  H13 UNL A   1      35.255  39.251  45.064  1.00  0.00    +0.000 H 
ATOM    119  H14 UNL A   1      35.042  40.178  46.596  1.00  0.00    +0.000 H 
BRANCH   12   13
ATOM    129  H24 UNL A   1      35.577  37.473  48.140  1.00  0.00    +0.000 H 
ATOM    130  H25 UNL A   1      35.392  36.432  46.750  1.00  0.00    +0.000 H 
ATOM     13  C10 UNL A   1      34.257  38.243  46.643  1.00  0.00    +0.000 C 
ATOM     14  C11 UNL A   1      33.337  37.673  45.552  1.00  0.00    +0.000 C 
ATOM     15  C12 UNL A   1      32.209  36.849  46.188  1.00  0.00    +0.000 C 
ATOM     16  C13 UNL A   1      32.700  35.809  47.196  1.00  0.00    +0.000 C 
ATOM     17  C14 UNL A   1      33.783  36.315  48.151  1.00  0.00    +0.000 C 
ATOM     18  C15 UNL A   1      34.882  37.086  47.425  1.00  0.00    +0.000 C 
ATOM    120  H15 UNL A   1      33.651  38.829  47.301  1.00  0.00    +0.000 H 
ATOM    121  H16 UNL A   1      33.908  37.045  44.900  1.00  0.00    +0.000 H 
ATOM    122  H17 UNL A   1      32.909  38.482  44.999  1.00  0.00    +0.000 H 
ATOM    123  H18 UNL A   1      31.682  36.340  45.407  1.00  0.00    +0.000 H 
ATOM    124  H19 UNL A   1      31.585  37.533  46.722  1.00  0.00    +0.000 H 
ATOM    125  H20 UNL A   1      33.096  34.976  46.653  1.00  0.00    +0.000 H 
ATOM    126  H21 UNL A   1      31.858  35.549  47.802  1.00  0.00    +0.000 H 
ATOM    127  H22 UNL A   1      34.222  35.475  48.648  1.00  0.00    +0.000 H 
ATOM    128  H23 UNL A   1      33.319  36.982  48.846  1.00  0.00    +0.000 H 
ENDBRANCH   12   13
ENDBRANCH   11   12
ENDBRANCH   10   11
ENDBRANCH    9   10
BRANCH   20   21
ATOM     21  O2  UNL A   1      34.858  43.323  49.698  1.00  0.00    +0.000 O 
BRANCH   21   22
ATOM    132  H27 UNL A   1      34.827  42.612  51.620  1.00  0.00    +0.000 H 
ATOM    133  H28 UNL A   1      34.525  41.419  50.382  1.00  0.00    +0.000 H 
ATOM     22  C18 UNL A   1      34.342  42.428  50.684  1.00  0.00    +0.000 C 
BRANCH   22   23
ATOM    135  H30 UNL A   1      32.618  42.805  51.877  1.00  0.00    +0.000 H 
ATOM    134  H29 UNL A   1      32.539  43.507  50.254  1.00  0.00    +0.000 H 
ATOM     23  C19 UNL A   1      32.819  42.656  50.837  1.00  0.00    +0.000 C 
BRANCH   23   24
ATOM    136  H31 UNL A   1      31.433  41.883  49.567  1.00  0.00    +0.000 H 
ATOM    137  H32 UNL A   1      33.169  39.706  50.780  1.00  0.00    +0.000 H 
ATOM    138  H33 UNL A   1      33.730  40.619  49.420  1.00  0.00    +0.000 H 
ATOM    139  H34 UNL A   1      32.610  38.636  48.580  1.00  0.00    +0.000 H 
ATOM    140  H35 UNL A   1      31.592  40.002  48.224  1.00  0.00    +0.000 H 
ATOM    141  H36 UNL A   1      31.309  38.028  50.464  1.00  0.00    +0.000 H 
ATOM    142  H37 UNL A   1      30.176  38.378  49.138  1.00  0.00    +0.000 H 
ATOM    143  H38 UNL A   1      29.627  39.240  51.487  1.00  0.00    +0.000 H 
ATOM    144  H39 UNL A   1      29.466  40.314  50.060  1.00  0.00    +0.000 H 
ATOM    145  H40 UNL A   1      30.375  41.650  51.765  1.00  0.00    +0.000 H 
ATOM    146  H41 UNL A   1      31.548  40.426  52.198  1.00  0.00    +0.000 H 
ATOM     24  C20 UNL A   1      31.987  41.448  50.373  1.00  0.00    +0.000 C 
ATOM     25  C21 UNL A   1      32.855  40.273  49.929  1.00  0.00    +0.000 C 
ATOM     26  C22 UNL A   1      32.005  39.406  49.011  1.00  0.00    +0.000 C 
ATOM     27  C23 UNL A   1      30.885  38.780  49.832  1.00  0.00    +0.000 C 
ATOM     28  C24 UNL A   1      30.128  39.788  50.715  1.00  0.00    +0.000 C 
ATOM     29  C25 UNL A   1      31.002  40.867  51.391  1.00  0.00    +0.000 C 
ENDBRANCH   23   24
ENDBRANCH   22   23
ENDBRANCH   21   22
ENDBRANCH   20   21
ENDBRANCH    6    7
ENDBRANCH    5    6
ENDBRANCH   31    5
ENDBRANCH   33   31
ENDBRANCH   34   33
ENDBRANCH   35   34
ENDBRANCH   36   35
ENDBRANCH   37   36
ENDBRANCH   38   37
ENDBRANCH   39   38
ENDBRANCH   40   39
ENDBRANCH   41   40
ENDBRANCH   43   41
ENDBRANCH   47   46
BRANCH   51   52
ATOM     52  C42 UNL A   1      21.653  42.236  49.326  1.00  0.00    +0.000 C 
ATOM     53  C43 UNL A   1      21.221  42.138  50.659  1.00  0.00    +0.000 C 
ATOM     54  F1  UNL A   1      21.631  41.118  51.428  1.00  0.00    +0.000 F 
ATOM     55  C44 UNL A   1      20.332  43.066  51.194  1.00  0.00    +0.000 C 
ATOM     56  F2  UNL A   1      19.894  42.923  52.453  1.00  0.00    +0.000 F 
ATOM     57  C45 UNL A   1      19.888  44.129  50.424  1.00  0.00    +0.000 C 
ATOM     58  F3  UNL A   1      19.038  45.027  50.943  1.00  0.00    +0.000 F 
ATOM     59  C46 UNL A   1      20.318  44.259  49.112  1.00  0.00    +0.000 C 
ATOM     60  F4  UNL A   1      19.899  45.294  48.370  1.00  0.00    +0.000 F 
ATOM     61  C47 UNL A   1      21.181  43.314  48.562  1.00  0.00    +0.000 C 
ATOM     62  F5  UNL A   1      21.565  43.458  47.285  1.00  0.00    +0.000 F 
ENDBRANCH   51   52
BRANCH   68   69
ATOM     69  C53 UNL A   1      21.561  35.540  46.653  1.00  0.00    +0.000 C 
ATOM     70  C54 UNL A   1      21.007  35.376  45.376  1.00  0.00    +0.000 C 
ATOM     71  F6  UNL A   1      21.343  36.212  44.382  1.00  0.00    +0.000 F 
ATOM     72  C55 UNL A   1      20.071  34.376  45.126  1.00  0.00    +0.000 C 
ATOM     73  F7  UNL A   1      19.515  34.272  43.911  1.00  0.00    +0.000 F 
ATOM     74  C56 UNL A   1      19.700  33.500  46.135  1.00  0.00    +0.000 C 
ATOM     75  F8  UNL A   1      18.803  32.536  45.891  1.00  0.00    +0.000 F 
ATOM     76  C57 UNL A   1      20.253  33.629  47.400  1.00  0.00    +0.000 C 
ATOM     77  F9  UNL A   1      19.908  32.774  48.373  1.00  0.00    +0.000 F 
ATOM     78  C58 UNL A   1      21.165  34.647  47.662  1.00  0.00    +0.000 C 
ATOM     79  F10 UNL A   1      21.671  34.756  48.899  1.00  0.00    +0.000 F 
ENDBRANCH   68   69
BRANCH   83   84
ATOM     84  C62 UNL A   1      28.434  35.908  45.588  1.00  0.00    +0.000 C 
ATOM     85  C63 UNL A   1      28.949  36.070  44.294  1.00  0.00    +0.000 C 
ATOM     86  F11 UNL A   1      28.541  37.098  43.535  1.00  0.00    +0.000 F 
ATOM     87  C64 UNL A   1      29.848  35.151  43.755  1.00  0.00    +0.000 C 
ATOM     88  F12 UNL A   1      30.280  35.300  42.496  1.00  0.00    +0.000 F 
ATOM     89  C65 UNL A   1      30.276  34.072  44.513  1.00  0.00    +0.000 C 
ATOM     90  F13 UNL A   1      31.137  33.186  43.993  1.00  0.00    +0.000 F 
ATOM     91  C66 UNL A   1      29.800  33.905  45.804  1.00  0.00    +0.000 C 
ATOM     92  F14 UNL A   1      30.222  32.870  46.544  1.00  0.00    +0.000 F 
ATOM     93  C67 UNL A   1      28.879  34.806  46.333  1.00  0.00    +0.000 C 
ATOM     94  F15 UNL A   1      28.423  34.609  47.579  1.00  0.00    +0.000 F 
ENDBRANCH   83   84
TORSDOF 29
ENDMDL
MODEL 6
REMARK VINA RESULT:      -7.3     30.476     38.180
ROOT
ATOM    163  H58 UNL A   1      44.840  51.582  15.474  1.00  0.00    +0.000 H 
ATOM    164  H59 UNL A   1      45.825  53.723  14.359  1.00  0.00    +0.000 H 
ATOM    165  H60 UNL A   1      48.232  52.705  17.570  1.00  0.00    +0.000 H 
ATOM    166  H61 UNL A   1      53.234  53.990  21.337  1.00  0.00    +0.000 H 
ATOM    167  H62 UNL A   1      52.304  51.870  22.384  1.00  0.00    +0.000 H 
ATOM    168  H63 UNL A   1      49.897  52.845  19.139  1.00  0.00    +0.000 H 
ATOM    169  H64 UNL A   1      51.911  56.953  17.082  1.00  0.00    +0.000 H 
ATOM    170  H65 UNL A   1      49.907  56.977  15.490  1.00  0.00    +0.000 H 
ATOM    171  H66 UNL A   1      46.451  48.463  19.536  1.00  0.00    +0.000 H 
ATOM    172  H67 UNL A   1      48.103  48.731  21.475  1.00  0.00    +0.000 H 
ATOM     47  C38 UNL A   1      49.952  50.871  21.117  1.00  0.00    +0.000 C 
ATOM     48  C39 UNL A   1      48.772  50.520  20.252  1.00  0.00    +0.000 C 
ATOM     49  N5  UNL A   1      48.335  51.108  19.167  1.00  0.00    +0.000 N 
ATOM     50  C40 UNL A   1      47.246  50.357  18.744  1.00  0.00    +0.000 C 
ATOM     51  C41 UNL A   1      46.405  50.596  17.711  1.00  0.00    +0.000 C 
ATOM     63  C48 UNL A   1      46.512  51.728  16.830  1.00  0.00    +0.000 C 
ATOM     64  C49 UNL A   1      45.689  52.085  15.775  1.00  0.00    +0.000 C 
ATOM     65  C50 UNL A   1      46.207  53.244  15.189  1.00  0.00    +0.000 C 
ATOM     66  C51 UNL A   1      47.321  53.640  15.911  1.00  0.00    +0.000 C 
ATOM     67  N6  UNL A   1      47.505  52.694  16.907  1.00  0.00    +0.000 N 
ATOM     68  C52 UNL A   1      48.154  54.798  15.711  1.00  0.00    +0.000 C 
ATOM     80  C59 UNL A   1      49.251  55.105  16.445  1.00  0.00    +0.000 C 
ATOM     81  N7  UNL A   1      49.798  54.427  17.527  1.00  0.00    +0.000 N 
ATOM     82  C60 UNL A   1      50.856  55.114  17.885  1.00  0.00    +0.000 C 
ATOM     83  C61 UNL A   1      51.807  54.872  19.027  1.00  0.00    +0.000 C 
ATOM     95  C68 UNL A   1      51.592  53.825  19.845  1.00  0.00    +0.000 C 
ATOM     96  C69 UNL A   1      52.408  53.469  21.003  1.00  0.00    +0.000 C 
ATOM     97  C70 UNL A   1      51.910  52.355  21.563  1.00  0.00    +0.000 C 
ATOM     98  C71 UNL A   1      50.718  51.939  20.822  1.00  0.00    +0.000 C 
ATOM     99  N8  UNL A   1      50.611  52.866  19.816  1.00  0.00    +0.000 N 
ATOM    100  C72 UNL A   1      51.124  56.286  17.040  1.00  0.00    +0.000 C 
ATOM    101  C73 UNL A   1      50.090  56.262  16.212  1.00  0.00    +0.000 C 
ATOM    102  C74 UNL A   1      47.126  49.236  19.650  1.00  0.00    +0.000 C 
ATOM    103  C75 UNL A   1      47.996  49.332  20.643  1.00  0.00    +0.000 C 
ENDROOT
BRANCH   47   46
ATOM    161  H56 UNL A   1      49.921  49.780  25.607  1.00  0.00    +0.000 H 
ATOM    162  H57 UNL A   1      49.346  51.212  23.734  1.00  0.00    +0.000 H 
ATOM    104  C76 UNL A   1      51.006  48.819  22.062  1.00  0.00    +0.000 C 
ATOM    105  C77 UNL A   1      51.254  47.955  23.122  1.00  0.00    +0.000 C 
ATOM     43  C34 UNL A   1      50.896  48.326  24.422  1.00  0.00    +0.000 C 
ATOM     44  C35 UNL A   1      50.200  49.516  24.649  1.00  0.00    +0.000 C 
ATOM     45  C36 UNL A   1      49.886  50.347  23.574  1.00  0.00    +0.000 C 
ATOM    174  H69 UNL A   1      51.700  47.040  22.951  1.00  0.00    +0.000 H 
ATOM    173  H68 UNL A   1      51.344  48.583  21.116  1.00  0.00    +0.000 H 
ATOM     46  C37 UNL A   1      50.299  50.011  22.273  1.00  0.00    +0.000 C 
BRANCH   43   41
ATOM     41  C33 UNL A   1      51.207  47.453  25.572  1.00  0.00    +0.000 C 
ATOM     42  O4  UNL A   1      50.471  47.449  26.557  1.00  0.00    +0.000 O 
BRANCH   41   40
ATOM    160  H55 UNL A   1      53.177  47.113  25.477  1.00  0.00    +0.000 H 
ATOM     40  N4  UNL A   1      52.312  46.647  25.536  1.00  0.00    +0.000 N 
BRANCH   40   39
ATOM    159  H54 UNL A   1      52.652  44.899  26.565  1.00  0.00    +0.000 H 
ATOM    158  H53 UNL A   1      53.114  44.866  24.864  1.00  0.00    +0.000 H 
ATOM     39  C32 UNL A   1      52.384  45.196  25.572  1.00  0.00    +0.000 C 
BRANCH   39   38
ATOM    156  H51 UNL A   1      50.414  45.306  24.799  1.00  0.00    +0.000 H 
ATOM    157  H52 UNL A   1      51.248  43.751  24.559  1.00  0.00    +0.000 H 
ATOM     38  C31 UNL A   1      51.043  44.556  25.232  1.00  0.00    +0.000 C 
BRANCH   38   37
ATOM    154  H49 UNL A   1      50.652  44.455  27.317  1.00  0.00    +0.000 H 
ATOM    155  H50 UNL A   1      49.269  44.079  26.250  1.00  0.00    +0.000 H 
ATOM     37  C30 UNL A   1      50.315  43.951  26.435  1.00  0.00    +0.000 C 
BRANCH   37   36
ATOM    153  H48 UNL A   1      49.638  42.057  27.059  1.00  0.00    +0.000 H 
ATOM     36  C29 UNL A   1      50.537  42.446  26.630  1.00  0.00    +0.000 C 
ATOM    152  H47 UNL A   1      51.391  42.313  27.261  1.00  0.00    +0.000 H 
BRANCH   36   35
ATOM     35  C28 UNL A   1      50.775  41.671  25.332  1.00  0.00    +0.000 C 
ATOM    150  H45 UNL A   1      51.281  42.311  24.640  1.00  0.00    +0.000 H 
ATOM    151  H46 UNL A   1      51.359  40.808  25.574  1.00  0.00    +0.000 H 
BRANCH   35   34
ATOM     34  C27 UNL A   1      49.479  41.184  24.687  1.00  0.00    +0.000 C 
ATOM    148  H43 UNL A   1      49.683  40.307  24.110  1.00  0.00    +0.000 H 
ATOM    149  H44 UNL A   1      48.772  40.965  25.459  1.00  0.00    +0.000 H 
BRANCH   34   33
ATOM     33  N3  UNL A   1      48.919  42.208  23.817  1.00  0.00    +0.000 N 
ATOM    147  H42 UNL A   1      48.350  42.871  24.272  1.00  0.00    +0.000 H 
BRANCH   33   31
ATOM     31  C26 UNL A   1      49.055  42.399  22.466  1.00  0.00    +0.000 C 
ATOM     32  O3  UNL A   1      48.591  41.539  21.713  1.00  0.00    +0.000 O 
BRANCH   31    5
ATOM    115  H10 UNL A   1      50.678  44.025  22.309  1.00  0.00    +0.000 H 
ATOM      5  C5  UNL A   1      49.756  43.657  21.910  1.00  0.00    +0.000 C 
BRANCH    5    4
ATOM    113  H8  UNL A   1      49.884  42.305  20.281  1.00  0.00    +0.000 H 
ATOM    114  H9  UNL A   1      49.830  44.108  19.895  1.00  0.00    +0.000 H 
ATOM      4  C4  UNL A   1      50.229  43.300  20.472  1.00  0.00    +0.000 C 
BRANCH    4    3
ATOM      3  C3  UNL A   1      51.705  43.323  20.077  1.00  0.00    +0.000 C 
ATOM    111  H6  UNL A   1      52.040  44.336  20.142  1.00  0.00    +0.000 H 
ATOM    112  H7  UNL A   1      52.183  42.644  20.752  1.00  0.00    +0.000 H 
BRANCH    3    2
ATOM      2  C2  UNL A   1      52.060  42.808  18.683  1.00  0.00    +0.000 C 
ATOM    109  H4  UNL A   1      52.519  41.847  18.782  1.00  0.00    +0.000 H 
ATOM    110  H5  UNL A   1      51.151  42.762  18.119  1.00  0.00    +0.000 H 
BRANCH    2    1
ATOM      1  C1  UNL A   1      53.012  43.723  17.934  1.00  0.00    +0.000 C 
ATOM    106  H1  UNL A   1      52.802  44.741  18.187  1.00  0.00    +0.000 H 
ATOM    107  H2  UNL A   1      52.885  43.584  16.881  1.00  0.00    +0.000 H 
ATOM    108  H3  UNL A   1      54.020  43.488  18.206  1.00  0.00    +0.000 H 
ENDBRANCH    2    1
ENDBRANCH    3    2
ENDBRANCH    4    3
ENDBRANCH    5    4
BRANCH    5    6
ATOM      6  S1  UNL A   1      48.523  45.014  22.317  1.00  0.00    +0.000 S 
BRANCH    6    7
ATOM    131  H26 UNL A   1      47.640  45.044  17.160  1.00  0.00    +0.000 H 
ATOM      7  C6  UNL A   1      47.930  45.551  20.750  1.00  0.00    +0.000 C 
ATOM      8  N1  UNL A   1      46.785  44.987  20.315  1.00  0.00    +0.000 N 
ATOM      9  C7  UNL A   1      46.634  44.909  18.990  1.00  0.00    +0.000 C 
ATOM     19  C16 UNL A   1      47.636  45.312  18.157  1.00  0.00    +0.000 C 
ATOM     20  C17 UNL A   1      48.629  46.081  18.684  1.00  0.00    +0.000 C 
ATOM     30  N2  UNL A   1      48.793  46.219  19.992  1.00  0.00    +0.000 N 
BRANCH    9   10
ATOM     10  O1  UNL A   1      45.425  44.425  18.548  1.00  0.00    +0.000 O 
BRANCH   10   11
ATOM     11  C8  UNL A   1      44.229  44.848  19.218  1.00  0.00    +0.000 C 
ATOM    116  H11 UNL A   1      43.711  45.518  18.565  1.00  0.00    +0.000 H 
ATOM    117  H12 UNL A   1      44.561  45.286  20.137  1.00  0.00    +0.000 H 
BRANCH   11   12
ATOM     12  C9  UNL A   1      43.233  43.732  19.635  1.00  0.00    +0.000 C 
ATOM    118  H13 UNL A   1      43.636  42.798  19.302  1.00  0.00    +0.000 H 
ATOM    119  H14 UNL A   1      42.302  44.005  19.184  1.00  0.00    +0.000 H 
BRANCH   12   13
ATOM    129  H24 UNL A   1      44.991  43.748  21.676  1.00  0.00    +0.000 H 
ATOM    130  H25 UNL A   1      44.350  42.125  21.756  1.00  0.00    +0.000 H 
ATOM     13  C10 UNL A   1      42.927  43.598  21.135  1.00  0.00    +0.000 C 
ATOM     14  C11 UNL A   1      41.740  42.678  21.464  1.00  0.00    +0.000 C 
ATOM     15  C12 UNL A   1      41.390  42.777  22.954  1.00  0.00    +0.000 C 
ATOM     16  C13 UNL A   1      42.592  42.600  23.882  1.00  0.00    +0.000 C 
ATOM     17  C14 UNL A   1      43.851  43.346  23.437  1.00  0.00    +0.000 C 
ATOM     18  C15 UNL A   1      44.143  43.157  21.951  1.00  0.00    +0.000 C 
ATOM    120  H15 UNL A   1      42.651  44.592  21.420  1.00  0.00    +0.000 H 
ATOM    121  H16 UNL A   1      42.002  41.667  21.229  1.00  0.00    +0.000 H 
ATOM    122  H17 UNL A   1      40.894  42.981  20.884  1.00  0.00    +0.000 H 
ATOM    123  H18 UNL A   1      40.671  42.017  23.183  1.00  0.00    +0.000 H 
ATOM    124  H19 UNL A   1      41.007  43.762  23.121  1.00  0.00    +0.000 H 
ATOM    125  H20 UNL A   1      42.824  41.557  23.935  1.00  0.00    +0.000 H 
ATOM    126  H21 UNL A   1      42.312  43.013  24.828  1.00  0.00    +0.000 H 
ATOM    127  H22 UNL A   1      44.684  42.982  24.001  1.00  0.00    +0.000 H 
ATOM    128  H23 UNL A   1      43.689  44.390  23.608  1.00  0.00    +0.000 H 
ENDBRANCH   12   13
ENDBRANCH   11   12
ENDBRANCH   10   11
ENDBRANCH    9   10
BRANCH   20   21
ATOM     21  O2  UNL A   1      49.684  46.504  17.923  1.00  0.00    +0.000 O 
BRANCH   21   22
ATOM    132  H27 UNL A   1      50.073  47.827  19.440  1.00  0.00    +0.000 H 
ATOM    133  H28 UNL A   1      50.232  48.477  17.827  1.00  0.00    +0.000 H 
ATOM     22  C18 UNL A   1      50.405  47.621  18.444  1.00  0.00    +0.000 C 
BRANCH   22   23
ATOM    135  H30 UNL A   1      52.126  46.779  19.376  1.00  0.00    +0.000 H 
ATOM    134  H29 UNL A   1      52.147  46.689  17.607  1.00  0.00    +0.000 H 
ATOM     23  C19 UNL A   1      51.918  47.292  18.460  1.00  0.00    +0.000 C 
BRANCH   23   24
ATOM    136  H31 UNL A   1      53.418  48.339  17.574  1.00  0.00    +0.000 H 
ATOM    137  H32 UNL A   1      51.609  50.150  19.209  1.00  0.00    +0.000 H 
ATOM    138  H33 UNL A   1      51.157  49.675  17.607  1.00  0.00    +0.000 H 
ATOM    139  H34 UNL A   1      52.369  51.772  17.452  1.00  0.00    +0.000 H 
ATOM    140  H35 UNL A   1      53.398  50.525  16.807  1.00  0.00    +0.000 H 
ATOM    141  H36 UNL A   1      53.510  51.782  19.528  1.00  0.00    +0.000 H 
ATOM    142  H37 UNL A   1      54.749  51.777  18.252  1.00  0.00    +0.000 H 
ATOM    143  H38 UNL A   1      55.082  50.274  20.298  1.00  0.00    +0.000 H 
ATOM    144  H39 UNL A   1      55.353  49.636  18.645  1.00  0.00    +0.000 H 
ATOM    145  H40 UNL A   1      54.284  47.910  19.825  1.00  0.00    +0.000 H 
ATOM    146  H41 UNL A   1      53.093  49.005  20.491  1.00  0.00    +0.000 H 
ATOM     24  C20 UNL A   1      52.801  48.550  18.423  1.00  0.00    +0.000 C 
ATOM     25  C21 UNL A   1      51.989  49.833  18.260  1.00  0.00    +0.000 C 
ATOM     26  C22 UNL A   1      52.926  50.892  17.695  1.00  0.00    +0.000 C 
ATOM     27  C23 UNL A   1      53.977  51.223  18.745  1.00  0.00    +0.000 C 
ATOM     28  C24 UNL A   1      54.643  49.981  19.366  1.00  0.00    +0.000 C 
ATOM     29  C25 UNL A   1      53.701  48.788  19.639  1.00  0.00    +0.000 C 
ENDBRANCH   23   24
ENDBRANCH   22   23
ENDBRANCH   21   22
ENDBRANCH   20   21
ENDBRANCH    6    7
ENDBRANCH    5    6
ENDBRANCH   31    5
ENDBRANCH   33   31
ENDBRANCH   34   33
ENDBRANCH   35   34
ENDBRANCH   36   35
ENDBRANCH   37   36
ENDBRANCH   38   37
ENDBRANCH   39   38
ENDBRANCH   40   39
ENDBRANCH   41   40
ENDBRANCH   43   41
ENDBRANCH   47   46
BRANCH   51   52
ATOM     52  C42 UNL A   1      45.288  49.618  17.484  1.00  0.00    +0.000 C 
ATOM     53  C43 UNL A   1      45.523  48.351  16.926  1.00  0.00    +0.000 C 
ATOM     54  F1  UNL A   1      46.759  48.003  16.538  1.00  0.00    +0.000 F 
ATOM     55  C44 UNL A   1      44.479  47.451  16.725  1.00  0.00    +0.000 C 
ATOM     56  F2  UNL A   1      44.719  46.268  16.144  1.00  0.00    +0.000 F 
ATOM     57  C45 UNL A   1      43.190  47.783  17.113  1.00  0.00    +0.000 C 
ATOM     58  F3  UNL A   1      42.188  46.912  16.927  1.00  0.00    +0.000 F 
ATOM     59  C46 UNL A   1      42.938  49.019  17.686  1.00  0.00    +0.000 C 
ATOM     60  F4  UNL A   1      41.694  49.336  18.073  1.00  0.00    +0.000 F 
ATOM     61  C47 UNL A   1      43.973  49.935  17.858  1.00  0.00    +0.000 C 
ATOM     62  F5  UNL A   1      43.693  51.130  18.400  1.00  0.00    +0.000 F 
ENDBRANCH   51   52
BRANCH   68   69
ATOM     69  C53 UNL A   1      47.761  55.758  14.626  1.00  0.00    +0.000 C 
ATOM     70  C54 UNL A   1      48.145  55.566  13.292  1.00  0.00    +0.000 C 
ATOM     71  F6  UNL A   1      48.923  54.527  12.956  1.00  0.00    +0.000 F 
ATOM     72  C55 UNL A   1      47.766  56.469  12.302  1.00  0.00    +0.000 C 
ATOM     73  F7  UNL A   1      48.189  56.295  11.042  1.00  0.00    +0.000 F 
ATOM     74  C56 UNL A   1      46.966  57.557  12.620  1.00  0.00    +0.000 C 
ATOM     75  F8  UNL A   1      46.598  58.421  11.664  1.00  0.00    +0.000 F 
ATOM     76  C57 UNL A   1      46.555  57.753  13.929  1.00  0.00    +0.000 C 
ATOM     77  F9  UNL A   1      45.770  58.794  14.236  1.00  0.00    +0.000 F 
ATOM     78  C58 UNL A   1      46.958  56.870  14.927  1.00  0.00    +0.000 C 
ATOM     79  F10 UNL A   1      46.558  57.096  16.186  1.00  0.00    +0.000 F 
ENDBRANCH   68   69
BRANCH   83   84
ATOM     84  C62 UNL A   1      52.948  55.792  19.275  1.00  0.00    +0.000 C 
ATOM     85  C63 UNL A   1      54.201  55.556  18.690  1.00  0.00    +0.000 C 
ATOM     86  F11 UNL A   1      54.379  54.490  17.895  1.00  0.00    +0.000 F 
ATOM     87  C64 UNL A   1      55.288  56.385  18.957  1.00  0.00    +0.000 C 
ATOM     88  F12 UNL A   1      56.487  56.105  18.429  1.00  0.00    +0.000 F 
ATOM     89  C65 UNL A   1      55.136  57.487  19.786  1.00  0.00    +0.000 C 
ATOM     90  F13 UNL A   1      56.182  58.282  20.046  1.00  0.00    +0.000 F 
ATOM     91  C66 UNL A   1      53.900  57.754  20.355  1.00  0.00    +0.000 C 
ATOM     92  F14 UNL A   1      53.746  58.825  21.146  1.00  0.00    +0.000 F 
ATOM     93  C67 UNL A   1      52.819  56.909  20.113  1.00  0.00    +0.000 C 
ATOM     94  F15 UNL A   1      51.641  57.183  20.691  1.00  0.00    +0.000 F 
ENDBRANCH   83   84
TORSDOF 29
ENDMDL
MODEL 7
REMARK VINA RESULT:      -7.3      1.189      2.748
ROOT
ATOM    163  H58 UNL A   1      33.678  29.318  50.668  1.00  0.00    +0.000 H 
ATOM    164  H59 UNL A   1      35.597  30.465  49.327  1.00  0.00    +0.000 H 
ATOM    165  H60 UNL A   1      31.981  31.675  47.714  1.00  0.00    +0.000 H 
ATOM    166  H61 UNL A   1      28.741  34.944  43.279  1.00  0.00    +0.000 H 
ATOM    167  H62 UNL A   1      26.874  33.870  44.626  1.00  0.00    +0.000 H 
ATOM    168  H63 UNL A   1      30.489  32.675  46.292  1.00  0.00    +0.000 H 
ATOM    169  H64 UNL A   1      34.080  34.963  43.640  1.00  0.00    +0.000 H 
ATOM    170  H65 UNL A   1      35.769  33.642  45.036  1.00  0.00    +0.000 H 
ATOM    171  H66 UNL A   1      28.323  29.647  50.459  1.00  0.00    +0.000 H 
ATOM    172  H67 UNL A   1      26.631  30.496  48.735  1.00  0.00    +0.000 H 
ATOM     47  C38 UNL A   1      27.775  32.188  46.745  1.00  0.00    +0.000 C 
ATOM     48  C39 UNL A   1      28.492  31.412  47.816  1.00  0.00    +0.000 C 
ATOM     49  N5  UNL A   1      29.774  31.336  48.067  1.00  0.00    +0.000 N 
ATOM     50  C40 UNL A   1      29.892  30.522  49.187  1.00  0.00    +0.000 C 
ATOM     51  C41 UNL A   1      31.017  30.077  49.793  1.00  0.00    +0.000 C 
ATOM     63  C48 UNL A   1      32.349  30.398  49.356  1.00  0.00    +0.000 C 
ATOM     64  C49 UNL A   1      33.558  29.969  49.877  1.00  0.00    +0.000 C 
ATOM     65  C50 UNL A   1      34.587  30.570  49.145  1.00  0.00    +0.000 C 
ATOM     66  C51 UNL A   1      34.021  31.330  48.134  1.00  0.00    +0.000 C 
ATOM     67  N6  UNL A   1      32.647  31.227  48.284  1.00  0.00    +0.000 N 
ATOM     68  C52 UNL A   1      34.684  32.090  47.107  1.00  0.00    +0.000 C 
ATOM     80  C59 UNL A   1      34.058  32.838  46.165  1.00  0.00    +0.000 C 
ATOM     81  N7  UNL A   1      32.697  33.024  45.956  1.00  0.00    +0.000 N 
ATOM     82  C60 UNL A   1      32.597  33.837  44.933  1.00  0.00    +0.000 C 
ATOM     83  C61 UNL A   1      31.362  34.347  44.239  1.00  0.00    +0.000 C 
ATOM     95  C68 UNL A   1      30.155  33.941  44.672  1.00  0.00    +0.000 C 
ATOM     96  C69 UNL A   1      28.870  34.327  44.096  1.00  0.00    +0.000 C 
ATOM     97  C70 UNL A   1      27.883  33.751  44.801  1.00  0.00    +0.000 C 
ATOM     98  C71 UNL A   1      28.469  32.926  45.859  1.00  0.00    +0.000 C 
ATOM     99  N8  UNL A   1      29.821  33.105  45.709  1.00  0.00    +0.000 N 
ATOM    100  C72 UNL A   1      33.889  34.293  44.401  1.00  0.00    +0.000 C 
ATOM    101  C73 UNL A   1      34.744  33.616  45.154  1.00  0.00    +0.000 C 
ATOM    102  C74 UNL A   1      28.550  30.180  49.605  1.00  0.00    +0.000 C 
ATOM    103  C75 UNL A   1      27.653  30.641  48.748  1.00  0.00    +0.000 C 
ENDROOT
BRANCH   47   46
ATOM    161  H56 UNL A   1      23.701  30.363  45.552  1.00  0.00    +0.000 H 
ATOM    162  H57 UNL A   1      26.127  30.362  45.613  1.00  0.00    +0.000 H 
ATOM    104  C76 UNL A   1      25.569  33.195  47.327  1.00  0.00    +0.000 C 
ATOM    105  C77 UNL A   1      24.181  33.145  47.371  1.00  0.00    +0.000 C 
ATOM     43  C34 UNL A   1      23.498  32.135  46.686  1.00  0.00    +0.000 C 
ATOM     44  C35 UNL A   1      24.206  31.118  46.042  1.00  0.00    +0.000 C 
ATOM     45  C36 UNL A   1      25.601  31.128  46.063  1.00  0.00    +0.000 C 
ATOM    174  H69 UNL A   1      23.654  33.851  47.909  1.00  0.00    +0.000 H 
ATOM    173  H68 UNL A   1      26.070  33.987  47.762  1.00  0.00    +0.000 H 
ATOM     46  C37 UNL A   1      26.293  32.175  46.693  1.00  0.00    +0.000 C 
BRANCH   43   41
ATOM     41  C33 UNL A   1      22.022  32.098  46.665  1.00  0.00    +0.000 C 
ATOM     42  O4  UNL A   1      21.386  32.373  47.680  1.00  0.00    +0.000 O 
BRANCH   41   40
ATOM    160  H55 UNL A   1      20.878  30.906  45.534  1.00  0.00    +0.000 H 
ATOM     40  N4  UNL A   1      21.366  31.761  45.513  1.00  0.00    +0.000 N 
BRANCH   40   39
ATOM    159  H54 UNL A   1      20.694  31.926  43.576  1.00  0.00    +0.000 H 
ATOM    158  H53 UNL A   1      22.280  32.633  43.878  1.00  0.00    +0.000 H 
ATOM     39  C32 UNL A   1      21.290  32.494  44.259  1.00  0.00    +0.000 C 
BRANCH   39   38
ATOM    156  H51 UNL A   1      20.063  34.076  43.565  1.00  0.00    +0.000 H 
ATOM    157  H52 UNL A   1      20.033  33.795  45.323  1.00  0.00    +0.000 H 
ATOM     38  C31 UNL A   1      20.635  33.858  44.442  1.00  0.00    +0.000 C 
BRANCH   38   37
ATOM    154  H49 UNL A   1      21.261  35.867  44.152  1.00  0.00    +0.000 H 
ATOM    155  H50 UNL A   1      21.694  35.140  45.725  1.00  0.00    +0.000 H 
ATOM     37  C30 UNL A   1      21.627  35.003  44.666  1.00  0.00    +0.000 C 
BRANCH   37   36
ATOM    153  H48 UNL A   1      22.963  34.322  43.188  1.00  0.00    +0.000 H 
ATOM     36  C29 UNL A   1      23.053  34.723  44.175  1.00  0.00    +0.000 C 
ATOM    152  H47 UNL A   1      23.516  34.044  44.860  1.00  0.00    +0.000 H 
BRANCH   36   35
ATOM     35  C28 UNL A   1      23.936  35.968  44.065  1.00  0.00    +0.000 C 
ATOM    150  H45 UNL A   1      24.425  35.957  43.113  1.00  0.00    +0.000 H 
ATOM    151  H46 UNL A   1      23.302  36.823  44.175  1.00  0.00    +0.000 H 
BRANCH   35   34
ATOM     34  C27 UNL A   1      24.999  36.040  45.159  1.00  0.00    +0.000 C 
ATOM    148  H43 UNL A   1      24.772  35.321  45.917  1.00  0.00    +0.000 H 
ATOM    149  H44 UNL A   1      25.954  35.832  44.724  1.00  0.00    +0.000 H 
BRANCH   34   33
ATOM     33  N3  UNL A   1      25.037  37.368  45.755  1.00  0.00    +0.000 N 
ATOM    147  H42 UNL A   1      24.403  38.013  45.366  1.00  0.00    +0.000 H 
BRANCH   33   31
ATOM     31  C26 UNL A   1      25.812  37.865  46.771  1.00  0.00    +0.000 C 
ATOM     32  O3  UNL A   1      26.622  37.101  47.304  1.00  0.00    +0.000 O 
BRANCH   31    5
ATOM    115  H10 UNL A   1      26.011  40.153  46.614  1.00  0.00    +0.000 H 
ATOM      5  C5  UNL A   1      25.681  39.336  47.220  1.00  0.00    +0.000 C 
BRANCH    5    4
ATOM    113  H8  UNL A   1      23.872  39.883  46.256  1.00  0.00    +0.000 H 
ATOM    114  H9  UNL A   1      23.758  38.775  47.726  1.00  0.00    +0.000 H 
ATOM      4  C4  UNL A   1      24.158  39.651  47.261  1.00  0.00    +0.000 C 
BRANCH    4    3
ATOM      3  C3  UNL A   1      23.586  40.766  48.135  1.00  0.00    +0.000 C 
ATOM    111  H6  UNL A   1      24.409  41.351  48.490  1.00  0.00    +0.000 H 
ATOM    112  H7  UNL A   1      22.899  41.290  47.503  1.00  0.00    +0.000 H 
BRANCH    3    2
ATOM      2  C2  UNL A   1      22.762  40.345  49.351  1.00  0.00    +0.000 C 
ATOM    109  H4  UNL A   1      23.061  39.359  49.639  1.00  0.00    +0.000 H 
ATOM    110  H5  UNL A   1      22.945  41.061  50.124  1.00  0.00    +0.000 H 
BRANCH    2    1
ATOM      1  C1  UNL A   1      21.268  40.337  49.085  1.00  0.00    +0.000 C 
ATOM    106  H1  UNL A   1      20.740  40.380  50.015  1.00  0.00    +0.000 H 
ATOM    107  H2  UNL A   1      21.003  39.441  48.566  1.00  0.00    +0.000 H 
ATOM    108  H3  UNL A   1      21.008  41.187  48.488  1.00  0.00    +0.000 H 
ENDBRANCH    2    1
ENDBRANCH    3    2
ENDBRANCH    4    3
ENDBRANCH    5    4
BRANCH    5    6
ATOM      6  S1  UNL A   1      26.820  39.400  48.712  1.00  0.00    +0.000 S 
BRANCH    6    7
ATOM    131  H26 UNL A   1      28.911  43.571  46.345  1.00  0.00    +0.000 H 
ATOM      7  C6  UNL A   1      27.979  40.665  48.324  1.00  0.00    +0.000 C 
ATOM      8  N1  UNL A   1      27.767  41.871  48.892  1.00  0.00    +0.000 N 
ATOM      9  C7  UNL A   1      28.216  42.928  48.211  1.00  0.00    +0.000 C 
ATOM     19  C16 UNL A   1      28.780  42.768  46.980  1.00  0.00    +0.000 C 
ATOM     20  C17 UNL A   1      29.163  41.513  46.615  1.00  0.00    +0.000 C 
ATOM     30  N2  UNL A   1      28.774  40.437  47.284  1.00  0.00    +0.000 N 
BRANCH    9   10
ATOM     10  O1  UNL A   1      28.088  44.147  48.837  1.00  0.00    +0.000 O 
BRANCH   10   11
ATOM     11  C8  UNL A   1      27.152  45.096  48.309  1.00  0.00    +0.000 C 
ATOM    116  H11 UNL A   1      27.705  45.815  47.742  1.00  0.00    +0.000 H 
ATOM    117  H12 UNL A   1      26.643  45.494  49.162  1.00  0.00    +0.000 H 
BRANCH   11   12
ATOM     12  C9  UNL A   1      26.032  44.532  47.392  1.00  0.00    +0.000 C 
ATOM    118  H13 UNL A   1      26.411  43.648  46.925  1.00  0.00    +0.000 H 
ATOM    119  H14 UNL A   1      25.795  45.329  46.718  1.00  0.00    +0.000 H 
BRANCH   12   13
ATOM    129  H24 UNL A   1      23.581  44.515  46.275  1.00  0.00    +0.000 H 
ATOM    130  H25 UNL A   1      23.435  45.787  47.463  1.00  0.00    +0.000 H 
ATOM     13  C10 UNL A   1      24.699  44.169  48.065  1.00  0.00    +0.000 C 
ATOM     14  C11 UNL A   1      24.605  44.567  49.547  1.00  0.00    +0.000 C 
ATOM     15  C12 UNL A   1      23.334  43.979  50.173  1.00  0.00    +0.000 C 
ATOM     16  C13 UNL A   1      22.064  44.263  49.369  1.00  0.00    +0.000 C 
ATOM     17  C14 UNL A   1      22.217  44.077  47.858  1.00  0.00    +0.000 C 
ATOM     18  C15 UNL A   1      23.487  44.728  47.319  1.00  0.00    +0.000 C 
ATOM    120  H15 UNL A   1      24.683  43.100  48.018  1.00  0.00    +0.000 H 
ATOM    121  H16 UNL A   1      24.577  45.634  49.625  1.00  0.00    +0.000 H 
ATOM    122  H17 UNL A   1      25.459  44.184  50.065  1.00  0.00    +0.000 H 
ATOM    123  H18 UNL A   1      23.214  44.398  51.151  1.00  0.00    +0.000 H 
ATOM    124  H19 UNL A   1      23.459  42.917  50.198  1.00  0.00    +0.000 H 
ATOM    125  H20 UNL A   1      21.770  45.275  49.552  1.00  0.00    +0.000 H 
ATOM    126  H21 UNL A   1      21.333  43.551  49.691  1.00  0.00    +0.000 H 
ATOM    127  H22 UNL A   1      21.371  44.515  47.371  1.00  0.00    +0.000 H 
ATOM    128  H23 UNL A   1      22.279  43.027  47.664  1.00  0.00    +0.000 H 
ENDBRANCH   12   13
ENDBRANCH   11   12
ENDBRANCH   10   11
ENDBRANCH    9   10
BRANCH   20   21
ATOM     21  O2  UNL A   1      29.710  41.262  45.387  1.00  0.00    +0.000 O 
BRANCH   21   22
ATOM    132  H27 UNL A   1      31.242  40.303  44.420  1.00  0.00    +0.000 H 
ATOM    133  H28 UNL A   1      30.327  39.311  45.528  1.00  0.00    +0.000 H 
ATOM     22  C18 UNL A   1      30.749  40.281  45.369  1.00  0.00    +0.000 C 
BRANCH   22   23
ATOM    135  H30 UNL A   1      31.286  41.238  47.195  1.00  0.00    +0.000 H 
ATOM    134  H29 UNL A   1      32.076  39.673  46.940  1.00  0.00    +0.000 H 
ATOM     23  C19 UNL A   1      31.769  40.593  46.490  1.00  0.00    +0.000 C 
BRANCH   23   24
ATOM    136  H31 UNL A   1      33.710  41.131  46.764  1.00  0.00    +0.000 H 
ATOM    137  H32 UNL A   1      32.928  41.236  43.831  1.00  0.00    +0.000 H 
ATOM    138  H33 UNL A   1      33.366  39.732  44.568  1.00  0.00    +0.000 H 
ATOM    139  H34 UNL A   1      35.371  40.707  43.608  1.00  0.00    +0.000 H 
ATOM    140  H35 UNL A   1      35.510  40.824  45.339  1.00  0.00    +0.000 H 
ATOM    141  H36 UNL A   1      34.711  42.973  43.405  1.00  0.00    +0.000 H 
ATOM    142  H37 UNL A   1      36.103  42.932  44.511  1.00  0.00    +0.000 H 
ATOM    143  H38 UNL A   1      34.116  44.441  45.088  1.00  0.00    +0.000 H 
ATOM    144  H39 UNL A   1      34.852  43.387  46.336  1.00  0.00    +0.000 H 
ATOM    145  H40 UNL A   1      32.534  43.280  46.699  1.00  0.00    +0.000 H 
ATOM    146  H41 UNL A   1      32.205  43.047  44.996  1.00  0.00    +0.000 H 
ATOM     24  C20 UNL A   1      33.017  41.327  45.972  1.00  0.00    +0.000 C 
ATOM     25  C21 UNL A   1      33.495  40.793  44.623  1.00  0.00    +0.000 C 
ATOM     26  C22 UNL A   1      34.964  41.166  44.484  1.00  0.00    +0.000 C 
ATOM     27  C23 UNL A   1      35.072  42.681  44.368  1.00  0.00    +0.000 C 
ATOM     28  C24 UNL A   1      34.271  43.442  45.440  1.00  0.00    +0.000 C 
ATOM     29  C25 UNL A   1      32.892  42.842  45.790  1.00  0.00    +0.000 C 
ENDBRANCH   23   24
ENDBRANCH   22   23
ENDBRANCH   21   22
ENDBRANCH   20   21
ENDBRANCH    6    7
ENDBRANCH    5    6
ENDBRANCH   31    5
ENDBRANCH   33   31
ENDBRANCH   34   33
ENDBRANCH   35   34
ENDBRANCH   36   35
ENDBRANCH   37   36
ENDBRANCH   38   37
ENDBRANCH   39   38
ENDBRANCH   40   39
ENDBRANCH   41   40
ENDBRANCH   43   41
ENDBRANCH   47   46
BRANCH   51   52
ATOM     52  C42 UNL A   1      30.854  29.185  50.991  1.00  0.00    +0.000 C 
ATOM     53  C43 UNL A   1      30.707  27.795  50.858  1.00  0.00    +0.000 C 
ATOM     54  F1  UNL A   1      30.664  27.235  49.639  1.00  0.00    +0.000 F 
ATOM     55  C44 UNL A   1      30.563  26.979  51.977  1.00  0.00    +0.000 C 
ATOM     56  F2  UNL A   1      30.372  25.661  51.822  1.00  0.00    +0.000 F 
ATOM     57  C45 UNL A   1      30.601  27.528  53.248  1.00  0.00    +0.000 C 
ATOM     58  F3  UNL A   1      30.470  26.740  54.325  1.00  0.00    +0.000 F 
ATOM     59  C46 UNL A   1      30.767  28.895  53.405  1.00  0.00    +0.000 C 
ATOM     60  F4  UNL A   1      30.817  29.427  54.635  1.00  0.00    +0.000 F 
ATOM     61  C47 UNL A   1      30.879  29.720  52.288  1.00  0.00    +0.000 C 
ATOM     62  F5  UNL A   1      31.022  31.041  52.473  1.00  0.00    +0.000 F 
ENDBRANCH   51   52
BRANCH   68   69
ATOM     69  C53 UNL A   1      36.182  32.028  47.052  1.00  0.00    +0.000 C 
ATOM     70  C54 UNL A   1      36.988  32.942  47.746  1.00  0.00    +0.000 C 
ATOM     71  F6  UNL A   1      36.428  33.937  48.451  1.00  0.00    +0.000 F 
ATOM     72  C55 UNL A   1      38.376  32.862  47.682  1.00  0.00    +0.000 C 
ATOM     73  F7  UNL A   1      39.127  33.778  48.311  1.00  0.00    +0.000 F 
ATOM     74  C56 UNL A   1      38.985  31.848  46.958  1.00  0.00    +0.000 C 
ATOM     75  F8  UNL A   1      40.321  31.770  46.903  1.00  0.00    +0.000 F 
ATOM     76  C57 UNL A   1      38.207  30.919  46.282  1.00  0.00    +0.000 C 
ATOM     77  F9  UNL A   1      38.791  29.929  45.594  1.00  0.00    +0.000 F 
ATOM     78  C58 UNL A   1      36.819  31.015  46.318  1.00  0.00    +0.000 C 
ATOM     79  F10 UNL A   1      36.094  30.111  45.642  1.00  0.00    +0.000 F 
ENDBRANCH   68   69
BRANCH   83   84
ATOM     84  C62 UNL A   1      31.469  35.258  43.069  1.00  0.00    +0.000 C 
ATOM     85  C63 UNL A   1      31.322  36.644  43.223  1.00  0.00    +0.000 C 
ATOM     86  F11 UNL A   1      31.083  37.162  44.437  1.00  0.00    +0.000 F 
ATOM     87  C64 UNL A   1      31.370  37.500  42.125  1.00  0.00    +0.000 C 
ATOM     88  F12 UNL A   1      31.170  38.814  42.293  1.00  0.00    +0.000 F 
ATOM     89  C65 UNL A   1      31.601  36.990  40.856  1.00  0.00    +0.000 C 
ATOM     90  F13 UNL A   1      31.644  37.813  39.799  1.00  0.00    +0.000 F 
ATOM     91  C66 UNL A   1      31.775  35.626  40.683  1.00  0.00    +0.000 C 
ATOM     92  F14 UNL A   1      32.012  35.131  39.460  1.00  0.00    +0.000 F 
ATOM     93  C67 UNL A   1      31.697  34.766  41.776  1.00  0.00    +0.000 C 
ATOM     94  F15 UNL A   1      31.851  33.449  41.576  1.00  0.00    +0.000 F 
ENDBRANCH   83   84
TORSDOF 29
ENDMDL
MODEL 8
REMARK VINA RESULT:      -7.3     43.239     47.464
ROOT
ATOM    163  H58 UNL A   1      21.223  17.623   4.839  1.00  0.00    +0.000 H 
ATOM    164  H59 UNL A   1      20.777  19.848   3.555  1.00  0.00    +0.000 H 
ATOM    165  H60 UNL A   1      17.657  19.228   6.205  1.00  0.00    +0.000 H 
ATOM    166  H61 UNL A   1      12.020  21.048   8.607  1.00  0.00    +0.000 H 
ATOM    167  H62 UNL A   1      12.488  18.909   9.896  1.00  0.00    +0.000 H 
ATOM    168  H63 UNL A   1      15.654  19.531   7.276  1.00  0.00    +0.000 H 
ATOM    169  H64 UNL A   1      14.682  23.839   4.898  1.00  0.00    +0.000 H 
ATOM    170  H65 UNL A   1      16.771  23.382   3.494  1.00  0.00    +0.000 H 
ATOM    171  H66 UNL A   1      18.664  15.081   8.816  1.00  0.00    +0.000 H 
ATOM    172  H67 UNL A   1      16.314  15.210   9.825  1.00  0.00    +0.000 H 
ATOM     47  C38 UNL A   1      14.907  17.596   9.150  1.00  0.00    +0.000 C 
ATOM     48  C39 UNL A   1      16.238  17.133   8.624  1.00  0.00    +0.000 C 
ATOM     49  N5  UNL A   1      17.031  17.706   7.754  1.00  0.00    +0.000 N 
ATOM     50  C40 UNL A   1      18.146  16.882   7.661  1.00  0.00    +0.000 C 
ATOM     51  C41 UNL A   1      19.216  16.999   6.840  1.00  0.00    +0.000 C 
ATOM     63  C48 UNL A   1      19.384  18.057   5.880  1.00  0.00    +0.000 C 
ATOM     64  C49 UNL A   1      20.413  18.247   4.974  1.00  0.00    +0.000 C 
ATOM     65  C50 UNL A   1      20.164  19.432   4.272  1.00  0.00    +0.000 C 
ATOM     66  C51 UNL A   1      18.953  19.950   4.704  1.00  0.00    +0.000 C 
ATOM     67  N6  UNL A   1      18.493  19.105   5.700  1.00  0.00    +0.000 N 
ATOM     68  C52 UNL A   1      18.267  21.128   4.239  1.00  0.00    +0.000 C 
ATOM     80  C59 UNL A   1      17.093  21.591   4.734  1.00  0.00    +0.000 C 
ATOM     81  N7  UNL A   1      16.296  21.060   5.739  1.00  0.00    +0.000 N 
ATOM     82  C60 UNL A   1      15.274  21.872   5.857  1.00  0.00    +0.000 C 
ATOM     83  C61 UNL A   1      14.073  21.768   6.760  1.00  0.00    +0.000 C 
ATOM     95  C68 UNL A   1      13.962  20.707   7.579  1.00  0.00    +0.000 C 
ATOM     96  C69 UNL A   1      12.854  20.451   8.495  1.00  0.00    +0.000 C 
ATOM     97  C70 UNL A   1      13.096  19.315   9.169  1.00  0.00    +0.000 C 
ATOM     98  C71 UNL A   1      14.362  18.745   8.706  1.00  0.00    +0.000 C 
ATOM     99  N8  UNL A   1      14.808  19.641   7.767  1.00  0.00    +0.000 N 
ATOM    100  C72 UNL A   1      15.330  23.038   4.965  1.00  0.00    +0.000 C 
ATOM    101  C73 UNL A   1      16.430  22.792   4.268  1.00  0.00    +0.000 C 
ATOM    102  C74 UNL A   1      17.958  15.805   8.608  1.00  0.00    +0.000 C 
ATOM    103  C75 UNL A   1      16.763  15.871   9.172  1.00  0.00    +0.000 C 
ENDROOT
BRANCH   47   46
ATOM    161  H56 UNL A   1      12.033  14.275  10.586  1.00  0.00    +0.000 H 
ATOM    162  H57 UNL A   1      13.149  15.557   8.854  1.00  0.00    +0.000 H 
ATOM    104  C76 UNL A   1      14.476  17.064  11.547  1.00  0.00    +0.000 C 
ATOM    105  C77 UNL A   1      13.907  16.268  12.534  1.00  0.00    +0.000 C 
ATOM     43  C34 UNL A   1      12.983  15.278  12.186  1.00  0.00    +0.000 C 
ATOM     44  C35 UNL A   1      12.703  15.017  10.843  1.00  0.00    +0.000 C 
ATOM     45  C36 UNL A   1      13.331  15.767   9.849  1.00  0.00    +0.000 C 
ATOM    174  H69 UNL A   1      14.168  16.405  13.524  1.00  0.00    +0.000 H 
ATOM    173  H68 UNL A   1      15.094  17.848  11.810  1.00  0.00    +0.000 H 
ATOM     46  C37 UNL A   1      14.212  16.806  10.194  1.00  0.00    +0.000 C 
BRANCH   43   41
ATOM     41  C33 UNL A   1      12.317  14.464  13.223  1.00  0.00    +0.000 C 
ATOM     42  O4  UNL A   1      12.308  14.845  14.391  1.00  0.00    +0.000 O 
BRANCH   41   40
ATOM    160  H55 UNL A   1      10.916  13.371  12.302  1.00  0.00    +0.000 H 
ATOM     40  N4  UNL A   1      11.709  13.287  12.879  1.00  0.00    +0.000 N 
BRANCH   40   39
ATOM    159  H54 UNL A   1      11.637  11.260  12.538  1.00  0.00    +0.000 H 
ATOM    158  H53 UNL A   1      11.711  11.729  14.236  1.00  0.00    +0.000 H 
ATOM     39  C32 UNL A   1      12.074  11.930  13.249  1.00  0.00    +0.000 C 
BRANCH   39   38
ATOM    156  H51 UNL A   1      14.052  12.686  13.175  1.00  0.00    +0.000 H 
ATOM    157  H52 UNL A   1      13.835  11.192  14.120  1.00  0.00    +0.000 H 
ATOM     38  C31 UNL A   1      13.584  11.726  13.228  1.00  0.00    +0.000 C 
BRANCH   38   37
ATOM    154  H49 UNL A   1      13.332  10.888  11.292  1.00  0.00    +0.000 H 
ATOM    155  H50 UNL A   1      15.008  11.320  11.737  1.00  0.00    +0.000 H 
ATOM     37  C30 UNL A   1      14.085  10.881  12.053  1.00  0.00    +0.000 C 
BRANCH   37   36
ATOM    153  H48 UNL A   1      14.834   9.424  13.377  1.00  0.00    +0.000 H 
ATOM     36  C29 UNL A   1      14.398   9.420  12.400  1.00  0.00    +0.000 C 
ATOM    152  H47 UNL A   1      15.056   9.031  11.652  1.00  0.00    +0.000 H 
BRANCH   36   35
ATOM     35  C28 UNL A   1      13.168   8.513  12.473  1.00  0.00    +0.000 C 
ATOM    150  H45 UNL A   1      13.494   7.506  12.631  1.00  0.00    +0.000 H 
ATOM    151  H46 UNL A   1      12.557   8.863  13.279  1.00  0.00    +0.000 H 
BRANCH   35   34
ATOM     34  C27 UNL A   1      12.322   8.558  11.202  1.00  0.00    +0.000 C 
ATOM    148  H43 UNL A   1      11.305   8.760  11.464  1.00  0.00    +0.000 H 
ATOM    149  H44 UNL A   1      12.702   9.327  10.563  1.00  0.00    +0.000 H 
BRANCH   34   33
ATOM     33  N3  UNL A   1      12.389   7.287  10.494  1.00  0.00    +0.000 N 
ATOM    147  H42 UNL A   1      12.545   7.363   9.524  1.00  0.00    +0.000 H 
BRANCH   33   31
ATOM     31  C26 UNL A   1      12.268   6.003  10.958  1.00  0.00    +0.000 C 
ATOM     32  O3  UNL A   1      11.230   5.702  11.555  1.00  0.00    +0.000 O 
BRANCH   31    5
ATOM    115  H10 UNL A   1      13.341   4.230   9.954  1.00  0.00    +0.000 H 
ATOM      5  C5  UNL A   1      13.390   4.968  10.727  1.00  0.00    +0.000 C 
BRANCH    5    4
ATOM    113  H8  UNL A   1      14.405   6.096   9.244  1.00  0.00    +0.000 H 
ATOM    114  H9  UNL A   1      14.754   6.494  11.011  1.00  0.00    +0.000 H 
ATOM      4  C4  UNL A   1      14.633   5.766  10.236  1.00  0.00    +0.000 C 
BRANCH    4    3
ATOM      3  C3  UNL A   1      16.022   5.135  10.168  1.00  0.00    +0.000 C 
ATOM    111  H6  UNL A   1      16.708   5.816  10.626  1.00  0.00    +0.000 H 
ATOM    112  H7  UNL A   1      15.924   4.191  10.662  1.00  0.00    +0.000 H 
BRANCH    3    2
ATOM      2  C2  UNL A   1      16.566   4.799   8.780  1.00  0.00    +0.000 C 
ATOM    109  H4  UNL A   1      16.366   5.623   8.127  1.00  0.00    +0.000 H 
ATOM    110  H5  UNL A   1      17.615   4.615   8.884  1.00  0.00    +0.000 H 
BRANCH    2    1
ATOM      1  C1  UNL A   1      15.945   3.550   8.182  1.00  0.00    +0.000 C 
ATOM    106  H1  UNL A   1      15.465   2.985   8.955  1.00  0.00    +0.000 H 
ATOM    107  H2  UNL A   1      16.708   2.955   7.727  1.00  0.00    +0.000 H 
ATOM    108  H3  UNL A   1      15.222   3.829   7.444  1.00  0.00    +0.000 H 
ENDBRANCH    2    1
ENDBRANCH    3    2
ENDBRANCH    4    3
ENDBRANCH    5    4
BRANCH    5    6
ATOM      6  S1  UNL A   1      13.333   3.959  12.310  1.00  0.00    +0.000 S 
BRANCH    6    7
ATOM    131  H26 UNL A   1      15.753   5.826  16.556  1.00  0.00    +0.000 H 
ATOM      7  C6  UNL A   1      13.813   5.090  13.569  1.00  0.00    +0.000 C 
ATOM      8  N1  UNL A   1      14.980   5.740  13.381  1.00  0.00    +0.000 N 
ATOM      9  C7  UNL A   1      15.632   6.110  14.487  1.00  0.00    +0.000 C 
ATOM     19  C16 UNL A   1      15.156   5.764  15.717  1.00  0.00    +0.000 C 
ATOM     20  C17 UNL A   1      13.866   5.332  15.800  1.00  0.00    +0.000 C 
ATOM     30  N2  UNL A   1      13.168   4.991  14.726  1.00  0.00    +0.000 N 
BRANCH    9   10
ATOM     10  O1  UNL A   1      16.770   6.858  14.294  1.00  0.00    +0.000 O 
BRANCH   10   11
ATOM     11  C8  UNL A   1      17.833   6.302  13.508  1.00  0.00    +0.000 C 
ATOM    116  H11 UNL A   1      18.604   7.041  13.437  1.00  0.00    +0.000 H 
ATOM    117  H12 UNL A   1      17.383   6.033  12.575  1.00  0.00    +0.000 H 
BRANCH   11   12
ATOM     12  C9  UNL A   1      18.481   4.995  14.040  1.00  0.00    +0.000 C 
ATOM    118  H13 UNL A   1      17.939   4.697  14.914  1.00  0.00    +0.000 H 
ATOM    119  H14 UNL A   1      19.508   5.242  14.213  1.00  0.00    +0.000 H 
BRANCH   12   13
ATOM    129  H24 UNL A   1      20.112   4.628  11.928  1.00  0.00    +0.000 H 
ATOM    130  H25 UNL A   1      18.545   4.750  11.166  1.00  0.00    +0.000 H 
ATOM     13  C10 UNL A   1      18.514   3.795  13.081  1.00  0.00    +0.000 C 
ATOM     14  C11 UNL A   1      17.142   3.159  12.809  1.00  0.00    +0.000 C 
ATOM     15  C12 UNL A   1      17.309   1.856  12.016  1.00  0.00    +0.000 C 
ATOM     16  C13 UNL A   1      18.187   2.002  10.772  1.00  0.00    +0.000 C 
ATOM     17  C14 UNL A   1      19.457   2.826  10.986  1.00  0.00    +0.000 C 
ATOM     18  C15 UNL A   1      19.187   4.121  11.747  1.00  0.00    +0.000 C 
ATOM    120  H15 UNL A   1      19.103   3.074  13.608  1.00  0.00    +0.000 H 
ATOM    121  H16 UNL A   1      16.542   3.842  12.245  1.00  0.00    +0.000 H 
ATOM    122  H17 UNL A   1      16.668   2.941  13.743  1.00  0.00    +0.000 H 
ATOM    123  H18 UNL A   1      16.340   1.521  11.708  1.00  0.00    +0.000 H 
ATOM    124  H19 UNL A   1      17.795   1.156  12.662  1.00  0.00    +0.000 H 
ATOM    125  H20 UNL A   1      17.607   2.475  10.007  1.00  0.00    +0.000 H 
ATOM    126  H21 UNL A   1      18.505   1.016  10.505  1.00  0.00    +0.000 H 
ATOM    127  H22 UNL A   1      19.875   3.068  10.031  1.00  0.00    +0.000 H 
ATOM    128  H23 UNL A   1      20.132   2.238  11.571  1.00  0.00    +0.000 H 
ENDBRANCH   12   13
ENDBRANCH   11   12
ENDBRANCH   10   11
ENDBRANCH    9   10
BRANCH   20   21
ATOM     21  O2  UNL A   1      13.321   4.939  16.991  1.00  0.00    +0.000 O 
BRANCH   21   22
ATOM    132  H27 UNL A   1      11.894   6.399  16.811  1.00  0.00    +0.000 H 
ATOM    133  H28 UNL A   1      12.948   6.558  18.194  1.00  0.00    +0.000 H 
ATOM     22  C18 UNL A   1      12.409   5.866  17.582  1.00  0.00    +0.000 C 
BRANCH   22   23
ATOM    135  H30 UNL A   1      11.426   5.506  19.437  1.00  0.00    +0.000 H 
ATOM    134  H29 UNL A   1      10.415   5.205  18.015  1.00  0.00    +0.000 H 
ATOM     23  C19 UNL A   1      11.386   5.096  18.450  1.00  0.00    +0.000 C 
BRANCH   23   24
ATOM    136  H31 UNL A   1      12.706   3.575  18.175  1.00  0.00    +0.000 H 
ATOM    137  H32 UNL A   1      10.598   2.859  20.241  1.00  0.00    +0.000 H 
ATOM    138  H33 UNL A   1      11.973   3.812  20.686  1.00  0.00    +0.000 H 
ATOM    139  H34 UNL A   1      12.516   1.481  21.087  1.00  0.00    +0.000 H 
ATOM    140  H35 UNL A   1      13.443   2.004  19.709  1.00  0.00    +0.000 H 
ATOM    141  H36 UNL A   1      10.905   0.407  19.723  1.00  0.00    +0.000 H 
ATOM    142  H37 UNL A   1      12.506  -0.052  19.098  1.00  0.00    +0.000 H 
ATOM    143  H38 UNL A   1      10.658   0.545  17.429  1.00  0.00    +0.000 H 
ATOM    144  H39 UNL A   1      12.308   1.220  17.242  1.00  0.00    +0.000 H 
ATOM    145  H40 UNL A   1      10.839   2.973  16.707  1.00  0.00    +0.000 H 
ATOM    146  H41 UNL A   1       9.840   2.659  18.109  1.00  0.00    +0.000 H 
ATOM     24  C20 UNL A   1      11.708   3.596  18.560  1.00  0.00    +0.000 C 
ATOM     25  C21 UNL A   1      11.616   3.078  19.994  1.00  0.00    +0.000 C 
ATOM     26  C22 UNL A   1      12.455   1.810  20.071  1.00  0.00    +0.000 C 
ATOM     27  C23 UNL A   1      11.791   0.735  19.222  1.00  0.00    +0.000 C 
ATOM     28  C24 UNL A   1      11.402   1.213  17.811  1.00  0.00    +0.000 C 
ATOM     29  C25 UNL A   1      10.839   2.649  17.727  1.00  0.00    +0.000 C 
ENDBRANCH   23   24
ENDBRANCH   22   23
ENDBRANCH   21   22
ENDBRANCH   20   21
ENDBRANCH    6    7
ENDBRANCH    5    6
ENDBRANCH   31    5
ENDBRANCH   33   31
ENDBRANCH   34   33
ENDBRANCH   35   34
ENDBRANCH   36   35
ENDBRANCH   37   36
ENDBRANCH   38   37
ENDBRANCH   39   38
ENDBRANCH   40   39
ENDBRANCH   41   40
ENDBRANCH   43   41
ENDBRANCH   47   46
BRANCH   51   52
ATOM     52  C42 UNL A   1      20.284  15.947   6.938  1.00  0.00    +0.000 C 
ATOM     53  C43 UNL A   1      20.275  14.811   6.112  1.00  0.00    +0.000 C 
ATOM     54  F1  UNL A   1      19.274  14.619   5.240  1.00  0.00    +0.000 F 
ATOM     55  C44 UNL A   1      21.274  13.847   6.209  1.00  0.00    +0.000 C 
ATOM     56  F2  UNL A   1      21.216  12.746   5.446  1.00  0.00    +0.000 F 
ATOM     57  C45 UNL A   1      22.320  14.015   7.102  1.00  0.00    +0.000 C 
ATOM     58  F3  UNL A   1      23.286  13.089   7.188  1.00  0.00    +0.000 F 
ATOM     59  C46 UNL A   1      22.363  15.139   7.912  1.00  0.00    +0.000 C 
ATOM     60  F4  UNL A   1      23.381  15.310   8.767  1.00  0.00    +0.000 F 
ATOM     61  C47 UNL A   1      21.347  16.091   7.842  1.00  0.00    +0.000 C 
ATOM     62  F5  UNL A   1      21.408  17.159   8.651  1.00  0.00    +0.000 F 
ENDBRANCH   51   52
BRANCH   68   69
ATOM     69  C53 UNL A   1      18.879  21.885   3.097  1.00  0.00    +0.000 C 
ATOM     70  C54 UNL A   1      18.661  21.518   1.762  1.00  0.00    +0.000 C 
ATOM     71  F6  UNL A   1      17.924  20.435   1.471  1.00  0.00    +0.000 F 
ATOM     72  C55 UNL A   1      19.237  22.238   0.719  1.00  0.00    +0.000 C 
ATOM     73  F7  UNL A   1      19.059  21.837  -0.547  1.00  0.00    +0.000 F 
ATOM     74  C56 UNL A   1      20.008  23.359   0.988  1.00  0.00    +0.000 C 
ATOM     75  F8  UNL A   1      20.557  24.054  -0.017  1.00  0.00    +0.000 F 
ATOM     76  C57 UNL A   1      20.218  23.754   2.301  1.00  0.00    +0.000 C 
ATOM     77  F9  UNL A   1      20.949  24.846   2.563  1.00  0.00    +0.000 F 
ATOM     78  C58 UNL A   1      19.669  23.018   3.347  1.00  0.00    +0.000 C 
ATOM     79  F10 UNL A   1      19.903  23.417   4.606  1.00  0.00    +0.000 F 
ENDBRANCH   68   69
BRANCH   83   84
ATOM     84  C62 UNL A   1      13.004  22.800   6.725  1.00  0.00    +0.000 C 
ATOM     85  C63 UNL A   1      11.981  22.742   5.767  1.00  0.00    +0.000 C 
ATOM     86  F11 UNL A   1      11.960  21.745   4.869  1.00  0.00    +0.000 F 
ATOM     87  C64 UNL A   1      11.004  23.733   5.695  1.00  0.00    +0.000 C 
ATOM     88  F12 UNL A   1      10.071  23.683   4.734  1.00  0.00    +0.000 F 
ATOM     89  C65 UNL A   1      11.010  24.782   6.602  1.00  0.00    +0.000 C 
ATOM     90  F13 UNL A   1      10.073  25.737   6.531  1.00  0.00    +0.000 F 
ATOM     91  C66 UNL A   1      11.996  24.846   7.574  1.00  0.00    +0.000 C 
ATOM     92  F14 UNL A   1      11.998  25.851   8.461  1.00  0.00    +0.000 F 
ATOM     93  C67 UNL A   1      12.991  23.872   7.627  1.00  0.00    +0.000 C 
ATOM     94  F15 UNL A   1      13.943  23.970   8.567  1.00  0.00    +0.000 F 
ENDBRANCH   83   84
TORSDOF 29
ENDMDL
MODEL 9
REMARK VINA RESULT:      -7.3      6.394     14.465
ROOT
ATOM    163  H58 UNL A   1      19.674  33.840  47.297  1.00  0.00    +0.000 H 
ATOM    164  H59 UNL A   1      17.729  35.173  48.410  1.00  0.00    +0.000 H 
ATOM    165  H60 UNL A   1      20.981  37.704  48.019  1.00  0.00    +0.000 H 
ATOM    166  H61 UNL A   1      23.677  43.412  49.025  1.00  0.00    +0.000 H 
ATOM    167  H62 UNL A   1      25.550  42.127  47.888  1.00  0.00    +0.000 H 
ATOM    168  H63 UNL A   1      22.285  39.577  48.227  1.00  0.00    +0.000 H 
ATOM    169  H64 UNL A   1      18.622  42.265  50.355  1.00  0.00    +0.000 H 
ATOM    170  H65 UNL A   1      17.241  40.112  50.387  1.00  0.00    +0.000 H 
ATOM    171  H66 UNL A   1      24.609  35.187  45.667  1.00  0.00    +0.000 H 
ATOM    172  H67 UNL A   1      26.195  37.143  46.134  1.00  0.00    +0.000 H 
ATOM     47  C38 UNL A   1      24.905  39.418  47.268  1.00  0.00    +0.000 C 
ATOM     48  C39 UNL A   1      24.311  38.063  46.999  1.00  0.00    +0.000 C 
ATOM     49  N5  UNL A   1      23.096  37.630  47.224  1.00  0.00    +0.000 N 
ATOM     50  C40 UNL A   1      23.067  36.325  46.751  1.00  0.00    +0.000 C 
ATOM     51  C41 UNL A   1      22.060  35.423  46.821  1.00  0.00    +0.000 C 
ATOM     63  C48 UNL A   1      20.782  35.687  47.426  1.00  0.00    +0.000 C 
ATOM     64  C49 UNL A   1      19.705  34.831  47.583  1.00  0.00    +0.000 C 
ATOM     65  C50 UNL A   1      18.668  35.541  48.197  1.00  0.00    +0.000 C 
ATOM     66  C51 UNL A   1      19.117  36.823  48.472  1.00  0.00    +0.000 C 
ATOM     67  N6  UNL A   1      20.410  36.903  47.981  1.00  0.00    +0.000 N 
ATOM     68  C52 UNL A   1      18.419  37.894  49.135  1.00  0.00    +0.000 C 
ATOM     80  C59 UNL A   1      18.916  39.138  49.342  1.00  0.00    +0.000 C 
ATOM     81  N7  UNL A   1      20.162  39.650  49.003  1.00  0.00    +0.000 N 
ATOM     82  C60 UNL A   1      20.161  40.897  49.405  1.00  0.00    +0.000 C 
ATOM     83  C61 UNL A   1      21.264  41.921  49.340  1.00  0.00    +0.000 C 
ATOM     95  C68 UNL A   1      22.453  41.567  48.819  1.00  0.00    +0.000 C 
ATOM     96  C69 UNL A   1      23.623  42.433  48.704  1.00  0.00    +0.000 C 
ATOM     97  C70 UNL A   1      24.616  41.750  48.112  1.00  0.00    +0.000 C 
ATOM     98  C71 UNL A   1      24.162  40.386  47.838  1.00  0.00    +0.000 C 
ATOM     99  N8  UNL A   1      22.865  40.371  48.285  1.00  0.00    +0.000 N 
ATOM    100  C72 UNL A   1      18.893  41.331  50.008  1.00  0.00    +0.000 C 
ATOM    101  C73 UNL A   1      18.189  40.209  49.990  1.00  0.00    +0.000 C 
ATOM    102  C74 UNL A   1      24.363  36.055  46.169  1.00  0.00    +0.000 C 
ATOM    103  C75 UNL A   1      25.192  37.069  46.365  1.00  0.00    +0.000 C 
ENDROOT
BRANCH   47   46
ATOM    161  H56 UNL A   1      29.485  39.296  47.871  1.00  0.00    +0.000 H 
ATOM    162  H57 UNL A   1      27.207  38.823  48.564  1.00  0.00    +0.000 H 
ATOM    104  C76 UNL A   1      26.553  40.332  45.636  1.00  0.00    +0.000 C 
ATOM    105  C77 UNL A   1      27.859  40.518  45.199  1.00  0.00    +0.000 C 
ATOM     43  C34 UNL A   1      28.929  40.179  46.033  1.00  0.00    +0.000 C 
ATOM     44  C35 UNL A   1      28.694  39.562  47.263  1.00  0.00    +0.000 C 
ATOM     45  C36 UNL A   1      27.384  39.306  47.669  1.00  0.00    +0.000 C 
ATOM    174  H69 UNL A   1      28.040  40.905  44.259  1.00  0.00    +0.000 H 
ATOM    173  H68 UNL A   1      25.764  40.659  45.055  1.00  0.00    +0.000 H 
ATOM     46  C37 UNL A   1      26.303  39.703  46.864  1.00  0.00    +0.000 C 
BRANCH   43   41
ATOM     41  C33 UNL A   1      30.324  40.428  45.616  1.00  0.00    +0.000 C 
ATOM     42  O4  UNL A   1      30.898  41.453  45.975  1.00  0.00    +0.000 O 
BRANCH   41   40
ATOM    160  H55 UNL A   1      31.953  39.607  44.791  1.00  0.00    +0.000 H 
ATOM     40  N4  UNL A   1      30.974  39.512  44.835  1.00  0.00    +0.000 N 
BRANCH   40   39
ATOM    159  H54 UNL A   1      31.149  38.109  43.341  1.00  0.00    +0.000 H 
ATOM    158  H53 UNL A   1      29.525  38.754  43.572  1.00  0.00    +0.000 H 
ATOM     39  C32 UNL A   1      30.417  38.417  44.057  1.00  0.00    +0.000 C 
BRANCH   39   38
ATOM    156  H51 UNL A   1      30.885  37.064  45.620  1.00  0.00    +0.000 H 
ATOM    157  H52 UNL A   1      29.157  37.448  45.427  1.00  0.00    +0.000 H 
ATOM     38  C31 UNL A   1      30.078  37.218  44.935  1.00  0.00    +0.000 C 
BRANCH   38   37
ATOM    154  H49 UNL A   1      30.553  35.884  43.352  1.00  0.00    +0.000 H 
ATOM    155  H50 UNL A   1      29.974  35.122  44.861  1.00  0.00    +0.000 H 
ATOM     37  C30 UNL A   1      29.850  35.918  44.158  1.00  0.00    +0.000 C 
BRANCH   37   36
ATOM    153  H48 UNL A   1      28.460  36.224  42.606  1.00  0.00    +0.000 H 
ATOM     36  C29 UNL A   1      28.442  35.760  43.570  1.00  0.00    +0.000 C 
ATOM    152  H47 UNL A   1      27.745  36.218  44.240  1.00  0.00    +0.000 H 
BRANCH   36   35
ATOM     35  C28 UNL A   1      28.011  34.309  43.350  1.00  0.00    +0.000 C 
ATOM    150  H45 UNL A   1      26.945  34.256  43.411  1.00  0.00    +0.000 H 
ATOM    151  H46 UNL A   1      28.370  34.008  42.388  1.00  0.00    +0.000 H 
BRANCH   35   34
ATOM     34  C27 UNL A   1      28.606  33.351  44.382  1.00  0.00    +0.000 C 
ATOM    148  H43 UNL A   1      29.036  32.513  43.876  1.00  0.00    +0.000 H 
ATOM    149  H44 UNL A   1      29.354  33.871  44.942  1.00  0.00    +0.000 H 
BRANCH   34   33
ATOM     33  N3  UNL A   1      27.579  32.879  45.299  1.00  0.00    +0.000 N 
ATOM    147  H42 UNL A   1      26.943  32.235  44.911  1.00  0.00    +0.000 H 
BRANCH   33   31
ATOM     31  C26 UNL A   1      27.353  33.188  46.616  1.00  0.00    +0.000 C 
ATOM     32  O3  UNL A   1      26.291  32.811  47.121  1.00  0.00    +0.000 O 
BRANCH   31    5
ATOM    115  H10 UNL A   1      29.304  34.345  47.007  1.00  0.00    +0.000 H 
ATOM      5  C5  UNL A   1      28.399  33.971  47.438  1.00  0.00    +0.000 C 
BRANCH    5    4
ATOM    113  H8  UNL A   1      28.434  36.087  47.583  1.00  0.00    +0.000 H 
ATOM    114  H9  UNL A   1      26.802  35.274  47.305  1.00  0.00    +0.000 H 
ATOM      4  C4  UNL A   1      27.731  35.320  47.833  1.00  0.00    +0.000 C 
BRANCH    4    3
ATOM      3  C3  UNL A   1      27.275  35.607  49.262  1.00  0.00    +0.000 C 
ATOM    111  H6  UNL A   1      27.838  34.973  49.914  1.00  0.00    +0.000 H 
ATOM    112  H7  UNL A   1      27.437  36.656  49.399  1.00  0.00    +0.000 H 
BRANCH    3    2
ATOM      2  C2  UNL A   1      25.795  35.393  49.576  1.00  0.00    +0.000 C 
ATOM    109  H4  UNL A   1      25.274  35.216  48.658  1.00  0.00    +0.000 H 
ATOM    110  H5  UNL A   1      25.728  34.557  50.242  1.00  0.00    +0.000 H 
BRANCH    2    1
ATOM      1  C1  UNL A   1      25.155  36.579  50.273  1.00  0.00    +0.000 C 
ATOM    106  H1  UNL A   1      24.153  36.704  49.917  1.00  0.00    +0.000 H 
ATOM    107  H2  UNL A   1      25.720  37.462  50.065  1.00  0.00    +0.000 H 
ATOM    108  H3  UNL A   1      25.138  36.405  51.329  1.00  0.00    +0.000 H 
ENDBRANCH    2    1
ENDBRANCH    3    2
ENDBRANCH    4    3
ENDBRANCH    5    4
BRANCH    5    6
ATOM      6  S1  UNL A   1      28.991  32.678  48.665  1.00  0.00    +0.000 S 
BRANCH    6    7
ATOM    131  H26 UNL A   1      33.310  30.118  47.195  1.00  0.00    +0.000 H 
ATOM      7  C6  UNL A   1      30.045  31.630  47.723  1.00  0.00    +0.000 C 
ATOM      8  N1  UNL A   1      30.203  30.370  48.178  1.00  0.00    +0.000 N 
ATOM      9  C7  UNL A   1      31.362  29.778  47.880  1.00  0.00    +0.000 C 
ATOM     19  C16 UNL A   1      32.339  30.466  47.222  1.00  0.00    +0.000 C 
ATOM     20  C17 UNL A   1      31.991  31.628  46.603  1.00  0.00    +0.000 C 
ATOM     30  N2  UNL A   1      30.834  32.231  46.838  1.00  0.00    +0.000 N 
BRANCH    9   10
ATOM     10  O1  UNL A   1      31.481  28.461  48.258  1.00  0.00    +0.000 O 
BRANCH   10   11
ATOM     11  C8  UNL A   1      32.795  27.910  48.425  1.00  0.00    +0.000 C 
ATOM    116  H11 UNL A   1      33.357  28.140  47.545  1.00  0.00    +0.000 H 
ATOM    117  H12 UNL A   1      32.642  26.865  48.598  1.00  0.00    +0.000 H 
BRANCH   11   12
ATOM     12  C9  UNL A   1      33.608  28.410  49.650  1.00  0.00    +0.000 C 
ATOM    118  H13 UNL A   1      32.928  28.516  50.469  1.00  0.00    +0.000 H 
ATOM    119  H14 UNL A   1      34.067  29.322  49.327  1.00  0.00    +0.000 H 
BRANCH   12   13
ATOM    129  H24 UNL A   1      34.626  28.227  52.137  1.00  0.00    +0.000 H 
ATOM    130  H25 UNL A   1      35.964  28.903  51.241  1.00  0.00    +0.000 H 
ATOM     13  C10 UNL A   1      34.771  27.523  50.122  1.00  0.00    +0.000 C 
ATOM     14  C11 UNL A   1      35.880  27.317  49.078  1.00  0.00    +0.000 C 
ATOM     15  C12 UNL A   1      36.878  26.260  49.566  1.00  0.00    +0.000 C 
ATOM     16  C13 UNL A   1      37.395  26.511  50.984  1.00  0.00    +0.000 C 
ATOM     17  C14 UNL A   1      36.318  26.931  51.985  1.00  0.00    +0.000 C 
ATOM     18  C15 UNL A   1      35.398  28.014  51.427  1.00  0.00    +0.000 C 
ATOM    120  H15 UNL A   1      34.305  26.574  50.287  1.00  0.00    +0.000 H 
ATOM    121  H16 UNL A   1      36.394  28.243  48.921  1.00  0.00    +0.000 H 
ATOM    122  H17 UNL A   1      35.438  26.984  48.162  1.00  0.00    +0.000 H 
ATOM    123  H18 UNL A   1      37.715  26.252  48.898  1.00  0.00    +0.000 H 
ATOM    124  H19 UNL A   1      36.360  25.324  49.582  1.00  0.00    +0.000 H 
ATOM    125  H20 UNL A   1      38.131  27.286  50.940  1.00  0.00    +0.000 H 
ATOM    126  H21 UNL A   1      37.790  25.580  51.334  1.00  0.00    +0.000 H 
ATOM    127  H22 UNL A   1      36.795  27.305  52.867  1.00  0.00    +0.000 H 
ATOM    128  H23 UNL A   1      35.718  26.072  52.200  1.00  0.00    +0.000 H 
ENDBRANCH   12   13
ENDBRANCH   11   12
ENDBRANCH   10   11
ENDBRANCH    9   10
BRANCH   20   21
ATOM     21  O2  UNL A   1      32.915  32.392  45.946  1.00  0.00    +0.000 O 
BRANCH   21   22
ATOM    132  H27 UNL A   1      34.542  33.149  46.937  1.00  0.00    +0.000 H 
ATOM    133  H28 UNL A   1      32.995  33.534  47.647  1.00  0.00    +0.000 H 
ATOM     22  C18 UNL A   1      33.528  33.418  46.728  1.00  0.00    +0.000 C 
BRANCH   22   23
ATOM    135  H30 UNL A   1      34.512  35.054  45.784  1.00  0.00    +0.000 H 
ATOM    134  H29 UNL A   1      32.985  34.590  45.016  1.00  0.00    +0.000 H 
ATOM     23  C19 UNL A   1      33.499  34.750  45.940  1.00  0.00    +0.000 C 
BRANCH   23   24
ATOM    136  H31 UNL A   1      32.052  36.178  45.990  1.00  0.00    +0.000 H 
ATOM    137  H32 UNL A   1      32.924  35.376  48.787  1.00  0.00    +0.000 H 
ATOM    138  H33 UNL A   1      31.776  34.415  47.917  1.00  0.00    +0.000 H 
ATOM    139  H34 UNL A   1      30.545  36.030  49.247  1.00  0.00    +0.000 H 
ATOM    140  H35 UNL A   1      30.399  36.506  47.579  1.00  0.00    +0.000 H 
ATOM    141  H36 UNL A   1      32.231  37.640  49.665  1.00  0.00    +0.000 H 
ATOM    142  H37 UNL A   1      30.944  38.458  48.750  1.00  0.00    +0.000 H 
ATOM    143  H38 UNL A   1      33.384  38.929  48.132  1.00  0.00    +0.000 H 
ATOM    144  H39 UNL A   1      32.171  38.588  46.858  1.00  0.00    +0.000 H 
ATOM    145  H40 UNL A   1      34.125  37.468  46.192  1.00  0.00    +0.000 H 
ATOM    146  H41 UNL A   1      34.379  36.808  47.792  1.00  0.00    +0.000 H 
ATOM     24  C20 UNL A   1      32.789  35.879  46.707  1.00  0.00    +0.000 C 
ATOM     25  C21 UNL A   1      32.177  35.401  48.021  1.00  0.00    +0.000 C 
ATOM     26  C22 UNL A   1      31.082  36.391  48.395  1.00  0.00    +0.000 C 
ATOM     27  C23 UNL A   1      31.728  37.730  48.726  1.00  0.00    +0.000 C 
ATOM     28  C24 UNL A   1      32.747  38.202  47.672  1.00  0.00    +0.000 C 
ATOM     29  C25 UNL A   1      33.643  37.096  47.072  1.00  0.00    +0.000 C 
ENDBRANCH   23   24
ENDBRANCH   22   23
ENDBRANCH   21   22
ENDBRANCH   20   21
ENDBRANCH    6    7
ENDBRANCH    5    6
ENDBRANCH   31    5
ENDBRANCH   33   31
ENDBRANCH   34   33
ENDBRANCH   35   34
ENDBRANCH   36   35
ENDBRANCH   37   36
ENDBRANCH   38   37
ENDBRANCH   39   38
ENDBRANCH   40   39
ENDBRANCH   41   40
ENDBRANCH   43   41
ENDBRANCH   47   46
BRANCH   51   52
ATOM     52  C42 UNL A   1      22.305  34.061  46.236  1.00  0.00    +0.000 C 
ATOM     53  C43 UNL A   1      22.518  32.938  47.052  1.00  0.00    +0.000 C 
ATOM     54  F1  UNL A   1      22.553  33.071  48.387  1.00  0.00    +0.000 F 
ATOM     55  C44 UNL A   1      22.739  31.680  46.498  1.00  0.00    +0.000 C 
ATOM     56  F2  UNL A   1      22.991  30.634  47.296  1.00  0.00    +0.000 F 
ATOM     57  C45 UNL A   1      22.712  31.512  45.123  1.00  0.00    +0.000 C 
ATOM     58  F3  UNL A   1      22.916  30.298  44.590  1.00  0.00    +0.000 F 
ATOM     59  C46 UNL A   1      22.481  32.601  44.297  1.00  0.00    +0.000 C 
ATOM     60  F4  UNL A   1      22.442  32.437  42.967  1.00  0.00    +0.000 F 
ATOM     61  C47 UNL A   1      22.293  33.868  44.847  1.00  0.00    +0.000 C 
ATOM     62  F5  UNL A   1      22.089  34.905  44.020  1.00  0.00    +0.000 F 
ENDBRANCH   51   52
BRANCH   68   69
ATOM     69  C53 UNL A   1      17.047  37.604  49.669  1.00  0.00    +0.000 C 
ATOM     70  C54 UNL A   1      16.793  37.500  51.044  1.00  0.00    +0.000 C 
ATOM     71  F6  UNL A   1      17.796  37.613  51.927  1.00  0.00    +0.000 F 
ATOM     72  C55 UNL A   1      15.510  37.234  51.516  1.00  0.00    +0.000 C 
ATOM     73  F7  UNL A   1      15.301  37.085  52.831  1.00  0.00    +0.000 F 
ATOM     74  C56 UNL A   1      14.453  37.106  50.627  1.00  0.00    +0.000 C 
ATOM     75  F8  UNL A   1      13.219  36.855  51.084  1.00  0.00    +0.000 F 
ATOM     76  C57 UNL A   1      14.677  37.229  49.264  1.00  0.00    +0.000 C 
ATOM     77  F9  UNL A   1      13.655  37.121  48.405  1.00  0.00    +0.000 F 
ATOM     78  C58 UNL A   1      15.963  37.463  48.787  1.00  0.00    +0.000 C 
ATOM     79  F10 UNL A   1      16.151  37.562  47.463  1.00  0.00    +0.000 F 
ENDBRANCH   68   69
BRANCH   83   84
ATOM     84  C62 UNL A   1      21.061  43.292  49.876  1.00  0.00    +0.000 C 
ATOM     85  C63 UNL A   1      21.328  43.585  51.221  1.00  0.00    +0.000 C 
ATOM     86  F11 UNL A   1      21.773  42.620  52.041  1.00  0.00    +0.000 F 
ATOM     87  C64 UNL A   1      21.092  44.855  51.743  1.00  0.00    +0.000 C 
ATOM     88  F12 UNL A   1      21.302  45.092  53.045  1.00  0.00    +0.000 F 
ATOM     89  C65 UNL A   1      20.618  45.867  50.921  1.00  0.00    +0.000 C 
ATOM     90  F13 UNL A   1      20.388  47.088  51.423  1.00  0.00    +0.000 F 
ATOM     91  C66 UNL A   1      20.372  45.608  49.582  1.00  0.00    +0.000 C 
ATOM     92  F14 UNL A   1      19.927  46.587  48.782  1.00  0.00    +0.000 F 
ATOM     93  C67 UNL A   1      20.579  44.330  49.066  1.00  0.00    +0.000 C 
ATOM     94  F15 UNL A   1      20.314  44.105  47.771  1.00  0.00    +0.000 F 
ENDBRANCH   83   84
TORSDOF 29
ENDMDL
MODEL 10
REMARK VINA RESULT:      -7.2     43.864     49.937
ROOT
ATOM    163  H58 UNL A   1      12.960  61.374   2.837  1.00  0.00    +0.000 H 
ATOM    164  H59 UNL A   1      14.004  60.488   0.618  1.00  0.00    +0.000 H 
ATOM    165  H60 UNL A   1      13.978  57.395   3.370  1.00  0.00    +0.000 H 
ATOM    166  H61 UNL A   1      15.474  51.374   4.911  1.00  0.00    +0.000 H 
ATOM    167  H62 UNL A   1      14.404  52.226   7.052  1.00  0.00    +0.000 H 
ATOM    168  H63 UNL A   1      14.377  55.336   4.294  1.00  0.00    +0.000 H 
ATOM    169  H64 UNL A   1      16.383  53.493   0.082  1.00  0.00    +0.000 H 
ATOM    170  H65 UNL A   1      16.203  55.856  -0.881  1.00  0.00    +0.000 H 
ATOM    171  H66 UNL A   1      11.754  59.062   7.530  1.00  0.00    +0.000 H 
ATOM    172  H67 UNL A   1      12.435  56.888   8.701  1.00  0.00    +0.000 H 
ATOM     47  C38 UNL A   1      13.596  54.960   6.951  1.00  0.00    +0.000 C 
ATOM     48  C39 UNL A   1      13.214  56.379   6.632  1.00  0.00    +0.000 C 
ATOM     49  N5  UNL A   1      13.330  57.036   5.506  1.00  0.00    +0.000 N 
ATOM     50  C40 UNL A   1      12.786  58.292   5.744  1.00  0.00    +0.000 C 
ATOM     51  C41 UNL A   1      12.737  59.363   4.917  1.00  0.00    +0.000 C 
ATOM     63  C48 UNL A   1      13.265  59.371   3.578  1.00  0.00    +0.000 C 
ATOM     64  C49 UNL A   1      13.300  60.415   2.669  1.00  0.00    +0.000 C 
ATOM     65  C50 UNL A   1      13.877  59.944   1.485  1.00  0.00    +0.000 C 
ATOM     66  C51 UNL A   1      14.250  58.623   1.675  1.00  0.00    +0.000 C 
ATOM     67  N6  UNL A   1      13.856  58.280   2.959  1.00  0.00    +0.000 N 
ATOM     68  C52 UNL A   1      14.920  57.740   0.755  1.00  0.00    +0.000 C 
ATOM     80  C59 UNL A   1      15.227  56.444   1.003  1.00  0.00    +0.000 C 
ATOM     81  N7  UNL A   1      15.005  55.696   2.152  1.00  0.00    +0.000 N 
ATOM     82  C60 UNL A   1      15.471  54.497   1.898  1.00  0.00    +0.000 C 
ATOM     83  C61 UNL A   1      15.539  53.291   2.798  1.00  0.00    +0.000 C 
ATOM     95  C68 UNL A   1      15.084  53.391   4.060  1.00  0.00    +0.000 C 
ATOM     96  C69 UNL A   1      15.098  52.324   5.056  1.00  0.00    +0.000 C 
ATOM     97  C70 UNL A   1      14.542  52.778   6.191  1.00  0.00    +0.000 C 
ATOM     98  C71 UNL A   1      14.163  54.180   6.011  1.00  0.00    +0.000 C 
ATOM     99  N8  UNL A   1      14.517  54.457   4.715  1.00  0.00    +0.000 N 
ATOM    100  C72 UNL A   1      16.007  54.338   0.539  1.00  0.00    +0.000 C 
ATOM    101  C73 UNL A   1      15.880  55.565   0.054  1.00  0.00    +0.000 C 
ATOM    102  C74 UNL A   1      12.283  58.286   7.100  1.00  0.00    +0.000 C 
ATOM    103  C75 UNL A   1      12.590  57.156   7.716  1.00  0.00    +0.000 C 
ENDROOT
BRANCH   47   46
ATOM    161  H56 UNL A   1      14.606  54.133  11.384  1.00  0.00    +0.000 H 
ATOM    162  H57 UNL A   1      15.112  55.047   9.194  1.00  0.00    +0.000 H 
ATOM    104  C76 UNL A   1      12.082  53.760   8.527  1.00  0.00    +0.000 C 
ATOM    105  C77 UNL A   1      11.756  53.320   9.805  1.00  0.00    +0.000 C 
ATOM     43  C34 UNL A   1      12.694  53.417  10.837  1.00  0.00    +0.000 C 
ATOM     44  C35 UNL A   1      13.921  54.046  10.616  1.00  0.00    +0.000 C 
ATOM     45  C36 UNL A   1      14.218  54.556   9.352  1.00  0.00    +0.000 C 
ATOM    174  H69 UNL A   1      10.822  52.922   9.992  1.00  0.00    +0.000 H 
ATOM    173  H68 UNL A   1      11.422  53.612   7.747  1.00  0.00    +0.000 H 
ATOM     46  C37 UNL A   1      13.306  54.404   8.294  1.00  0.00    +0.000 C 
BRANCH   43   41
ATOM     41  C33 UNL A   1      12.393  52.897  12.186  1.00  0.00    +0.000 C 
ATOM     42  O4  UNL A   1      11.229  52.844  12.578  1.00  0.00    +0.000 O 
BRANCH   41   40
ATOM    160  H55 UNL A   1      13.738  53.132  13.650  1.00  0.00    +0.000 H 
ATOM     40  N4  UNL A   1      13.411  52.473  12.995  1.00  0.00    +0.000 N 
BRANCH   40   39
ATOM    159  H54 UNL A   1      14.259  50.918  14.041  1.00  0.00    +0.000 H 
ATOM    158  H53 UNL A   1      14.997  51.255  12.476  1.00  0.00    +0.000 H 
ATOM     39  C32 UNL A   1      14.079  51.182  13.020  1.00  0.00    +0.000 C 
BRANCH   39   38
ATOM    156  H51 UNL A   1      13.074  49.318  13.118  1.00  0.00    +0.000 H 
ATOM    157  H52 UNL A   1      12.303  50.555  12.094  1.00  0.00    +0.000 H 
ATOM     38  C31 UNL A   1      13.219  50.091  12.393  1.00  0.00    +0.000 C 
BRANCH   38   37
ATOM    154  H49 UNL A   1      14.729  48.962  11.414  1.00  0.00    +0.000 H 
ATOM    155  H50 UNL A   1      13.083  48.802  10.739  1.00  0.00    +0.000 H 
ATOM     37  C30 UNL A   1      13.825  49.462  11.135  1.00  0.00    +0.000 C 
BRANCH   37   36
ATOM    153  H48 UNL A   1      14.016  51.436  10.425  1.00  0.00    +0.000 H 
ATOM     36  C29 UNL A   1      14.157  50.458  10.016  1.00  0.00    +0.000 C 
ATOM    152  H47 UNL A   1      13.514  50.256   9.186  1.00  0.00    +0.000 H 
BRANCH   36   35
ATOM     35  C28 UNL A   1      15.605  50.393   9.525  1.00  0.00    +0.000 C 
ATOM    150  H45 UNL A   1      16.028  51.375   9.577  1.00  0.00    +0.000 H 
ATOM    151  H46 UNL A   1      16.128  49.703  10.154  1.00  0.00    +0.000 H 
BRANCH   35   34
ATOM     34  C27 UNL A   1      15.723  49.887   8.089  1.00  0.00    +0.000 C 
ATOM    148  H43 UNL A   1      16.097  50.674   7.469  1.00  0.00    +0.000 H 
ATOM    149  H44 UNL A   1      16.390  49.051   8.072  1.00  0.00    +0.000 H 
BRANCH   34   33
ATOM     33  N3  UNL A   1      14.425  49.460   7.585  1.00  0.00    +0.000 N 
ATOM    147  H42 UNL A   1      13.791  50.191   7.406  1.00  0.00    +0.000 H 
BRANCH   33   31
ATOM     31  C26 UNL A   1      13.943  48.204   7.321  1.00  0.00    +0.000 C 
ATOM     32  O3  UNL A   1      14.254  47.293   8.095  1.00  0.00    +0.000 O 
BRANCH   31    5
ATOM    115  H10 UNL A   1      12.011  48.263   6.070  1.00  0.00    +0.000 H 
ATOM      5  C5  UNL A   1      13.032  47.944   6.103  1.00  0.00    +0.000 C 
BRANCH    5    4
ATOM    113  H8  UNL A   1      12.834  48.840   4.190  1.00  0.00    +0.000 H 
ATOM    114  H9  UNL A   1      13.885  49.704   5.435  1.00  0.00    +0.000 H 
ATOM      4  C4  UNL A   1      13.601  48.802   4.935  1.00  0.00    +0.000 C 
BRANCH    4    3
ATOM      3  C3  UNL A   1      14.887  48.421   4.205  1.00  0.00    +0.000 C 
ATOM    111  H6  UNL A   1      15.260  49.302   3.727  1.00  0.00    +0.000 H 
ATOM    112  H7  UNL A   1      15.525  48.013   4.962  1.00  0.00    +0.000 H 
BRANCH    3    2
ATOM      2  C2  UNL A   1      14.786  47.328   3.142  1.00  0.00    +0.000 C 
ATOM    109  H4  UNL A   1      15.581  47.464   2.439  1.00  0.00    +0.000 H 
ATOM    110  H5  UNL A   1      14.854  46.386   3.646  1.00  0.00    +0.000 H 
BRANCH    2    1
ATOM      1  C1  UNL A   1      13.468  47.346   2.391  1.00  0.00    +0.000 C 
ATOM    106  H1  UNL A   1      13.173  46.343   2.163  1.00  0.00    +0.000 H 
ATOM    107  H2  UNL A   1      13.583  47.898   1.483  1.00  0.00    +0.000 H 
ATOM    108  H3  UNL A   1      12.718  47.809   2.998  1.00  0.00    +0.000 H 
ENDBRANCH    2    1
ENDBRANCH    3    2
ENDBRANCH    4    3
ENDBRANCH    5    4
BRANCH    5    6
ATOM      6  S1  UNL A   1      12.913  46.071   6.085  1.00  0.00    +0.000 S 
BRANCH    6    7
ATOM    131  H26 UNL A   1       7.726  46.696   5.801  1.00  0.00    +0.000 H 
ATOM      7  C6  UNL A   1      11.234  45.742   5.675  1.00  0.00    +0.000 C 
ATOM      8  N1  UNL A   1      10.745  46.373   4.588  1.00  0.00    +0.000 N 
ATOM      9  C7  UNL A   1       9.432  46.617   4.591  1.00  0.00    +0.000 C 
ATOM     19  C16 UNL A   1       8.674  46.306   5.681  1.00  0.00    +0.000 C 
ATOM     20  C17 UNL A   1       9.211  45.462   6.607  1.00  0.00    +0.000 C 
ATOM     30  N2  UNL A   1      10.501  45.160   6.619  1.00  0.00    +0.000 N 
BRANCH    9   10
ATOM     10  O1  UNL A   1       8.919  47.171   3.441  1.00  0.00    +0.000 O 
BRANCH   10   11
ATOM     11  C8  UNL A   1       8.297  48.461   3.517  1.00  0.00    +0.000 C 
ATOM    116  H11 UNL A   1       7.250  48.307   3.675  1.00  0.00    +0.000 H 
ATOM    117  H12 UNL A   1       8.544  48.947   2.596  1.00  0.00    +0.000 H 
BRANCH   11   12
ATOM     12  C9  UNL A   1       8.807  49.415   4.631  1.00  0.00    +0.000 C 
ATOM    118  H13 UNL A   1       9.073  48.813   5.475  1.00  0.00    +0.000 H 
ATOM    119  H14 UNL A   1       8.002  50.098   4.804  1.00  0.00    +0.000 H 
BRANCH   12   13
ATOM    129  H24 UNL A   1       9.470  51.782   5.731  1.00  0.00    +0.000 H 
ATOM    130  H25 UNL A   1       9.117  52.230   4.081  1.00  0.00    +0.000 H 
ATOM     13  C10 UNL A   1      10.016  50.299   4.289  1.00  0.00    +0.000 C 
ATOM     14  C11 UNL A   1      10.432  50.266   2.810  1.00  0.00    +0.000 C 
ATOM     15  C12 UNL A   1      11.760  51.010   2.616  1.00  0.00    +0.000 C 
ATOM     16  C13 UNL A   1      11.780  52.406   3.239  1.00  0.00    +0.000 C 
ATOM     17  C14 UNL A   1      11.164  52.485   4.637  1.00  0.00    +0.000 C 
ATOM     18  C15 UNL A   1       9.827  51.753   4.723  1.00  0.00    +0.000 C 
ATOM    120  H15 UNL A   1      10.811  49.861   4.856  1.00  0.00    +0.000 H 
ATOM    121  H16 UNL A   1       9.674  50.738   2.220  1.00  0.00    +0.000 H 
ATOM    122  H17 UNL A   1      10.553  49.248   2.505  1.00  0.00    +0.000 H 
ATOM    123  H18 UNL A   1      11.943  51.105   1.566  1.00  0.00    +0.000 H 
ATOM    124  H19 UNL A   1      12.515  50.435   3.110  1.00  0.00    +0.000 H 
ATOM    125  H20 UNL A   1      11.237  53.067   2.597  1.00  0.00    +0.000 H 
ATOM    126  H21 UNL A   1      12.809  52.679   3.344  1.00  0.00    +0.000 H 
ATOM    127  H22 UNL A   1      11.010  53.514   4.887  1.00  0.00    +0.000 H 
ATOM    128  H23 UNL A   1      11.840  52.013   5.318  1.00  0.00    +0.000 H 
ENDBRANCH   12   13
ENDBRANCH   11   12
ENDBRANCH   10   11
ENDBRANCH    9   10
BRANCH   20   21
ATOM     21  O2  UNL A   1       8.528  45.121   7.742  1.00  0.00    +0.000 O 
BRANCH   21   22
ATOM    132  H27 UNL A   1       6.829  45.766   8.690  1.00  0.00    +0.000 H 
ATOM    133  H28 UNL A   1       7.547  46.916   7.589  1.00  0.00    +0.000 H 
ATOM     22  C18 UNL A   1       7.751  46.168   8.326  1.00  0.00    +0.000 C 
BRANCH   22   23
ATOM    135  H30 UNL A   1       7.899  46.795  10.357  1.00  0.00    +0.000 H 
ATOM    134  H29 UNL A   1       9.426  46.224   9.665  1.00  0.00    +0.000 H 
ATOM     23  C19 UNL A   1       8.539  46.798   9.499  1.00  0.00    +0.000 C 
BRANCH   23   24
ATOM    136  H31 UNL A   1       9.065  48.622  10.229  1.00  0.00    +0.000 H 
ATOM    137  H32 UNL A   1       9.991  48.259   7.359  1.00  0.00    +0.000 H 
ATOM    138  H33 UNL A   1      10.916  47.603   8.668  1.00  0.00    +0.000 H 
ATOM    139  H34 UNL A   1      11.767  49.826   8.191  1.00  0.00    +0.000 H 
ATOM    140  H35 UNL A   1      10.924  49.904   9.712  1.00  0.00    +0.000 H 
ATOM    141  H36 UNL A   1       9.937  50.760   7.012  1.00  0.00    +0.000 H 
ATOM    142  H37 UNL A   1      10.172  51.744   8.475  1.00  0.00    +0.000 H 
ATOM    143  H38 UNL A   1       7.787  51.128   7.776  1.00  0.00    +0.000 H 
ATOM    144  H39 UNL A   1       8.310  50.955   9.482  1.00  0.00    +0.000 H 
ATOM    145  H40 UNL A   1       6.976  49.075   9.031  1.00  0.00    +0.000 H 
ATOM    146  H41 UNL A   1       7.785  48.776   7.509  1.00  0.00    +0.000 H 
ATOM     24  C20 UNL A   1       8.943  48.257   9.229  1.00  0.00    +0.000 C 
ATOM     25  C21 UNL A   1      10.219  48.369   8.399  1.00  0.00    +0.000 C 
ATOM     26  C22 UNL A   1      10.808  49.749   8.659  1.00  0.00    +0.000 C 
ATOM     27  C23 UNL A   1       9.868  50.797   8.079  1.00  0.00    +0.000 C 
ATOM     28  C24 UNL A   1       8.394  50.595   8.478  1.00  0.00    +0.000 C 
ATOM     29  C25 UNL A   1       7.910  49.130   8.511  1.00  0.00    +0.000 C 
ENDBRANCH   23   24
ENDBRANCH   22   23
ENDBRANCH   21   22
ENDBRANCH   20   21
ENDBRANCH    6    7
ENDBRANCH    5    6
ENDBRANCH   31    5
ENDBRANCH   33   31
ENDBRANCH   34   33
ENDBRANCH   35   34
ENDBRANCH   36   35
ENDBRANCH   37   36
ENDBRANCH   38   37
ENDBRANCH   39   38
ENDBRANCH   40   39
ENDBRANCH   41   40
ENDBRANCH   43   41
ENDBRANCH   47   46
BRANCH   51   52
ATOM     52  C42 UNL A   1      12.099  60.617   5.441  1.00  0.00    +0.000 C 
ATOM     53  C43 UNL A   1      12.832  61.562   6.176  1.00  0.00    +0.000 C 
ATOM     54  F1  UNL A   1      14.122  61.338   6.467  1.00  0.00    +0.000 F 
ATOM     55  C44 UNL A   1      12.229  62.724   6.652  1.00  0.00    +0.000 C 
ATOM     56  F2  UNL A   1      12.936  63.587   7.395  1.00  0.00    +0.000 F 
ATOM     57  C45 UNL A   1      10.897  62.983   6.371  1.00  0.00    +0.000 C 
ATOM     58  F3  UNL A   1      10.321  64.106   6.822  1.00  0.00    +0.000 F 
ATOM     59  C46 UNL A   1      10.159  62.075   5.627  1.00  0.00    +0.000 C 
ATOM     60  F4  UNL A   1       8.874  62.330   5.343  1.00  0.00    +0.000 F 
ATOM     61  C47 UNL A   1      10.749  60.895   5.177  1.00  0.00    +0.000 C 
ATOM     62  F5  UNL A   1      10.003  60.029   4.476  1.00  0.00    +0.000 F 
ENDBRANCH   51   52
BRANCH   68   69
ATOM     69  C53 UNL A   1      15.340  58.305  -0.571  1.00  0.00    +0.000 C 
ATOM     70  C54 UNL A   1      16.595  58.901  -0.758  1.00  0.00    +0.000 C 
ATOM     71  F6  UNL A   1      17.446  59.023   0.272  1.00  0.00    +0.000 F 
ATOM     72  C55 UNL A   1      16.964  59.416  -1.998  1.00  0.00    +0.000 C 
ATOM     73  F7  UNL A   1      18.147  60.029  -2.141  1.00  0.00    +0.000 F 
ATOM     74  C56 UNL A   1      16.104  59.310  -3.081  1.00  0.00    +0.000 C 
ATOM     75  F8  UNL A   1      16.463  59.800  -4.275  1.00  0.00    +0.000 F 
ATOM     76  C57 UNL A   1      14.867  58.703  -2.924  1.00  0.00    +0.000 C 
ATOM     77  F9  UNL A   1      14.040  58.586  -3.972  1.00  0.00    +0.000 F 
ATOM     78  C58 UNL A   1      14.482  58.216  -1.678  1.00  0.00    +0.000 C 
ATOM     79  F10 UNL A   1      13.273  57.648  -1.554  1.00  0.00    +0.000 F 
ENDBRANCH   68   69
BRANCH   83   84
ATOM     84  C62 UNL A   1      16.132  52.016   2.316  1.00  0.00    +0.000 C 
ATOM     85  C63 UNL A   1      15.434  51.195   1.417  1.00  0.00    +0.000 C 
ATOM     86  F11 UNL A   1      14.218  51.558   0.983  1.00  0.00    +0.000 F 
ATOM     87  C64 UNL A   1      15.961  49.974   1.000  1.00  0.00    +0.000 C 
ATOM     88  F12 UNL A   1      15.249  49.183   0.186  1.00  0.00    +0.000 F 
ATOM     89  C65 UNL A   1      17.210  49.567   1.445  1.00  0.00    +0.000 C 
ATOM     90  F13 UNL A   1      17.714  48.391   1.047  1.00  0.00    +0.000 F 
ATOM     91  C66 UNL A   1      17.928  50.374   2.313  1.00  0.00    +0.000 C 
ATOM     92  F14 UNL A   1      19.141  49.990   2.734  1.00  0.00    +0.000 F 
ATOM     93  C67 UNL A   1      17.390  51.581   2.755  1.00  0.00    +0.000 C 
ATOM     94  F15 UNL A   1      18.101  52.333   3.608  1.00  0.00    +0.000 F 
ENDBRANCH   83   84
TORSDOF 29
ENDMDL
