MODEL 1
REMARK VINA RESULT:      -9.8      0.000      0.000
REMARK  Name = 
REMARK  24 active torsions:
REMARK  status: ('A' for Active; 'I' for Inactive)
REMARK    1  A    between atoms: N_1  and  CA_2
REMARK    2  A    between atoms: CA_2  and  CB_3
REMARK    3  A    between atoms: CA_2  and  C_13
REMARK    4  A    between atoms: CB_3  and  CG_4
REMARK    5  A    between atoms: N_15  and  CA_16
REMARK    6  A    between atoms: CA_16  and  CB_17
REMARK    7  A    between atoms: CA_16  and  C_19
REMARK    8  A    between atoms: CB_17  and  SG_18
REMARK    9  A    between atoms: N_21  and  C_22
REMARK   10  A    between atoms: C_22  and  C_23
REMARK   11  A    between atoms: C_22  and  C_25
REMARK   12  A    between atoms: C_23  and  O_24
REMARK   13  A    between atoms: N_27  and  C_28
REMARK   14  A    between atoms: C_28  and  C_29
REMARK   15  A    between atoms: C_29  and  C_30
REMARK   16  A    between atoms: C_30  and  C_31
REMARK   17  A    between atoms: C_31  and  C_32
REMARK   18  A    between atoms: C_32  and  C_33
REMARK   19  A    between atoms: C_33  and  N_34
REMARK   20  A    between atoms: C_35  and  C_37
REMARK   21  A    between atoms: C_40  and  C_41
REMARK   22  A    between atoms: C_45  and  C_46
REMARK   23  A    between atoms: C_62  and  C_63
REMARK   24  A    between atoms: C_77  and  C_78
REMARK                            x       y       z     vdW  Elec       q    Type
REMARK                         _______ _______ _______ _____ _____    ______ ____
ROOT
ATOM      1  C   UNK A   3      53.008  20.293  11.792  0.00  0.00    +0.000 C 
ATOM      2  C   UNK A   3      52.777  20.943  13.132  0.00  0.00    +0.000 C 
ATOM      3  N   UNK A   3      53.604  20.997  14.135  0.00  0.00    +0.000 NA
ATOM      4  C   UNK A   3      52.979  21.687  15.139  0.00  0.00    +0.000 C 
ATOM      5  C   UNK A   3      53.469  21.956  16.369  0.00  0.00    +0.000 C 
ATOM      6  C   UNK A   3      54.774  21.579  16.864  0.00  0.00    +0.000 A 
ATOM      7  C   UNK A   3      55.285  21.801  18.136  0.00  0.00    +0.000 A 
ATOM      8  C   UNK A   3      56.606  21.335  18.176  0.00  0.00    +0.000 A 
ATOM      9  C   UNK A   3      56.905  20.768  16.951  0.00  0.00    +0.000 A 
ATOM     10  N   UNK A   3      55.777  20.926  16.157  0.00  0.00    +0.000 N 
ATOM     11  C   UNK A   3      58.124  20.128  16.525  0.00  0.00    +0.000 C 
ATOM     12  C   UNK A   3      58.332  19.584  15.302  0.00  0.00    +0.000 C 
ATOM     13  N   UNK A   3      57.446  19.506  14.233  0.00  0.00    +0.000 NA
ATOM     14  C   UNK A   3      58.092  18.886  13.274  0.00  0.00    +0.000 C 
ATOM     15  C   UNK A   3      57.590  18.513  11.895  0.00  0.00    +0.000 C 
ATOM     16  C   UNK A   3      56.328  18.817  11.521  0.00  0.00    +0.000 A 
ATOM     17  C   UNK A   3      55.711  18.512  10.235  0.00  0.00    +0.000 A 
ATOM     18  C   UNK A   3      54.465  19.020  10.209  0.00  0.00    +0.000 A 
ATOM     19  C   UNK A   3      54.175  19.671  11.494  0.00  0.00    +0.000 A 
ATOM     20  N   UNK A   3      55.335  19.475  12.213  0.00  0.00    +0.000 N 
ATOM     21  C   UNK A   3      59.469  18.513  13.625  0.00  0.00    +0.000 C 
ATOM     22  C   UNK A   3      59.562  18.948  14.876  0.00  0.00    +0.000 C 
ATOM     23  C   UNK A   3      51.675  22.064  14.625  0.00  0.00    +0.000 C 
ATOM     24  C   UNK A   3      51.494  21.608  13.387  0.00  0.00    +0.000 C 
ATOM     25  H   UNK A   3      55.733  20.590  15.207  0.00  0.00    +0.000 HD
ATOM     26  H   UNK A   3      55.520  19.802  13.153  0.00  0.00    +0.000 HD
ENDROOT
BRANCH  15  27
ATOM     27  C   UNK A   3      58.494  17.809  10.948  0.00  0.00    +0.000 A 
ATOM     28  C   UNK A   3      58.442  16.415  10.789  0.00  0.00    +0.000 A 
ATOM     29  F   UNK A   3      57.575  15.682  11.505  0.00  0.00    +0.000 F 
ATOM     30  C   UNK A   3      59.267  15.764   9.869  0.00  0.00    +0.000 A 
ATOM     31  F   UNK A   3      59.203  14.431   9.732  0.00  0.00    +0.000 F 
ATOM     32  C   UNK A   3      60.147  16.495   9.083  0.00  0.00    +0.000 A 
ATOM     33  F   UNK A   3      60.916  15.874   8.178  0.00  0.00    +0.000 F 
ATOM     34  C   UNK A   3      60.216  17.875   9.226  0.00  0.00    +0.000 A 
ATOM     35  F   UNK A   3      61.046  18.586   8.450  0.00  0.00    +0.000 F 
ATOM     36  C   UNK A   3      59.404  18.525  10.158  0.00  0.00    +0.000 A 
ATOM     37  F   UNK A   3      59.484  19.859  10.267  0.00  0.00    +0.000 F 
ENDBRANCH  15  27
BRANCH  11  38
ATOM     38  C   UNK A   3      59.244  20.020  17.509  0.00  0.00    +0.000 A 
ATOM     39  C   UNK A   3      59.511  18.820  18.181  0.00  0.00    +0.000 A 
ATOM     40  F   UNK A   3      58.745  17.740  17.966  0.00  0.00    +0.000 F 
ATOM     41  C   UNK A   3      60.568  18.729  19.083  0.00  0.00    +0.000 A 
ATOM     42  F   UNK A   3      60.794  17.577  19.727  0.00  0.00    +0.000 F 
ATOM     43  C   UNK A   3      61.382  19.827  19.314  0.00  0.00    +0.000 A 
ATOM     44  F   UNK A   3      62.408  19.743  20.174  0.00  0.00    +0.000 F 
ATOM     45  C   UNK A   3      61.134  21.021  18.653  0.00  0.00    +0.000 A 
ATOM     46  F   UNK A   3      61.926  22.079  18.877  0.00  0.00    +0.000 F 
ATOM     47  C   UNK A   3      60.072  21.121  17.762  0.00  0.00    +0.000 A 
ATOM     48  F   UNK A   3      59.842  22.295  17.154  0.00  0.00    +0.000 F 
ENDBRANCH  11  38
BRANCH   5  49
ATOM     49  C   UNK A   3      52.562  22.711  17.281  0.00  0.00    +0.000 A 
ATOM     50  C   UNK A   3      52.541  24.110  17.282  0.00  0.00    +0.000 A 
ATOM     51  F   UNK A   3      53.370  24.798  16.484  0.00  0.00    +0.000 F 
ATOM     52  C   UNK A   3      51.669  24.806  18.115  0.00  0.00    +0.000 A 
ATOM     53  F   UNK A   3      51.681  26.146  18.121  0.00  0.00    +0.000 F 
ATOM     54  C   UNK A   3      50.797  24.116  18.946  0.00  0.00    +0.000 A 
ATOM     55  F   UNK A   3      49.962  24.789  19.748  0.00  0.00    +0.000 F 
ATOM     56  C   UNK A   3      50.806  22.728  18.955  0.00  0.00    +0.000 A 
ATOM     57  F   UNK A   3      49.976  22.057  19.764  0.00  0.00    +0.000 F 
ATOM     58  C   UNK A   3      51.684  22.030  18.132  0.00  0.00    +0.000 A 
ATOM     59  F   UNK A   3      51.689  20.689  18.161  0.00  0.00    +0.000 F 
ENDBRANCH   5  49
BRANCH   1  63
ATOM     60  C   UNK A   3      49.870  20.540   8.835  0.00  0.00    +0.000 A 
ATOM     61  C   UNK A   3      49.935  19.450   9.714  0.00  0.00    +0.000 A 
ATOM     62  C   UNK A   3      50.951  19.371  10.679  0.00  0.00    +0.000 A 
ATOM     63  C   UNK A   3      51.932  20.367  10.769  0.00  0.00    +0.000 A 
ATOM     64  C   UNK A   3      51.885  21.448   9.878  0.00  0.00    +0.000 A 
ATOM     65  C   UNK A   3      50.857  21.534   8.928  0.00  0.00    +0.000 A 
BRANCH  60  67
ATOM     66  N   UNK A   3      48.995  21.639   6.827  0.00  0.00    +0.000 N 
ATOM     67  C   UNK A   3      48.801  20.647   7.780  0.00  0.00    +0.000 C 
ATOM     68  O   UNK A   3      47.834  19.889   7.781  0.00  0.00    +0.000 OA
ATOM     69  H   UNK A   3      49.885  22.125   6.789  0.00  0.00    +0.000 HD
BRANCH  66  70
ATOM     70  C   UNK A   3      48.036  21.842   5.748  0.00  0.00    +0.000 C 
BRANCH  70  71
ATOM     71  C   UNK A   3      47.662  20.535   5.046  0.00  0.00    +0.000 C 
BRANCH  71  72
ATOM     72  C   UNK A   3      46.360  20.681   4.249  0.00  0.00    +0.000 C 
BRANCH  72  73
ATOM     73  C   UNK A   3      45.421  19.485   4.453  0.00  0.00    +0.000 C 
BRANCH  73  74
ATOM     74  C   UNK A   3      44.305  19.461   3.404  0.00  0.00    +0.000 C 
BRANCH  74  75
ATOM     75  C   UNK A   3      44.346  18.203   2.539  0.00  0.00    +0.000 C 
BRANCH  75  78
ATOM     76  C   UNK A   3      46.176  16.682   3.287  0.00  0.00    +0.000 C 
ATOM     77  O   UNK A   3      47.071  17.174   2.601  0.00  0.00    +0.000 OA
ATOM     78  N   UNK A   3      44.846  17.066   3.300  0.00  0.00    +0.000 N 
ATOM     79  H   UNK A   3      44.189  16.623   3.935  0.00  0.00    +0.000 HD
BRANCH  76  80
ATOM     80  C   UNK A   3      46.613  15.582   4.255  0.00  0.00    +0.000 C 
BRANCH  80  83
ATOM     81  C   CYS A   2      48.871  16.262   5.188  0.00  0.00    +0.000 C 
ATOM     82  O   CYS A   2      48.430  16.936   6.114  0.00  0.00    +0.000 OA
ATOM     83  N   UNK A   3      48.100  15.575   4.264  0.00  0.00    +0.000 N 
ATOM     84  H   UNK A   3      48.556  14.974   3.577  0.00  0.00    +0.000 HD
BRANCH  81  85
ATOM     85  CA  CYS A   2      50.377  16.123   5.029  0.00  0.00    +0.000 C 
BRANCH  85  88
ATOM     86  C   TRP A   1      51.967  18.001   4.536  0.00  0.00    +0.000 C 
ATOM     87  O   TRP A   1      52.403  17.491   3.501  0.00  0.00    +0.000 OA
ATOM     88  N   CYS A   2      50.942  17.446   5.281  0.00  0.00    +0.000 N 
ATOM     89  H   CYS A   2      50.635  18.001   6.088  0.00  0.00    +0.000 HD
BRANCH  86  90
ATOM     90  CA  TRP A   1      52.478  19.380   5.076  0.00  0.00    +0.000 C 
BRANCH  90  91
ATOM     91  N   TRP A   1      51.319  20.307   5.184  0.00  0.00    +0.000 NA
ATOM     92  H1  TRP A   1      51.406  20.990   4.426  0.00  0.00    +0.000 HD
ATOM     93  H2  TRP A   1      51.426  20.858   6.035  0.00  0.00    +0.000 HD
ENDBRANCH  90  91
BRANCH  90  94
ATOM     94  CB  TRP A   1      53.255  19.126   6.390  0.00  0.00    +0.000 C 
BRANCH  94  95
ATOM     95  CG  TRP A   1      54.742  18.889   6.297  0.00  0.00    +0.000 A 
ATOM     96  CD1 TRP A   1      55.390  17.739   5.876  0.00  0.00    +0.000 A 
ATOM     97  NE1 TRP A   1      56.748  17.934   5.982  0.00  0.00    +0.000 N 
ATOM     98  CE2 TRP A   1      57.010  19.162   6.550  0.00  0.00    +0.000 A 
ATOM     99  CZ2 TRP A   1      58.227  19.776   6.888  0.00  0.00    +0.000 A 
ATOM    100  CH2 TRP A   1      58.167  21.032   7.505  0.00  0.00    +0.000 A 
ATOM    101  CZ3 TRP A   1      56.945  21.645   7.770  0.00  0.00    +0.000 A 
ATOM    102  CE3 TRP A   1      55.742  21.031   7.404  0.00  0.00    +0.000 A 
ATOM    103  CD2 TRP A   1      55.769  19.770   6.774  0.00  0.00    +0.000 A 
ATOM    104  HE1 TRP A   1      57.447  17.250   5.725  0.00  0.00    +0.000 HD
ENDBRANCH  94  95
ENDBRANCH  90  94
ENDBRANCH  86  90
ENDBRANCH  85  88
BRANCH  85 105
ATOM    105  CB  CYS A   2      50.964  15.016   5.915  0.00  0.00    +0.000 C 
BRANCH 105 106
ATOM    106  SG  CYS A   2      52.080  15.571   7.259  0.00  0.00    +0.000 S 
ATOM    107  HG  CYS A   2      51.186  16.336   7.906  0.00  0.00    +0.000 HD
ENDBRANCH 105 106
ENDBRANCH  85 105
ENDBRANCH  81  85
ENDBRANCH  80  83
BRANCH  80 108
ATOM    108  C   UNK A   3      46.051  15.831   5.654  0.00  0.00    +0.000 C 
BRANCH 108 109
ATOM    109  O   UNK A   3      45.737  17.194   5.947  0.00  0.00    +0.000 OA
ATOM    110  H   UNK A   3      45.377  17.319   6.839  0.00  0.00    +0.000 HD
ENDBRANCH 108 109
ENDBRANCH  80 108
ENDBRANCH  76  80
ENDBRANCH  75  78
ENDBRANCH  74  75
ENDBRANCH  73  74
ENDBRANCH  72  73
ENDBRANCH  71  72
ENDBRANCH  70  71
ENDBRANCH  66  70
ENDBRANCH  60  67
ENDBRANCH   1  63
TORSDOF 24
ENDMDL
MODEL 2
REMARK VINA RESULT:      -9.7     42.277     48.217
REMARK  Name = 
REMARK  24 active torsions:
REMARK  status: ('A' for Active; 'I' for Inactive)
REMARK    1  A    between atoms: N_1  and  CA_2
REMARK    2  A    between atoms: CA_2  and  CB_3
REMARK    3  A    between atoms: CA_2  and  C_13
REMARK    4  A    between atoms: CB_3  and  CG_4
REMARK    5  A    between atoms: N_15  and  CA_16
REMARK    6  A    between atoms: CA_16  and  CB_17
REMARK    7  A    between atoms: CA_16  and  C_19
REMARK    8  A    between atoms: CB_17  and  SG_18
REMARK    9  A    between atoms: N_21  and  C_22
REMARK   10  A    between atoms: C_22  and  C_23
REMARK   11  A    between atoms: C_22  and  C_25
REMARK   12  A    between atoms: C_23  and  O_24
REMARK   13  A    between atoms: N_27  and  C_28
REMARK   14  A    between atoms: C_28  and  C_29
REMARK   15  A    between atoms: C_29  and  C_30
REMARK   16  A    between atoms: C_30  and  C_31
REMARK   17  A    between atoms: C_31  and  C_32
REMARK   18  A    between atoms: C_32  and  C_33
REMARK   19  A    between atoms: C_33  and  N_34
REMARK   20  A    between atoms: C_35  and  C_37
REMARK   21  A    between atoms: C_40  and  C_41
REMARK   22  A    between atoms: C_45  and  C_46
REMARK   23  A    between atoms: C_62  and  C_63
REMARK   24  A    between atoms: C_77  and  C_78
REMARK                            x       y       z     vdW  Elec       q    Type
REMARK                         _______ _______ _______ _____ _____    ______ ____
ROOT
ATOM      1  C   UNK A   3      26.942  39.794  47.069  0.00  0.00    +0.000 C 
ATOM      2  C   UNK A   3      27.305  41.003  47.892  0.00  0.00    +0.000 C 
ATOM      3  N   UNK A   3      28.446  41.629  47.912  0.00  0.00    +0.000 NA
ATOM      4  C   UNK A   3      28.323  42.667  48.797  0.00  0.00    +0.000 C 
ATOM      5  C   UNK A   3      29.276  43.560  49.142  0.00  0.00    +0.000 C 
ATOM      6  C   UNK A   3      30.624  43.606  48.621  0.00  0.00    +0.000 A 
ATOM      7  C   UNK A   3      31.637  44.482  48.989  0.00  0.00    +0.000 A 
ATOM      8  C   UNK A   3      32.763  44.225  48.197  0.00  0.00    +0.000 A 
ATOM      9  C   UNK A   3      32.479  43.152  47.372  0.00  0.00    +0.000 A 
ATOM     10  N   UNK A   3      31.168  42.784  47.640  0.00  0.00    +0.000 N 
ATOM     11  C   UNK A   3      33.332  42.502  46.409  0.00  0.00    +0.000 C 
ATOM     12  C   UNK A   3      32.977  41.442  45.645  0.00  0.00    +0.000 C 
ATOM     13  N   UNK A   3      31.767  40.756  45.633  0.00  0.00    +0.000 NA
ATOM     14  C   UNK A   3      31.902  39.803  44.741  0.00  0.00    +0.000 C 
ATOM     15  C   UNK A   3      30.896  38.744  44.341  0.00  0.00    +0.000 C 
ATOM     16  C   UNK A   3      29.679  38.700  44.929  0.00  0.00    +0.000 A 
ATOM     17  C   UNK A   3      28.621  37.736  44.651  0.00  0.00    +0.000 A 
ATOM     18  C   UNK A   3      27.537  38.043  45.387  0.00  0.00    +0.000 A 
ATOM     19  C   UNK A   3      27.827  39.220  46.218  0.00  0.00    +0.000 A 
ATOM     20  N   UNK A   3      29.132  39.519  45.892  0.00  0.00    +0.000 N 
ATOM     21  C   UNK A   3      33.212  39.787  44.077  0.00  0.00    +0.000 C 
ATOM     22  C   UNK A   3      33.836  40.796  44.673  0.00  0.00    +0.000 C 
ATOM     23  C   UNK A   3      26.964  42.612  49.305  0.00  0.00    +0.000 C 
ATOM     24  C   UNK A   3      26.297  41.583  48.787  0.00  0.00    +0.000 C 
ATOM     25  H   UNK A   3      30.715  42.015  47.170  0.00  0.00    +0.000 HD
ATOM     26  H   UNK A   3      29.680  40.289  46.257  0.00  0.00    +0.000 HD
ENDROOT
BRANCH  15  27
ATOM     27  C   UNK A   3      31.250  37.749  43.296  0.00  0.00    +0.000 A 
ATOM     28  C   UNK A   3      31.567  36.422  43.628  0.00  0.00    +0.000 A 
ATOM     29  F   UNK A   3      31.568  36.026  44.911  0.00  0.00    +0.000 F 
ATOM     30  C   UNK A   3      31.860  35.483  42.637  0.00  0.00    +0.000 A 
ATOM     31  F   UNK A   3      32.162  34.219  42.975  0.00  0.00    +0.000 F 
ATOM     32  C   UNK A   3      31.828  35.848  41.299  0.00  0.00    +0.000 A 
ATOM     33  F   UNK A   3      32.079  34.939  40.348  0.00  0.00    +0.000 F 
ATOM     34  C   UNK A   3      31.520  37.156  40.948  0.00  0.00    +0.000 A 
ATOM     35  F   UNK A   3      31.463  37.506  39.656  0.00  0.00    +0.000 F 
ATOM     36  C   UNK A   3      31.244  38.101  41.939  0.00  0.00    +0.000 A 
ATOM     37  F   UNK A   3      30.938  39.354  41.571  0.00  0.00    +0.000 F 
ENDBRANCH  15  27
BRANCH  11  38
ATOM     38  C   UNK A   3      34.730  43.007  46.252  0.00  0.00    +0.000 A 
ATOM     39  C   UNK A   3      35.017  44.124  45.457  0.00  0.00    +0.000 A 
ATOM     40  F   UNK A   3      34.034  44.754  44.797  0.00  0.00    +0.000 F 
ATOM     41  C   UNK A   3      36.322  44.593  45.332  0.00  0.00    +0.000 A 
ATOM     42  F   UNK A   3      36.576  45.651  44.552  0.00  0.00    +0.000 F 
ATOM     43  C   UNK A   3      37.355  43.966  46.012  0.00  0.00    +0.000 A 
ATOM     44  F   UNK A   3      38.613  44.418  45.905  0.00  0.00    +0.000 F 
ATOM     45  C   UNK A   3      37.087  42.862  46.808  0.00  0.00    +0.000 A 
ATOM     46  F   UNK A   3      38.088  42.261  47.466  0.00  0.00    +0.000 F 
ATOM     47  C   UNK A   3      35.787  42.380  46.925  0.00  0.00    +0.000 A 
ATOM     48  F   UNK A   3      35.561  41.297  47.683  0.00  0.00    +0.000 F 
ENDBRANCH  11  38
BRANCH   5  49
ATOM     49  C   UNK A   3      28.877  44.582  50.152  0.00  0.00    +0.000 A 
ATOM     50  C   UNK A   3      28.307  45.798  49.764  0.00  0.00    +0.000 A 
ATOM     51  F   UNK A   3      28.144  46.083  48.463  0.00  0.00    +0.000 F 
ATOM     52  C   UNK A   3      27.910  46.733  50.716  0.00  0.00    +0.000 A 
ATOM     53  F   UNK A   3      27.389  47.904  50.323  0.00  0.00    +0.000 F 
ATOM     54  C   UNK A   3      28.063  46.460  52.068  0.00  0.00    +0.000 A 
ATOM     55  F   UNK A   3      27.683  47.363  52.982  0.00  0.00    +0.000 F 
ATOM     56  C   UNK A   3      28.627  45.257  52.470  0.00  0.00    +0.000 A 
ATOM     57  F   UNK A   3      28.788  44.993  53.773  0.00  0.00    +0.000 F 
ATOM     58  C   UNK A   3      29.035  44.326  51.519  0.00  0.00    +0.000 A 
ATOM     59  F   UNK A   3      29.589  43.173  51.923  0.00  0.00    +0.000 F 
ENDBRANCH   5  49
BRANCH   1  63
ATOM     60  C   UNK A   3      22.955  38.164  47.389  0.00  0.00    +0.000 A 
ATOM     61  C   UNK A   3      23.301  38.992  46.313  0.00  0.00    +0.000 A 
ATOM     62  C   UNK A   3      24.598  39.519  46.204  0.00  0.00    +0.000 A 
ATOM     63  C   UNK A   3      25.565  39.245  47.180  0.00  0.00    +0.000 A 
ATOM     64  C   UNK A   3      25.219  38.436  48.271  0.00  0.00    +0.000 A 
ATOM     65  C   UNK A   3      23.928  37.895  48.365  0.00  0.00    +0.000 A 
BRANCH  60  67
ATOM     66  N   UNK A   3      20.715  37.804  46.464  0.00  0.00    +0.000 N 
ATOM     67  C   UNK A   3      21.569  37.596  47.541  0.00  0.00    +0.000 C 
ATOM     68  O   UNK A   3      21.243  36.987  48.556  0.00  0.00    +0.000 OA
ATOM     69  H   UNK A   3      21.088  38.174  45.597  0.00  0.00    +0.000 HD
BRANCH  66  70
ATOM     70  C   UNK A   3      19.348  37.298  46.483  0.00  0.00    +0.000 C 
BRANCH  70  71
ATOM     71  C   UNK A   3      19.110  36.218  45.426  0.00  0.00    +0.000 C 
BRANCH  71  72
ATOM     72  C   UNK A   3      18.033  35.222  45.876  0.00  0.00    +0.000 C 
BRANCH  72  73
ATOM     73  C   UNK A   3      16.668  35.522  45.243  0.00  0.00    +0.000 C 
BRANCH  73  74
ATOM     74  C   UNK A   3      16.455  34.716  43.958  0.00  0.00    +0.000 C 
BRANCH  74  75
ATOM     75  C   UNK A   3      15.732  33.396  44.213  0.00  0.00    +0.000 C 
BRANCH  75  78
ATOM     76  C   UNK A   3      17.002  31.438  43.332  0.00  0.00    +0.000 C 
ATOM     77  O   UNK A   3      16.492  31.418  42.212  0.00  0.00    +0.000 OA
ATOM     78  N   UNK A   3      16.684  32.303  44.364  0.00  0.00    +0.000 N 
ATOM     79  H   UNK A   3      17.194  32.267  45.241  0.00  0.00    +0.000 HD
BRANCH  76  80
ATOM     80  C   UNK A   3      18.138  30.440  43.559  0.00  0.00    +0.000 C 
BRANCH  80  83
ATOM     81  C   CYS A   2      20.214  31.657  44.358  0.00  0.00    +0.000 C 
ATOM     82  O   CYS A   2      20.686  31.854  43.242  0.00  0.00    +0.000 OA
ATOM     83  N   UNK A   3      19.017  31.012  44.614  0.00  0.00    +0.000 N 
ATOM     84  H   UNK A   3      18.664  30.966  45.572  0.00  0.00    +0.000 HD
BRANCH  81  85
ATOM     85  CA  CYS A   2      20.963  32.175  45.577  0.00  0.00    +0.000 C 
BRANCH  85  88
ATOM     86  C   TRP A   1      23.029  33.483  45.012  0.00  0.00    +0.000 C 
ATOM     87  O   TRP A   1      23.786  32.513  45.098  0.00  0.00    +0.000 OA
ATOM     88  N   CYS A   2      21.656  33.388  45.150  0.00  0.00    +0.000 N 
ATOM     89  H   CYS A   2      21.137  34.261  44.998  0.00  0.00    +0.000 HD
BRANCH  86  90
ATOM     90  CA  TRP A   1      23.540  34.921  44.657  0.00  0.00    +0.000 C 
BRANCH  90  91
ATOM     91  N   TRP A   1      22.370  35.765  44.295  0.00  0.00    +0.000 NA
ATOM     92  H1  TRP A   1      21.851  35.950  45.159  0.00  0.00    +0.000 HD
ATOM     93  H2  TRP A   1      21.730  35.206  43.731  0.00  0.00    +0.000 HD
ENDBRANCH  90  91
BRANCH  90  94
ATOM     94  CB  TRP A   1      24.394  35.437  45.841  0.00  0.00    +0.000 C 
BRANCH  94  95
ATOM     95  CG  TRP A   1      25.708  34.748  46.116  0.00  0.00    +0.000 A 
ATOM     96  CD1 TRP A   1      26.232  34.388  47.347  0.00  0.00    +0.000 A 
ATOM     97  NE1 TRP A   1      27.469  33.819  47.150  0.00  0.00    +0.000 N 
ATOM     98  CE2 TRP A   1      27.813  33.875  45.817  0.00  0.00    +0.000 A 
ATOM     99  CZ2 TRP A   1      28.978  33.462  45.151  0.00  0.00    +0.000 A 
ATOM    100  CH2 TRP A   1      29.053  33.698  43.772  0.00  0.00    +0.000 A 
ATOM    101  CZ3 TRP A   1      28.008  34.319  43.092  0.00  0.00    +0.000 A 
ATOM    102  CE3 TRP A   1      26.843  34.702  43.766  0.00  0.00    +0.000 A 
ATOM    103  CD2 TRP A   1      26.734  34.471  45.152  0.00  0.00    +0.000 A 
ATOM    104  HE1 TRP A   1      28.058  33.458  47.889  0.00  0.00    +0.000 HD
ENDBRANCH  94  95
ENDBRANCH  90  94
ENDBRANCH  86  90
ENDBRANCH  85  88
BRANCH  85 105
ATOM    105  CB  CYS A   2      20.045  32.376  46.790  0.00  0.00    +0.000 C 
BRANCH 105 106
ATOM    106  SG  CYS A   2      20.680  33.490  48.100  0.00  0.00    +0.000 S 
ATOM    107  HG  CYS A   2      21.883  33.718  47.550  0.00  0.00    +0.000 HD
ENDBRANCH 105 106
ENDBRANCH  85 105
ENDBRANCH  81  85
ENDBRANCH  80  83
BRANCH  80 108
ATOM    108  C   UNK A   3      17.590  29.075  43.974  0.00  0.00    +0.000 C 
BRANCH 108 109
ATOM    109  O   UNK A   3      16.194  29.049  44.277  0.00  0.00    +0.000 OA
ATOM    110  H   UNK A   3      15.854  28.154  44.435  0.00  0.00    +0.000 HD
ENDBRANCH 108 109
ENDBRANCH  80 108
ENDBRANCH  76  80
ENDBRANCH  75  78
ENDBRANCH  74  75
ENDBRANCH  73  74
ENDBRANCH  72  73
ENDBRANCH  71  72
ENDBRANCH  70  71
ENDBRANCH  66  70
ENDBRANCH  60  67
ENDBRANCH   1  63
TORSDOF 24
ENDMDL
MODEL 3
REMARK VINA RESULT:      -9.4     26.250     33.616
REMARK  Name = 
REMARK  24 active torsions:
REMARK  status: ('A' for Active; 'I' for Inactive)
REMARK    1  A    between atoms: N_1  and  CA_2
REMARK    2  A    between atoms: CA_2  and  CB_3
REMARK    3  A    between atoms: CA_2  and  C_13
REMARK    4  A    between atoms: CB_3  and  CG_4
REMARK    5  A    between atoms: N_15  and  CA_16
REMARK    6  A    between atoms: CA_16  and  CB_17
REMARK    7  A    between atoms: CA_16  and  C_19
REMARK    8  A    between atoms: CB_17  and  SG_18
REMARK    9  A    between atoms: N_21  and  C_22
REMARK   10  A    between atoms: C_22  and  C_23
REMARK   11  A    between atoms: C_22  and  C_25
REMARK   12  A    between atoms: C_23  and  O_24
REMARK   13  A    between atoms: N_27  and  C_28
REMARK   14  A    between atoms: C_28  and  C_29
REMARK   15  A    between atoms: C_29  and  C_30
REMARK   16  A    between atoms: C_30  and  C_31
REMARK   17  A    between atoms: C_31  and  C_32
REMARK   18  A    between atoms: C_32  and  C_33
REMARK   19  A    between atoms: C_33  and  N_34
REMARK   20  A    between atoms: C_35  and  C_37
REMARK   21  A    between atoms: C_40  and  C_41
REMARK   22  A    between atoms: C_45  and  C_46
REMARK   23  A    between atoms: C_62  and  C_63
REMARK   24  A    between atoms: C_77  and  C_78
REMARK                            x       y       z     vdW  Elec       q    Type
REMARK                         _______ _______ _______ _____ _____    ______ ____
ROOT
ATOM      1  C   UNK A   3      22.477   8.485   7.336  0.00  0.00    +0.000 C 
ATOM      2  C   UNK A   3      21.692   7.590   8.260  0.00  0.00    +0.000 C 
ATOM      3  N   UNK A   3      21.863   6.315   8.457  0.00  0.00    +0.000 NA
ATOM      4  C   UNK A   3      20.932   5.920   9.381  0.00  0.00    +0.000 C 
ATOM      5  C   UNK A   3      20.739   4.671   9.858  0.00  0.00    +0.000 C 
ATOM      6  C   UNK A   3      21.502   3.497   9.496  0.00  0.00    +0.000 A 
ATOM      7  C   UNK A   3      21.297   2.195   9.934  0.00  0.00    +0.000 A 
ATOM      8  C   UNK A   3      22.296   1.377   9.392  0.00  0.00    +0.000 A 
ATOM      9  C   UNK A   3      23.093   2.150   8.568  0.00  0.00    +0.000 A 
ATOM     10  N   UNK A   3      22.597   3.444   8.642  0.00  0.00    +0.000 N 
ATOM     11  C   UNK A   3      24.223   1.749   7.768  0.00  0.00    +0.000 C 
ATOM     12  C   UNK A   3      24.946   2.573   6.974  0.00  0.00    +0.000 C 
ATOM     13  N   UNK A   3      24.757   3.932   6.744  0.00  0.00    +0.000 NA
ATOM     14  C   UNK A   3      25.693   4.288   5.897  0.00  0.00    +0.000 C 
ATOM     15  C   UNK A   3      25.937   5.654   5.288  0.00  0.00    +0.000 C 
ATOM     16  C   UNK A   3      25.133   6.695   5.600  0.00  0.00    +0.000 A 
ATOM     17  C   UNK A   3      25.244   8.055   5.085  0.00  0.00    +0.000 A 
ATOM     18  C   UNK A   3      24.306   8.826   5.666  0.00  0.00    +0.000 A 
ATOM     19  C   UNK A   3      23.500   8.009   6.584  0.00  0.00    +0.000 A 
ATOM     20  N   UNK A   3      24.054   6.754   6.455  0.00  0.00    +0.000 N 
ATOM     21  C   UNK A   3      26.592   3.194   5.504  0.00  0.00    +0.000 C 
ATOM     22  C   UNK A   3      26.086   2.167   6.177  0.00  0.00    +0.000 C 
ATOM     23  C   UNK A   3      20.180   7.108   9.738  0.00  0.00    +0.000 C 
ATOM     24  C   UNK A   3      20.603   8.170   9.054  0.00  0.00    +0.000 C 
ATOM     25  H   UNK A   3      23.003   4.209   8.124  0.00  0.00    +0.000 HD
ATOM     26  H   UNK A   3      23.770   5.919   6.952  0.00  0.00    +0.000 HD
ENDROOT
BRANCH  15  27
ATOM     27  C   UNK A   3      27.066   5.847   4.343  0.00  0.00    +0.000 A 
ATOM     28  C   UNK A   3      26.899   5.679   2.959  0.00  0.00    +0.000 A 
ATOM     29  F   UNK A   3      25.704   5.324   2.459  0.00  0.00    +0.000 F 
ATOM     30  C   UNK A   3      27.955   5.901   2.073  0.00  0.00    +0.000 A 
ATOM     31  F   UNK A   3      27.774   5.734   0.754  0.00  0.00    +0.000 F 
ATOM     32  C   UNK A   3      29.192   6.309   2.552  0.00  0.00    +0.000 A 
ATOM     33  F   UNK A   3      30.196   6.552   1.699  0.00  0.00    +0.000 F 
ATOM     34  C   UNK A   3      29.381   6.478   3.917  0.00  0.00    +0.000 A 
ATOM     35  F   UNK A   3      30.567   6.897   4.381  0.00  0.00    +0.000 F 
ATOM     36  C   UNK A   3      28.330   6.239   4.806  0.00  0.00    +0.000 A 
ATOM     37  F   UNK A   3      28.538   6.422   6.118  0.00  0.00    +0.000 F 
ENDBRANCH  15  27
BRANCH  11  38
ATOM     38  C   UNK A   3      24.620   0.309   7.782  0.00  0.00    +0.000 A 
ATOM     39  C   UNK A   3      24.086  -0.604   6.863  0.00  0.00    +0.000 A 
ATOM     40  F   UNK A   3      23.182  -0.201   5.958  0.00  0.00    +0.000 F 
ATOM     41  C   UNK A   3      24.477  -1.941   6.876  0.00  0.00    +0.000 A 
ATOM     42  F   UNK A   3      23.940  -2.799   6.001  0.00  0.00    +0.000 F 
ATOM     43  C   UNK A   3      25.417  -2.381   7.795  0.00  0.00    +0.000 A 
ATOM     44  F   UNK A   3      25.806  -3.664   7.807  0.00  0.00    +0.000 F 
ATOM     45  C   UNK A   3      25.961  -1.489   8.708  0.00  0.00    +0.000 A 
ATOM     46  F   UNK A   3      26.872  -1.918   9.592  0.00  0.00    +0.000 F 
ATOM     47  C   UNK A   3      25.563  -0.156   8.708  0.00  0.00    +0.000 A 
ATOM     48  F   UNK A   3      26.087   0.678   9.618  0.00  0.00    +0.000 F 
ENDBRANCH  11  38
BRANCH   5  49
ATOM     49  C   UNK A   3      19.634   4.514  10.846  0.00  0.00    +0.000 A 
ATOM     50  C   UNK A   3      18.345   4.155  10.438  0.00  0.00    +0.000 A 
ATOM     51  F   UNK A   3      18.073   3.980   9.136  0.00  0.00    +0.000 F 
ATOM     52  C   UNK A   3      17.327   3.980  11.372  0.00  0.00    +0.000 A 
ATOM     53  F   UNK A   3      16.092   3.661  10.959  0.00  0.00    +0.000 F 
ATOM     54  C   UNK A   3      17.584   4.150  12.725  0.00  0.00    +0.000 A 
ATOM     55  F   UNK A   3      16.602   3.985  13.620  0.00  0.00    +0.000 F 
ATOM     56  C   UNK A   3      18.858   4.507  13.145  0.00  0.00    +0.000 A 
ATOM     57  F   UNK A   3      19.109   4.684  14.449  0.00  0.00    +0.000 F 
ATOM     58  C   UNK A   3      19.875   4.692  12.213  0.00  0.00    +0.000 A 
ATOM     59  F   UNK A   3      21.097   5.048  12.634  0.00  0.00    +0.000 F 
ENDBRANCH   5  49
BRANCH   1  63
ATOM     60  C   UNK A   3      21.483  12.682   7.132  0.00  0.00    +0.000 A 
ATOM     61  C   UNK A   3      22.424  12.219   8.061  0.00  0.00    +0.000 A 
ATOM     62  C   UNK A   3      22.752  10.855   8.126  0.00  0.00    +0.000 A 
ATOM     63  C   UNK A   3      22.131   9.929   7.278  0.00  0.00    +0.000 A 
ATOM     64  C   UNK A   3      21.172  10.384   6.362  0.00  0.00    +0.000 A 
ATOM     65  C   UNK A   3      20.861  11.749   6.287  0.00  0.00    +0.000 A 
BRANCH  60  67
ATOM     66  N   UNK A   3      21.514  14.801   5.901  0.00  0.00    +0.000 N 
ATOM     67  C   UNK A   3      21.099  14.136   7.049  0.00  0.00    +0.000 C 
ATOM     68  O   UNK A   3      20.455  14.672   7.947  0.00  0.00    +0.000 OA
ATOM     69  H   UNK A   3      21.902  14.269   5.130  0.00  0.00    +0.000 HD
BRANCH  66  70
ATOM     70  C   UNK A   3      21.201  16.210   5.696  0.00  0.00    +0.000 C 
BRANCH  70  71
ATOM     71  C   UNK A   3      22.455  17.082   5.620  0.00  0.00    +0.000 C 
BRANCH  71  72
ATOM     72  C   UNK A   3      23.120  17.227   6.995  0.00  0.00    +0.000 C 
BRANCH  72  73
ATOM     73  C   UNK A   3      22.326  18.153   7.926  0.00  0.00    +0.000 C 
BRANCH  73  74
ATOM     74  C   UNK A   3      21.899  17.430   9.207  0.00  0.00    +0.000 C 
BRANCH  74  75
ATOM     75  C   UNK A   3      23.073  16.761   9.918  0.00  0.00    +0.000 C 
BRANCH  75  78
ATOM     76  C   UNK A   3      23.493  16.602  12.371  0.00  0.00    +0.000 C 
ATOM     77  O   UNK A   3      23.439  15.375  12.455  0.00  0.00    +0.000 OA
ATOM     78  N   UNK A   3      23.293  17.357  11.229  0.00  0.00    +0.000 N 
ATOM     79  H   UNK A   3      23.401  18.366  11.254  0.00  0.00    +0.000 HD
BRANCH  76  80
ATOM     80  C   UNK A   3      23.882  17.336  13.656  0.00  0.00    +0.000 C 
BRANCH  80  83
ATOM     81  C   CYS A   2      25.305  19.374  13.155  0.00  0.00    +0.000 C 
ATOM     82  O   CYS A   2      26.388  18.811  13.282  0.00  0.00    +0.000 OA
ATOM     83  N   UNK A   3      24.069  18.768  13.299  0.00  0.00    +0.000 N 
ATOM     84  H   UNK A   3      23.221  19.299  13.095  0.00  0.00    +0.000 HD
BRANCH  81  85
ATOM     85  CA  CYS A   2      25.281  20.849  12.783  0.00  0.00    +0.000 C 
BRANCH  85  88
ATOM     86  C   TRP A   1      25.362  20.384  10.318  0.00  0.00    +0.000 C 
ATOM     87  O   TRP A   1      24.245  19.861  10.281  0.00  0.00    +0.000 OA
ATOM     88  N   CYS A   2      25.895  20.951  11.462  0.00  0.00    +0.000 N 
ATOM     89  H   CYS A   2      26.809  21.404  11.342  0.00  0.00    +0.000 HD
BRANCH  86  90
ATOM     90  CA  TRP A   1      26.266  20.532   9.048  0.00  0.00    +0.000 C 
BRANCH  90  91
ATOM     91  N   TRP A   1      27.514  21.244   9.432  0.00  0.00    +0.000 NA
ATOM     92  H1  TRP A   1      28.162  20.542   9.801  0.00  0.00    +0.000 HD
ATOM     93  H2  TRP A   1      27.310  21.844  10.230  0.00  0.00    +0.000 HD
ENDBRANCH  90  91
BRANCH  90  94
ATOM     94  CB  TRP A   1      26.464  19.127   8.429  0.00  0.00    +0.000 C 
BRANCH  94  95
ATOM     95  CG  TRP A   1      26.937  19.046   6.998  0.00  0.00    +0.000 A 
ATOM     96  CD1 TRP A   1      26.173  19.145   5.847  0.00  0.00    +0.000 A 
ATOM     97  NE1 TRP A   1      26.994  18.977   4.756  0.00  0.00    +0.000 N 
ATOM     98  CE2 TRP A   1      28.276  18.680   5.166  0.00  0.00    +0.000 A 
ATOM     99  CZ2 TRP A   1      29.432  18.392   4.424  0.00  0.00    +0.000 A 
ATOM    100  CH2 TRP A   1      30.596  18.079   5.137  0.00  0.00    +0.000 A 
ATOM    101  CZ3 TRP A   1      30.601  18.056   6.530  0.00  0.00    +0.000 A 
ATOM    102  CE3 TRP A   1      29.446  18.370   7.255  0.00  0.00    +0.000 A 
ATOM    103  CD2 TRP A   1      28.261  18.697   6.565  0.00  0.00    +0.000 A 
ATOM    104  HE1 TRP A   1      26.684  19.018   3.794  0.00  0.00    +0.000 HD
ENDBRANCH  94  95
ENDBRANCH  90  94
ENDBRANCH  86  90
ENDBRANCH  85  88
BRANCH  85 105
ATOM    105  CB  CYS A   2      23.874  21.454  12.864  0.00  0.00    +0.000 C 
BRANCH 105 106
ATOM    106  SG  CYS A   2      23.738  23.231  12.431  0.00  0.00    +0.000 S 
ATOM    107  HG  CYS A   2      23.047  23.610  13.518  0.00  0.00    +0.000 HD
ENDBRANCH 105 106
ENDBRANCH  85 105
ENDBRANCH  81  85
ENDBRANCH  80  83
BRANCH  80 108
ATOM    108  C   UNK A   3      22.806  17.167  14.727  0.00  0.00    +0.000 C 
BRANCH 108 109
ATOM    109  O   UNK A   3      21.810  16.184  14.437  0.00  0.00    +0.000 OA
ATOM    110  H   UNK A   3      22.184  15.337  14.149  0.00  0.00    +0.000 HD
ENDBRANCH 108 109
ENDBRANCH  80 108
ENDBRANCH  76  80
ENDBRANCH  75  78
ENDBRANCH  74  75
ENDBRANCH  73  74
ENDBRANCH  72  73
ENDBRANCH  71  72
ENDBRANCH  70  71
ENDBRANCH  66  70
ENDBRANCH  60  67
ENDBRANCH   1  63
TORSDOF 24
ENDMDL
MODEL 4
REMARK VINA RESULT:      -9.0     28.255     34.212
REMARK  Name = 
REMARK  24 active torsions:
REMARK  status: ('A' for Active; 'I' for Inactive)
REMARK    1  A    between atoms: N_1  and  CA_2
REMARK    2  A    between atoms: CA_2  and  CB_3
REMARK    3  A    between atoms: CA_2  and  C_13
REMARK    4  A    between atoms: CB_3  and  CG_4
REMARK    5  A    between atoms: N_15  and  CA_16
REMARK    6  A    between atoms: CA_16  and  CB_17
REMARK    7  A    between atoms: CA_16  and  C_19
REMARK    8  A    between atoms: CB_17  and  SG_18
REMARK    9  A    between atoms: N_21  and  C_22
REMARK   10  A    between atoms: C_22  and  C_23
REMARK   11  A    between atoms: C_22  and  C_25
REMARK   12  A    between atoms: C_23  and  O_24
REMARK   13  A    between atoms: N_27  and  C_28
REMARK   14  A    between atoms: C_28  and  C_29
REMARK   15  A    between atoms: C_29  and  C_30
REMARK   16  A    between atoms: C_30  and  C_31
REMARK   17  A    between atoms: C_31  and  C_32
REMARK   18  A    between atoms: C_32  and  C_33
REMARK   19  A    between atoms: C_33  and  N_34
REMARK   20  A    between atoms: C_35  and  C_37
REMARK   21  A    between atoms: C_40  and  C_41
REMARK   22  A    between atoms: C_45  and  C_46
REMARK   23  A    between atoms: C_62  and  C_63
REMARK   24  A    between atoms: C_77  and  C_78
REMARK                            x       y       z     vdW  Elec       q    Type
REMARK                         _______ _______ _______ _____ _____    ______ ____
ROOT
ATOM      1  C   UNK A   3      46.531  51.338  17.374  0.00  0.00    +0.000 C 
ATOM      2  C   UNK A   3      46.661  52.321  16.240  0.00  0.00    +0.000 C 
ATOM      3  N   UNK A   3      47.505  53.307  16.143  0.00  0.00    +0.000 NA
ATOM      4  C   UNK A   3      47.268  53.929  14.946  0.00  0.00    +0.000 C 
ATOM      5  C   UNK A   3      47.901  55.016  14.455  0.00  0.00    +0.000 C 
ATOM      6  C   UNK A   3      48.981  55.732  15.096  0.00  0.00    +0.000 A 
ATOM      7  C   UNK A   3      49.619  56.876  14.636  0.00  0.00    +0.000 A 
ATOM      8  C   UNK A   3      50.649  57.205  15.527  0.00  0.00    +0.000 A 
ATOM      9  C   UNK A   3      50.623  56.303  16.575  0.00  0.00    +0.000 A 
ATOM     10  N   UNK A   3      49.599  55.407  16.298  0.00  0.00    +0.000 N 
ATOM     11  C   UNK A   3      51.461  56.253  17.746  0.00  0.00    +0.000 C 
ATOM     12  C   UNK A   3      51.361  55.337  18.738  0.00  0.00    +0.000 C 
ATOM     13  N   UNK A   3      50.448  54.293  18.856  0.00  0.00    +0.000 NA
ATOM     14  C   UNK A   3      50.736  53.690  19.984  0.00  0.00    +0.000 C 
ATOM     15  C   UNK A   3      50.041  52.501  20.615  0.00  0.00    +0.000 C 
ATOM     16  C   UNK A   3      48.978  51.928  20.008  0.00  0.00    +0.000 A 
ATOM     17  C   UNK A   3      48.211  50.791  20.502  0.00  0.00    +0.000 A 
ATOM     18  C   UNK A   3      47.266  50.467  19.599  0.00  0.00    +0.000 A 
ATOM     19  C   UNK A   3      47.338  51.395  18.462  0.00  0.00    +0.000 A 
ATOM     20  N   UNK A   3      48.371  52.239  18.811  0.00  0.00    +0.000 N 
ATOM     21  C   UNK A   3      51.874  54.277  20.704  0.00  0.00    +0.000 C 
ATOM     22  C   UNK A   3      52.211  55.286  19.909  0.00  0.00    +0.000 C 
ATOM     23  C   UNK A   3      46.187  53.196  14.313  0.00  0.00    +0.000 C 
ATOM     24  C   UNK A   3      45.763  52.198  15.086  0.00  0.00    +0.000 C 
ATOM     25  H   UNK A   3      49.366  54.645  16.916  0.00  0.00    +0.000 HD
ATOM     26  H   UNK A   3      48.729  53.008  18.258  0.00  0.00    +0.000 HD
ENDROOT
BRANCH  15  27
ATOM     27  C   UNK A   3      50.532  51.963  21.910  0.00  0.00    +0.000 A 
ATOM     28  C   UNK A   3      50.036  52.439  23.135  0.00  0.00    +0.000 A 
ATOM     29  F   UNK A   3      49.107  53.408  23.159  0.00  0.00    +0.000 F 
ATOM     30  C   UNK A   3      50.473  51.901  24.347  0.00  0.00    +0.000 A 
ATOM     31  F   UNK A   3      49.987  52.371  25.507  0.00  0.00    +0.000 F 
ATOM     32  C   UNK A   3      51.402  50.870  24.357  0.00  0.00    +0.000 A 
ATOM     33  F   UNK A   3      51.798  50.333  25.519  0.00  0.00    +0.000 F 
ATOM     34  C   UNK A   3      51.908  50.386  23.158  0.00  0.00    +0.000 A 
ATOM     35  F   UNK A   3      52.786  49.373  23.163  0.00  0.00    +0.000 F 
ATOM     36  C   UNK A   3      51.485  50.935  21.945  0.00  0.00    +0.000 A 
ATOM     37  F   UNK A   3      51.982  50.441  20.802  0.00  0.00    +0.000 F 
ENDBRANCH  15  27
BRANCH  11  38
ATOM     38  C   UNK A   3      52.509  57.307  17.907  0.00  0.00    +0.000 A 
ATOM     39  C   UNK A   3      53.800  57.137  17.389  0.00  0.00    +0.000 A 
ATOM     40  F   UNK A   3      54.128  56.005  16.750  0.00  0.00    +0.000 F 
ATOM     41  C   UNK A   3      54.761  58.134  17.532  0.00  0.00    +0.000 A 
ATOM     42  F   UNK A   3      55.993  57.943  17.045  0.00  0.00    +0.000 F 
ATOM     43  C   UNK A   3      54.444  59.318  18.179  0.00  0.00    +0.000 A 
ATOM     44  F   UNK A   3      55.363  60.287  18.313  0.00  0.00    +0.000 F 
ATOM     45  C   UNK A   3      53.169  59.505  18.693  0.00  0.00    +0.000 A 
ATOM     46  F   UNK A   3      52.867  60.653  19.315  0.00  0.00    +0.000 F 
ATOM     47  C   UNK A   3      52.209  58.507  18.565  0.00  0.00    +0.000 A 
ATOM     48  F   UNK A   3      50.992  58.705  19.093  0.00  0.00    +0.000 F 
ENDBRANCH  11  38
BRANCH   5  49
ATOM     49  C   UNK A   3      47.425  55.503  13.128  0.00  0.00    +0.000 A 
ATOM     50  C   UNK A   3      46.618  56.640  13.023  0.00  0.00    +0.000 A 
ATOM     51  F   UNK A   3      46.226  57.295  14.126  0.00  0.00    +0.000 F 
ATOM     52  C   UNK A   3      46.204  57.105  11.777  0.00  0.00    +0.000 A 
ATOM     53  F   UNK A   3      45.410  58.182  11.698  0.00  0.00    +0.000 F 
ATOM     54  C   UNK A   3      46.600  56.449  10.621  0.00  0.00    +0.000 A 
ATOM     55  F   UNK A   3      46.197  56.897   9.424  0.00  0.00    +0.000 F 
ATOM     56  C   UNK A   3      47.401  55.318  10.709  0.00  0.00    +0.000 A 
ATOM     57  F   UNK A   3      47.777  54.674   9.596  0.00  0.00    +0.000 F 
ATOM     58  C   UNK A   3      47.807  54.846  11.953  0.00  0.00    +0.000 A 
ATOM     59  F   UNK A   3      48.571  53.745  12.022  0.00  0.00    +0.000 F 
ENDBRANCH   5  49
BRANCH   1  63
ATOM     60  C   UNK A   3      43.562  48.220  17.042  0.00  0.00    +0.000 A 
ATOM     61  C   UNK A   3      43.252  49.433  17.673  0.00  0.00    +0.000 A 
ATOM     62  C   UNK A   3      44.215  50.449  17.777  0.00  0.00    +0.000 A 
ATOM     63  C   UNK A   3      45.508  50.264  17.272  0.00  0.00    +0.000 A 
ATOM     64  C   UNK A   3      45.830  49.045  16.660  0.00  0.00    +0.000 A 
ATOM     65  C   UNK A   3      44.860  48.039  16.540  0.00  0.00    +0.000 A 
BRANCH  60  67
ATOM     66  N   UNK A   3      42.672  46.093  17.872  0.00  0.00    +0.000 N 
ATOM     67  C   UNK A   3      42.555  47.106  16.927  0.00  0.00    +0.000 C 
ATOM     68  O   UNK A   3      41.694  47.120  16.052  0.00  0.00    +0.000 OA
ATOM     69  H   UNK A   3      43.300  46.216  18.659  0.00  0.00    +0.000 HD
BRANCH  66  70
ATOM     70  C   UNK A   3      41.755  44.959  17.874  0.00  0.00    +0.000 C 
BRANCH  70  71
ATOM     71  C   UNK A   3      41.669  44.280  19.242  0.00  0.00    +0.000 C 
BRANCH  71  72
ATOM     72  C   UNK A   3      42.844  43.319  19.464  0.00  0.00    +0.000 C 
BRANCH  72  73
ATOM     73  C   UNK A   3      42.753  42.599  20.815  0.00  0.00    +0.000 C 
BRANCH  73  74
ATOM     74  C   UNK A   3      43.434  43.403  21.927  0.00  0.00    +0.000 C 
BRANCH  74  75
ATOM     75  C   UNK A   3      42.455  43.833  23.017  0.00  0.00    +0.000 C 
BRANCH  75  78
ATOM     76  C   UNK A   3      41.989  41.786  24.364  0.00  0.00    +0.000 C 
ATOM     77  O   UNK A   3      41.186  41.272  23.586  0.00  0.00    +0.000 OA
ATOM     78  N   UNK A   3      42.613  43.011  24.210  0.00  0.00    +0.000 N 
ATOM     79  H   UNK A   3      43.296  43.330  24.891  0.00  0.00    +0.000 HD
BRANCH  76  80
ATOM     80  C   UNK A   3      42.364  40.939  25.581  0.00  0.00    +0.000 C 
BRANCH  80  83
ATOM     81  C   CYS A   2      44.382  41.128  27.107  0.00  0.00    +0.000 C 
ATOM     82  O   CYS A   2      44.574  39.921  27.217  0.00  0.00    +0.000 OA
ATOM     83  N   UNK A   3      43.376  41.710  26.353  0.00  0.00    +0.000 N 
ATOM     84  H   UNK A   3      43.344  42.726  26.256  0.00  0.00    +0.000 HD
BRANCH  81  85
ATOM     85  CA  CYS A   2      45.319  42.092  27.818  0.00  0.00    +0.000 C 
BRANCH  85  88
ATOM     86  C   TRP A   1      46.623  43.174  25.966  0.00  0.00    +0.000 C 
ATOM     87  O   TRP A   1      47.337  42.189  25.762  0.00  0.00    +0.000 OA
ATOM     88  N   CYS A   2      45.583  43.179  26.880  0.00  0.00    +0.000 N 
ATOM     89  H   CYS A   2      45.030  44.044  26.911  0.00  0.00    +0.000 HD
BRANCH  86  90
ATOM     90  CA  TRP A   1      46.767  44.504  25.153  0.00  0.00    +0.000 C 
BRANCH  90  91
ATOM     91  N   TRP A   1      47.087  45.607  26.098  0.00  0.00    +0.000 NA
ATOM     92  H1  TRP A   1      47.331  45.177  26.994  0.00  0.00    +0.000 HD
ATOM     93  H2  TRP A   1      46.230  46.125  26.291  0.00  0.00    +0.000 HD
ENDBRANCH  90  91
BRANCH  90  94
ATOM     94  CB  TRP A   1      47.803  44.271  24.025  0.00  0.00    +0.000 C 
BRANCH  94  95
ATOM     95  CG  TRP A   1      47.285  44.075  22.621  0.00  0.00    +0.000 A 
ATOM     96  CD1 TRP A   1      47.288  42.908  21.874  0.00  0.00    +0.000 A 
ATOM     97  NE1 TRP A   1      46.759  43.178  20.633  0.00  0.00    +0.000 N 
ATOM     98  CE2 TRP A   1      46.486  44.523  20.514  0.00  0.00    +0.000 A 
ATOM     99  CZ2 TRP A   1      45.981  45.264  19.433  0.00  0.00    +0.000 A 
ATOM    100  CH2 TRP A   1      45.854  46.649  19.603  0.00  0.00    +0.000 A 
ATOM    101  CZ3 TRP A   1      46.217  47.263  20.800  0.00  0.00    +0.000 A 
ATOM    102  CE3 TRP A   1      46.695  46.506  21.876  0.00  0.00    +0.000 A 
ATOM    103  CD2 TRP A   1      46.826  45.109  21.739  0.00  0.00    +0.000 A 
ATOM    104  HE1 TRP A   1      46.637  42.491  19.901  0.00  0.00    +0.000 HD
ENDBRANCH  94  95
ENDBRANCH  90  94
ENDBRANCH  86  90
ENDBRANCH  85  88
BRANCH  85 105
ATOM    105  CB  CYS A   2      44.768  42.558  29.173  0.00  0.00    +0.000 C 
BRANCH 105 106
ATOM    106  SG  CYS A   2      45.605  41.878  30.655  0.00  0.00    +0.000 S 
ATOM    107  HG  CYS A   2      44.883  42.546  31.569  0.00  0.00    +0.000 HD
ENDBRANCH 105 106
ENDBRANCH  85 105
ENDBRANCH  81  85
ENDBRANCH  80  83
BRANCH  80 108
ATOM    108  C   UNK A   3      41.133  40.634  26.434  0.00  0.00    +0.000 C 
BRANCH 108 109
ATOM    109  O   UNK A   3      40.085  41.602  26.353  0.00  0.00    +0.000 OA
ATOM    110  H   UNK A   3      40.159  42.181  25.578  0.00  0.00    +0.000 HD
ENDBRANCH 108 109
ENDBRANCH  80 108
ENDBRANCH  76  80
ENDBRANCH  75  78
ENDBRANCH  74  75
ENDBRANCH  73  74
ENDBRANCH  72  73
ENDBRANCH  71  72
ENDBRANCH  70  71
ENDBRANCH  66  70
ENDBRANCH  60  67
ENDBRANCH   1  63
TORSDOF 24
ENDMDL
MODEL 5
REMARK VINA RESULT:      -9.0     47.095     52.415
REMARK  Name = 
REMARK  24 active torsions:
REMARK  status: ('A' for Active; 'I' for Inactive)
REMARK    1  A    between atoms: N_1  and  CA_2
REMARK    2  A    between atoms: CA_2  and  CB_3
REMARK    3  A    between atoms: CA_2  and  C_13
REMARK    4  A    between atoms: CB_3  and  CG_4
REMARK    5  A    between atoms: N_15  and  CA_16
REMARK    6  A    between atoms: CA_16  and  CB_17
REMARK    7  A    between atoms: CA_16  and  C_19
REMARK    8  A    between atoms: CB_17  and  SG_18
REMARK    9  A    between atoms: N_21  and  C_22
REMARK   10  A    between atoms: C_22  and  C_23
REMARK   11  A    between atoms: C_22  and  C_25
REMARK   12  A    between atoms: C_23  and  O_24
REMARK   13  A    between atoms: N_27  and  C_28
REMARK   14  A    between atoms: C_28  and  C_29
REMARK   15  A    between atoms: C_29  and  C_30
REMARK   16  A    between atoms: C_30  and  C_31
REMARK   17  A    between atoms: C_31  and  C_32
REMARK   18  A    between atoms: C_32  and  C_33
REMARK   19  A    between atoms: C_33  and  N_34
REMARK   20  A    between atoms: C_35  and  C_37
REMARK   21  A    between atoms: C_40  and  C_41
REMARK   22  A    between atoms: C_45  and  C_46
REMARK   23  A    between atoms: C_62  and  C_63
REMARK   24  A    between atoms: C_77  and  C_78
REMARK                            x       y       z     vdW  Elec       q    Type
REMARK                         _______ _______ _______ _____ _____    ______ ____
ROOT
ATOM      1  C   UNK A   3      13.190  49.831   3.295  0.00  0.00    +0.000 C 
ATOM      2  C   UNK A   3      14.116  49.351   2.208  0.00  0.00    +0.000 C 
ATOM      3  N   UNK A   3      14.960  50.063   1.520  0.00  0.00    +0.000 NA
ATOM      4  C   UNK A   3      15.592  49.215   0.650  0.00  0.00    +0.000 C 
ATOM      5  C   UNK A   3      16.529  49.539  -0.267  0.00  0.00    +0.000 C 
ATOM      6  C   UNK A   3      17.069  50.860  -0.498  0.00  0.00    +0.000 A 
ATOM      7  C   UNK A   3      17.996  51.231  -1.463  0.00  0.00    +0.000 A 
ATOM      8  C   UNK A   3      18.293  52.590  -1.301  0.00  0.00    +0.000 A 
ATOM      9  C   UNK A   3      17.511  53.088  -0.275  0.00  0.00    +0.000 A 
ATOM     10  N   UNK A   3      16.768  52.020   0.208  0.00  0.00    +0.000 N 
ATOM     11  C   UNK A   3      17.438  54.434   0.234  0.00  0.00    +0.000 C 
ATOM     12  C   UNK A   3      16.630  54.843   1.241  0.00  0.00    +0.000 C 
ATOM     13  N   UNK A   3      15.712  54.091   1.967  0.00  0.00    +0.000 NA
ATOM     14  C   UNK A   3      15.163  54.921   2.822  0.00  0.00    +0.000 C 
ATOM     15  C   UNK A   3      14.079  54.636   3.841  0.00  0.00    +0.000 C 
ATOM     16  C   UNK A   3      13.551  53.397   3.950  0.00  0.00    +0.000 A 
ATOM     17  C   UNK A   3      12.502  52.984   4.875  0.00  0.00    +0.000 A 
ATOM     18  C   UNK A   3      12.279  51.664   4.732  0.00  0.00    +0.000 A 
ATOM     19  C   UNK A   3      13.156  51.131   3.680  0.00  0.00    +0.000 A 
ATOM     20  N   UNK A   3      13.855  52.243   3.261  0.00  0.00    +0.000 N 
ATOM     21  C   UNK A   3      15.683  56.293   2.742  0.00  0.00    +0.000 C 
ATOM     22  C   UNK A   3      16.565  56.196   1.754  0.00  0.00    +0.000 C 
ATOM     23  C   UNK A   3      15.045  47.893   0.899  0.00  0.00    +0.000 C 
ATOM     24  C   UNK A   3      14.110  47.929   1.846  0.00  0.00    +0.000 C 
ATOM     25  H   UNK A   3      16.107  52.118   0.964  0.00  0.00    +0.000 HD
ATOM     26  H   UNK A   3      14.574  52.266   2.548  0.00  0.00    +0.000 HD
ENDROOT
BRANCH  15  27
ATOM     27  C   UNK A   3      13.595  55.728   4.726  0.00  0.00    +0.000 A 
ATOM     28  C   UNK A   3      14.121  55.912   6.015  0.00  0.00    +0.000 A 
ATOM     29  F   UNK A   3      15.072  55.088   6.482  0.00  0.00    +0.000 F 
ATOM     30  C   UNK A   3      13.689  56.964   6.825  0.00  0.00    +0.000 A 
ATOM     31  F   UNK A   3      14.204  57.121   8.055  0.00  0.00    +0.000 F 
ATOM     32  C   UNK A   3      12.737  57.858   6.358  0.00  0.00    +0.000 A 
ATOM     33  F   UNK A   3      12.346  58.886   7.124  0.00  0.00    +0.000 F 
ATOM     34  C   UNK A   3      12.201  57.694   5.087  0.00  0.00    +0.000 A 
ATOM     35  F   UNK A   3      11.300  58.571   4.623  0.00  0.00    +0.000 F 
ATOM     36  C   UNK A   3      12.619  56.631   4.282  0.00  0.00    +0.000 A 
ATOM     37  F   UNK A   3      12.093  56.503   3.055  0.00  0.00    +0.000 F 
ENDBRANCH  15  27
BRANCH  11  38
ATOM     38  C   UNK A   3      18.291  55.478  -0.411  0.00  0.00    +0.000 A 
ATOM     39  C   UNK A   3      19.510  55.874   0.154  0.00  0.00    +0.000 A 
ATOM     40  F   UNK A   3      19.928  55.331   1.307  0.00  0.00    +0.000 F 
ATOM     41  C   UNK A   3      20.303  56.837  -0.465  0.00  0.00    +0.000 A 
ATOM     42  F   UNK A   3      21.456  57.213   0.101  0.00  0.00    +0.000 F 
ATOM     43  C   UNK A   3      19.899  57.405  -1.663  0.00  0.00    +0.000 A 
ATOM     44  F   UNK A   3      20.662  58.326  -2.271  0.00  0.00    +0.000 F 
ATOM     45  C   UNK A   3      18.696  57.021  -2.239  0.00  0.00    +0.000 A 
ATOM     46  F   UNK A   3      18.311  57.571  -3.399  0.00  0.00    +0.000 F 
ATOM     47  C   UNK A   3      17.894  56.070  -1.617  0.00  0.00    +0.000 A 
ATOM     48  F   UNK A   3      16.726  55.735  -2.184  0.00  0.00    +0.000 F 
ENDBRANCH  11  38
BRANCH   5  49
ATOM     49  C   UNK A   3      17.037  48.415  -1.105  0.00  0.00    +0.000 A 
ATOM     50  C   UNK A   3      18.150  47.666  -0.710  0.00  0.00    +0.000 A 
ATOM     51  F   UNK A   3      18.806  47.974   0.419  0.00  0.00    +0.000 F 
ATOM     52  C   UNK A   3      18.599  46.599  -1.483  0.00  0.00    +0.000 A 
ATOM     53  F   UNK A   3      19.683  45.909  -1.102  0.00  0.00    +0.000 F 
ATOM     54  C   UNK A   3      17.935  46.257  -2.653  0.00  0.00    +0.000 A 
ATOM     55  F   UNK A   3      18.371  45.231  -3.397  0.00  0.00    +0.000 F 
ATOM     56  C   UNK A   3      16.828  46.991  -3.058  0.00  0.00    +0.000 A 
ATOM     57  F   UNK A   3      16.190  46.672  -4.192  0.00  0.00    +0.000 F 
ATOM     58  C   UNK A   3      16.384  48.064  -2.292  0.00  0.00    +0.000 A 
ATOM     59  F   UNK A   3      15.321  48.771  -2.703  0.00  0.00    +0.000 F 
ENDBRANCH   5  49
BRANCH   1  63
ATOM     60  C   UNK A   3      10.678  46.926   5.269  0.00  0.00    +0.000 A 
ATOM     61  C   UNK A   3      10.241  47.567   4.102  0.00  0.00    +0.000 A 
ATOM     62  C   UNK A   3      11.059  48.508   3.456  0.00  0.00    +0.000 A 
ATOM     63  C   UNK A   3      12.316  48.840   3.976  0.00  0.00    +0.000 A 
ATOM     64  C   UNK A   3      12.748  48.219   5.156  0.00  0.00    +0.000 A 
ATOM     65  C   UNK A   3      11.938  47.264   5.788  0.00  0.00    +0.000 A 
BRANCH  60  67
ATOM     66  N   UNK A   3       8.528  46.344   6.292  0.00  0.00    +0.000 N 
ATOM     67  C   UNK A   3       9.818  45.923   5.993  0.00  0.00    +0.000 C 
ATOM     68  O   UNK A   3      10.252  44.810   6.281  0.00  0.00    +0.000 OA
ATOM     69  H   UNK A   3       8.181  47.209   5.892  0.00  0.00    +0.000 HD
BRANCH  66  70
ATOM     70  C   UNK A   3       7.594  45.465   6.985  0.00  0.00    +0.000 C 
BRANCH  70  71
ATOM     71  C   UNK A   3       7.082  46.071   8.293  0.00  0.00    +0.000 C 
BRANCH  71  72
ATOM     72  C   UNK A   3       8.000  47.197   8.784  0.00  0.00    +0.000 C 
BRANCH  72  73
ATOM     73  C   UNK A   3       9.247  46.658   9.497  0.00  0.00    +0.000 C 
BRANCH  73  74
ATOM     74  C   UNK A   3       9.570  47.468  10.756  0.00  0.00    +0.000 C 
BRANCH  74  75
ATOM     75  C   UNK A   3      10.872  47.021  11.417  0.00  0.00    +0.000 C 
BRANCH  75  78
ATOM     76  C   UNK A   3      12.953  47.263  10.063  0.00  0.00    +0.000 C 
ATOM     77  O   UNK A   3      13.024  46.094   9.685  0.00  0.00    +0.000 OA
ATOM     78  N   UNK A   3      12.001  47.794  10.916  0.00  0.00    +0.000 N 
ATOM     79  H   UNK A   3      12.003  48.785  11.135  0.00  0.00    +0.000 HD
BRANCH  76  80
ATOM     80  C   UNK A   3      13.992  48.215   9.470  0.00  0.00    +0.000 C 
BRANCH  80  83
ATOM     81  C   CYS A   2      14.710  50.450  10.429  0.00  0.00    +0.000 C 
ATOM     82  O   CYS A   2      14.567  51.088   9.391  0.00  0.00    +0.000 OA
ATOM     83  N   UNK A   3      14.457  49.096  10.574  0.00  0.00    +0.000 N 
ATOM     84  H   UNK A   3      14.528  48.667  11.498  0.00  0.00    +0.000 HD
BRANCH  81  85
ATOM     85  CA  CYS A   2      15.174  51.176  11.683  0.00  0.00    +0.000 C 
BRANCH  85  88
ATOM     86  C   TRP A   1      13.432  50.789  13.448  0.00  0.00    +0.000 C 
ATOM     87  O   TRP A   1      12.670  51.662  13.026  0.00  0.00    +0.000 OA
ATOM     88  N   CYS A   2      14.613  50.443  12.815  0.00  0.00    +0.000 N 
ATOM     89  H   CYS A   2      15.126  49.661  13.238  0.00  0.00    +0.000 HD
BRANCH  86  90
ATOM     90  CA  TRP A   1      13.103  49.920  14.709  0.00  0.00    +0.000 C 
BRANCH  90  91
ATOM     91  N   TRP A   1      12.446  50.785  15.725  0.00  0.00    +0.000 NA
ATOM     92  H1  TRP A   1      12.181  50.183  16.510  0.00  0.00    +0.000 HD
ATOM     93  H2  TRP A   1      11.557  51.111  15.345  0.00  0.00    +0.000 HD
ENDBRANCH  90  91
BRANCH  90  94
ATOM     94  CB  TRP A   1      12.282  48.691  14.248  0.00  0.00    +0.000 C 
BRANCH  94  95
ATOM     95  CG  TRP A   1      12.308  47.458  15.119  0.00  0.00    +0.000 A 
ATOM     96  CD1 TRP A   1      13.180  46.385  15.038  0.00  0.00    +0.000 A 
ATOM     97  NE1 TRP A   1      12.829  45.459  15.994  0.00  0.00    +0.000 N 
ATOM     98  CE2 TRP A   1      11.685  45.861  16.649  0.00  0.00    +0.000 A 
ATOM     99  CZ2 TRP A   1      10.939  45.234  17.660  0.00  0.00    +0.000 A 
ATOM    100  CH2 TRP A   1       9.777  45.880  18.100  0.00  0.00    +0.000 A 
ATOM    101  CZ3 TRP A   1       9.380  47.098  17.551  0.00  0.00    +0.000 A 
ATOM    102  CE3 TRP A   1      10.149  47.721  16.562  0.00  0.00    +0.000 A 
ATOM    103  CD2 TRP A   1      11.328  47.100  16.104  0.00  0.00    +0.000 A 
ATOM    104  HE1 TRP A   1      13.318  44.588  16.154  0.00  0.00    +0.000 HD
ENDBRANCH  94  95
ENDBRANCH  90  94
ENDBRANCH  86  90
ENDBRANCH  85  88
BRANCH  85 105
ATOM    105  CB  CYS A   2      16.699  51.338  11.740  0.00  0.00    +0.000 C 
BRANCH 105 106
ATOM    106  SG  CYS A   2      17.676  50.032  10.902  0.00  0.00    +0.000 S 
ATOM    107  HG  CYS A   2      18.860  50.664  10.943  0.00  0.00    +0.000 HD
ENDBRANCH 105 106
ENDBRANCH  85 105
ENDBRANCH  81  85
ENDBRANCH  80  83
BRANCH  80 108
ATOM    108  C   UNK A   3      15.156  47.437   8.855  0.00  0.00    +0.000 C 
BRANCH 108 109
ATOM    109  O   UNK A   3      16.169  47.033   9.778  0.00  0.00    +0.000 OA
ATOM    110  H   UNK A   3      16.149  47.532  10.610  0.00  0.00    +0.000 HD
ENDBRANCH 108 109
ENDBRANCH  80 108
ENDBRANCH  76  80
ENDBRANCH  75  78
ENDBRANCH  74  75
ENDBRANCH  73  74
ENDBRANCH  72  73
ENDBRANCH  71  72
ENDBRANCH  70  71
ENDBRANCH  66  70
ENDBRANCH  60  67
ENDBRANCH   1  63
TORSDOF 24
ENDMDL
MODEL 6
REMARK VINA RESULT:      -8.9     42.178     48.522
REMARK  Name = 
REMARK  24 active torsions:
REMARK  status: ('A' for Active; 'I' for Inactive)
REMARK    1  A    between atoms: N_1  and  CA_2
REMARK    2  A    between atoms: CA_2  and  CB_3
REMARK    3  A    between atoms: CA_2  and  C_13
REMARK    4  A    between atoms: CB_3  and  CG_4
REMARK    5  A    between atoms: N_15  and  CA_16
REMARK    6  A    between atoms: CA_16  and  CB_17
REMARK    7  A    between atoms: CA_16  and  C_19
REMARK    8  A    between atoms: CB_17  and  SG_18
REMARK    9  A    between atoms: N_21  and  C_22
REMARK   10  A    between atoms: C_22  and  C_23
REMARK   11  A    between atoms: C_22  and  C_25
REMARK   12  A    between atoms: C_23  and  O_24
REMARK   13  A    between atoms: N_27  and  C_28
REMARK   14  A    between atoms: C_28  and  C_29
REMARK   15  A    between atoms: C_29  and  C_30
REMARK   16  A    between atoms: C_30  and  C_31
REMARK   17  A    between atoms: C_31  and  C_32
REMARK   18  A    between atoms: C_32  and  C_33
REMARK   19  A    between atoms: C_33  and  N_34
REMARK   20  A    between atoms: C_35  and  C_37
REMARK   21  A    between atoms: C_40  and  C_41
REMARK   22  A    between atoms: C_45  and  C_46
REMARK   23  A    between atoms: C_62  and  C_63
REMARK   24  A    between atoms: C_77  and  C_78
REMARK                            x       y       z     vdW  Elec       q    Type
REMARK                         _______ _______ _______ _____ _____    ______ ____
ROOT
ATOM      1  C   UNK A   3      26.933  39.813  47.056  0.00  0.00    +0.000 C 
ATOM      2  C   UNK A   3      27.325  41.037  47.842  0.00  0.00    +0.000 C 
ATOM      3  N   UNK A   3      28.472  41.651  47.826  0.00  0.00    +0.000 NA
ATOM      4  C   UNK A   3      28.376  42.712  48.687  0.00  0.00    +0.000 C 
ATOM      5  C   UNK A   3      29.346  43.602  48.992  0.00  0.00    +0.000 C 
ATOM      6  C   UNK A   3      30.685  43.619  48.447  0.00  0.00    +0.000 A 
ATOM      7  C   UNK A   3      31.714  44.492  48.775  0.00  0.00    +0.000 A 
ATOM      8  C   UNK A   3      32.822  44.202  47.970  0.00  0.00    +0.000 A 
ATOM      9  C   UNK A   3      32.512  43.113  47.177  0.00  0.00    +0.000 A 
ATOM     10  N   UNK A   3      31.202  42.767  47.477  0.00  0.00    +0.000 N 
ATOM     11  C   UNK A   3      33.340  42.429  46.216  0.00  0.00    +0.000 C 
ATOM     12  C   UNK A   3      32.960  41.355  45.485  0.00  0.00    +0.000 C 
ATOM     13  N   UNK A   3      31.742  40.683  45.511  0.00  0.00    +0.000 NA
ATOM     14  C   UNK A   3      31.851  39.707  44.642  0.00  0.00    +0.000 C 
ATOM     15  C   UNK A   3      30.826  38.650  44.286  0.00  0.00    +0.000 C 
ATOM     16  C   UNK A   3      29.620  38.634  44.896  0.00  0.00    +0.000 A 
ATOM     17  C   UNK A   3      28.546  37.676  44.661  0.00  0.00    +0.000 A 
ATOM     18  C   UNK A   3      27.478  38.013  45.408  0.00  0.00    +0.000 A 
ATOM     19  C   UNK A   3      27.797  39.207  46.204  0.00  0.00    +0.000 A 
ATOM     20  N   UNK A   3      29.099  39.484  45.847  0.00  0.00    +0.000 N 
ATOM     21  C   UNK A   3      33.149  39.659  43.955  0.00  0.00    +0.000 C 
ATOM     22  C   UNK A   3      33.794  40.676  44.514  0.00  0.00    +0.000 C 
ATOM     23  C   UNK A   3      27.027  42.685  49.220  0.00  0.00    +0.000 C 
ATOM     24  C   UNK A   3      26.339  41.651  48.739  0.00  0.00    +0.000 C 
ATOM     25  H   UNK A   3      30.732  41.992  47.035  0.00  0.00    +0.000 HD
ATOM     26  H   UNK A   3      29.662  40.256  46.183  0.00  0.00    +0.000 HD
ENDROOT
BRANCH  15  27
ATOM     27  C   UNK A   3      31.150  37.625  43.260  0.00  0.00    +0.000 A 
ATOM     28  C   UNK A   3      31.184  37.944  41.893  0.00  0.00    +0.000 A 
ATOM     29  F   UNK A   3      30.909  39.192  41.482  0.00  0.00    +0.000 F 
ATOM     30  C   UNK A   3      31.529  36.986  40.938  0.00  0.00    +0.000 A 
ATOM     31  F   UNK A   3      31.554  37.311  39.636  0.00  0.00    +0.000 F 
ATOM     32  C   UNK A   3      31.859  35.697  41.332  0.00  0.00    +0.000 A 
ATOM     33  F   UNK A   3      32.220  34.786  40.418  0.00  0.00    +0.000 F 
ATOM     34  C   UNK A   3      31.829  35.358  42.678  0.00  0.00    +0.000 A 
ATOM     35  F   UNK A   3      32.173  34.121  43.065  0.00  0.00    +0.000 F 
ATOM     36  C   UNK A   3      31.468  36.312  43.634  0.00  0.00    +0.000 A 
ATOM     37  F   UNK A   3      31.459  35.960  44.928  0.00  0.00    +0.000 F 
ENDBRANCH  15  27
BRANCH  11  38
ATOM     38  C   UNK A   3      34.741  42.914  46.022  0.00  0.00    +0.000 A 
ATOM     39  C   UNK A   3      35.829  42.251  46.605  0.00  0.00    +0.000 A 
ATOM     40  F   UNK A   3      35.629  41.170  47.374  0.00  0.00    +0.000 F 
ATOM     41  C   UNK A   3      37.130  42.704  46.403  0.00  0.00    +0.000 A 
ATOM     42  F   UNK A   3      38.153  42.066  46.984  0.00  0.00    +0.000 F 
ATOM     43  C   UNK A   3      37.365  43.812  45.604  0.00  0.00    +0.000 A 
ATOM     44  F   UNK A   3      38.616  44.248  45.397  0.00  0.00    +0.000 F 
ATOM     45  C   UNK A   3      36.299  44.477  45.015  0.00  0.00    +0.000 A 
ATOM     46  F   UNK A   3      36.531  45.546  44.241  0.00  0.00    +0.000 F 
ATOM     47  C   UNK A   3      34.996  44.037  45.225  0.00  0.00    +0.000 A 
ATOM     48  F   UNK A   3      33.984  44.713  44.662  0.00  0.00    +0.000 F 
ENDBRANCH  11  38
BRANCH   5  49
ATOM     49  C   UNK A   3      28.977  44.652  49.984  0.00  0.00    +0.000 A 
ATOM     50  C   UNK A   3      28.406  45.862  49.576  0.00  0.00    +0.000 A 
ATOM     51  F   UNK A   3      28.215  46.113  48.272  0.00  0.00    +0.000 F 
ATOM     52  C   UNK A   3      28.036  46.825  50.512  0.00  0.00    +0.000 A 
ATOM     53  F   UNK A   3      27.514  47.988  50.100  0.00  0.00    +0.000 F 
ATOM     54  C   UNK A   3      28.218  46.587  51.866  0.00  0.00    +0.000 A 
ATOM     55  F   UNK A   3      27.864  47.516  52.764  0.00  0.00    +0.000 F 
ATOM     56  C   UNK A   3      28.784  45.391  52.287  0.00  0.00    +0.000 A 
ATOM     57  F   UNK A   3      28.973  45.161  53.593  0.00  0.00    +0.000 F 
ATOM     58  C   UNK A   3      29.164  44.432  51.353  0.00  0.00    +0.000 A 
ATOM     59  F   UNK A   3      29.719  43.286  51.775  0.00  0.00    +0.000 F 
ENDBRANCH   5  49
BRANCH   1  63
ATOM     60  C   UNK A   3      22.936  38.238  47.491  0.00  0.00    +0.000 A 
ATOM     61  C   UNK A   3      23.313  38.907  46.319  0.00  0.00    +0.000 A 
ATOM     62  C   UNK A   3      24.613  39.415  46.174  0.00  0.00    +0.000 A 
ATOM     63  C   UNK A   3      25.552  39.282  47.204  0.00  0.00    +0.000 A 
ATOM     64  C   UNK A   3      25.174  38.634  48.388  0.00  0.00    +0.000 A 
ATOM     65  C   UNK A   3      23.880  38.110  48.522  0.00  0.00    +0.000 A 
BRANCH  60  67
ATOM     66  N   UNK A   3      20.626  38.035  46.696  0.00  0.00    +0.000 N 
ATOM     67  C   UNK A   3      21.544  37.694  47.682  0.00  0.00    +0.000 C 
ATOM     68  O   UNK A   3      21.268  36.993  48.652  0.00  0.00    +0.000 OA
ATOM     69  H   UNK A   3      20.952  38.483  45.846  0.00  0.00    +0.000 HD
BRANCH  66  70
ATOM     70  C   UNK A   3      19.247  37.567  46.760  0.00  0.00    +0.000 C 
BRANCH  70  71
ATOM     71  C   UNK A   3      18.972  36.422  45.784  0.00  0.00    +0.000 C 
BRANCH  71  72
ATOM     72  C   UNK A   3      17.810  35.544  46.264  0.00  0.00    +0.000 C 
BRANCH  72  73
ATOM     73  C   UNK A   3      16.535  35.774  45.443  0.00  0.00    +0.000 C 
BRANCH  73  74
ATOM     74  C   UNK A   3      16.569  35.000  44.122  0.00  0.00    +0.000 C 
BRANCH  74  75
ATOM     75  C   UNK A   3      15.782  33.694  44.192  0.00  0.00    +0.000 C 
BRANCH  75  78
ATOM     76  C   UNK A   3      16.973  31.689  43.307  0.00  0.00    +0.000 C 
ATOM     77  O   UNK A   3      16.482  31.707  42.178  0.00  0.00    +0.000 OA
ATOM     78  N   UNK A   3      16.678  32.555  44.345  0.00  0.00    +0.000 N 
ATOM     79  H   UNK A   3      17.171  32.484  45.230  0.00  0.00    +0.000 HD
BRANCH  76  80
ATOM     80  C   UNK A   3      18.056  30.634  43.540  0.00  0.00    +0.000 C 
BRANCH  80  83
ATOM     81  C   CYS A   2      20.187  31.549  44.565  0.00  0.00    +0.000 C 
ATOM     82  O   CYS A   2      20.813  31.630  43.513  0.00  0.00    +0.000 OA
ATOM     83  N   UNK A   3      18.882  31.103  44.685  0.00  0.00    +0.000 N 
ATOM     84  H   UNK A   3      18.416  31.147  45.592  0.00  0.00    +0.000 HD
BRANCH  81  85
ATOM     85  CA  CYS A   2      20.858  31.990  45.858  0.00  0.00    +0.000 C 
BRANCH  85  88
ATOM     86  C   TRP A   1      23.335  32.394  45.872  0.00  0.00    +0.000 C 
ATOM     87  O   TRP A   1      23.600  31.354  46.481  0.00  0.00    +0.000 OA
ATOM     88  N   CYS A   2      22.055  32.731  45.469  0.00  0.00    +0.000 N 
ATOM     89  H   CYS A   2      21.981  33.595  44.919  0.00  0.00    +0.000 HD
BRANCH  86  90
ATOM     90  CA  TRP A   1      24.438  33.410  45.420  0.00  0.00    +0.000 C 
BRANCH  90  91
ATOM     91  N   TRP A   1      24.377  33.551  43.941  0.00  0.00    +0.000 NA
ATOM     92  H1  TRP A   1      25.219  34.057  43.650  0.00  0.00    +0.000 HD
ATOM     93  H2  TRP A   1      23.611  34.181  43.707  0.00  0.00    +0.000 HD
ENDBRANCH  90  91
BRANCH  90  94
ATOM     94  CB  TRP A   1      24.247  34.719  46.223  0.00  0.00    +0.000 C 
BRANCH  94  95
ATOM     95  CG  TRP A   1      24.750  34.755  47.645  0.00  0.00    +0.000 A 
ATOM     96  CD1 TRP A   1      24.004  34.657  48.809  0.00  0.00    +0.000 A 
ATOM     97  NE1 TRP A   1      24.851  34.775  49.887  0.00  0.00    +0.000 N 
ATOM     98  CE2 TRP A   1      26.134  35.038  49.458  0.00  0.00    +0.000 A 
ATOM     99  CZ2 TRP A   1      27.313  35.272  50.183  0.00  0.00    +0.000 A 
ATOM    100  CH2 TRP A   1      28.473  35.561  49.454  0.00  0.00    +0.000 A 
ATOM    101  CZ3 TRP A   1      28.453  35.613  48.062  0.00  0.00    +0.000 A 
ATOM    102  CE3 TRP A   1      27.274  35.352  47.354  0.00  0.00    +0.000 A 
ATOM    103  CD2 TRP A   1      26.092  35.050  48.059  0.00  0.00    +0.000 A 
ATOM    104  HE1 TRP A   1      24.558  34.724  50.853  0.00  0.00    +0.000 HD
ENDBRANCH  94  95
ENDBRANCH  90  94
ENDBRANCH  86  90
ENDBRANCH  85  88
BRANCH  85 105
ATOM    105  CB  CYS A   2      19.910  32.775  46.775  0.00  0.00    +0.000 C 
BRANCH 105 106
ATOM    106  SG  CYS A   2      20.677  33.538  48.255  0.00  0.00    +0.000 S 
ATOM    107  HG  CYS A   2      21.008  34.706  47.683  0.00  0.00    +0.000 HD
ENDBRANCH 105 106
ENDBRANCH  85 105
ENDBRANCH  81  85
ENDBRANCH  80  83
BRANCH  80 108
ATOM    108  C   UNK A   3      17.434  29.268  43.828  0.00  0.00    +0.000 C 
BRANCH 108 109
ATOM    109  O   UNK A   3      16.100  29.095  43.345  0.00  0.00    +0.000 OA
ATOM    110  H   UNK A   3      15.438  29.564  43.877  0.00  0.00    +0.000 HD
ENDBRANCH 108 109
ENDBRANCH  80 108
ENDBRANCH  76  80
ENDBRANCH  75  78
ENDBRANCH  74  75
ENDBRANCH  73  74
ENDBRANCH  72  73
ENDBRANCH  71  72
ENDBRANCH  70  71
ENDBRANCH  66  70
ENDBRANCH  60  67
ENDBRANCH   1  63
TORSDOF 24
ENDMDL
MODEL 7
REMARK VINA RESULT:      -8.9     47.777     53.122
REMARK  Name = 
REMARK  24 active torsions:
REMARK  status: ('A' for Active; 'I' for Inactive)
REMARK    1  A    between atoms: N_1  and  CA_2
REMARK    2  A    between atoms: CA_2  and  CB_3
REMARK    3  A    between atoms: CA_2  and  C_13
REMARK    4  A    between atoms: CB_3  and  CG_4
REMARK    5  A    between atoms: N_15  and  CA_16
REMARK    6  A    between atoms: CA_16  and  CB_17
REMARK    7  A    between atoms: CA_16  and  C_19
REMARK    8  A    between atoms: CB_17  and  SG_18
REMARK    9  A    between atoms: N_21  and  C_22
REMARK   10  A    between atoms: C_22  and  C_23
REMARK   11  A    between atoms: C_22  and  C_25
REMARK   12  A    between atoms: C_23  and  O_24
REMARK   13  A    between atoms: N_27  and  C_28
REMARK   14  A    between atoms: C_28  and  C_29
REMARK   15  A    between atoms: C_29  and  C_30
REMARK   16  A    between atoms: C_30  and  C_31
REMARK   17  A    between atoms: C_31  and  C_32
REMARK   18  A    between atoms: C_32  and  C_33
REMARK   19  A    between atoms: C_33  and  N_34
REMARK   20  A    between atoms: C_35  and  C_37
REMARK   21  A    between atoms: C_40  and  C_41
REMARK   22  A    between atoms: C_45  and  C_46
REMARK   23  A    between atoms: C_62  and  C_63
REMARK   24  A    between atoms: C_77  and  C_78
REMARK                            x       y       z     vdW  Elec       q    Type
REMARK                         _______ _______ _______ _____ _____    ______ ____
ROOT
ATOM      1  C   UNK A   3      24.235  62.156   0.869  0.00  0.00    +0.000 C 
ATOM      2  C   UNK A   3      25.714  62.433   0.792  0.00  0.00    +0.000 C 
ATOM      3  N   UNK A   3      26.381  63.341   1.442  0.00  0.00    +0.000 NA
ATOM      4  C   UNK A   3      27.693  63.226   1.067  0.00  0.00    +0.000 C 
ATOM      5  C   UNK A   3      28.728  63.989   1.483  0.00  0.00    +0.000 C 
ATOM      6  C   UNK A   3      28.653  65.077   2.432  0.00  0.00    +0.000 A 
ATOM      7  C   UNK A   3      29.689  65.905   2.842  0.00  0.00    +0.000 A 
ATOM      8  C   UNK A   3      29.201  66.784   3.819  0.00  0.00    +0.000 A 
ATOM      9  C   UNK A   3      27.849  66.548   3.980  0.00  0.00    +0.000 A 
ATOM     10  N   UNK A   3      27.527  65.500   3.128  0.00  0.00    +0.000 N 
ATOM     11  C   UNK A   3      26.911  67.221   4.843  0.00  0.00    +0.000 C 
ATOM     12  C   UNK A   3      25.590  66.933   4.933  0.00  0.00    +0.000 C 
ATOM     13  N   UNK A   3      24.868  65.977   4.226  0.00  0.00    +0.000 NA
ATOM     14  C   UNK A   3      23.629  66.080   4.645  0.00  0.00    +0.000 C 
ATOM     15  C   UNK A   3      22.417  65.293   4.191  0.00  0.00    +0.000 C 
ATOM     16  C   UNK A   3      22.536  64.346   3.234  0.00  0.00    +0.000 A 
ATOM     17  C   UNK A   3      21.460  63.523   2.696  0.00  0.00    +0.000 A 
ATOM     18  C   UNK A   3      21.969  62.654   1.802  0.00  0.00    +0.000 A 
ATOM     19  C   UNK A   3      23.417  62.873   1.679  0.00  0.00    +0.000 A 
ATOM     20  N   UNK A   3      23.652  63.915   2.551  0.00  0.00    +0.000 N 
ATOM     21  C   UNK A   3      23.430  67.107   5.677  0.00  0.00    +0.000 C 
ATOM     22  C   UNK A   3      24.653  67.608   5.807  0.00  0.00    +0.000 C 
ATOM     23  C   UNK A   3      27.753  62.128   0.121  0.00  0.00    +0.000 C 
ATOM     24  C   UNK A   3      26.544  61.613  -0.098  0.00  0.00    +0.000 C 
ATOM     25  H   UNK A   3      26.590  65.135   3.051  0.00  0.00    +0.000 HD
ATOM     26  H   UNK A   3      24.550  64.338   2.752  0.00  0.00    +0.000 HD
ENDROOT
BRANCH  15  27
ATOM     27  C   UNK A   3      21.091  65.565   4.802  0.00  0.00    +0.000 A 
ATOM     28  C   UNK A   3      20.262  66.593   4.323  0.00  0.00    +0.000 A 
ATOM     29  F   UNK A   3      20.662  67.365   3.301  0.00  0.00    +0.000 F 
ATOM     30  C   UNK A   3      19.000  66.817   4.877  0.00  0.00    +0.000 A 
ATOM     31  F   UNK A   3      18.224  67.805   4.406  0.00  0.00    +0.000 F 
ATOM     32  C   UNK A   3      18.538  66.012   5.908  0.00  0.00    +0.000 A 
ATOM     33  F   UNK A   3      17.315  66.208   6.418  0.00  0.00    +0.000 F 
ATOM     34  C   UNK A   3      19.342  64.991   6.399  0.00  0.00    +0.000 A 
ATOM     35  F   UNK A   3      18.889  64.195   7.378  0.00  0.00    +0.000 F 
ATOM     36  C   UNK A   3      20.612  64.777   5.858  0.00  0.00    +0.000 A 
ATOM     37  F   UNK A   3      21.363  63.777   6.344  0.00  0.00    +0.000 F 
ENDBRANCH  15  27
BRANCH  11  38
ATOM     38  C   UNK A   3      27.413  68.347   5.688  0.00  0.00    +0.000 A 
ATOM     39  C   UNK A   3      27.895  68.126   6.985  0.00  0.00    +0.000 A 
ATOM     40  F   UNK A   3      27.894  66.890   7.505  0.00  0.00    +0.000 F 
ATOM     41  C   UNK A   3      28.375  69.183   7.755  0.00  0.00    +0.000 A 
ATOM     42  F   UNK A   3      28.814  68.952   8.998  0.00  0.00    +0.000 F 
ATOM     43  C   UNK A   3      28.396  70.468   7.237  0.00  0.00    +0.000 A 
ATOM     44  F   UNK A   3      28.867  71.488   7.969  0.00  0.00    +0.000 F 
ATOM     45  C   UNK A   3      27.928  70.702   5.952  0.00  0.00    +0.000 A 
ATOM     46  F   UNK A   3      27.954  71.946   5.454  0.00  0.00    +0.000 F 
ATOM     47  C   UNK A   3      27.435  69.654   5.184  0.00  0.00    +0.000 A 
ATOM     48  F   UNK A   3      26.966  69.914   3.954  0.00  0.00    +0.000 F 
ENDBRANCH  11  38
BRANCH   5  49
ATOM     49  C   UNK A   3      30.058  63.659   0.894  0.00  0.00    +0.000 A 
ATOM     50  C   UNK A   3      30.457  64.195  -0.335  0.00  0.00    +0.000 A 
ATOM     51  F   UNK A   3      29.627  64.990  -1.026  0.00  0.00    +0.000 F 
ATOM     52  C   UNK A   3      31.713  63.906  -0.861  0.00  0.00    +0.000 A 
ATOM     53  F   UNK A   3      32.068  64.408  -2.052  0.00  0.00    +0.000 F 
ATOM     54  C   UNK A   3      32.592  63.090  -0.163  0.00  0.00    +0.000 A 
ATOM     55  F   UNK A   3      33.799  62.811  -0.673  0.00  0.00    +0.000 F 
ATOM     56  C   UNK A   3      32.210  62.551   1.059  0.00  0.00    +0.000 A 
ATOM     57  F   UNK A   3      33.050  61.754   1.732  0.00  0.00    +0.000 F 
ATOM     58  C   UNK A   3      30.952  62.830   1.582  0.00  0.00    +0.000 A 
ATOM     59  F   UNK A   3      30.593  62.292   2.757  0.00  0.00    +0.000 F 
ENDBRANCH   5  49
BRANCH   1  63
ATOM     60  C   UNK A   3      22.635  58.915  -1.495  0.00  0.00    +0.000 A 
ATOM     61  C   UNK A   3      22.814  60.186  -2.059  0.00  0.00    +0.000 A 
ATOM     62  C   UNK A   3      23.338  61.240  -1.293  0.00  0.00    +0.000 A 
ATOM     63  C   UNK A   3      23.673  61.047   0.053  0.00  0.00    +0.000 A 
ATOM     64  C   UNK A   3      23.476  59.785   0.628  0.00  0.00    +0.000 A 
ATOM     65  C   UNK A   3      22.971  58.729  -0.145  0.00  0.00    +0.000 A 
BRANCH  60  67
ATOM     66  N   UNK A   3      20.769  57.392  -1.944  0.00  0.00    +0.000 N 
ATOM     67  C   UNK A   3      22.062  57.770  -2.287  0.00  0.00    +0.000 C 
ATOM     68  O   UNK A   3      22.713  57.227  -3.176  0.00  0.00    +0.000 OA
ATOM     69  H   UNK A   3      20.230  57.976  -1.313  0.00  0.00    +0.000 HD
BRANCH  66  70
ATOM     70  C   UNK A   3      20.097  56.300  -2.639  0.00  0.00    +0.000 C 
BRANCH  70  71
ATOM     71  C   UNK A   3      19.051  55.607  -1.764  0.00  0.00    +0.000 C 
BRANCH  71  72
ATOM     72  C   UNK A   3      19.087  56.135  -0.324  0.00  0.00    +0.000 C 
BRANCH  72  73
ATOM     73  C   UNK A   3      19.071  55.000   0.708  0.00  0.00    +0.000 C 
BRANCH  73  74
ATOM     74  C   UNK A   3      18.421  53.734   0.142  0.00  0.00    +0.000 C 
BRANCH  74  75
ATOM     75  C   UNK A   3      17.540  53.024   1.167  0.00  0.00    +0.000 C 
BRANCH  75  78
ATOM     76  C   UNK A   3      18.058  51.120   2.694  0.00  0.00    +0.000 C 
ATOM     77  O   UNK A   3      17.759  51.684   3.746  0.00  0.00    +0.000 OA
ATOM     78  N   UNK A   3      18.031  51.676   1.427  0.00  0.00    +0.000 N 
ATOM     79  H   UNK A   3      18.257  51.113   0.613  0.00  0.00    +0.000 HD
BRANCH  76  80
ATOM     80  C   UNK A   3      18.433  49.642   2.819  0.00  0.00    +0.000 C 
BRANCH  80  83
ATOM     81  C   CYS A   2      16.527  48.844   4.289  0.00  0.00    +0.000 C 
ATOM     82  O   CYS A   2      15.659  48.911   3.423  0.00  0.00    +0.000 OA
ATOM     83  N   UNK A   3      17.863  49.155   4.104  0.00  0.00    +0.000 N 
ATOM     84  H   UNK A   3      18.528  48.991   4.862  0.00  0.00    +0.000 HD
BRANCH  81  85
ATOM     85  CA  CYS A   2      16.145  48.358   5.679  0.00  0.00    +0.000 C 
BRANCH  85  88
ATOM     86  C   TRP A   1      16.703  49.220   7.969  0.00  0.00    +0.000 C 
ATOM     87  O   TRP A   1      16.664  48.109   8.503  0.00  0.00    +0.000 OA
ATOM     88  N   CYS A   2      16.543  49.412   6.608  0.00  0.00    +0.000 N 
ATOM     89  H   CYS A   2      16.656  50.380   6.285  0.00  0.00    +0.000 HD
BRANCH  86  90
ATOM     90  CA  TRP A   1      17.019  50.529   8.768  0.00  0.00    +0.000 C 
BRANCH  90  91
ATOM     91  N   TRP A   1      18.117  51.255   8.077  0.00  0.00    +0.000 NA
ATOM     92  H1  TRP A   1      18.324  50.742   7.215  0.00  0.00    +0.000 HD
ATOM     93  H2  TRP A   1      18.966  51.165   8.634  0.00  0.00    +0.000 HD
ENDBRANCH  90  91
BRANCH  90  94
ATOM     94  CB  TRP A   1      15.700  51.321   8.940  0.00  0.00    +0.000 C 
BRANCH  94  95
ATOM     95  CG  TRP A   1      14.724  50.848   9.989  0.00  0.00    +0.000 A 
ATOM     96  CD1 TRP A   1      13.549  50.140   9.793  0.00  0.00    +0.000 A 
ATOM     97  NE1 TRP A   1      12.943  49.946  11.013  0.00  0.00    +0.000 N 
ATOM     98  CE2 TRP A   1      13.650  50.590  12.005  0.00  0.00    +0.000 A 
ATOM     99  CZ2 TRP A   1      13.401  50.707  13.381  0.00  0.00    +0.000 A 
ATOM    100  CH2 TRP A   1      14.294  51.478  14.136  0.00  0.00    +0.000 A 
ATOM    101  CZ3 TRP A   1      15.386  52.103  13.540  0.00  0.00    +0.000 A 
ATOM    102  CE3 TRP A   1      15.635  51.955  12.170  0.00  0.00    +0.000 A 
ATOM    103  CD2 TRP A   1      14.759  51.179  11.385  0.00  0.00    +0.000 A 
ATOM    104  HE1 TRP A   1      12.075  49.444  11.148  0.00  0.00    +0.000 HD
ENDBRANCH  94  95
ENDBRANCH  90  94
ENDBRANCH  86  90
ENDBRANCH  85  88
BRANCH  85 105
ATOM    105  CB  CYS A   2      14.665  47.964   5.780  0.00  0.00    +0.000 C 
BRANCH 105 106
ATOM    106  SG  CYS A   2      13.490  49.337   6.087  0.00  0.00    +0.000 S 
ATOM    107  HG  CYS A   2      14.390  50.224   6.539  0.00  0.00    +0.000 HD
ENDBRANCH 105 106
ENDBRANCH  85 105
ENDBRANCH  81  85
ENDBRANCH  80  83
BRANCH  80 108
ATOM    108  C   UNK A   3      17.894  48.840   1.635  0.00  0.00    +0.000 C 
BRANCH 108 109
ATOM    109  O   UNK A   3      18.762  48.776   0.501  0.00  0.00    +0.000 OA
ATOM    110  H   UNK A   3      19.131  49.638   0.254  0.00  0.00    +0.000 HD
ENDBRANCH 108 109
ENDBRANCH  80 108
ENDBRANCH  76  80
ENDBRANCH  75  78
ENDBRANCH  74  75
ENDBRANCH  73  74
ENDBRANCH  72  73
ENDBRANCH  71  72
ENDBRANCH  70  71
ENDBRANCH  66  70
ENDBRANCH  60  67
ENDBRANCH   1  63
TORSDOF 24
ENDMDL
MODEL 8
REMARK VINA RESULT:      -8.9     27.900     33.686
REMARK  Name = 
REMARK  24 active torsions:
REMARK  status: ('A' for Active; 'I' for Inactive)
REMARK    1  A    between atoms: N_1  and  CA_2
REMARK    2  A    between atoms: CA_2  and  CB_3
REMARK    3  A    between atoms: CA_2  and  C_13
REMARK    4  A    between atoms: CB_3  and  CG_4
REMARK    5  A    between atoms: N_15  and  CA_16
REMARK    6  A    between atoms: CA_16  and  CB_17
REMARK    7  A    between atoms: CA_16  and  C_19
REMARK    8  A    between atoms: CB_17  and  SG_18
REMARK    9  A    between atoms: N_21  and  C_22
REMARK   10  A    between atoms: C_22  and  C_23
REMARK   11  A    between atoms: C_22  and  C_25
REMARK   12  A    between atoms: C_23  and  O_24
REMARK   13  A    between atoms: N_27  and  C_28
REMARK   14  A    between atoms: C_28  and  C_29
REMARK   15  A    between atoms: C_29  and  C_30
REMARK   16  A    between atoms: C_30  and  C_31
REMARK   17  A    between atoms: C_31  and  C_32
REMARK   18  A    between atoms: C_32  and  C_33
REMARK   19  A    between atoms: C_33  and  N_34
REMARK   20  A    between atoms: C_35  and  C_37
REMARK   21  A    between atoms: C_40  and  C_41
REMARK   22  A    between atoms: C_45  and  C_46
REMARK   23  A    between atoms: C_62  and  C_63
REMARK   24  A    between atoms: C_77  and  C_78
REMARK                            x       y       z     vdW  Elec       q    Type
REMARK                         _______ _______ _______ _____ _____    ______ ____
ROOT
ATOM      1  C   UNK A   3      25.542   6.038   5.316  0.00  0.00    +0.000 C 
ATOM      2  C   UNK A   3      24.607   7.167   5.662  0.00  0.00    +0.000 C 
ATOM      3  N   UNK A   3      23.591   7.129   6.475  0.00  0.00    +0.000 NA
ATOM      4  C   UNK A   3      23.035   8.380   6.488  0.00  0.00    +0.000 C 
ATOM      5  C   UNK A   3      21.946   8.779   7.180  0.00  0.00    +0.000 C 
ATOM      6  C   UNK A   3      21.157   7.956   8.070  0.00  0.00    +0.000 A 
ATOM      7  C   UNK A   3      20.008   8.325   8.757  0.00  0.00    +0.000 A 
ATOM      8  C   UNK A   3      19.596   7.249   9.554  0.00  0.00    +0.000 A 
ATOM      9  C   UNK A   3      20.450   6.186   9.325  0.00  0.00    +0.000 A 
ATOM     10  N   UNK A   3      21.400   6.632   8.416  0.00  0.00    +0.000 N 
ATOM     11  C   UNK A   3      20.411   4.859   9.885  0.00  0.00    +0.000 C 
ATOM     12  C   UNK A   3      21.284   3.865   9.596  0.00  0.00    +0.000 C 
ATOM     13  N   UNK A   3      22.360   3.894   8.714  0.00  0.00    +0.000 NA
ATOM     14  C   UNK A   3      22.898   2.699   8.764  0.00  0.00    +0.000 C 
ATOM     15  C   UNK A   3      24.086   2.173   7.984  0.00  0.00    +0.000 C 
ATOM     16  C   UNK A   3      24.730   2.967   7.100  0.00  0.00    +0.000 A 
ATOM     17  C   UNK A   3      25.875   2.593   6.278  0.00  0.00    +0.000 A 
ATOM     18  C   UNK A   3      26.279   3.662   5.567  0.00  0.00    +0.000 A 
ATOM     19  C   UNK A   3      25.402   4.804   5.860  0.00  0.00    +0.000 A 
ATOM     20  N   UNK A   3      24.500   4.283   6.763  0.00  0.00    +0.000 N 
ATOM     21  C   UNK A   3      22.231   1.781   9.696  0.00  0.00    +0.000 C 
ATOM     22  C   UNK A   3      21.246   2.535  10.168  0.00  0.00    +0.000 C 
ATOM     23  C   UNK A   3      23.841   9.195   5.598  0.00  0.00    +0.000 C 
ATOM     24  C   UNK A   3      24.820   8.481   5.045  0.00  0.00    +0.000 C 
ATOM     25  H   UNK A   3      22.143   6.040   8.076  0.00  0.00    +0.000 HD
ATOM     26  H   UNK A   3      23.742   4.784   7.210  0.00  0.00    +0.000 HD
ENDROOT
BRANCH  15  27
ATOM     27  C   UNK A   3      24.543   0.775   8.193  0.00  0.00    +0.000 A 
ATOM     28  C   UNK A   3      25.434   0.444   9.226  0.00  0.00    +0.000 A 
ATOM     29  F   UNK A   3      25.906   1.397  10.045  0.00  0.00    +0.000 F 
ATOM     30  C   UNK A   3      25.828  -0.878   9.441  0.00  0.00    +0.000 A 
ATOM     31  F   UNK A   3      26.683  -1.173  10.433  0.00  0.00    +0.000 F 
ATOM     32  C   UNK A   3      25.328  -1.894   8.639  0.00  0.00    +0.000 A 
ATOM     33  F   UNK A   3      25.682  -3.166   8.865  0.00  0.00    +0.000 F 
ATOM     34  C   UNK A   3      24.447  -1.589   7.610  0.00  0.00    +0.000 A 
ATOM     35  F   UNK A   3      23.942  -2.571   6.849  0.00  0.00    +0.000 F 
ATOM     36  C   UNK A   3      24.066  -0.264   7.382  0.00  0.00    +0.000 A 
ATOM     37  F   UNK A   3      23.205  -0.001   6.388  0.00  0.00    +0.000 F 
ENDBRANCH  15  27
BRANCH  11  38
ATOM     38  C   UNK A   3      19.308   4.529  10.837  0.00  0.00    +0.000 A 
ATOM     39  C   UNK A   3      19.490   4.617  12.224  0.00  0.00    +0.000 A 
ATOM     40  F   UNK A   3      20.678   4.983  12.727  0.00  0.00    +0.000 F 
ATOM     41  C   UNK A   3      18.448   4.322  13.100  0.00  0.00    +0.000 A 
ATOM     42  F   UNK A   3      18.650   4.396  14.421  0.00  0.00    +0.000 F 
ATOM     43  C   UNK A   3      17.208   3.951  12.605  0.00  0.00    +0.000 A 
ATOM     44  F   UNK A   3      16.197   3.675  13.442  0.00  0.00    +0.000 F 
ATOM     45  C   UNK A   3      17.008   3.864  11.235  0.00  0.00    +0.000 A 
ATOM     46  F   UNK A   3      15.806   3.508  10.761  0.00  0.00    +0.000 F 
ATOM     47  C   UNK A   3      18.049   4.144  10.356  0.00  0.00    +0.000 A 
ATOM     48  F   UNK A   3      17.835   4.029   9.037  0.00  0.00    +0.000 F 
ENDBRANCH  11  38
BRANCH   5  49
ATOM     49  C   UNK A   3      21.541  10.202   6.994  0.00  0.00    +0.000 A 
ATOM     50  C   UNK A   3      20.532  10.554   6.091  0.00  0.00    +0.000 A 
ATOM     51  F   UNK A   3      19.935   9.612   5.345  0.00  0.00    +0.000 F 
ATOM     52  C   UNK A   3      20.139  11.881   5.947  0.00  0.00    +0.000 A 
ATOM     53  F   UNK A   3      19.189  12.202   5.058  0.00  0.00    +0.000 F 
ATOM     54  C   UNK A   3      20.737  12.873   6.711  0.00  0.00    +0.000 A 
ATOM     55  F   UNK A   3      20.360  14.151   6.567  0.00  0.00    +0.000 F 
ATOM     56  C   UNK A   3      21.740  12.540   7.612  0.00  0.00    +0.000 A 
ATOM     57  F   UNK A   3      22.329  13.494   8.343  0.00  0.00    +0.000 F 
ATOM     58  C   UNK A   3      22.142  11.215   7.750  0.00  0.00    +0.000 A 
ATOM     59  F   UNK A   3      23.120  10.910   8.616  0.00  0.00    +0.000 F 
ENDBRANCH   5  49
BRANCH   1  63
ATOM     60  C   UNK A   3      28.800   6.772   2.576  0.00  0.00    +0.000 A 
ATOM     61  C   UNK A   3      28.851   7.260   3.889  0.00  0.00    +0.000 A 
ATOM     62  C   UNK A   3      27.795   7.018   4.783  0.00  0.00    +0.000 A 
ATOM     63  C   UNK A   3      26.662   6.303   4.374  0.00  0.00    +0.000 A 
ATOM     64  C   UNK A   3      26.595   5.833   3.055  0.00  0.00    +0.000 A 
ATOM     65  C   UNK A   3      27.660   6.060   2.172  0.00  0.00    +0.000 A 
BRANCH  60  67
ATOM     66  N   UNK A   3      31.159   7.275   2.146  0.00  0.00    +0.000 N 
ATOM     67  C   UNK A   3      29.909   7.028   1.591  0.00  0.00    +0.000 C 
ATOM     68  O   UNK A   3      29.697   7.007   0.381  0.00  0.00    +0.000 OA
ATOM     69  H   UNK A   3      31.301   7.124   3.139  0.00  0.00    +0.000 HD
BRANCH  66  70
ATOM     70  C   UNK A   3      32.318   7.531   1.300  0.00  0.00    +0.000 C 
BRANCH  70  71
ATOM     71  C   UNK A   3      33.578   6.826   1.806  0.00  0.00    +0.000 C 
BRANCH  71  72
ATOM     72  C   UNK A   3      33.760   5.457   1.139  0.00  0.00    +0.000 C 
BRANCH  72  73
ATOM     73  C   UNK A   3      32.893   4.375   1.795  0.00  0.00    +0.000 C 
BRANCH  73  74
ATOM     74  C   UNK A   3      33.749   3.249   2.385  0.00  0.00    +0.000 C 
BRANCH  74  75
ATOM     75  C   UNK A   3      32.918   2.237   3.170  0.00  0.00    +0.000 C 
BRANCH  75  78
ATOM     76  C   UNK A   3      32.937   1.133   5.407  0.00  0.00    +0.000 C 
ATOM     77  O   UNK A   3      31.845   0.574   5.309  0.00  0.00    +0.000 OA
ATOM     78  N   UNK A   3      33.516   1.974   4.472  0.00  0.00    +0.000 N 
ATOM     79  H   UNK A   3      34.445   2.355   4.628  0.00  0.00    +0.000 HD
BRANCH  76  80
ATOM     80  C   UNK A   3      33.740   0.802   6.666  0.00  0.00    +0.000 C 
BRANCH  80  83
ATOM     81  C   CYS A   2      33.062   0.820   9.109  0.00  0.00    +0.000 C 
ATOM     82  O   CYS A   2      34.153   1.178   9.543  0.00  0.00    +0.000 OA
ATOM     83  N   UNK A   3      32.761   0.624   7.772  0.00  0.00    +0.000 N 
ATOM     84  H   UNK A   3      31.803   0.403   7.498  0.00  0.00    +0.000 HD
BRANCH  81  85
ATOM     85  CA  CYS A   2      31.919   0.590  10.086  0.00  0.00    +0.000 C 
BRANCH  85  88
ATOM     86  C   TRP A   1      30.697   2.746  10.483  0.00  0.00    +0.000 C 
ATOM     87  O   TRP A   1      31.457   3.126  11.377  0.00  0.00    +0.000 OA
ATOM     88  N   CYS A   2      30.896   1.581   9.764  0.00  0.00    +0.000 N 
ATOM     89  H   CYS A   2      30.221   1.410   9.008  0.00  0.00    +0.000 HD
BRANCH  86  90
ATOM     90  CA  TRP A   1      29.463   3.587  10.012  0.00  0.00    +0.000 C 
BRANCH  90  91
ATOM     91  N   TRP A   1      28.280   3.193  10.823  0.00  0.00    +0.000 NA
ATOM     92  H1  TRP A   1      27.758   4.048  11.032  0.00  0.00    +0.000 HD
ATOM     93  H2  TRP A   1      28.606   2.867  11.733  0.00  0.00    +0.000 HD
ENDBRANCH  90  91
BRANCH  90  94
ATOM     94  CB  TRP A   1      29.846   5.086  10.077  0.00  0.00    +0.000 C 
BRANCH  94  95
ATOM     95  CG  TRP A   1      30.518   5.695   8.871  0.00  0.00    +0.000 A 
ATOM     96  CD1 TRP A   1      31.103   6.947   8.771  0.00  0.00    +0.000 A 
ATOM     97  NE1 TRP A   1      31.563   7.118   7.486  0.00  0.00    +0.000 N 
ATOM     98  CE2 TRP A   1      31.213   6.036   6.707  0.00  0.00    +0.000 A 
ATOM     99  CZ2 TRP A   1      31.426   5.781   5.342  0.00  0.00    +0.000 A 
ATOM    100  CH2 TRP A   1      30.903   4.592   4.819  0.00  0.00    +0.000 A 
ATOM    101  CZ3 TRP A   1      30.200   3.699   5.624  0.00  0.00    +0.000 A 
ATOM    102  CE3 TRP A   1      30.019   3.957   6.988  0.00  0.00    +0.000 A 
ATOM    103  CD2 TRP A   1      30.540   5.141   7.547  0.00  0.00    +0.000 A 
ATOM    104  HE1 TRP A   1      32.044   7.944   7.155  0.00  0.00    +0.000 HD
ENDBRANCH  94  95
ENDBRANCH  90  94
ENDBRANCH  86  90
ENDBRANCH  85  88
BRANCH  85 105
ATOM    105  CB  CYS A   2      31.412  -0.858  10.070  0.00  0.00    +0.000 C 
BRANCH 105 106
ATOM    106  SG  CYS A   2      30.284  -1.328  11.436  0.00  0.00    +0.000 S 
ATOM    107  HG  CYS A   2      30.896  -2.477  11.764  0.00  0.00    +0.000 HD
ENDBRANCH 105 106
ENDBRANCH  85 105
ENDBRANCH  81  85
ENDBRANCH  80  83
BRANCH  80 108
ATOM    108  C   UNK A   3      34.580  -0.458   6.461  0.00  0.00    +0.000 C 
BRANCH 108 109
ATOM    109  O   UNK A   3      35.704  -0.586   7.335  0.00  0.00    +0.000 OA
ATOM    110  H   UNK A   3      35.939   0.245   7.778  0.00  0.00    +0.000 HD
ENDBRANCH 108 109
ENDBRANCH  80 108
ENDBRANCH  76  80
ENDBRANCH  75  78
ENDBRANCH  74  75
ENDBRANCH  73  74
ENDBRANCH  72  73
ENDBRANCH  71  72
ENDBRANCH  70  71
ENDBRANCH  66  70
ENDBRANCH  60  67
ENDBRANCH   1  63
TORSDOF 24
ENDMDL
MODEL 9
REMARK VINA RESULT:      -8.9     47.975     52.944
REMARK  Name = 
REMARK  24 active torsions:
REMARK  status: ('A' for Active; 'I' for Inactive)
REMARK    1  A    between atoms: N_1  and  CA_2
REMARK    2  A    between atoms: CA_2  and  CB_3
REMARK    3  A    between atoms: CA_2  and  C_13
REMARK    4  A    between atoms: CB_3  and  CG_4
REMARK    5  A    between atoms: N_15  and  CA_16
REMARK    6  A    between atoms: CA_16  and  CB_17
REMARK    7  A    between atoms: CA_16  and  C_19
REMARK    8  A    between atoms: CB_17  and  SG_18
REMARK    9  A    between atoms: N_21  and  C_22
REMARK   10  A    between atoms: C_22  and  C_23
REMARK   11  A    between atoms: C_22  and  C_25
REMARK   12  A    between atoms: C_23  and  O_24
REMARK   13  A    between atoms: N_27  and  C_28
REMARK   14  A    between atoms: C_28  and  C_29
REMARK   15  A    between atoms: C_29  and  C_30
REMARK   16  A    between atoms: C_30  and  C_31
REMARK   17  A    between atoms: C_31  and  C_32
REMARK   18  A    between atoms: C_32  and  C_33
REMARK   19  A    between atoms: C_33  and  N_34
REMARK   20  A    between atoms: C_35  and  C_37
REMARK   21  A    between atoms: C_40  and  C_41
REMARK   22  A    between atoms: C_45  and  C_46
REMARK   23  A    between atoms: C_62  and  C_63
REMARK   24  A    between atoms: C_77  and  C_78
REMARK                            x       y       z     vdW  Elec       q    Type
REMARK                         _______ _______ _______ _____ _____    ______ ____
ROOT
ATOM      1  C   UNK A   3      16.807  54.177   2.339  0.00  0.00    +0.000 C 
ATOM      2  C   UNK A   3      16.819  52.896   1.547  0.00  0.00    +0.000 C 
ATOM      3  N   UNK A   3      16.172  51.798   1.812  0.00  0.00    +0.000 NA
ATOM      4  C   UNK A   3      16.474  50.900   0.823  0.00  0.00    +0.000 C 
ATOM      5  C   UNK A   3      16.037  49.626   0.720  0.00  0.00    +0.000 C 
ATOM      6  C   UNK A   3      15.138  48.960   1.636  0.00  0.00    +0.000 A 
ATOM      7  C   UNK A   3      14.709  47.641   1.581  0.00  0.00    +0.000 A 
ATOM      8  C   UNK A   3      13.796  47.421   2.621  0.00  0.00    +0.000 A 
ATOM      9  C   UNK A   3      13.695  48.583   3.363  0.00  0.00    +0.000 A 
ATOM     10  N   UNK A   3      14.519  49.516   2.750  0.00  0.00    +0.000 N 
ATOM     11  C   UNK A   3      12.911  48.834   4.546  0.00  0.00    +0.000 C 
ATOM     12  C   UNK A   3      12.877  50.005   5.225  0.00  0.00    +0.000 C 
ATOM     13  N   UNK A   3      13.581  51.175   4.957  0.00  0.00    +0.000 NA
ATOM     14  C   UNK A   3      13.231  52.027   5.890  0.00  0.00    +0.000 C 
ATOM     15  C   UNK A   3      13.715  53.449   6.092  0.00  0.00    +0.000 C 
ATOM     16  C   UNK A   3      14.625  53.987   5.250  0.00  0.00    +0.000 A 
ATOM     17  C   UNK A   3      15.184  55.332   5.328  0.00  0.00    +0.000 A 
ATOM     18  C   UNK A   3      16.013  55.529   4.286  0.00  0.00    +0.000 A 
ATOM     19  C   UNK A   3      16.070  54.309   3.469  0.00  0.00    +0.000 A 
ATOM     20  N   UNK A   3      15.231  53.444   4.138  0.00  0.00    +0.000 N 
ATOM     21  C   UNK A   3      12.254  51.496   6.850  0.00  0.00    +0.000 C 
ATOM     22  C   UNK A   3      12.081  50.255   6.409  0.00  0.00    +0.000 C 
ATOM     23  C   UNK A   3      17.370  51.584  -0.090  0.00  0.00    +0.000 C 
ATOM     24  C   UNK A   3      17.630  52.822   0.326  0.00  0.00    +0.000 C 
ATOM     25  H   UNK A   3      14.630  50.455   3.103  0.00  0.00    +0.000 HD
ATOM     26  H   UNK A   3      15.001  52.497   3.862  0.00  0.00    +0.000 HD
ENDROOT
BRANCH  15  27
ATOM     27  C   UNK A   3      13.184  54.254   7.222  0.00  0.00    +0.000 A 
ATOM     28  C   UNK A   3      12.086  55.112   7.056  0.00  0.00    +0.000 A 
ATOM     29  F   UNK A   3      11.495  55.233   5.857  0.00  0.00    +0.000 F 
ATOM     30  C   UNK A   3      11.568  55.836   8.132  0.00  0.00    +0.000 A 
ATOM     31  F   UNK A   3      10.518  56.652   7.953  0.00  0.00    +0.000 F 
ATOM     32  C   UNK A   3      12.129  55.704   9.395  0.00  0.00    +0.000 A 
ATOM     33  F   UNK A   3      11.612  56.374  10.434  0.00  0.00    +0.000 F 
ATOM     34  C   UNK A   3      13.217  54.862   9.581  0.00  0.00    +0.000 A 
ATOM     35  F   UNK A   3      13.745  54.713  10.805  0.00  0.00    +0.000 F 
ATOM     36  C   UNK A   3      13.748  54.152   8.502  0.00  0.00    +0.000 A 
ATOM     37  F   UNK A   3      14.793  53.338   8.713  0.00  0.00    +0.000 F 
ENDBRANCH  15  27
BRANCH  11  38
ATOM     38  C   UNK A   3      12.088  47.714   5.096  0.00  0.00    +0.000 A 
ATOM     39  C   UNK A   3      12.569  46.892   6.123  0.00  0.00    +0.000 A 
ATOM     40  F   UNK A   3      13.800  47.083   6.622  0.00  0.00    +0.000 F 
ATOM     41  C   UNK A   3      11.785  45.862   6.638  0.00  0.00    +0.000 A 
ATOM     42  F   UNK A   3      12.273  45.077   7.606  0.00  0.00    +0.000 F 
ATOM     43  C   UNK A   3      10.507  45.650   6.147  0.00  0.00    +0.000 A 
ATOM     44  F   UNK A   3       9.742  44.666   6.645  0.00  0.00    +0.000 F 
ATOM     45  C   UNK A   3      10.012  46.459   5.134  0.00  0.00    +0.000 A 
ATOM     46  F   UNK A   3       8.774  46.252   4.666  0.00  0.00    +0.000 F 
ATOM     47  C   UNK A   3      10.796  47.479   4.607  0.00  0.00    +0.000 A 
ATOM     48  F   UNK A   3      10.301  48.231   3.612  0.00  0.00    +0.000 F 
ENDBRANCH  11  38
BRANCH   5  49
ATOM     49  C   UNK A   3      16.542  48.857  -0.453  0.00  0.00    +0.000 A 
ATOM     50  C   UNK A   3      17.784  48.215  -0.416  0.00  0.00    +0.000 A 
ATOM     51  F   UNK A   3      18.563  48.313   0.672  0.00  0.00    +0.000 F 
ATOM     52  C   UNK A   3      18.233  47.473  -1.506  0.00  0.00    +0.000 A 
ATOM     53  F   UNK A   3      19.437  46.886  -1.461  0.00  0.00    +0.000 F 
ATOM     54  C   UNK A   3      17.444  47.352  -2.640  0.00  0.00    +0.000 A 
ATOM     55  F   UNK A   3      17.880  46.640  -3.689  0.00  0.00    +0.000 F 
ATOM     56  C   UNK A   3      16.209  47.983  -2.692  0.00  0.00    +0.000 A 
ATOM     57  F   UNK A   3      15.447  47.880  -3.789  0.00  0.00    +0.000 F 
ATOM     58  C   UNK A   3      15.762  48.734  -1.609  0.00  0.00    +0.000 A 
ATOM     59  F   UNK A   3      14.572  49.348  -1.679  0.00  0.00    +0.000 F 
ENDBRANCH   5  49
BRANCH   1  63
ATOM     60  C   UNK A   3      19.134  57.533   0.932  0.00  0.00    +0.000 A 
ATOM     61  C   UNK A   3      17.765  57.444   0.642  0.00  0.00    +0.000 A 
ATOM     62  C   UNK A   3      17.006  56.357   1.103  0.00  0.00    +0.000 A 
ATOM     63  C   UNK A   3      17.605  55.329   1.842  0.00  0.00    +0.000 A 
ATOM     64  C   UNK A   3      18.978  55.400   2.116  0.00  0.00    +0.000 A 
ATOM     65  C   UNK A   3      19.729  56.498   1.671  0.00  0.00    +0.000 A 
BRANCH  60  67
ATOM     66  N   UNK A   3      20.938  58.352  -0.509  0.00  0.00    +0.000 N 
ATOM     67  C   UNK A   3      19.977  58.679   0.440  0.00  0.00    +0.000 C 
ATOM     68  O   UNK A   3      19.801  59.819   0.860  0.00  0.00    +0.000 OA
ATOM     69  H   UNK A   3      20.930  57.429  -0.929  0.00  0.00    +0.000 HD
BRANCH  66  70
ATOM     70  C   UNK A   3      21.816  59.372  -1.071  0.00  0.00    +0.000 C 
BRANCH  70  71
ATOM     71  C   UNK A   3      23.295  59.005  -0.944  0.00  0.00    +0.000 C 
BRANCH  71  72
ATOM     72  C   UNK A   3      24.053  60.026  -0.086  0.00  0.00    +0.000 C 
BRANCH  72  73
ATOM     73  C   UNK A   3      23.579  60.021   1.372  0.00  0.00    +0.000 C 
BRANCH  73  74
ATOM     74  C   UNK A   3      23.659  61.418   1.995  0.00  0.00    +0.000 C 
BRANCH  74  75
ATOM     75  C   UNK A   3      22.291  62.089   2.098  0.00  0.00    +0.000 C 
BRANCH  75  78
ATOM     76  C   UNK A   3      22.173  63.666   4.027  0.00  0.00    +0.000 C 
ATOM     77  O   UNK A   3      21.773  62.855   4.862  0.00  0.00    +0.000 OA
ATOM     78  N   UNK A   3      22.408  63.417   2.686  0.00  0.00    +0.000 N 
ATOM     79  H   UNK A   3      22.779  64.146   2.085  0.00  0.00    +0.000 HD
BRANCH  76  80
ATOM     80  C   UNK A   3      22.492  65.063   4.562  0.00  0.00    +0.000 C 
BRANCH  80  83
ATOM     81  C   CYS A   2      24.998  64.677   4.571  0.00  0.00    +0.000 C 
ATOM     82  O   CYS A   2      25.100  64.457   3.368  0.00  0.00    +0.000 OA
ATOM     83  N   UNK A   3      23.819  64.982   5.229  0.00  0.00    +0.000 N 
ATOM     84  H   UNK A   3      23.844  65.230   6.220  0.00  0.00    +0.000 HD
BRANCH  81  85
ATOM     85  CA  CYS A   2      26.251  64.648   5.434  0.00  0.00    +0.000 C 
BRANCH  85  88
ATOM     86  C   TRP A   1      27.649  66.306   4.169  0.00  0.00    +0.000 C 
ATOM     87  O   TRP A   1      27.079  67.293   4.640  0.00  0.00    +0.000 OA
ATOM     88  N   CYS A   2      27.363  65.009   4.558  0.00  0.00    +0.000 N 
ATOM     89  H   CYS A   2      27.950  64.283   4.132  0.00  0.00    +0.000 HD
BRANCH  86  90
ATOM     90  CA  TRP A   1      28.818  66.421   3.135  0.00  0.00    +0.000 C 
BRANCH  90  91
ATOM     91  N   TRP A   1      30.093  66.616   3.876  0.00  0.00    +0.000 NA
ATOM     92  H1  TRP A   1      30.710  65.838   3.627  0.00  0.00    +0.000 HD
ATOM     93  H2  TRP A   1      29.911  66.486   4.871  0.00  0.00    +0.000 HD
ENDBRANCH  90  91
BRANCH  90  94
ATOM     94  CB  TRP A   1      28.769  65.181   2.209  0.00  0.00    +0.000 C 
BRANCH  94  95
ATOM     95  CG  TRP A   1      30.077  64.533   1.827  0.00  0.00    +0.000 A 
ATOM     96  CD1 TRP A   1      30.898  64.850   0.757  0.00  0.00    +0.000 A 
ATOM     97  NE1 TRP A   1      31.971  63.988   0.754  0.00  0.00    +0.000 N 
ATOM     98  CE2 TRP A   1      31.830  63.048   1.751  0.00  0.00    +0.000 A 
ATOM     99  CZ2 TRP A   1      32.641  61.958   2.105  0.00  0.00    +0.000 A 
ATOM    100  CH2 TRP A   1      32.203  61.141   3.156  0.00  0.00    +0.000 A 
ATOM    101  CZ3 TRP A   1      31.007  61.405   3.821  0.00  0.00    +0.000 A 
ATOM    102  CE3 TRP A   1      30.224  62.511   3.472  0.00  0.00    +0.000 A 
ATOM    103  CD2 TRP A   1      30.642  63.356   2.424  0.00  0.00    +0.000 A 
ATOM    104  HE1 TRP A   1      32.725  64.016   0.081  0.00  0.00    +0.000 HD
ENDBRANCH  94  95
ENDBRANCH  90  94
ENDBRANCH  86  90
ENDBRANCH  85  88
BRANCH  85 105
ATOM    105  CB  CYS A   2      26.127  65.533   6.681  0.00  0.00    +0.000 C 
BRANCH 105 106
ATOM    106  SG  CYS A   2      26.537  64.731   8.277  0.00  0.00    +0.000 S 
ATOM    107  HG  CYS A   2      25.314  64.821   8.823  0.00  0.00    +0.000 HD
ENDBRANCH 105 106
ENDBRANCH  85 105
ENDBRANCH  81  85
ENDBRANCH  80  83
BRANCH  80 108
ATOM    108  C   UNK A   3      22.502  66.091   3.431  0.00  0.00    +0.000 C 
BRANCH 108 109
ATOM    109  O   UNK A   3      22.674  67.448   3.847  0.00  0.00    +0.000 OA
ATOM    110  H   UNK A   3      23.596  67.670   4.052  0.00  0.00    +0.000 HD
ENDBRANCH 108 109
ENDBRANCH  80 108
ENDBRANCH  76  80
ENDBRANCH  75  78
ENDBRANCH  74  75
ENDBRANCH  73  74
ENDBRANCH  72  73
ENDBRANCH  71  72
ENDBRANCH  70  71
ENDBRANCH  66  70
ENDBRANCH  60  67
ENDBRANCH   1  63
TORSDOF 24
ENDMDL
MODEL 10
REMARK VINA RESULT:      -8.8     26.577     33.340
REMARK  Name = 
REMARK  24 active torsions:
REMARK  status: ('A' for Active; 'I' for Inactive)
REMARK    1  A    between atoms: N_1  and  CA_2
REMARK    2  A    between atoms: CA_2  and  CB_3
REMARK    3  A    between atoms: CA_2  and  C_13
REMARK    4  A    between atoms: CB_3  and  CG_4
REMARK    5  A    between atoms: N_15  and  CA_16
REMARK    6  A    between atoms: CA_16  and  CB_17
REMARK    7  A    between atoms: CA_16  and  C_19
REMARK    8  A    between atoms: CB_17  and  SG_18
REMARK    9  A    between atoms: N_21  and  C_22
REMARK   10  A    between atoms: C_22  and  C_23
REMARK   11  A    between atoms: C_22  and  C_25
REMARK   12  A    between atoms: C_23  and  O_24
REMARK   13  A    between atoms: N_27  and  C_28
REMARK   14  A    between atoms: C_28  and  C_29
REMARK   15  A    between atoms: C_29  and  C_30
REMARK   16  A    between atoms: C_30  and  C_31
REMARK   17  A    between atoms: C_31  and  C_32
REMARK   18  A    between atoms: C_32  and  C_33
REMARK   19  A    between atoms: C_33  and  N_34
REMARK   20  A    between atoms: C_35  and  C_37
REMARK   21  A    between atoms: C_40  and  C_41
REMARK   22  A    between atoms: C_45  and  C_46
REMARK   23  A    between atoms: C_62  and  C_63
REMARK   24  A    between atoms: C_77  and  C_78
REMARK                            x       y       z     vdW  Elec       q    Type
REMARK                         _______ _______ _______ _____ _____    ______ ____
ROOT
ATOM      1  C   UNK A   3      22.589   8.308   7.250  0.00  0.00    +0.000 C 
ATOM      2  C   UNK A   3      21.819   7.401   8.173  0.00  0.00    +0.000 C 
ATOM      3  N   UNK A   3      22.038   6.138   8.402  0.00  0.00    +0.000 NA
ATOM      4  C   UNK A   3      21.101   5.723   9.311  0.00  0.00    +0.000 C 
ATOM      5  C   UNK A   3      20.949   4.477   9.810  0.00  0.00    +0.000 C 
ATOM      6  C   UNK A   3      21.769   3.329   9.492  0.00  0.00    +0.000 A 
ATOM      7  C   UNK A   3      21.608   2.029   9.953  0.00  0.00    +0.000 A 
ATOM      8  C   UNK A   3      22.653   1.242   9.453  0.00  0.00    +0.000 A 
ATOM      9  C   UNK A   3      23.437   2.032   8.632  0.00  0.00    +0.000 A 
ATOM     10  N   UNK A   3      22.887   3.305   8.666  0.00  0.00    +0.000 N 
ATOM     11  C   UNK A   3      24.603   1.662   7.869  0.00  0.00    +0.000 C 
ATOM     12  C   UNK A   3      25.311   2.500   7.075  0.00  0.00    +0.000 C 
ATOM     13  N   UNK A   3      25.071   3.845   6.811  0.00  0.00    +0.000 NA
ATOM     14  C   UNK A   3      26.013   4.223   5.980  0.00  0.00    +0.000 C 
ATOM     15  C   UNK A   3      26.214   5.585   5.348  0.00  0.00    +0.000 C 
ATOM     16  C   UNK A   3      25.360   6.597   5.618  0.00  0.00    +0.000 A 
ATOM     17  C   UNK A   3      25.427   7.950   5.077  0.00  0.00    +0.000 A 
ATOM     18  C   UNK A   3      24.443   8.693   5.618  0.00  0.00    +0.000 A 
ATOM     19  C   UNK A   3      23.650   7.861   6.533  0.00  0.00    +0.000 A 
ATOM     20  N   UNK A   3      24.259   6.628   6.445  0.00  0.00    +0.000 N 
ATOM     21  C   UNK A   3      26.966   3.160   5.632  0.00  0.00    +0.000 C 
ATOM     22  C   UNK A   3      26.487   2.127   6.315  0.00  0.00    +0.000 C 
ATOM     23  C   UNK A   3      20.292   6.886   9.625  0.00  0.00    +0.000 C 
ATOM     24  C   UNK A   3      20.687   7.950   8.929  0.00  0.00    +0.000 C 
ATOM     25  H   UNK A   3      23.273   4.076   8.142  0.00  0.00    +0.000 HD
ATOM     26  H   UNK A   3      23.997   5.792   6.953  0.00  0.00    +0.000 HD
ENDROOT
BRANCH  15  27
ATOM     27  C   UNK A   3      27.358   5.806   4.426  0.00  0.00    +0.000 A 
ATOM     28  C   UNK A   3      28.643   6.098   4.912  0.00  0.00    +0.000 A 
ATOM     29  F   UNK A   3      28.861   6.196   6.233  0.00  0.00    +0.000 F 
ATOM     30  C   UNK A   3      29.721   6.267   4.042  0.00  0.00    +0.000 A 
ATOM     31  F   UNK A   3      30.941   6.546   4.527  0.00  0.00    +0.000 F 
ATOM     32  C   UNK A   3      29.539   6.132   2.672  0.00  0.00    +0.000 A 
ATOM     33  F   UNK A   3      30.581   6.262   1.840  0.00  0.00    +0.000 F 
ATOM     34  C   UNK A   3      28.277   5.846   2.170  0.00  0.00    +0.000 A 
ATOM     35  F   UNK A   3      28.103   5.690   0.850  0.00  0.00    +0.000 F 
ATOM     36  C   UNK A   3      27.193   5.695   3.038  0.00  0.00    +0.000 A 
ATOM     37  F   UNK A   3      25.988   5.408   2.526  0.00  0.00    +0.000 F 
ENDBRANCH  15  27
BRANCH  11  38
ATOM     38  C   UNK A   3      25.059   0.241   7.923  0.00  0.00    +0.000 A 
ATOM     39  C   UNK A   3      24.593  -0.711   7.006  0.00  0.00    +0.000 A 
ATOM     40  F   UNK A   3      23.703  -0.362   6.065  0.00  0.00    +0.000 F 
ATOM     41  C   UNK A   3      25.040  -2.029   7.058  0.00  0.00    +0.000 A 
ATOM     42  F   UNK A   3      24.567  -2.925   6.183  0.00  0.00    +0.000 F 
ATOM     43  C   UNK A   3      25.968  -2.412   8.013  0.00  0.00    +0.000 A 
ATOM     44  F   UNK A   3      26.410  -3.677   8.063  0.00  0.00    +0.000 F 
ATOM     45  C   UNK A   3      26.444  -1.481   8.925  0.00  0.00    +0.000 A 
ATOM     46  F   UNK A   3      27.344  -1.855   9.845  0.00  0.00    +0.000 F 
ATOM     47  C   UNK A   3      25.991  -0.166   8.887  0.00  0.00    +0.000 A 
ATOM     48  F   UNK A   3      26.451   0.706   9.796  0.00  0.00    +0.000 F 
ENDBRANCH  11  38
BRANCH   5  49
ATOM     49  C   UNK A   3      19.826   4.294  10.774  0.00  0.00    +0.000 A 
ATOM     50  C   UNK A   3      18.577   3.830  10.350  0.00  0.00    +0.000 A 
ATOM     51  F   UNK A   3      18.357   3.576   9.051  0.00  0.00    +0.000 F 
ATOM     52  C   UNK A   3      17.544   3.633  11.262  0.00  0.00    +0.000 A 
ATOM     53  F   UNK A   3      16.347   3.212  10.832  0.00  0.00    +0.000 F 
ATOM     54  C   UNK A   3      17.749   3.883  12.612  0.00  0.00    +0.000 A 
ATOM     55  F   UNK A   3      16.752   3.696  13.487  0.00  0.00    +0.000 F 
ATOM     56  C   UNK A   3      18.983   4.344  13.049  0.00  0.00    +0.000 A 
ATOM     57  F   UNK A   3      19.182   4.599  14.349  0.00  0.00    +0.000 F 
ATOM     58  C   UNK A   3      20.013   4.552  12.137  0.00  0.00    +0.000 A 
ATOM     59  F   UNK A   3      21.197   5.009  12.573  0.00  0.00    +0.000 F 
ENDBRANCH   5  49
BRANCH   1  63
ATOM     60  C   UNK A   3      21.405  12.454   7.003  0.00  0.00    +0.000 A 
ATOM     61  C   UNK A   3      20.786  11.488   6.198  0.00  0.00    +0.000 A 
ATOM     62  C   UNK A   3      21.166  10.140   6.281  0.00  0.00    +0.000 A 
ATOM     63  C   UNK A   3      22.185   9.736   7.153  0.00  0.00    +0.000 A 
ATOM     64  C   UNK A   3      22.823  10.700   7.944  0.00  0.00    +0.000 A 
ATOM     65  C   UNK A   3      22.427  12.044   7.874  0.00  0.00    +0.000 A 
BRANCH  60  67
ATOM     66  N   UNK A   3      21.136  14.621   8.117  0.00  0.00    +0.000 N 
ATOM     67  C   UNK A   3      21.029  13.911   6.927  0.00  0.00    +0.000 C 
ATOM     68  O   UNK A   3      20.662  14.414   5.869  0.00  0.00    +0.000 OA
ATOM     69  H   UNK A   3      21.592  14.190   8.914  0.00  0.00    +0.000 HD
BRANCH  66  70
ATOM     70  C   UNK A   3      20.809  16.040   8.176  0.00  0.00    +0.000 C 
BRANCH  70  71
ATOM     71  C   UNK A   3      22.035  16.932   7.974  0.00  0.00    +0.000 C 
BRANCH  71  72
ATOM     72  C   UNK A   3      22.175  17.367   6.510  0.00  0.00    +0.000 C 
BRANCH  72  73
ATOM     73  C   UNK A   3      22.135  18.892   6.354  0.00  0.00    +0.000 C 
BRANCH  73  74
ATOM     74  C   UNK A   3      23.531  19.468   6.097  0.00  0.00    +0.000 C 
BRANCH  74  75
ATOM     75  C   UNK A   3      23.830  19.627   4.608  0.00  0.00    +0.000 C 
BRANCH  75  78
ATOM     76  C   UNK A   3      25.824  18.979   3.258  0.00  0.00    +0.000 C 
ATOM     77  O   UNK A   3      25.224  18.325   2.405  0.00  0.00    +0.000 OA
ATOM     78  N   UNK A   3      25.266  19.599   4.362  0.00  0.00    +0.000 N 
ATOM     79  H   UNK A   3      25.842  20.153   4.987  0.00  0.00    +0.000 HD
BRANCH  76  80
ATOM     80  C   UNK A   3      27.324  19.161   3.017  0.00  0.00    +0.000 C 
BRANCH  80  83
ATOM     81  C   CYS A   2      28.240  19.655   5.330  0.00  0.00    +0.000 C 
ATOM     82  O   CYS A   2      27.882  20.828   5.363  0.00  0.00    +0.000 OA
ATOM     83  N   UNK A   3      28.017  18.782   4.278  0.00  0.00    +0.000 N 
ATOM     84  H   UNK A   3      28.280  17.800   4.373  0.00  0.00    +0.000 HD
BRANCH  81  85
ATOM     85  CA  CYS A   2      28.963  19.070   6.534  0.00  0.00    +0.000 C 
BRANCH  85  88
ATOM     86  C   TRP A   1      26.783  18.212   7.435  0.00  0.00    +0.000 C 
ATOM     87  O   TRP A   1      26.536  17.517   6.446  0.00  0.00    +0.000 OA
ATOM     88  N   CYS A   2      27.961  18.923   7.586  0.00  0.00    +0.000 N 
ATOM     89  H   CYS A   2      28.065  19.415   8.481  0.00  0.00    +0.000 HD
BRANCH  86  90
ATOM     90  CA  TRP A   1      25.819  18.300   8.665  0.00  0.00    +0.000 C 
BRANCH  90  91
ATOM     91  N   TRP A   1      25.355  16.929   9.006  0.00  0.00    +0.000 NA
ATOM     92  H1  TRP A   1      26.190  16.362   9.181  0.00  0.00    +0.000 HD
ATOM     93  H2  TRP A   1      24.937  16.513   8.174  0.00  0.00    +0.000 HD
ENDBRANCH  90  91
BRANCH  90  94
ATOM     94  CB  TRP A   1      26.551  19.057   9.800  0.00  0.00    +0.000 C 
BRANCH  94  95
ATOM     95  CG  TRP A   1      26.017  20.408  10.207  0.00  0.00    +0.000 A 
ATOM     96  CD1 TRP A   1      26.453  21.653   9.784  0.00  0.00    +0.000 A 
ATOM     97  NE1 TRP A   1      25.718  22.621  10.430  0.00  0.00    +0.000 N 
ATOM     98  CE2 TRP A   1      24.863  22.041  11.341  0.00  0.00    +0.000 A 
ATOM     99  CZ2 TRP A   1      23.958  22.618  12.247  0.00  0.00    +0.000 A 
ATOM    100  CH2 TRP A   1      23.248  21.754  13.090  0.00  0.00    +0.000 A 
ATOM    101  CZ3 TRP A   1      23.435  20.375  13.028  0.00  0.00    +0.000 A 
ATOM    102  CE3 TRP A   1      24.322  19.814  12.102  0.00  0.00    +0.000 A 
ATOM    103  CD2 TRP A   1      25.046  20.657  11.235  0.00  0.00    +0.000 A 
ATOM    104  HE1 TRP A   1      25.831  23.616  10.287  0.00  0.00    +0.000 HD
ENDBRANCH  94  95
ENDBRANCH  90  94
ENDBRANCH  86  90
ENDBRANCH  85  88
BRANCH  85 105
ATOM    105  CB  CYS A   2      29.710  17.772   6.199  0.00  0.00    +0.000 C 
BRANCH 105 106
ATOM    106  SG  CYS A   2      31.325  17.971   5.355  0.00  0.00    +0.000 S 
ATOM    107  HG  CYS A   2      31.712  19.080   6.003  0.00  0.00    +0.000 HD
ENDBRANCH 105 106
ENDBRANCH  85 105
ENDBRANCH  81  85
ENDBRANCH  80  83
BRANCH  80 108
ATOM    108  C   UNK A   3      27.797  18.302   1.845  0.00  0.00    +0.000 C 
BRANCH 108 109
ATOM    109  O   UNK A   3      27.536  18.847   0.550  0.00  0.00    +0.000 OA
ATOM    110  H   UNK A   3      26.793  19.470   0.541  0.00  0.00    +0.000 HD
ENDBRANCH 108 109
ENDBRANCH  80 108
ENDBRANCH  76  80
ENDBRANCH  75  78
ENDBRANCH  74  75
ENDBRANCH  73  74
ENDBRANCH  72  73
ENDBRANCH  71  72
ENDBRANCH  70  71
ENDBRANCH  66  70
ENDBRANCH  60  67
ENDBRANCH   1  63
TORSDOF 24
ENDMDL
