MODEL 1
REMARK VINA RESULT:      -9.2      0.000      0.000
ROOT
ATOM    129  H32 UNL A   1      42.857  34.806  35.213  1.00  0.00    +0.000 H 
ATOM    130  H33 UNL A   1      41.800  35.987  33.173  1.00  0.00    +0.000 H 
ATOM     35  C24 UNL A   1      41.332  34.152  31.009  1.00  0.00    +0.000 C 
ATOM     36  C25 UNL A   1      41.712  33.850  32.407  1.00  0.00    +0.000 C 
ATOM     37  N5  UNL A   1      42.017  32.699  32.904  1.00  0.00    +0.000 N 
ATOM     38  C26 UNL A   1      42.252  32.923  34.256  1.00  0.00    +0.000 C 
ATOM     39  C27 UNL A   1      41.989  31.947  35.171  1.00  0.00    +0.000 C 
ATOM     51  C34 UNL A   1      41.844  30.666  34.514  1.00  0.00    +0.000 C 
ATOM     52  C35 UNL A   1      42.656  29.881  33.718  1.00  0.00    +0.000 C 
ATOM     53  C36 UNL A   1      41.784  29.316  32.738  1.00  0.00    +0.000 C 
ATOM     54  C37 UNL A   1      40.482  29.725  33.033  1.00  0.00    +0.000 C 
ATOM     55  N6  UNL A   1      40.568  30.196  34.315  1.00  0.00    +0.000 N 
ATOM     56  C38 UNL A   1      39.272  29.774  32.248  1.00  0.00    +0.000 C 
ATOM     68  C45 UNL A   1      38.199  30.575  32.519  1.00  0.00    +0.000 C 
ATOM     69  N7  UNL A   1      37.300  30.918  31.520  1.00  0.00    +0.000 N 
ATOM     70  C46 UNL A   1      36.826  32.079  31.886  1.00  0.00    +0.000 C 
ATOM     71  C47 UNL A   1      36.586  33.195  30.936  1.00  0.00    +0.000 C 
ATOM     83  C54 UNL A   1      37.804  33.586  30.483  1.00  0.00    +0.000 C 
ATOM     84  C55 UNL A   1      38.163  34.348  29.311  1.00  0.00    +0.000 C 
ATOM     85  C56 UNL A   1      39.505  34.471  29.280  1.00  0.00    +0.000 C 
ATOM     86  C57 UNL A   1      40.083  33.956  30.528  1.00  0.00    +0.000 C 
ATOM     87  N8  UNL A   1      39.025  33.335  31.150  1.00  0.00    +0.000 N 
ATOM     88  C58 UNL A   1      37.003  32.415  33.289  1.00  0.00    +0.000 C 
ATOM     89  C59 UNL A   1      37.920  31.500  33.616  1.00  0.00    +0.000 C 
ATOM     90  C60 UNL A   1      42.427  34.343  34.397  1.00  0.00    +0.000 C 
ATOM     91  C61 UNL A   1      41.954  34.977  33.322  1.00  0.00    +0.000 C 
ATOM    121  H24 UNL A   1      43.673  29.733  33.812  1.00  0.00    +0.000 H 
ATOM    122  H25 UNL A   1      42.067  28.714  31.950  1.00  0.00    +0.000 H 
ATOM    123  H26 UNL A   1      39.842  30.198  34.980  1.00  0.00    +0.000 H 
ATOM    124  H27 UNL A   1      37.505  34.734  28.614  1.00  0.00    +0.000 H 
ATOM    125  H28 UNL A   1      40.046  34.868  28.496  1.00  0.00    +0.000 H 
ATOM    126  H29 UNL A   1      39.108  32.783  31.960  1.00  0.00    +0.000 H 
ATOM    127  H30 UNL A   1      36.553  33.145  33.862  1.00  0.00    +0.000 H 
ATOM    128  H31 UNL A   1      38.379  31.451  34.539  1.00  0.00    +0.000 H 
ENDROOT
BRANCH   35   34
ATOM     33  C22 UNL A   1      42.542  36.284  30.486  1.00  0.00    +0.000 C 
ATOM     34  C23 UNL A   1      42.330  34.913  30.275  1.00  0.00    +0.000 C 
ATOM    131  H34 UNL A   1      42.749  33.267  29.028  1.00  0.00    +0.000 H 
ATOM    132  H35 UNL A   1      44.772  34.284  28.164  1.00  0.00    +0.000 H 
ATOM    119  H22 UNL A   1      43.575  37.980  29.760  1.00  0.00    +0.000 H 
ATOM    120  H23 UNL A   1      42.030  36.785  31.229  1.00  0.00    +0.000 H 
ATOM     92  C62 UNL A   1      43.023  34.226  29.292  1.00  0.00    +0.000 C 
ATOM     93  C63 UNL A   1      44.073  34.843  28.679  1.00  0.00    +0.000 C 
ATOM     31  C20 UNL A   1      44.199  36.223  28.750  1.00  0.00    +0.000 C 
ATOM     32  C21 UNL A   1      43.453  36.958  29.677  1.00  0.00    +0.000 C 
BRANCH   31   29
ATOM     29  C19 UNL A   1      45.118  36.867  27.796  1.00  0.00    +0.000 C 
ATOM     30  O6  UNL A   1      44.970  36.708  26.590  1.00  0.00    +0.000 O 
BRANCH   29   28
ATOM     28  N4  UNL A   1      46.140  37.659  28.286  1.00  0.00    +0.000 N 
ATOM    118  H21 UNL A   1      45.866  38.464  28.781  1.00  0.00    +0.000 H 
BRANCH   28   27
ATOM     27  C18 UNL A   1      47.586  37.444  28.154  1.00  0.00    +0.000 C 
ATOM    116  H19 UNL A   1      47.910  37.838  27.213  1.00  0.00    +0.000 H 
ATOM    117  H20 UNL A   1      48.070  37.942  28.968  1.00  0.00    +0.000 H 
BRANCH   27   26
ATOM     26  C17 UNL A   1      47.948  35.970  28.221  1.00  0.00    +0.000 C 
ATOM    115  H18 UNL A   1      48.780  35.821  27.564  1.00  0.00    +0.000 H 
ATOM    114  H17 UNL A   1      47.092  35.398  27.930  1.00  0.00    +0.000 H 
BRANCH   26   25
ATOM     25  C16 UNL A   1      48.390  35.507  29.619  1.00  0.00    +0.000 C 
ATOM    113  H16 UNL A   1      48.783  36.380  30.097  1.00  0.00    +0.000 H 
ATOM    112  H15 UNL A   1      49.099  34.717  29.490  1.00  0.00    +0.000 H 
BRANCH   25   24
ATOM    110  H13 UNL A   1      46.516  34.553  29.940  1.00  0.00    +0.000 H 
ATOM    111  H14 UNL A   1      47.748  34.303  31.217  1.00  0.00    +0.000 H 
ATOM     24  C15 UNL A   1      47.278  34.994  30.549  1.00  0.00    +0.000 C 
BRANCH   24   23
ATOM    108  H11 UNL A   1      47.377  36.533  32.021  1.00  0.00    +0.000 H 
ATOM    109  H12 UNL A   1      46.120  36.749  30.788  1.00  0.00    +0.000 H 
ATOM     23  C14 UNL A   1      46.618  36.058  31.435  1.00  0.00    +0.000 C 
BRANCH   23   22
ATOM    106  H9  UNL A   1      44.603  35.883  32.132  1.00  0.00    +0.000 H 
ATOM    107  H10 UNL A   1      45.546  34.415  32.282  1.00  0.00    +0.000 H 
ATOM     22  C13 UNL A   1      45.562  35.480  32.383  1.00  0.00    +0.000 C 
BRANCH   22   21
ATOM    105  H8  UNL A   1      46.581  35.251  34.150  1.00  0.00    +0.000 H 
ATOM     21  N3  UNL A   1      45.885  35.824  33.755  1.00  0.00    +0.000 N 
BRANCH   21   19
ATOM     19  C12 UNL A   1      45.415  36.787  34.612  1.00  0.00    +0.000 C 
ATOM     20  O5  UNL A   1      45.486  36.562  35.820  1.00  0.00    +0.000 O 
BRANCH   19   18
ATOM    133  H36 UNL A   1      42.759  37.344  34.050  1.00  0.00    +0.000 H 
ATOM    134  H37 UNL A   1      41.784  39.545  33.770  1.00  0.00    +0.000 H 
ATOM    103  H6  UNL A   1      45.628  41.171  33.277  1.00  0.00    +0.000 H 
ATOM    104  H7  UNL A   1      46.596  39.026  33.884  1.00  0.00    +0.000 H 
ATOM     15  C8  UNL A   1      43.633  40.542  33.568  1.00  0.00    +0.000 C 
ATOM     16  C9  UNL A   1      45.017  40.380  33.535  1.00  0.00    +0.000 C 
ATOM     17  C10 UNL A   1      45.570  39.136  33.857  1.00  0.00    +0.000 C 
ATOM     18  C11 UNL A   1      44.748  38.034  34.145  1.00  0.00    +0.000 C 
ATOM     94  C64 UNL A   1      43.368  38.174  33.997  1.00  0.00    +0.000 C 
ATOM     95  C65 UNL A   1      42.810  39.432  33.778  1.00  0.00    +0.000 C 
BRANCH   15   14
ATOM    102  H5  UNL A   1      42.139  44.428  31.945  1.00  0.00    +0.000 H 
ATOM      9  C5  UNL A   1      42.716  42.460  32.274  1.00  0.00    +0.000 C 
ATOM     10  C6  UNL A   1      42.431  43.709  32.625  1.00  0.00    +0.000 C 
ATOM     11  O3  UNL A   1      42.559  43.966  33.989  1.00  0.00    +0.000 O 
ATOM     12  C7  UNL A   1      42.963  42.724  34.479  1.00  0.00    +0.000 C 
ATOM     13  O4  UNL A   1      43.227  42.533  35.659  1.00  0.00    +0.000 O 
ATOM     14  N2  UNL A   1      43.052  41.814  33.429  1.00  0.00    +0.000 N 
BRANCH    9    8
ATOM     97  C67 UNL A   1      43.537  41.037  28.874  1.00  0.00    +0.000 C 
ATOM    100  H3  UNL A   1      40.239  40.400  28.995  1.00  0.00    +0.000 H 
ATOM      5  C1  UNL A   1      42.278  40.579  28.470  1.00  0.00    +0.000 C 
ATOM      6  C2  UNL A   1      41.166  40.741  29.296  1.00  0.00    +0.000 C 
ATOM      7  C3  UNL A   1      41.317  41.370  30.534  1.00  0.00    +0.000 C 
ATOM    136  H39 UNL A   1      44.356  40.907  28.261  1.00  0.00    +0.000 H 
ATOM    101  H4  UNL A   1      40.495  41.496  31.145  1.00  0.00    +0.000 H 
ATOM    135  H38 UNL A   1      44.605  42.023  30.406  1.00  0.00    +0.000 H 
ATOM      8  C4  UNL A   1      42.576  41.833  30.961  1.00  0.00    +0.000 C 
ATOM     96  C66 UNL A   1      43.680  41.671  30.114  1.00  0.00    +0.000 C 
BRANCH    5    2
ATOM      2  S1  UNL A   1      42.118  39.728  26.927  1.00  0.00    +0.000 S 
ATOM      3  O1  UNL A   1      41.311  40.528  26.024  1.00  0.00    +0.000 O 
ATOM      4  O2  UNL A   1      41.841  38.343  27.187  1.00  0.00    +0.000 O 
BRANCH    2    1
ATOM      1  N1  UNL A   1      43.680  39.801  26.318  1.00  0.00    +0.000 N 
ATOM     98  H1  UNL A   1      44.171  40.592  26.735  1.00  0.00    +0.000 H 
ATOM     99  H2  UNL A   1      43.646  39.918  25.306  1.00  0.00    +0.000 H 
ENDBRANCH    2    1
ENDBRANCH    5    2
ENDBRANCH    9    8
ENDBRANCH   15   14
ENDBRANCH   19   18
ENDBRANCH   21   19
ENDBRANCH   22   21
ENDBRANCH   23   22
ENDBRANCH   24   23
ENDBRANCH   25   24
ENDBRANCH   26   25
ENDBRANCH   27   26
ENDBRANCH   28   27
ENDBRANCH   29   28
ENDBRANCH   31   29
ENDBRANCH   35   34
BRANCH   39   40
ATOM     40  C28 UNL A   1      41.426  32.193  36.558  1.00  0.00    +0.000 C 
ATOM     41  C29 UNL A   1      40.238  32.949  36.670  1.00  0.00    +0.000 C 
ATOM     42  F1  UNL A   1      39.462  33.166  35.597  1.00  0.00    +0.000 F 
ATOM     43  C30 UNL A   1      39.876  33.592  37.855  1.00  0.00    +0.000 C 
ATOM     44  F2  UNL A   1      38.824  34.422  37.865  1.00  0.00    +0.000 F 
ATOM     45  C31 UNL A   1      40.641  33.442  38.995  1.00  0.00    +0.000 C 
ATOM     46  F3  UNL A   1      40.342  34.117  40.112  1.00  0.00    +0.000 F 
ATOM     47  C32 UNL A   1      41.745  32.621  38.959  1.00  0.00    +0.000 C 
ATOM     48  F4  UNL A   1      42.504  32.464  40.054  1.00  0.00    +0.000 F 
ATOM     49  C33 UNL A   1      42.138  32.018  37.765  1.00  0.00    +0.000 C 
ATOM     50  F5  UNL A   1      43.292  31.348  37.837  1.00  0.00    +0.000 F 
ENDBRANCH   39   40
BRANCH   56   57
ATOM     65  F9  UNL A   1      38.681  25.654  29.762  1.00  0.00    +0.000 F 
ATOM     66  C44 UNL A   1      38.895  27.715  30.895  1.00  0.00    +0.000 C 
ATOM     67  F10 UNL A   1      38.427  27.129  32.009  1.00  0.00    +0.000 F 
ATOM     57  C39 UNL A   1      39.295  29.057  30.926  1.00  0.00    +0.000 C 
ATOM     58  C40 UNL A   1      39.828  29.600  29.744  1.00  0.00    +0.000 C 
ATOM     59  F6  UNL A   1      40.319  30.846  29.721  1.00  0.00    +0.000 F 
ATOM     60  C41 UNL A   1      39.919  28.843  28.577  1.00  0.00    +0.000 C 
ATOM     61  F7  UNL A   1      40.422  29.387  27.459  1.00  0.00    +0.000 F 
ATOM     62  C42 UNL A   1      39.522  27.515  28.579  1.00  0.00    +0.000 C 
ATOM     63  F8  UNL A   1      39.648  26.772  27.470  1.00  0.00    +0.000 F 
ATOM     64  C43 UNL A   1      39.020  26.950  29.740  1.00  0.00    +0.000 C 
ENDBRANCH   56   57
BRANCH   71   72
ATOM     72  C48 UNL A   1      35.283  33.890  30.832  1.00  0.00    +0.000 C 
ATOM     73  C49 UNL A   1      34.930  34.907  31.734  1.00  0.00    +0.000 C 
ATOM     74  F11 UNL A   1      35.660  35.108  32.842  1.00  0.00    +0.000 F 
ATOM     75  C50 UNL A   1      33.869  35.781  31.478  1.00  0.00    +0.000 C 
ATOM     76  F12 UNL A   1      33.603  36.781  32.330  1.00  0.00    +0.000 F 
ATOM     77  C51 UNL A   1      33.126  35.659  30.314  1.00  0.00    +0.000 C 
ATOM     78  F13 UNL A   1      32.154  36.538  30.034  1.00  0.00    +0.000 F 
ATOM     79  C52 UNL A   1      33.428  34.648  29.420  1.00  0.00    +0.000 C 
ATOM     80  F14 UNL A   1      32.743  34.544  28.272  1.00  0.00    +0.000 F 
ATOM     81  C53 UNL A   1      34.490  33.777  29.675  1.00  0.00    +0.000 C 
ATOM     82  F15 UNL A   1      34.790  32.884  28.720  1.00  0.00    +0.000 F 
ENDBRANCH   71   72
TORSDOF 19
ENDMDL
MODEL 2
REMARK VINA RESULT:      -8.9      2.442      4.743
ROOT
ATOM    129  H32 UNL A   1      42.922  34.876  35.079  1.00  0.00    +0.000 H 
ATOM    130  H33 UNL A   1      41.805  36.043  33.062  1.00  0.00    +0.000 H 
ATOM     35  C24 UNL A   1      41.308  34.201  30.911  1.00  0.00    +0.000 C 
ATOM     36  C25 UNL A   1      41.724  33.905  32.300  1.00  0.00    +0.000 C 
ATOM     37  N5  UNL A   1      42.053  32.757  32.791  1.00  0.00    +0.000 N 
ATOM     38  C26 UNL A   1      42.317  32.985  34.137  1.00  0.00    +0.000 C 
ATOM     39  C27 UNL A   1      42.086  32.007  35.058  1.00  0.00    +0.000 C 
ATOM     51  C34 UNL A   1      41.941  30.724  34.405  1.00  0.00    +0.000 C 
ATOM     52  C35 UNL A   1      42.743  29.947  33.591  1.00  0.00    +0.000 C 
ATOM     53  C36 UNL A   1      41.856  29.372  32.632  1.00  0.00    +0.000 C 
ATOM     54  C37 UNL A   1      40.556  29.766  32.957  1.00  0.00    +0.000 C 
ATOM     55  N6  UNL A   1      40.666  30.239  34.236  1.00  0.00    +0.000 N 
ATOM     56  C38 UNL A   1      39.328  29.800  32.200  1.00  0.00    +0.000 C 
ATOM     68  C45 UNL A   1      38.252  30.589  32.496  1.00  0.00    +0.000 C 
ATOM     69  N7  UNL A   1      37.326  30.921  31.517  1.00  0.00    +0.000 N 
ATOM     70  C46 UNL A   1      36.848  32.077  31.893  1.00  0.00    +0.000 C 
ATOM     71  C47 UNL A   1      36.573  33.189  30.948  1.00  0.00    +0.000 C 
ATOM     83  C54 UNL A   1      37.775  33.594  30.467  1.00  0.00    +0.000 C 
ATOM     84  C55 UNL A   1      38.099  34.358  29.286  1.00  0.00    +0.000 C 
ATOM     85  C56 UNL A   1      39.438  34.496  29.224  1.00  0.00    +0.000 C 
ATOM     86  C57 UNL A   1      40.051  33.989  30.459  1.00  0.00    +0.000 C 
ATOM     87  N8  UNL A   1      39.014  33.357  31.105  1.00  0.00    +0.000 N 
ATOM     88  C58 UNL A   1      37.053  32.416  33.291  1.00  0.00    +0.000 C 
ATOM     89  C59 UNL A   1      37.988  31.511  33.598  1.00  0.00    +0.000 C 
ATOM     90  C60 UNL A   1      42.478  34.407  34.273  1.00  0.00    +0.000 C 
ATOM     91  C61 UNL A   1      41.974  35.035  33.208  1.00  0.00    +0.000 C 
ATOM    121  H24 UNL A   1      43.764  29.812  33.662  1.00  0.00    +0.000 H 
ATOM    122  H25 UNL A   1      42.127  28.772  31.839  1.00  0.00    +0.000 H 
ATOM    123  H26 UNL A   1      39.956  30.234  34.918  1.00  0.00    +0.000 H 
ATOM    124  H27 UNL A   1      37.421  34.736  28.605  1.00  0.00    +0.000 H 
ATOM    125  H28 UNL A   1      39.956  34.900  28.427  1.00  0.00    +0.000 H 
ATOM    126  H29 UNL A   1      39.122  32.807  31.914  1.00  0.00    +0.000 H 
ATOM    127  H30 UNL A   1      36.608  33.141  33.874  1.00  0.00    +0.000 H 
ATOM    128  H31 UNL A   1      38.468  31.469  34.510  1.00  0.00    +0.000 H 
ENDROOT
BRANCH   35   34
ATOM     33  C22 UNL A   1      43.664  34.814  30.318  1.00  0.00    +0.000 C 
ATOM     34  C23 UNL A   1      42.280  34.973  30.154  1.00  0.00    +0.000 C 
ATOM    131  H34 UNL A   1      40.760  36.163  29.310  1.00  0.00    +0.000 H 
ATOM    132  H35 UNL A   1      42.248  37.086  27.634  1.00  0.00    +0.000 H 
ATOM    119  H22 UNL A   1      45.546  35.614  29.778  1.00  0.00    +0.000 H 
ATOM    120  H23 UNL A   1      44.038  34.085  30.945  1.00  0.00    +0.000 H 
ATOM     92  C62 UNL A   1      41.767  35.938  29.303  1.00  0.00    +0.000 C 
ATOM     93  C63 UNL A   1      42.618  36.585  28.457  1.00  0.00    +0.000 C 
ATOM     31  C20 UNL A   1      43.984  36.566  28.707  1.00  0.00    +0.000 C 
ATOM     32  C21 UNL A   1      44.527  35.658  29.622  1.00  0.00    +0.000 C 
BRANCH   31   29
ATOM     29  C19 UNL A   1      44.814  37.552  27.995  1.00  0.00    +0.000 C 
ATOM     30  O6  UNL A   1      44.871  37.544  26.771  1.00  0.00    +0.000 O 
BRANCH   29   28
ATOM     28  N4  UNL A   1      45.516  38.489  28.731  1.00  0.00    +0.000 N 
ATOM    118  H21 UNL A   1      46.494  38.476  28.628  1.00  0.00    +0.000 H 
BRANCH   28   27
ATOM     27  C18 UNL A   1      44.976  39.501  29.647  1.00  0.00    +0.000 C 
ATOM    116  H19 UNL A   1      44.514  39.005  30.476  1.00  0.00    +0.000 H 
ATOM    117  H20 UNL A   1      45.786  40.120  29.971  1.00  0.00    +0.000 H 
BRANCH   27   26
ATOM     26  C17 UNL A   1      43.946  40.388  28.970  1.00  0.00    +0.000 C 
ATOM    115  H18 UNL A   1      43.736  39.953  28.015  1.00  0.00    +0.000 H 
ATOM    114  H17 UNL A   1      44.352  41.375  28.887  1.00  0.00    +0.000 H 
BRANCH   26   25
ATOM     25  C16 UNL A   1      42.612  40.473  29.729  1.00  0.00    +0.000 C 
ATOM    113  H16 UNL A   1      42.682  41.357  30.329  1.00  0.00    +0.000 H 
ATOM    112  H15 UNL A   1      42.498  39.568  30.287  1.00  0.00    +0.000 H 
BRANCH   25   24
ATOM    110  H13 UNL A   1      40.508  40.341  29.450  1.00  0.00    +0.000 H 
ATOM    111  H14 UNL A   1      41.324  41.693  28.602  1.00  0.00    +0.000 H 
ATOM     24  C15 UNL A   1      41.350  40.657  28.870  1.00  0.00    +0.000 C 
BRANCH   24   23
ATOM    108  H11 UNL A   1      42.330  39.552  27.332  1.00  0.00    +0.000 H 
ATOM    109  H12 UNL A   1      40.661  39.054  27.672  1.00  0.00    +0.000 H 
ATOM     23  C14 UNL A   1      41.334  39.878  27.549  1.00  0.00    +0.000 C 
BRANCH   23   22
ATOM    106  H9  UNL A   1      39.931  40.264  25.980  1.00  0.00    +0.000 H 
ATOM    107  H10 UNL A   1      40.619  41.704  26.701  1.00  0.00    +0.000 H 
ATOM     22  C13 UNL A   1      40.824  40.709  26.367  1.00  0.00    +0.000 C 
BRANCH   22   21
ATOM    105  H8  UNL A   1      42.167  39.866  25.063  1.00  0.00    +0.000 H 
ATOM     21  N3  UNL A   1      41.830  40.753  25.322  1.00  0.00    +0.000 N 
BRANCH   21   19
ATOM     19  C12 UNL A   1      42.407  41.784  24.624  1.00  0.00    +0.000 C 
ATOM     20  O5  UNL A   1      41.816  42.202  23.629  1.00  0.00    +0.000 O 
BRANCH   19   18
ATOM    133  H36 UNL A   1      43.500  44.296  24.200  1.00  0.00    +0.000 H 
ATOM    134  H37 UNL A   1      45.501  45.183  25.242  1.00  0.00    +0.000 H 
ATOM    103  H6  UNL A   1      46.618  41.294  26.377  1.00  0.00    +0.000 H 
ATOM    104  H7  UNL A   1      44.460  40.470  25.621  1.00  0.00    +0.000 H 
ATOM     15  C8  UNL A   1      46.184  43.316  25.950  1.00  0.00    +0.000 C 
ATOM     16  C9  UNL A   1      45.915  41.949  26.001  1.00  0.00    +0.000 C 
ATOM     17  C10 UNL A   1      44.682  41.474  25.538  1.00  0.00    +0.000 C 
ATOM     18  C11 UNL A   1      43.744  42.347  24.962  1.00  0.00    +0.000 C 
ATOM     94  C64 UNL A   1      44.107  43.678  24.759  1.00  0.00    +0.000 C 
ATOM     95  C65 UNL A   1      45.287  44.175  25.309  1.00  0.00    +0.000 C 
BRANCH   15   14
ATOM    102  H5  UNL A   1      48.982  45.393  28.747  1.00  0.00    +0.000 H 
ATOM      9  C5  UNL A   1      47.448  44.325  27.842  1.00  0.00    +0.000 C 
ATOM     10  C6  UNL A   1      48.625  44.938  27.893  1.00  0.00    +0.000 C 
ATOM     11  O3  UNL A   1      49.338  44.914  26.695  1.00  0.00    +0.000 O 
ATOM     12  C7  UNL A   1      48.472  44.207  25.859  1.00  0.00    +0.000 C 
ATOM     13  O4  UNL A   1      48.717  43.998  24.678  1.00  0.00    +0.000 O 
ATOM     14  N2  UNL A   1      47.328  43.850  26.567  1.00  0.00    +0.000 N 
BRANCH    9    8
ATOM     97  C67 UNL A   1      44.310  44.296  29.942  1.00  0.00    +0.000 C 
ATOM    100  H3  UNL A   1      46.327  42.430  31.877  1.00  0.00    +0.000 H 
ATOM      5  C1  UNL A   1      44.726  43.515  31.026  1.00  0.00    +0.000 C 
ATOM      6  C2  UNL A   1      46.025  43.008  31.077  1.00  0.00    +0.000 C 
ATOM      7  C3  UNL A   1      46.912  43.290  30.035  1.00  0.00    +0.000 C 
ATOM    136  H39 UNL A   1      43.346  44.662  29.909  1.00  0.00    +0.000 H 
ATOM    101  H4  UNL A   1      47.875  42.920  30.073  1.00  0.00    +0.000 H 
ATOM    135  H38 UNL A   1      44.905  45.169  28.113  1.00  0.00    +0.000 H 
ATOM      8  C4  UNL A   1      46.511  44.069  28.935  1.00  0.00    +0.000 C 
ATOM     96  C66 UNL A   1      45.206  44.579  28.906  1.00  0.00    +0.000 C 
BRANCH    5    2
ATOM      2  S1  UNL A   1      43.569  43.116  32.304  1.00  0.00    +0.000 S 
ATOM      3  O1  UNL A   1      42.221  43.252  31.785  1.00  0.00    +0.000 O 
ATOM      4  O2  UNL A   1      43.993  43.742  33.525  1.00  0.00    +0.000 O 
BRANCH    2    1
ATOM      1  N1  UNL A   1      43.812  41.466  32.499  1.00  0.00    +0.000 N 
ATOM     98  H1  UNL A   1      44.724  41.305  32.926  1.00  0.00    +0.000 H 
ATOM     99  H2  UNL A   1      43.777  41.008  31.589  1.00  0.00    +0.000 H 
ENDBRANCH    2    1
ENDBRANCH    5    2
ENDBRANCH    9    8
ENDBRANCH   15   14
ENDBRANCH   19   18
ENDBRANCH   21   19
ENDBRANCH   22   21
ENDBRANCH   23   22
ENDBRANCH   24   23
ENDBRANCH   25   24
ENDBRANCH   26   25
ENDBRANCH   27   26
ENDBRANCH   28   27
ENDBRANCH   29   28
ENDBRANCH   31   29
ENDBRANCH   35   34
BRANCH   39   40
ATOM     40  C28 UNL A   1      41.553  32.248  36.457  1.00  0.00    +0.000 C 
ATOM     41  C29 UNL A   1      40.380  33.022  36.599  1.00  0.00    +0.000 C 
ATOM     42  F1  UNL A   1      39.588  33.263  35.542  1.00  0.00    +0.000 F 
ATOM     43  C30 UNL A   1      40.049  33.658  37.797  1.00  0.00    +0.000 C 
ATOM     44  F2  UNL A   1      39.012  34.506  37.834  1.00  0.00    +0.000 F 
ATOM     45  C31 UNL A   1      40.833  33.484  38.921  1.00  0.00    +0.000 C 
ATOM     46  F3  UNL A   1      40.565  34.153  40.050  1.00  0.00    +0.000 F 
ATOM     47  C32 UNL A   1      41.922  32.646  38.856  1.00  0.00    +0.000 C 
ATOM     48  F4  UNL A   1      42.698  32.464  39.936  1.00  0.00    +0.000 F 
ATOM     49  C33 UNL A   1      42.283  32.049  37.649  1.00  0.00    +0.000 C 
ATOM     50  F5  UNL A   1      43.427  31.359  37.694  1.00  0.00    +0.000 F 
ENDBRANCH   39   40
BRANCH   56   57
ATOM     65  F9  UNL A   1      38.686  25.680  29.726  1.00  0.00    +0.000 F 
ATOM     66  C44 UNL A   1      38.924  27.742  30.855  1.00  0.00    +0.000 C 
ATOM     67  F10 UNL A   1      38.471  27.158  31.975  1.00  0.00    +0.000 F 
ATOM     57  C39 UNL A   1      39.328  29.082  30.879  1.00  0.00    +0.000 C 
ATOM     58  C40 UNL A   1      39.846  29.623  29.689  1.00  0.00    +0.000 C 
ATOM     59  F6  UNL A   1      40.340  30.868  29.657  1.00  0.00    +0.000 F 
ATOM     60  C41 UNL A   1      39.916  28.864  28.521  1.00  0.00    +0.000 C 
ATOM     61  F7  UNL A   1      40.405  29.406  27.395  1.00  0.00    +0.000 F 
ATOM     62  C42 UNL A   1      39.516  27.538  28.529  1.00  0.00    +0.000 C 
ATOM     63  F8  UNL A   1      39.623  26.794  27.419  1.00  0.00    +0.000 F 
ATOM     64  C43 UNL A   1      39.029  26.975  29.698  1.00  0.00    +0.000 C 
ENDBRANCH   56   57
BRANCH   71   72
ATOM     72  C48 UNL A   1      35.260  33.869  30.874  1.00  0.00    +0.000 C 
ATOM     73  C49 UNL A   1      34.890  34.836  31.822  1.00  0.00    +0.000 C 
ATOM     74  F11 UNL A   1      35.615  34.994  32.940  1.00  0.00    +0.000 F 
ATOM     75  C50 UNL A   1      33.816  35.706  31.605  1.00  0.00    +0.000 C 
ATOM     76  F12 UNL A   1      33.534  36.659  32.503  1.00  0.00    +0.000 F 
ATOM     77  C51 UNL A   1      33.078  35.628  30.434  1.00  0.00    +0.000 C 
ATOM     78  F13 UNL A   1      32.094  36.505  30.194  1.00  0.00    +0.000 F 
ATOM     79  C52 UNL A   1      33.397  34.665  29.494  1.00  0.00    +0.000 C 
ATOM     80  F14 UNL A   1      32.716  34.606  28.341  1.00  0.00    +0.000 F 
ATOM     81  C53 UNL A   1      34.471  33.799  29.710  1.00  0.00    +0.000 C 
ATOM     82  F15 UNL A   1      34.786  32.958  28.715  1.00  0.00    +0.000 F 
ENDBRANCH   71   72
TORSDOF 19
ENDMDL
MODEL 3
REMARK VINA RESULT:      -8.8     41.426     48.125
ROOT
ATOM    129  H32 UNL A   1      12.265  27.698  -6.669  1.00  0.00    +0.000 H 
ATOM    130  H33 UNL A   1      12.195  30.222  -6.119  1.00  0.00    +0.000 H 
ATOM     35  C24 UNL A   1      10.271  30.808  -4.065  1.00  0.00    +0.000 C 
ATOM     36  C25 UNL A   1      10.770  29.488  -4.510  1.00  0.00    +0.000 C 
ATOM     37  N5  UNL A   1      10.353  28.325  -4.133  1.00  0.00    +0.000 N 
ATOM     38  C26 UNL A   1      11.160  27.405  -4.792  1.00  0.00    +0.000 C 
ATOM     39  C27 UNL A   1      11.441  26.202  -4.216  1.00  0.00    +0.000 C 
ATOM     51  C34 UNL A   1      10.520  25.933  -3.134  1.00  0.00    +0.000 C 
ATOM     52  C35 UNL A   1       9.148  25.808  -3.029  1.00  0.00    +0.000 C 
ATOM     53  C36 UNL A   1       8.812  26.421  -1.784  1.00  0.00    +0.000 C 
ATOM     54  C37 UNL A   1       9.999  26.816  -1.164  1.00  0.00    +0.000 C 
ATOM     55  N6  UNL A   1      10.970  26.141  -1.852  1.00  0.00    +0.000 N 
ATOM     56  C38 UNL A   1      10.283  27.759  -0.109  1.00  0.00    +0.000 C 
ATOM     68  C45 UNL A   1      11.496  28.352   0.101  1.00  0.00    +0.000 C 
ATOM     69  N7  UNL A   1      11.589  29.548   0.798  1.00  0.00    +0.000 N 
ATOM     70  C46 UNL A   1      12.656  30.128   0.318  1.00  0.00    +0.000 C 
ATOM     71  C47 UNL A   1      12.731  31.583   0.032  1.00  0.00    +0.000 C 
ATOM     83  C54 UNL A   1      11.872  31.821  -0.991  1.00  0.00    +0.000 C 
ATOM     84  C55 UNL A   1      11.269  33.055  -1.435  1.00  0.00    +0.000 C 
ATOM     85  C56 UNL A   1      10.472  32.783  -2.487  1.00  0.00    +0.000 C 
ATOM     86  C57 UNL A   1      10.654  31.386  -2.904  1.00  0.00    +0.000 C 
ATOM     87  N8  UNL A   1      11.413  30.838  -1.896  1.00  0.00    +0.000 N 
ATOM     88  C58 UNL A   1      13.583  29.255  -0.382  1.00  0.00    +0.000 C 
ATOM     89  C59 UNL A   1      12.790  28.194  -0.558  1.00  0.00    +0.000 C 
ATOM     90  C60 UNL A   1      11.804  28.131  -5.853  1.00  0.00    +0.000 C 
ATOM     91  C61 UNL A   1      11.720  29.445  -5.633  1.00  0.00    +0.000 C 
ATOM    121  H24 UNL A   1       8.505  25.366  -3.705  1.00  0.00    +0.000 H 
ATOM    122  H25 UNL A   1       7.860  26.549  -1.409  1.00  0.00    +0.000 H 
ATOM    123  H26 UNL A   1      11.841  25.855  -1.492  1.00  0.00    +0.000 H 
ATOM    124  H27 UNL A   1      11.422  33.988  -1.019  1.00  0.00    +0.000 H 
ATOM    125  H28 UNL A   1       9.829  33.455  -2.934  1.00  0.00    +0.000 H 
ATOM    126  H29 UNL A   1      11.612  29.877  -1.815  1.00  0.00    +0.000 H 
ATOM    127  H30 UNL A   1      14.565  29.409  -0.660  1.00  0.00    +0.000 H 
ATOM    128  H31 UNL A   1      13.061  27.358  -1.099  1.00  0.00    +0.000 H 
ENDROOT
BRANCH   35   34
ATOM     33  C22 UNL A   1       8.267  31.165  -5.527  1.00  0.00    +0.000 C 
ATOM     34  C23 UNL A   1       9.545  31.542  -5.089  1.00  0.00    +0.000 C 
ATOM    131  H34 UNL A   1      11.212  32.774  -5.466  1.00  0.00    +0.000 H 
ATOM    132  H35 UNL A   1       9.901  34.360  -6.748  1.00  0.00    +0.000 H 
ATOM    119  H22 UNL A   1       6.773  31.566  -6.969  1.00  0.00    +0.000 H 
ATOM    120  H23 UNL A   1       7.769  30.379  -5.079  1.00  0.00    +0.000 H 
ATOM     92  C62 UNL A   1      10.215  32.605  -5.672  1.00  0.00    +0.000 C 
ATOM     93  C63 UNL A   1       9.533  33.421  -6.525  1.00  0.00    +0.000 C 
ATOM     31  C20 UNL A   1       8.342  32.986  -7.090  1.00  0.00    +0.000 C 
ATOM     32  C21 UNL A   1       7.679  31.866  -6.577  1.00  0.00    +0.000 C 
BRANCH   31   29
ATOM     29  C19 UNL A   1       7.836  33.732  -8.255  1.00  0.00    +0.000 C 
ATOM     30  O6  UNL A   1       8.568  33.956  -9.211  1.00  0.00    +0.000 O 
BRANCH   29   28
ATOM     28  N4  UNL A   1       6.522  34.163  -8.252  1.00  0.00    +0.000 N 
ATOM    118  H21 UNL A   1       5.856  33.526  -8.598  1.00  0.00    +0.000 H 
BRANCH   28   27
ATOM     27  C18 UNL A   1       6.001  35.457  -7.796  1.00  0.00    +0.000 C 
ATOM    116  H19 UNL A   1       5.629  35.997  -8.641  1.00  0.00    +0.000 H 
ATOM    117  H20 UNL A   1       5.224  35.269  -7.085  1.00  0.00    +0.000 H 
BRANCH   27   26
ATOM     26  C17 UNL A   1       7.072  36.291  -7.113  1.00  0.00    +0.000 C 
ATOM    115  H18 UNL A   1       7.116  37.228  -7.627  1.00  0.00    +0.000 H 
ATOM    114  H17 UNL A   1       7.999  35.757  -7.162  1.00  0.00    +0.000 H 
BRANCH   26   25
ATOM     25  C16 UNL A   1       6.766  36.598  -5.639  1.00  0.00    +0.000 C 
ATOM    113  H16 UNL A   1       5.916  35.997  -5.392  1.00  0.00    +0.000 H 
ATOM    112  H15 UNL A   1       6.602  37.652  -5.553  1.00  0.00    +0.000 H 
BRANCH   25   24
ATOM    110  H13 UNL A   1       8.785  36.148  -5.144  1.00  0.00    +0.000 H 
ATOM    111  H14 UNL A   1       7.833  36.966  -3.865  1.00  0.00    +0.000 H 
ATOM     24  C15 UNL A   1       7.853  36.210  -4.622  1.00  0.00    +0.000 C 
BRANCH   24   23
ATOM    108  H11 UNL A   1       8.423  34.209  -4.157  1.00  0.00    +0.000 H 
ATOM    109  H12 UNL A   1       7.610  35.085  -2.846  1.00  0.00    +0.000 H 
ATOM     23  C14 UNL A   1       7.629  34.878  -3.896  1.00  0.00    +0.000 C 
BRANCH   23   22
ATOM    106  H9  UNL A   1       5.505  34.929  -4.150  1.00  0.00    +0.000 H 
ATOM    107  H10 UNL A   1       6.338  33.864  -5.263  1.00  0.00    +0.000 H 
ATOM     22  C13 UNL A   1       6.295  34.214  -4.253  1.00  0.00    +0.000 C 
BRANCH   22   21
ATOM    105  H8  UNL A   1       6.793  32.902  -2.756  1.00  0.00    +0.000 H 
ATOM     21  N3  UNL A   1       6.047  33.092  -3.368  1.00  0.00    +0.000 N 
BRANCH   21   19
ATOM     19  C12 UNL A   1       4.981  32.241  -3.215  1.00  0.00    +0.000 C 
ATOM     20  O5  UNL A   1       3.925  32.715  -2.798  1.00  0.00    +0.000 O 
BRANCH   19   18
ATOM    133  H36 UNL A   1       3.188  30.434  -4.313  1.00  0.00    +0.000 H 
ATOM    134  H37 UNL A   1       3.693  28.178  -5.042  1.00  0.00    +0.000 H 
ATOM    103  H6  UNL A   1       7.281  28.287  -2.857  1.00  0.00    +0.000 H 
ATOM    104  H7  UNL A   1       6.918  30.648  -2.409  1.00  0.00    +0.000 H 
ATOM     15  C8  UNL A   1       5.558  28.079  -4.062  1.00  0.00    +0.000 C 
ATOM     16  C9  UNL A   1       6.456  28.769  -3.249  1.00  0.00    +0.000 C 
ATOM     17  C10 UNL A   1       6.229  30.121  -2.969  1.00  0.00    +0.000 C 
ATOM     18  C11 UNL A   1       5.076  30.771  -3.439  1.00  0.00    +0.000 C 
ATOM     94  C64 UNL A   1       4.106  30.017  -4.098  1.00  0.00    +0.000 C 
ATOM     95  C65 UNL A   1       4.373  28.699  -4.467  1.00  0.00    +0.000 C 
BRANCH   15   14
ATOM    102  H5  UNL A   1       6.415  24.503  -6.601  1.00  0.00    +0.000 H 
ATOM      9  C5  UNL A   1       6.255  26.394  -5.756  1.00  0.00    +0.000 C 
ATOM     10  C6  UNL A   1       6.163  25.069  -5.776  1.00  0.00    +0.000 C 
ATOM     11  O3  UNL A   1       5.697  24.507  -4.588  1.00  0.00    +0.000 O 
ATOM     12  C7  UNL A   1       5.498  25.638  -3.794  1.00  0.00    +0.000 C 
ATOM     13  O4  UNL A   1       5.046  25.575  -2.658  1.00  0.00    +0.000 O 
ATOM     14  N2  UNL A   1       5.844  26.779  -4.511  1.00  0.00    +0.000 N 
BRANCH    9    8
ATOM     97  C67 UNL A   1       8.694  28.412  -7.814  1.00  0.00    +0.000 C 
ATOM    100  H3  UNL A   1       5.850  29.046  -9.488  1.00  0.00    +0.000 H 
ATOM      5  C1  UNL A   1       7.841  28.943  -8.787  1.00  0.00    +0.000 C 
ATOM      6  C2  UNL A   1       6.476  28.654  -8.767  1.00  0.00    +0.000 C 
ATOM      7  C3  UNL A   1       5.965  27.828  -7.763  1.00  0.00    +0.000 C 
ATOM    136  H39 UNL A   1       9.703  28.626  -7.839  1.00  0.00    +0.000 H 
ATOM    101  H4  UNL A   1       4.955  27.616  -7.743  1.00  0.00    +0.000 H 
ATOM    135  H38 UNL A   1       8.801  27.210  -6.080  1.00  0.00    +0.000 H 
ATOM      8  C4  UNL A   1       6.808  27.280  -6.779  1.00  0.00    +0.000 C 
ATOM     96  C66 UNL A   1       8.174  27.590  -6.808  1.00  0.00    +0.000 C 
BRANCH    5    2
ATOM      2  S1  UNL A   1       8.517  29.935 -10.087  1.00  0.00    +0.000 S 
ATOM      3  O1  UNL A   1       8.687  29.115 -11.271  1.00  0.00    +0.000 O 
ATOM      4  O2  UNL A   1       9.575  30.745  -9.550  1.00  0.00    +0.000 O 
BRANCH    2    1
ATOM      1  N1  UNL A   1       7.246  30.973 -10.438  1.00  0.00    +0.000 N 
ATOM     98  H1  UNL A   1       6.653  31.076  -9.614  1.00  0.00    +0.000 H 
ATOM     99  H2  UNL A   1       6.695  30.589 -11.206  1.00  0.00    +0.000 H 
ENDBRANCH    2    1
ENDBRANCH    5    2
ENDBRANCH    9    8
ENDBRANCH   15   14
ENDBRANCH   19   18
ENDBRANCH   21   19
ENDBRANCH   22   21
ENDBRANCH   23   22
ENDBRANCH   24   23
ENDBRANCH   25   24
ENDBRANCH   26   25
ENDBRANCH   27   26
ENDBRANCH   28   27
ENDBRANCH   29   28
ENDBRANCH   31   29
ENDBRANCH   35   34
BRANCH   39   40
ATOM     40  C28 UNL A   1      12.777  25.489  -4.315  1.00  0.00    +0.000 C 
ATOM     41  C29 UNL A   1      12.775  24.106  -4.598  1.00  0.00    +0.000 C 
ATOM     42  F1  UNL A   1      11.673  23.508  -5.079  1.00  0.00    +0.000 F 
ATOM     43  C30 UNL A   1      13.861  23.282  -4.293  1.00  0.00    +0.000 C 
ATOM     44  F2  UNL A   1      13.748  21.955  -4.437  1.00  0.00    +0.000 F 
ATOM     45  C31 UNL A   1      15.019  23.819  -3.766  1.00  0.00    +0.000 C 
ATOM     46  F3  UNL A   1      16.033  23.026  -3.399  1.00  0.00    +0.000 F 
ATOM     47  C32 UNL A   1      15.104  25.180  -3.580  1.00  0.00    +0.000 C 
ATOM     48  F4  UNL A   1      16.219  25.721  -3.068  1.00  0.00    +0.000 F 
ATOM     49  C33 UNL A   1      14.005  25.998  -3.837  1.00  0.00    +0.000 C 
ATOM     50  F5  UNL A   1      14.179  27.280  -3.500  1.00  0.00    +0.000 F 
ENDBRANCH   39   40
BRANCH   56   57
ATOM     65  F9  UNL A   1       6.768  31.068   0.349  1.00  0.00    +0.000 F 
ATOM     66  C44 UNL A   1       8.397  29.370   0.138  1.00  0.00    +0.000 C 
ATOM     67  F10 UNL A   1       8.727  29.862  -1.067  1.00  0.00    +0.000 F 
ATOM     57  C39 UNL A   1       9.104  28.282   0.665  1.00  0.00    +0.000 C 
ATOM     58  C40 UNL A   1       8.751  27.845   1.954  1.00  0.00    +0.000 C 
ATOM     59  F6  UNL A   1       9.442  26.873   2.564  1.00  0.00    +0.000 F 
ATOM     60  C41 UNL A   1       7.712  28.448   2.662  1.00  0.00    +0.000 C 
ATOM     61  F7  UNL A   1       7.387  28.007   3.887  1.00  0.00    +0.000 F 
ATOM     62  C42 UNL A   1       7.035  29.527   2.117  1.00  0.00    +0.000 C 
ATOM     63  F8  UNL A   1       6.064  30.136   2.813  1.00  0.00    +0.000 F 
ATOM     64  C43 UNL A   1       7.385  29.994   0.860  1.00  0.00    +0.000 C 
ENDBRANCH   56   57
BRANCH   71   72
ATOM     72  C48 UNL A   1      13.803  32.450   0.573  1.00  0.00    +0.000 C 
ATOM     73  C49 UNL A   1      13.518  33.457   1.509  1.00  0.00    +0.000 C 
ATOM     74  F11 UNL A   1      12.246  33.807   1.755  1.00  0.00    +0.000 F 
ATOM     75  C50 UNL A   1      14.526  34.069   2.261  1.00  0.00    +0.000 C 
ATOM     76  F12 UNL A   1      14.209  34.979   3.192  1.00  0.00    +0.000 F 
ATOM     77  C51 UNL A   1      15.850  33.693   2.094  1.00  0.00    +0.000 C 
ATOM     78  F13 UNL A   1      16.809  34.229   2.862  1.00  0.00    +0.000 F 
ATOM     79  C52 UNL A   1      16.168  32.727   1.157  1.00  0.00    +0.000 C 
ATOM     80  F14 UNL A   1      17.439  32.327   1.014  1.00  0.00    +0.000 F 
ATOM     81  C53 UNL A   1      15.161  32.114   0.409  1.00  0.00    +0.000 C 
ATOM     82  F15 UNL A   1      15.528  31.117  -0.409  1.00  0.00    +0.000 F 
ENDBRANCH   71   72
TORSDOF 19
ENDMDL
MODEL 4
REMARK VINA RESULT:      -8.8      6.292     11.873
ROOT
ATOM    129  H32 UNL A   1      49.788  26.893  29.718  1.00  0.00    +0.000 H 
ATOM    130  H33 UNL A   1      48.421  24.855  30.526  1.00  0.00    +0.000 H 
ATOM     35  C24 UNL A   1      45.624  25.477  30.759  1.00  0.00    +0.000 C 
ATOM     36  C25 UNL A   1      46.698  26.281  30.133  1.00  0.00    +0.000 C 
ATOM     37  N5  UNL A   1      46.605  27.480  29.662  1.00  0.00    +0.000 N 
ATOM     38  C26 UNL A   1      47.860  27.778  29.144  1.00  0.00    +0.000 C 
ATOM     39  C27 UNL A   1      47.981  28.618  28.077  1.00  0.00    +0.000 C 
ATOM     51  C34 UNL A   1      46.760  29.371  27.887  1.00  0.00    +0.000 C 
ATOM     52  C35 UNL A   1      46.025  30.249  28.661  1.00  0.00    +0.000 C 
ATOM     53  C36 UNL A   1      44.660  29.945  28.374  1.00  0.00    +0.000 C 
ATOM     54  C37 UNL A   1      44.636  28.955  27.390  1.00  0.00    +0.000 C 
ATOM     55  N6  UNL A   1      45.909  28.958  26.890  1.00  0.00    +0.000 N 
ATOM     56  C38 UNL A   1      43.616  28.027  26.962  1.00  0.00    +0.000 C 
ATOM     68  C45 UNL A   1      43.856  26.856  26.302  1.00  0.00    +0.000 C 
ATOM     69  N7  UNL A   1      42.930  25.823  26.332  1.00  0.00    +0.000 N 
ATOM     70  C46 UNL A   1      43.642  24.737  26.189  1.00  0.00    +0.000 C 
ATOM     71  C47 UNL A   1      43.385  23.490  26.953  1.00  0.00    +0.000 C 
ATOM     83  C54 UNL A   1      43.665  23.768  28.252  1.00  0.00    +0.000 C 
ATOM     84  C55 UNL A   1      43.267  23.085  29.459  1.00  0.00    +0.000 C 
ATOM     85  C56 UNL A   1      43.784  23.750  30.512  1.00  0.00    +0.000 C 
ATOM     86  C57 UNL A   1      44.702  24.796  30.042  1.00  0.00    +0.000 C 
ATOM     87  N8  UNL A   1      44.493  24.830  28.682  1.00  0.00    +0.000 N 
ATOM     88  C58 UNL A   1      44.973  24.928  25.638  1.00  0.00    +0.000 C 
ATOM     89  C59 UNL A   1      45.087  26.249  25.800  1.00  0.00    +0.000 C 
ATOM     90  C60 UNL A   1      48.759  26.804  29.701  1.00  0.00    +0.000 C 
ATOM     91  C61 UNL A   1      48.075  25.769  30.193  1.00  0.00    +0.000 C 
ATOM    121  H24 UNL A   1      46.386  30.970  29.305  1.00  0.00    +0.000 H 
ATOM    122  H25 UNL A   1      43.836  30.380  28.817  1.00  0.00    +0.000 H 
ATOM    123  H26 UNL A   1      46.172  28.707  25.975  1.00  0.00    +0.000 H 
ATOM    124  H27 UNL A   1      42.686  22.233  29.509  1.00  0.00    +0.000 H 
ATOM    125  H28 UNL A   1      43.568  23.553  31.502  1.00  0.00    +0.000 H 
ATOM    126  H29 UNL A   1      44.873  25.512  28.083  1.00  0.00    +0.000 H 
ATOM    127  H30 UNL A   1      45.635  24.243  25.239  1.00  0.00    +0.000 H 
ATOM    128  H31 UNL A   1      45.947  26.781  25.594  1.00  0.00    +0.000 H 
ENDROOT
BRANCH   35   34
ATOM     33  C22 UNL A   1      45.197  24.205  32.876  1.00  0.00    +0.000 C 
ATOM     34  C23 UNL A   1      45.796  25.271  32.188  1.00  0.00    +0.000 C 
ATOM    131  H34 UNL A   1      46.827  27.098  32.385  1.00  0.00    +0.000 H 
ATOM    132  H35 UNL A   1      47.619  26.550  34.609  1.00  0.00    +0.000 H 
ATOM    119  H22 UNL A   1      44.846  23.401  34.800  1.00  0.00    +0.000 H 
ATOM    120  H23 UNL A   1      44.661  23.486  32.364  1.00  0.00    +0.000 H 
ATOM     92  C62 UNL A   1      46.531  26.232  32.862  1.00  0.00    +0.000 C 
ATOM     93  C63 UNL A   1      46.854  26.014  34.168  1.00  0.00    +0.000 C 
ATOM     31  C20 UNL A   1      46.153  25.067  34.902  1.00  0.00    +0.000 C 
ATOM     32  C21 UNL A   1      45.336  24.131  34.260  1.00  0.00    +0.000 C 
BRANCH   31   29
ATOM     29  C19 UNL A   1      46.285  25.116  36.368  1.00  0.00    +0.000 C 
ATOM     30  O6  UNL A   1      47.276  24.648  36.916  1.00  0.00    +0.000 O 
BRANCH   29   28
ATOM     28  N4  UNL A   1      45.279  25.708  37.110  1.00  0.00    +0.000 N 
ATOM    118  H21 UNL A   1      44.676  25.095  37.589  1.00  0.00    +0.000 H 
BRANCH   28   27
ATOM     27  C18 UNL A   1      45.002  27.141  37.268  1.00  0.00    +0.000 C 
ATOM    116  H19 UNL A   1      44.956  27.371  38.312  1.00  0.00    +0.000 H 
ATOM    117  H20 UNL A   1      45.787  27.685  36.786  1.00  0.00    +0.000 H 
BRANCH   27   26
ATOM     26  C17 UNL A   1      43.687  27.538  36.619  1.00  0.00    +0.000 C 
ATOM    115  H18 UNL A   1      43.355  28.433  37.104  1.00  0.00    +0.000 H 
ATOM    114  H17 UNL A   1      42.994  26.731  36.736  1.00  0.00    +0.000 H 
BRANCH   26   25
ATOM     25  C16 UNL A   1      43.811  27.857  35.120  1.00  0.00    +0.000 C 
ATOM    113  H16 UNL A   1      44.750  27.442  34.818  1.00  0.00    +0.000 H 
ATOM    112  H15 UNL A   1      43.741  28.918  35.007  1.00  0.00    +0.000 H 
BRANCH   25   24
ATOM    110  H13 UNL A   1      42.711  26.172  34.431  1.00  0.00    +0.000 H 
ATOM    111  H14 UNL A   1      41.847  27.742  34.381  1.00  0.00    +0.000 H 
ATOM     24  C15 UNL A   1      42.761  27.216  34.198  1.00  0.00    +0.000 C 
BRANCH   24   23
ATOM    108  H11 UNL A   1      43.637  26.525  32.382  1.00  0.00    +0.000 H 
ATOM    109  H12 UNL A   1      42.086  27.367  32.198  1.00  0.00    +0.000 H 
ATOM     23  C14 UNL A   1      43.034  27.352  32.695  1.00  0.00    +0.000 C 
BRANCH   23   22
ATOM    106  H9  UNL A   1      44.211  29.062  33.210  1.00  0.00    +0.000 H 
ATOM    107  H10 UNL A   1      44.516  28.437  31.603  1.00  0.00    +0.000 H 
ATOM     22  C13 UNL A   1      43.761  28.650  32.331  1.00  0.00    +0.000 C 
BRANCH   22   21
ATOM    105  H8  UNL A   1      42.217  29.219  31.104  1.00  0.00    +0.000 H 
ATOM     21  N3  UNL A   1      42.821  29.606  31.777  1.00  0.00    +0.000 N 
BRANCH   21   19
ATOM     19  C12 UNL A   1      42.605  30.943  32.004  1.00  0.00    +0.000 C 
ATOM     20  O5  UNL A   1      43.392  31.743  31.499  1.00  0.00    +0.000 O 
BRANCH   19   18
ATOM    133  H36 UNL A   1      42.136  33.462  33.060  1.00  0.00    +0.000 H 
ATOM    134  H37 UNL A   1      40.080  34.222  34.095  1.00  0.00    +0.000 H 
ATOM    103  H6  UNL A   1      38.828  30.232  34.509  1.00  0.00    +0.000 H 
ATOM    104  H7  UNL A   1      40.732  29.513  33.181  1.00  0.00    +0.000 H 
ATOM     15  C8  UNL A   1      39.262  32.291  34.323  1.00  0.00    +0.000 C 
ATOM     16  C9  UNL A   1      39.482  30.929  34.118  1.00  0.00    +0.000 C 
ATOM     17  C10 UNL A   1      40.595  30.517  33.378  1.00  0.00    +0.000 C 
ATOM     18  C11 UNL A   1      41.528  31.451  32.898  1.00  0.00    +0.000 C 
ATOM     94  C64 UNL A   1      41.384  32.788  33.267  1.00  0.00    +0.000 C 
ATOM     95  C65 UNL A   1      40.227  33.217  33.915  1.00  0.00    +0.000 C 
BRANCH   15   14
ATOM    102  H5  UNL A   1      35.275  34.186  35.014  1.00  0.00    +0.000 H 
ATOM      9  C5  UNL A   1      36.953  33.218  34.265  1.00  0.00    +0.000 C 
ATOM     10  C6  UNL A   1      36.191  33.754  35.211  1.00  0.00    +0.000 C 
ATOM     11  O3  UNL A   1      36.733  33.683  36.494  1.00  0.00    +0.000 O 
ATOM     12  C7  UNL A   1      37.944  33.032  36.259  1.00  0.00    +0.000 C 
ATOM     13  O4  UNL A   1      38.756  32.807  37.147  1.00  0.00    +0.000 O 
ATOM     14  N2  UNL A   1      38.068  32.750  34.902  1.00  0.00    +0.000 N 
BRANCH    9    8
ATOM     97  C67 UNL A   1      37.052  33.493  30.501  1.00  0.00    +0.000 C 
ATOM    100  H3  UNL A   1      34.592  31.230  30.859  1.00  0.00    +0.000 H 
ATOM      5  C1  UNL A   1      36.045  32.587  30.145  1.00  0.00    +0.000 C 
ATOM      6  C2  UNL A   1      35.332  31.899  31.126  1.00  0.00    +0.000 C 
ATOM      7  C3  UNL A   1      35.629  32.122  32.473  1.00  0.00    +0.000 C 
ATOM    136  H39 UNL A   1      37.579  33.993  29.769  1.00  0.00    +0.000 H 
ATOM    101  H4  UNL A   1      35.099  31.617  33.200  1.00  0.00    +0.000 H 
ATOM    135  H38 UNL A   1      38.070  34.394  32.116  1.00  0.00    +0.000 H 
ATOM      8  C4  UNL A   1      36.640  33.024  32.851  1.00  0.00    +0.000 C 
ATOM     96  C66 UNL A   1      37.339  33.715  31.852  1.00  0.00    +0.000 C 
BRANCH    5    2
ATOM      2  S1  UNL A   1      35.728  32.271  28.433  1.00  0.00    +0.000 S 
ATOM      3  O1  UNL A   1      36.177  30.931  28.106  1.00  0.00    +0.000 O 
ATOM      4  O2  UNL A   1      36.117  33.423  27.668  1.00  0.00    +0.000 O 
BRANCH    2    1
ATOM      1  N1  UNL A   1      34.051  32.207  28.390  1.00  0.00    +0.000 N 
ATOM     98  H1  UNL A   1      33.744  31.990  27.442  1.00  0.00    +0.000 H 
ATOM     99  H2  UNL A   1      33.670  33.110  28.672  1.00  0.00    +0.000 H 
ENDBRANCH    2    1
ENDBRANCH    5    2
ENDBRANCH    9    8
ENDBRANCH   15   14
ENDBRANCH   19   18
ENDBRANCH   21   19
ENDBRANCH   22   21
ENDBRANCH   23   22
ENDBRANCH   24   23
ENDBRANCH   25   24
ENDBRANCH   26   25
ENDBRANCH   27   26
ENDBRANCH   28   27
ENDBRANCH   29   28
ENDBRANCH   31   29
ENDBRANCH   35   34
BRANCH   39   40
ATOM     40  C28 UNL A   1      48.991  28.451  26.957  1.00  0.00    +0.000 C 
ATOM     41  C29 UNL A   1      49.085  27.191  26.329  1.00  0.00    +0.000 C 
ATOM     42  F1  UNL A   1      48.116  26.275  26.482  1.00  0.00    +0.000 F 
ATOM     43  C30 UNL A   1      50.223  26.796  25.621  1.00  0.00    +0.000 C 
ATOM     44  F2  UNL A   1      50.325  25.536  25.178  1.00  0.00    +0.000 F 
ATOM     45  C31 UNL A   1      51.276  27.672  25.447  1.00  0.00    +0.000 C 
ATOM     46  F3  UNL A   1      52.400  27.274  24.837  1.00  0.00    +0.000 F 
ATOM     47  C32 UNL A   1      51.177  28.950  25.946  1.00  0.00    +0.000 C 
ATOM     48  F4  UNL A   1      52.189  29.816  25.790  1.00  0.00    +0.000 F 
ATOM     49  C33 UNL A   1      50.064  29.331  26.696  1.00  0.00    +0.000 C 
ATOM     50  F5  UNL A   1      50.147  30.555  27.225  1.00  0.00    +0.000 F 
ENDBRANCH   39   40
BRANCH   56   57
ATOM     65  F9  UNL A   1      40.292  27.284  30.412  1.00  0.00    +0.000 F 
ATOM     66  C44 UNL A   1      41.890  27.764  28.741  1.00  0.00    +0.000 C 
ATOM     67  F10 UNL A   1      42.826  27.160  29.490  1.00  0.00    +0.000 F 
ATOM     57  C39 UNL A   1      42.224  28.269  27.478  1.00  0.00    +0.000 C 
ATOM     58  C40 UNL A   1      41.190  28.841  26.716  1.00  0.00    +0.000 C 
ATOM     59  F6  UNL A   1      41.410  29.260  25.463  1.00  0.00    +0.000 F 
ATOM     60  C41 UNL A   1      39.892  28.937  27.217  1.00  0.00    +0.000 C 
ATOM     61  F7  UNL A   1      38.924  29.497  26.475  1.00  0.00    +0.000 F 
ATOM     62  C42 UNL A   1      39.590  28.423  28.467  1.00  0.00    +0.000 C 
ATOM     63  F8  UNL A   1      38.334  28.475  28.933  1.00  0.00    +0.000 F 
ATOM     64  C43 UNL A   1      40.587  27.827  29.224  1.00  0.00    +0.000 C 
ENDBRANCH   56   57
BRANCH   71   72
ATOM     72  C48 UNL A   1      43.196  22.176  26.299  1.00  0.00    +0.000 C 
ATOM     73  C49 UNL A   1      44.294  21.424  25.850  1.00  0.00    +0.000 C 
ATOM     74  F11 UNL A   1      45.513  21.982  25.794  1.00  0.00    +0.000 F 
ATOM     75  C50 UNL A   1      44.173  20.069  25.524  1.00  0.00    +0.000 C 
ATOM     76  F12 UNL A   1      45.257  19.369  25.163  1.00  0.00    +0.000 F 
ATOM     77  C51 UNL A   1      42.949  19.430  25.632  1.00  0.00    +0.000 C 
ATOM     78  F13 UNL A   1      42.846  18.116  25.386  1.00  0.00    +0.000 F 
ATOM     79  C52 UNL A   1      41.841  20.149  26.040  1.00  0.00    +0.000 C 
ATOM     80  F14 UNL A   1      40.660  19.533  26.186  1.00  0.00    +0.000 F 
ATOM     81  C53 UNL A   1      41.962  21.501  26.369  1.00  0.00    +0.000 C 
ATOM     82  F15 UNL A   1      40.871  22.112  26.852  1.00  0.00    +0.000 F 
ENDBRANCH   71   72
TORSDOF 19
ENDMDL
MODEL 5
REMARK VINA RESULT:      -8.8     24.576     29.713
ROOT
ATOM    129  H32 UNL A   1      42.285   9.238  53.085  1.00  0.00    +0.000 H 
ATOM    130  H33 UNL A   1      41.000  10.872  51.550  1.00  0.00    +0.000 H 
ATOM     35  C24 UNL A   1      42.575  13.191  50.912  1.00  0.00    +0.000 C 
ATOM     36  C25 UNL A   1      43.006  11.937  51.570  1.00  0.00    +0.000 C 
ATOM     37  N5  UNL A   1      44.160  11.682  52.089  1.00  0.00    +0.000 N 
ATOM     38  C26 UNL A   1      44.089  10.367  52.537  1.00  0.00    +0.000 C 
ATOM     39  C27 UNL A   1      45.206   9.586  52.556  1.00  0.00    +0.000 C 
ATOM     51  C34 UNL A   1      46.394  10.403  52.443  1.00  0.00    +0.000 C 
ATOM     52  C35 UNL A   1      46.945  11.433  53.182  1.00  0.00    +0.000 C 
ATOM     53  C36 UNL A   1      47.489  12.335  52.218  1.00  0.00    +0.000 C 
ATOM     54  C37 UNL A   1      47.309  11.773  50.953  1.00  0.00    +0.000 C 
ATOM     55  N6  UNL A   1      47.007  10.464  51.214  1.00  0.00    +0.000 N 
ATOM     56  C38 UNL A   1      47.324  12.334  49.623  1.00  0.00    +0.000 C 
ATOM     68  C45 UNL A   1      46.724  11.771  48.532  1.00  0.00    +0.000 C 
ATOM     69  N7  UNL A   1      46.379  12.547  47.434  1.00  0.00    +0.000 N 
ATOM     70  C46 UNL A   1      45.355  11.932  46.905  1.00  0.00    +0.000 C 
ATOM     71  C47 UNL A   1      44.166  12.645  46.372  1.00  0.00    +0.000 C 
ATOM     83  C54 UNL A   1      43.552  13.222  47.435  1.00  0.00    +0.000 C 
ATOM     84  C55 UNL A   1      42.597  14.303  47.488  1.00  0.00    +0.000 C 
ATOM     85  C56 UNL A   1      42.286  14.531  48.779  1.00  0.00    +0.000 C 
ATOM     86  C57 UNL A   1      42.878  13.489  49.628  1.00  0.00    +0.000 C 
ATOM     87  N8  UNL A   1      43.718  12.809  48.777  1.00  0.00    +0.000 N 
ATOM     88  C58 UNL A   1      45.189  10.541  47.293  1.00  0.00    +0.000 C 
ATOM     89  C59 UNL A   1      46.003  10.513  48.352  1.00  0.00    +0.000 C 
ATOM     90  C60 UNL A   1      42.690  10.037  52.571  1.00  0.00    +0.000 C 
ATOM     91  C61 UNL A   1      41.989  10.909  51.843  1.00  0.00    +0.000 C 
ATOM    121  H24 UNL A   1      46.960  11.528  54.210  1.00  0.00    +0.000 H 
ATOM    122  H25 UNL A   1      47.935  13.242  52.421  1.00  0.00    +0.000 H 
ATOM    123  H26 UNL A   1      47.195   9.698  50.624  1.00  0.00    +0.000 H 
ATOM    124  H27 UNL A   1      42.217  14.815  46.676  1.00  0.00    +0.000 H 
ATOM    125  H28 UNL A   1      41.715  15.320  49.121  1.00  0.00    +0.000 H 
ATOM    126  H29 UNL A   1      44.356  12.118  49.067  1.00  0.00    +0.000 H 
ATOM    127  H30 UNL A   1      44.612   9.796  46.873  1.00  0.00    +0.000 H 
ATOM    128  H31 UNL A   1      46.111   9.696  48.972  1.00  0.00    +0.000 H 
ENDROOT
BRANCH   35   34
ATOM     33  C22 UNL A   1      40.253  13.544  51.785  1.00  0.00    +0.000 C 
ATOM     34  C23 UNL A   1      41.591  13.948  51.669  1.00  0.00    +0.000 C 
ATOM    131  H34 UNL A   1      42.962  15.516  51.988  1.00  0.00    +0.000 H 
ATOM    132  H35 UNL A   1      41.577  16.540  53.694  1.00  0.00    +0.000 H 
ATOM    119  H22 UNL A   1      38.349  14.139  52.488  1.00  0.00    +0.000 H 
ATOM    120  H23 UNL A   1      39.940  12.646  51.385  1.00  0.00    +0.000 H 
ATOM     92  C62 UNL A   1      42.027  15.144  52.216  1.00  0.00    +0.000 C 
ATOM     93  C63 UNL A   1      41.196  15.819  53.060  1.00  0.00    +0.000 C 
ATOM     31  C20 UNL A   1      39.838  15.533  53.064  1.00  0.00    +0.000 C 
ATOM     32  C21 UNL A   1      39.353  14.374  52.450  1.00  0.00    +0.000 C 
BRANCH   31   29
ATOM     29  C19 UNL A   1      38.945  16.509  53.711  1.00  0.00    +0.000 C 
ATOM     30  O6  UNL A   1      38.838  17.644  53.260  1.00  0.00    +0.000 O 
BRANCH   29   28
ATOM     28  N4  UNL A   1      38.226  16.120  54.826  1.00  0.00    +0.000 N 
ATOM    118  H21 UNL A   1      38.720  16.105  55.677  1.00  0.00    +0.000 H 
BRANCH   28   27
ATOM     27  C18 UNL A   1      36.814  15.724  54.893  1.00  0.00    +0.000 C 
ATOM    116  H19 UNL A   1      36.307  16.368  55.582  1.00  0.00    +0.000 H 
ATOM    117  H20 UNL A   1      36.400  15.809  53.910  1.00  0.00    +0.000 H 
BRANCH   27   26
ATOM     26  C17 UNL A   1      36.649  14.286  55.352  1.00  0.00    +0.000 C 
ATOM    115  H18 UNL A   1      36.689  13.671  54.477  1.00  0.00    +0.000 H 
ATOM    114  H17 UNL A   1      35.715  14.200  55.867  1.00  0.00    +0.000 H 
BRANCH   26   25
ATOM     25  C16 UNL A   1      37.768  13.808  56.291  1.00  0.00    +0.000 C 
ATOM    113  H16 UNL A   1      37.286  13.179  57.010  1.00  0.00    +0.000 H 
ATOM    112  H15 UNL A   1      38.237  14.675  56.706  1.00  0.00    +0.000 H 
BRANCH   25   24
ATOM    110  H13 UNL A   1      38.731  11.934  55.997  1.00  0.00    +0.000 H 
ATOM    111  H14 UNL A   1      38.756  13.053  54.597  1.00  0.00    +0.000 H 
ATOM     24  C15 UNL A   1      38.866  12.940  55.655  1.00  0.00    +0.000 C 
BRANCH   24   23
ATOM    108  H11 UNL A   1      40.405  14.409  55.797  1.00  0.00    +0.000 H 
ATOM    109  H12 UNL A   1      40.489  13.111  57.003  1.00  0.00    +0.000 H 
ATOM     23  C14 UNL A   1      40.306  13.359  55.978  1.00  0.00    +0.000 C 
BRANCH   23   22
ATOM    106  H9  UNL A   1      41.016  11.619  54.955  1.00  0.00    +0.000 H 
ATOM    107  H10 UNL A   1      41.480  13.132  54.207  1.00  0.00    +0.000 H 
ATOM     22  C13 UNL A   1      41.351  12.619  55.137  1.00  0.00    +0.000 C 
BRANCH   22   21
ATOM    105  H8  UNL A   1      42.550  12.225  56.756  1.00  0.00    +0.000 H 
ATOM     21  N3  UNL A   1      42.619  12.582  55.841  1.00  0.00    +0.000 N 
BRANCH   21   19
ATOM     19  C12 UNL A   1      43.895  12.945  55.489  1.00  0.00    +0.000 C 
ATOM     20  O5  UNL A   1      44.791  12.118  55.653  1.00  0.00    +0.000 O 
BRANCH   19   18
ATOM    133  H36 UNL A   1      43.141  15.455  56.390  1.00  0.00    +0.000 H 
ATOM    134  H37 UNL A   1      44.186  17.562  55.803  1.00  0.00    +0.000 H 
ATOM    103  H6  UNL A   1      46.071  15.704  52.539  1.00  0.00    +0.000 H 
ATOM    104  H7  UNL A   1      45.282  13.546  53.331  1.00  0.00    +0.000 H 
ATOM     15  C8  UNL A   1      45.264  16.784  54.165  1.00  0.00    +0.000 C 
ATOM     16  C9  UNL A   1      45.527  15.640  53.414  1.00  0.00    +0.000 C 
ATOM     17  C10 UNL A   1      45.046  14.402  53.858  1.00  0.00    +0.000 C 
ATOM     18  C11 UNL A   1      44.247  14.310  55.009  1.00  0.00    +0.000 C 
ATOM     94  C64 UNL A   1      43.850  15.488  55.642  1.00  0.00    +0.000 C 
ATOM     95  C65 UNL A   1      44.407  16.709  55.266  1.00  0.00    +0.000 C 
BRANCH   15   14
ATOM    102  H5  UNL A   1      46.444  20.618  52.196  1.00  0.00    +0.000 H 
ATOM      9  C5  UNL A   1      45.470  18.942  52.942  1.00  0.00    +0.000 C 
ATOM     10  C6  UNL A   1      46.478  19.799  52.822  1.00  0.00    +0.000 C 
ATOM     11  O3  UNL A   1      47.585  19.499  53.615  1.00  0.00    +0.000 O 
ATOM     12  C7  UNL A   1      47.166  18.336  54.265  1.00  0.00    +0.000 C 
ATOM     13  O4  UNL A   1      47.884  17.718  55.040  1.00  0.00    +0.000 O 
ATOM     14  N2  UNL A   1      45.878  18.009  53.852  1.00  0.00    +0.000 N 
BRANCH    9    8
ATOM     97  C67 UNL A   1      41.798  19.682  52.463  1.00  0.00    +0.000 C 
ATOM    100  H3  UNL A   1      42.510  18.295  49.486  1.00  0.00    +0.000 H 
ATOM      5  C1  UNL A   1      41.603  19.208  51.161  1.00  0.00    +0.000 C 
ATOM      6  C2  UNL A   1      42.658  18.642  50.447  1.00  0.00    +0.000 C 
ATOM      7  C3  UNL A   1      43.918  18.548  51.043  1.00  0.00    +0.000 C 
ATOM    136  H39 UNL A   1      41.014  20.105  52.982  1.00  0.00    +0.000 H 
ATOM    101  H4  UNL A   1      44.699  18.125  50.519  1.00  0.00    +0.000 H 
ATOM    135  H38 UNL A   1      43.203  19.915  54.023  1.00  0.00    +0.000 H 
ATOM      8  C4  UNL A   1      44.136  19.023  52.350  1.00  0.00    +0.000 C 
ATOM     96  C66 UNL A   1      43.061  19.579  53.056  1.00  0.00    +0.000 C 
BRANCH    5    2
ATOM      2  S1  UNL A   1      40.016  19.393  50.399  1.00  0.00    +0.000 S 
ATOM      3  O1  UNL A   1      39.457  18.080  50.140  1.00  0.00    +0.000 O 
ATOM      4  O2  UNL A   1      40.104  20.409  49.386  1.00  0.00    +0.000 O 
BRANCH    2    1
ATOM      1  N1  UNL A   1      39.097  20.036  51.647  1.00  0.00    +0.000 N 
ATOM     98  H1  UNL A   1      39.557  20.868  52.015  1.00  0.00    +0.000 H 
ATOM     99  H2  UNL A   1      39.002  19.344  52.390  1.00  0.00    +0.000 H 
ENDBRANCH    2    1
ENDBRANCH    5    2
ENDBRANCH    9    8
ENDBRANCH   15   14
ENDBRANCH   19   18
ENDBRANCH   21   19
ENDBRANCH   22   21
ENDBRANCH   23   22
ENDBRANCH   24   23
ENDBRANCH   25   24
ENDBRANCH   26   25
ENDBRANCH   27   26
ENDBRANCH   28   27
ENDBRANCH   29   28
ENDBRANCH   31   29
ENDBRANCH   35   34
BRANCH   39   40
ATOM     40  C28 UNL A   1      45.229   8.105  52.228  1.00  0.00    +0.000 C 
ATOM     41  C29 UNL A   1      45.811   7.225  53.167  1.00  0.00    +0.000 C 
ATOM     42  F1  UNL A   1      46.042   7.623  54.427  1.00  0.00    +0.000 F 
ATOM     43  C30 UNL A   1      46.272   5.956  52.809  1.00  0.00    +0.000 C 
ATOM     44  F2  UNL A   1      46.956   5.223  53.697  1.00  0.00    +0.000 F 
ATOM     45  C31 UNL A   1      46.099   5.486  51.521  1.00  0.00    +0.000 C 
ATOM     46  F3  UNL A   1      46.607   4.304  51.153  1.00  0.00    +0.000 F 
ATOM     47  C32 UNL A   1      45.434   6.269  50.605  1.00  0.00    +0.000 C 
ATOM     48  F4  UNL A   1      45.257   5.832  49.349  1.00  0.00    +0.000 F 
ATOM     49  C33 UNL A   1      45.017   7.555  50.945  1.00  0.00    +0.000 C 
ATOM     50  F5  UNL A   1      44.495   8.253  49.932  1.00  0.00    +0.000 F 
ENDBRANCH   39   40
BRANCH   56   57
ATOM     65  F9  UNL A   1      51.088  15.297  48.871  1.00  0.00    +0.000 F 
ATOM     66  C44 UNL A   1      49.195  13.912  49.151  1.00  0.00    +0.000 C 
ATOM     67  F10 UNL A   1      49.960  12.843  48.874  1.00  0.00    +0.000 F 
ATOM     57  C39 UNL A   1      47.847  13.738  49.489  1.00  0.00    +0.000 C 
ATOM     58  C40 UNL A   1      47.111  14.888  49.822  1.00  0.00    +0.000 C 
ATOM     59  F6  UNL A   1      45.844  14.794  50.247  1.00  0.00    +0.000 F 
ATOM     60  C41 UNL A   1      47.691  16.156  49.779  1.00  0.00    +0.000 C 
ATOM     61  F7  UNL A   1      46.965  17.239  50.091  1.00  0.00    +0.000 F 
ATOM     62  C42 UNL A   1      49.029  16.296  49.448  1.00  0.00    +0.000 C 
ATOM     63  F8  UNL A   1      49.600  17.509  49.447  1.00  0.00    +0.000 F 
ATOM     64  C43 UNL A   1      49.782  15.173  49.144  1.00  0.00    +0.000 C 
ENDBRANCH   56   57
BRANCH   71   72
ATOM     72  C48 UNL A   1      43.652  12.426  45.001  1.00  0.00    +0.000 C 
ATOM     73  C49 UNL A   1      43.067  11.205  44.632  1.00  0.00    +0.000 C 
ATOM     74  F11 UNL A   1      43.172  10.137  45.438  1.00  0.00    +0.000 F 
ATOM     75  C50 UNL A   1      42.302  11.078  43.468  1.00  0.00    +0.000 C 
ATOM     76  F12 UNL A   1      41.705   9.912  43.183  1.00  0.00    +0.000 F 
ATOM     77  C51 UNL A   1      42.106  12.169  42.636  1.00  0.00    +0.000 C 
ATOM     78  F13 UNL A   1      41.317  12.067  41.558  1.00  0.00    +0.000 F 
ATOM     79  C52 UNL A   1      42.696  13.379  42.954  1.00  0.00    +0.000 C 
ATOM     80  F14 UNL A   1      42.481  14.451  42.180  1.00  0.00    +0.000 F 
ATOM     81  C53 UNL A   1      43.456  13.506  44.118  1.00  0.00    +0.000 C 
ATOM     82  F15 UNL A   1      43.915  14.730  44.418  1.00  0.00    +0.000 F 
ENDBRANCH   71   72
TORSDOF 19
ENDMDL
MODEL 6
REMARK VINA RESULT:      -8.8     39.990     46.808
ROOT
ATOM    129  H32 UNL A   1       5.280  33.024  -0.701  1.00  0.00    +0.000 H 
ATOM    130  H33 UNL A   1       6.593  32.264   1.391  1.00  0.00    +0.000 H 
ATOM     35  C24 UNL A   1       8.264  29.993   0.829  1.00  0.00    +0.000 C 
ATOM     36  C25 UNL A   1       7.531  30.856  -0.125  1.00  0.00    +0.000 C 
ATOM     37  N5  UNL A   1       7.411  30.689  -1.399  1.00  0.00    +0.000 N 
ATOM     38  C26 UNL A   1       6.677  31.779  -1.854  1.00  0.00    +0.000 C 
ATOM     39  C27 UNL A   1       6.875  32.264  -3.111  1.00  0.00    +0.000 C 
ATOM     51  C34 UNL A   1       7.588  31.298  -3.918  1.00  0.00    +0.000 C 
ATOM     52  C35 UNL A   1       7.350  29.997  -4.319  1.00  0.00    +0.000 C 
ATOM     53  C36 UNL A   1       8.624  29.354  -4.274  1.00  0.00    +0.000 C 
ATOM     54  C37 UNL A   1       9.578  30.312  -3.925  1.00  0.00    +0.000 C 
ATOM     55  N6  UNL A   1       8.932  31.503  -4.114  1.00  0.00    +0.000 N 
ATOM     56  C38 UNL A   1      10.918  30.210  -3.397  1.00  0.00    +0.000 C 
ATOM     68  C45 UNL A   1      11.564  31.200  -2.713  1.00  0.00    +0.000 C 
ATOM     69  N7  UNL A   1      12.615  30.901  -1.858  1.00  0.00    +0.000 N 
ATOM     70  C46 UNL A   1      12.590  31.850  -0.960  1.00  0.00    +0.000 C 
ATOM     71  C47 UNL A   1      12.817  31.605   0.487  1.00  0.00    +0.000 C 
ATOM     83  C54 UNL A   1      11.768  30.862   0.922  1.00  0.00    +0.000 C 
ATOM     84  C55 UNL A   1      11.631  30.042   2.102  1.00  0.00    +0.000 C 
ATOM     85  C56 UNL A   1      10.403  29.487   2.092  1.00  0.00    +0.000 C 
ATOM     86  C57 UNL A   1       9.603  30.060   1.002  1.00  0.00    +0.000 C 
ATOM     87  N8  UNL A   1      10.516  30.785   0.271  1.00  0.00    +0.000 N 
ATOM     88  C58 UNL A   1      11.860  33.049  -1.335  1.00  0.00    +0.000 C 
ATOM     89  C59 UNL A   1      11.182  32.571  -2.382  1.00  0.00    +0.000 C 
ATOM     90  C60 UNL A   1       6.074  32.364  -0.687  1.00  0.00    +0.000 C 
ATOM     91  C61 UNL A   1       6.687  31.932   0.418  1.00  0.00    +0.000 C 
ATOM    121  H24 UNL A   1       6.446  29.580  -4.593  1.00  0.00    +0.000 H 
ATOM    122  H25 UNL A   1       8.807  28.358  -4.466  1.00  0.00    +0.000 H 
ATOM    123  H26 UNL A   1       9.357  32.360  -4.350  1.00  0.00    +0.000 H 
ATOM    124  H27 UNL A   1      12.351  29.903   2.830  1.00  0.00    +0.000 H 
ATOM    125  H28 UNL A   1      10.073  28.766   2.754  1.00  0.00    +0.000 H 
ATOM    126  H29 UNL A   1      10.320  31.200  -0.600  1.00  0.00    +0.000 H 
ATOM    127  H30 UNL A   1      11.864  33.992  -0.914  1.00  0.00    +0.000 H 
ATOM    128  H31 UNL A   1      10.470  33.110  -2.899  1.00  0.00    +0.000 H 
ENDROOT
BRANCH   35   34
ATOM     33  C22 UNL A   1       7.142  29.690   3.049  1.00  0.00    +0.000 C 
ATOM     34  C23 UNL A   1       7.404  29.256   1.741  1.00  0.00    +0.000 C 
ATOM    131  H34 UNL A   1       7.236  27.656   0.380  1.00  0.00    +0.000 H 
ATOM    132  H35 UNL A   1       5.388  26.661   1.593  1.00  0.00    +0.000 H 
ATOM    119  H22 UNL A   1       6.235  29.137   4.878  1.00  0.00    +0.000 H 
ATOM    120  H23 UNL A   1       7.506  30.596   3.384  1.00  0.00    +0.000 H 
ATOM     92  C62 UNL A   1       6.907  28.049   1.276  1.00  0.00    +0.000 C 
ATOM     93  C63 UNL A   1       5.977  27.392   2.024  1.00  0.00    +0.000 C 
ATOM     31  C20 UNL A   1       5.824  27.708   3.367  1.00  0.00    +0.000 C 
ATOM     32  C21 UNL A   1       6.383  28.879   3.890  1.00  0.00    +0.000 C 
BRANCH   31   29
ATOM     29  C19 UNL A   1       5.084  26.751   4.206  1.00  0.00    +0.000 C 
ATOM     30  O6  UNL A   1       3.880  26.587   4.042  1.00  0.00    +0.000 O 
BRANCH   29   28
ATOM     28  N4  UNL A   1       5.771  26.037   5.170  1.00  0.00    +0.000 N 
ATOM    118  H21 UNL A   1       6.749  25.998   5.066  1.00  0.00    +0.000 H 
BRANCH   28   27
ATOM     27  C18 UNL A   1       5.218  25.328   6.330  1.00  0.00    +0.000 C 
ATOM    116  H19 UNL A   1       4.329  25.831   6.650  1.00  0.00    +0.000 H 
ATOM    117  H20 UNL A   1       5.006  24.322   6.034  1.00  0.00    +0.000 H 
BRANCH   27   26
ATOM     26  C17 UNL A   1       6.200  25.282   7.488  1.00  0.00    +0.000 C 
ATOM    115  H18 UNL A   1       5.640  25.464   8.382  1.00  0.00    +0.000 H 
ATOM    114  H17 UNL A   1       6.954  26.024   7.322  1.00  0.00    +0.000 H 
BRANCH   26   25
ATOM     25  C16 UNL A   1       6.889  23.919   7.657  1.00  0.00    +0.000 C 
ATOM    113  H16 UNL A   1       6.201  23.201   7.261  1.00  0.00    +0.000 H 
ATOM    112  H15 UNL A   1       7.109  23.792   8.696  1.00  0.00    +0.000 H 
BRANCH   25   24
ATOM    110  H13 UNL A   1       8.305  22.667   6.682  1.00  0.00    +0.000 H 
ATOM    111  H14 UNL A   1       8.102  24.305   5.984  1.00  0.00    +0.000 H 
ATOM     24  C15 UNL A   1       8.195  23.714   6.872  1.00  0.00    +0.000 C 
BRANCH   24   23
ATOM    108  H11 UNL A   1       9.271  24.283   8.622  1.00  0.00    +0.000 H 
ATOM    109  H12 UNL A   1      10.241  23.493   7.365  1.00  0.00    +0.000 H 
ATOM     23  C14 UNL A   1       9.468  24.203   7.574  1.00  0.00    +0.000 C 
BRANCH   23   22
ATOM    106  H9  UNL A   1       9.241  26.318   7.342  1.00  0.00    +0.000 H 
ATOM    107  H10 UNL A   1      10.902  25.786   7.500  1.00  0.00    +0.000 H 
ATOM     22  C13 UNL A   1       9.950  25.565   7.064  1.00  0.00    +0.000 C 
BRANCH   22   21
ATOM    105  H8  UNL A   1      10.608  24.774   5.288  1.00  0.00    +0.000 H 
ATOM     21  N3  UNL A   1      10.081  25.536   5.620  1.00  0.00    +0.000 N 
BRANCH   21   19
ATOM     19  C12 UNL A   1       9.619  26.359   4.623  1.00  0.00    +0.000 C 
ATOM     20  O5  UNL A   1       9.387  27.532   4.910  1.00  0.00    +0.000 O 
BRANCH   19   18
ATOM    133  H36 UNL A   1      10.477  27.221   2.132  1.00  0.00    +0.000 H 
ATOM    134  H37 UNL A   1      10.247  26.016   0.041  1.00  0.00    +0.000 H 
ATOM    103  H6  UNL A   1       7.367  23.519   1.810  1.00  0.00    +0.000 H 
ATOM    104  H7  UNL A   1       7.849  24.520   3.971  1.00  0.00    +0.000 H 
ATOM     15  C8  UNL A   1       8.839  24.630   0.779  1.00  0.00    +0.000 C 
ATOM     16  C9  UNL A   1       8.099  24.242   1.895  1.00  0.00    +0.000 C 
ATOM     17  C10 UNL A   1       8.359  24.841   3.133  1.00  0.00    +0.000 C 
ATOM     18  C11 UNL A   1       9.305  25.873   3.250  1.00  0.00    +0.000 C 
ATOM     94  C64 UNL A   1       9.901  26.366   2.090  1.00  0.00    +0.000 C 
ATOM     95  C65 UNL A   1       9.724  25.708   0.875  1.00  0.00    +0.000 C 
BRANCH   15   14
ATOM    102  H5  UNL A   1       7.338  22.825  -3.023  1.00  0.00    +0.000 H 
ATOM      9  C5  UNL A   1       7.739  24.012  -1.366  1.00  0.00    +0.000 C 
ATOM     10  C6  UNL A   1       7.945  23.006  -2.208  1.00  0.00    +0.000 C 
ATOM     11  O3  UNL A   1       9.050  22.214  -1.899  1.00  0.00    +0.000 O 
ATOM     12  C7  UNL A   1       9.536  22.836  -0.747  1.00  0.00    +0.000 C 
ATOM     13  O4  UNL A   1      10.501  22.412  -0.125  1.00  0.00    +0.000 O 
ATOM     14  N2  UNL A   1       8.734  23.930  -0.434  1.00  0.00    +0.000 N 
BRANCH    9    8
ATOM     97  C67 UNL A   1       4.527  25.969  -1.036  1.00  0.00    +0.000 C 
ATOM    100  H3  UNL A   1       6.460  28.266  -2.545  1.00  0.00    +0.000 H 
ATOM      5  C1  UNL A   1       4.900  27.187  -1.615  1.00  0.00    +0.000 C 
ATOM      6  C2  UNL A   1       6.188  27.366  -2.120  1.00  0.00    +0.000 C 
ATOM      7  C3  UNL A   1       7.107  26.316  -2.045  1.00  0.00    +0.000 C 
ATOM    136  H39 UNL A   1       3.575  25.846  -0.659  1.00  0.00    +0.000 H 
ATOM    101  H4  UNL A   1       8.058  26.445  -2.422  1.00  0.00    +0.000 H 
ATOM    135  H38 UNL A   1       5.171  24.016  -0.556  1.00  0.00    +0.000 H 
ATOM      8  C4  UNL A   1       6.752  25.086  -1.461  1.00  0.00    +0.000 C 
ATOM     96  C66 UNL A   1       5.451  24.920  -0.969  1.00  0.00    +0.000 C 
BRANCH    5    2
ATOM      2  S1  UNL A   1       3.744  28.525  -1.643  1.00  0.00    +0.000 S 
ATOM      3  O1  UNL A   1       4.088  29.474  -0.601  1.00  0.00    +0.000 O 
ATOM      4  O2  UNL A   1       2.419  27.991  -1.793  1.00  0.00    +0.000 O 
BRANCH    2    1
ATOM      1  N1  UNL A   1       4.121  29.289  -3.090  1.00  0.00    +0.000 N 
ATOM     98  H1  UNL A   1       3.415  29.995  -3.296  1.00  0.00    +0.000 H 
ATOM     99  H2  UNL A   1       4.144  28.601  -3.842  1.00  0.00    +0.000 H 
ENDBRANCH    2    1
ENDBRANCH    5    2
ENDBRANCH    9    8
ENDBRANCH   15   14
ENDBRANCH   19   18
ENDBRANCH   21   19
ENDBRANCH   22   21
ENDBRANCH   23   22
ENDBRANCH   24   23
ENDBRANCH   25   24
ENDBRANCH   26   25
ENDBRANCH   27   26
ENDBRANCH   28   27
ENDBRANCH   29   28
ENDBRANCH   31   29
ENDBRANCH   35   34
BRANCH   39   40
ATOM     40  C28 UNL A   1       6.839  33.734  -3.485  1.00  0.00    +0.000 C 
ATOM     41  C29 UNL A   1       5.861  34.163  -4.409  1.00  0.00    +0.000 C 
ATOM     42  F1  UNL A   1       4.808  33.383  -4.701  1.00  0.00    +0.000 F 
ATOM     43  C30 UNL A   1       5.995  35.346  -5.138  1.00  0.00    +0.000 C 
ATOM     44  F2  UNL A   1       5.120  35.628  -6.113  1.00  0.00    +0.000 F 
ATOM     45  C31 UNL A   1       7.069  36.186  -4.917  1.00  0.00    +0.000 C 
ATOM     46  F3  UNL A   1       7.243  37.282  -5.666  1.00  0.00    +0.000 F 
ATOM     47  C32 UNL A   1       7.986  35.862  -3.943  1.00  0.00    +0.000 C 
ATOM     48  F4  UNL A   1       9.037  36.663  -3.714  1.00  0.00    +0.000 F 
ATOM     49  C33 UNL A   1       7.882  34.657  -3.249  1.00  0.00    +0.000 C 
ATOM     50  F5  UNL A   1       8.900  34.407  -2.421  1.00  0.00    +0.000 F 
ENDBRANCH   39   40
BRANCH   56   57
ATOM     65  F9  UNL A   1      13.483  26.865  -5.793  1.00  0.00    +0.000 F 
ATOM     66  C44 UNL A   1      12.309  28.483  -4.534  1.00  0.00    +0.000 C 
ATOM     67  F10 UNL A   1      12.529  29.376  -5.512  1.00  0.00    +0.000 F 
ATOM     57  C39 UNL A   1      11.548  28.845  -3.416  1.00  0.00    +0.000 C 
ATOM     58  C40 UNL A   1      11.305  27.851  -2.450  1.00  0.00    +0.000 C 
ATOM     59  F6  UNL A   1      10.508  28.093  -1.401  1.00  0.00    +0.000 F 
ATOM     60  C41 UNL A   1      11.835  26.568  -2.584  1.00  0.00    +0.000 C 
ATOM     61  F7  UNL A   1      11.597  25.641  -1.645  1.00  0.00    +0.000 F 
ATOM     62  C42 UNL A   1      12.578  26.238  -3.705  1.00  0.00    +0.000 C 
ATOM     63  F8  UNL A   1      13.053  24.993  -3.857  1.00  0.00    +0.000 F 
ATOM     64  C43 UNL A   1      12.807  27.192  -4.684  1.00  0.00    +0.000 C 
ENDBRANCH   56   57
BRANCH   71   72
ATOM     72  C48 UNL A   1      13.827  32.348   1.275  1.00  0.00    +0.000 C 
ATOM     73  C49 UNL A   1      15.200  32.174   1.041  1.00  0.00    +0.000 C 
ATOM     74  F11 UNL A   1      15.629  31.166   0.265  1.00  0.00    +0.000 F 
ATOM     75  C50 UNL A   1      16.150  33.074   1.537  1.00  0.00    +0.000 C 
ATOM     76  F12 UNL A   1      17.446  32.911   1.237  1.00  0.00    +0.000 F 
ATOM     77  C51 UNL A   1      15.752  34.169   2.286  1.00  0.00    +0.000 C 
ATOM     78  F13 UNL A   1      16.653  35.069   2.703  1.00  0.00    +0.000 F 
ATOM     79  C52 UNL A   1      14.409  34.351   2.562  1.00  0.00    +0.000 C 
ATOM     80  F14 UNL A   1      14.008  35.428   3.251  1.00  0.00    +0.000 F 
ATOM     81  C53 UNL A   1      13.461  33.455   2.064  1.00  0.00    +0.000 C 
ATOM     82  F15 UNL A   1      12.170  33.746   2.284  1.00  0.00    +0.000 F 
ENDBRANCH   71   72
TORSDOF 19
ENDMDL
MODEL 7
REMARK VINA RESULT:      -8.8     38.860     45.827
ROOT
ATOM    129  H32 UNL A   1       5.394  32.875  -0.737  1.00  0.00    +0.000 H 
ATOM    130  H33 UNL A   1       6.949  32.090   1.171  1.00  0.00    +0.000 H 
ATOM     35  C24 UNL A   1       8.579  29.863   0.364  1.00  0.00    +0.000 C 
ATOM     36  C25 UNL A   1       7.729  30.736  -0.477  1.00  0.00    +0.000 C 
ATOM     37  N5  UNL A   1       7.466  30.596  -1.733  1.00  0.00    +0.000 N 
ATOM     38  C26 UNL A   1       6.668  31.683  -2.073  1.00  0.00    +0.000 C 
ATOM     39  C27 UNL A   1       6.715  32.202  -3.333  1.00  0.00    +0.000 C 
ATOM     51  C34 UNL A   1       7.345  31.268  -4.240  1.00  0.00    +0.000 C 
ATOM     52  C35 UNL A   1       7.083  29.973  -4.644  1.00  0.00    +0.000 C 
ATOM     53  C36 UNL A   1       8.363  29.353  -4.761  1.00  0.00    +0.000 C 
ATOM     54  C37 UNL A   1       9.336  30.319  -4.498  1.00  0.00    +0.000 C 
ATOM     55  N6  UNL A   1       8.655  31.503  -4.582  1.00  0.00    +0.000 N 
ATOM     56  C38 UNL A   1      10.729  30.229  -4.129  1.00  0.00    +0.000 C 
ATOM     68  C45 UNL A   1      11.433  31.214  -3.498  1.00  0.00    +0.000 C 
ATOM     69  N7  UNL A   1      12.580  30.915  -2.776  1.00  0.00    +0.000 N 
ATOM     70  C46 UNL A   1      12.643  31.841  -1.857  1.00  0.00    +0.000 C 
ATOM     71  C47 UNL A   1      13.038  31.566  -0.452  1.00  0.00    +0.000 C 
ATOM     83  C54 UNL A   1      12.057  30.794   0.080  1.00  0.00    +0.000 C 
ATOM     84  C55 UNL A   1      12.069  29.944   1.247  1.00  0.00    +0.000 C 
ATOM     85  C56 UNL A   1      10.856  29.367   1.363  1.00  0.00    +0.000 C 
ATOM     86  C57 UNL A   1       9.928  29.951   0.386  1.00  0.00    +0.000 C 
ATOM     87  N8  UNL A   1      10.740  30.710  -0.426  1.00  0.00    +0.000 N 
ATOM     88  C58 UNL A   1      11.857  33.035  -2.115  1.00  0.00    +0.000 C 
ATOM     89  C59 UNL A   1      11.071  32.570  -3.091  1.00  0.00    +0.000 C 
ATOM     90  C60 UNL A   1       6.194  32.230  -0.830  1.00  0.00    +0.000 C 
ATOM     91  C61 UNL A   1       6.935  31.783   0.186  1.00  0.00    +0.000 C 
ATOM    121  H24 UNL A   1       6.160  29.546  -4.823  1.00  0.00    +0.000 H 
ATOM    122  H25 UNL A   1       8.539  28.365  -4.998  1.00  0.00    +0.000 H 
ATOM    123  H26 UNL A   1       9.037  32.373  -4.843  1.00  0.00    +0.000 H 
ATOM    124  H27 UNL A   1      12.869  29.801   1.884  1.00  0.00    +0.000 H 
ATOM    125  H28 UNL A   1      10.615  28.625   2.039  1.00  0.00    +0.000 H 
ATOM    126  H29 UNL A   1      10.439  31.142  -1.257  1.00  0.00    +0.000 H 
ATOM    127  H30 UNL A   1      11.894  33.967  -1.674  1.00  0.00    +0.000 H 
ATOM    128  H31 UNL A   1      10.296  33.107  -3.510  1.00  0.00    +0.000 H 
ENDROOT
BRANCH   35   34
ATOM     33  C22 UNL A   1       7.179  27.895   1.032  1.00  0.00    +0.000 C 
ATOM     34  C23 UNL A   1       7.841  29.090   1.350  1.00  0.00    +0.000 C 
ATOM    131  H34 UNL A   1       8.104  30.590   2.806  1.00  0.00    +0.000 H 
ATOM    132  H35 UNL A   1       7.392  29.134   4.608  1.00  0.00    +0.000 H 
ATOM    119  H22 UNL A   1       5.861  26.424   1.788  1.00  0.00    +0.000 H 
ATOM    120  H23 UNL A   1       7.255  27.489   0.085  1.00  0.00    +0.000 H 
ATOM     92  C62 UNL A   1       7.760  29.635   2.621  1.00  0.00    +0.000 C 
ATOM     93  C63 UNL A   1       7.215  28.887   3.621  1.00  0.00    +0.000 C 
ATOM     31  C20 UNL A   1       6.422  27.791   3.308  1.00  0.00    +0.000 C 
ATOM     32  C21 UNL A   1       6.417  27.264   2.012  1.00  0.00    +0.000 C 
BRANCH   31   29
ATOM     29  C19 UNL A   1       5.578  27.240   4.381  1.00  0.00    +0.000 C 
ATOM     30  O6  UNL A   1       4.630  27.884   4.816  1.00  0.00    +0.000 O 
BRANCH   29   28
ATOM     28  N4  UNL A   1       5.869  25.983   4.881  1.00  0.00    +0.000 N 
ATOM    118  H21 UNL A   1       5.773  25.234   4.250  1.00  0.00    +0.000 H 
BRANCH   28   27
ATOM     27  C18 UNL A   1       6.303  25.633   6.238  1.00  0.00    +0.000 C 
ATOM    116  H19 UNL A   1       6.288  26.515   6.844  1.00  0.00    +0.000 H 
ATOM    117  H20 UNL A   1       5.632  24.892   6.619  1.00  0.00    +0.000 H 
BRANCH   27   26
ATOM     26  C17 UNL A   1       7.706  25.051   6.252  1.00  0.00    +0.000 C 
ATOM    115  H18 UNL A   1       7.650  24.084   5.797  1.00  0.00    +0.000 H 
ATOM    114  H17 UNL A   1       8.043  25.004   7.267  1.00  0.00    +0.000 H 
BRANCH   26   25
ATOM     25  C16 UNL A   1       8.721  25.872   5.442  1.00  0.00    +0.000 C 
ATOM    113  H16 UNL A   1       9.547  26.038   6.102  1.00  0.00    +0.000 H 
ATOM    112  H15 UNL A   1       8.230  26.765   5.115  1.00  0.00    +0.000 H 
BRANCH   25   24
ATOM    110  H13 UNL A   1      10.146  24.588   4.522  1.00  0.00    +0.000 H 
ATOM    111  H14 UNL A   1       8.521  24.619   3.766  1.00  0.00    +0.000 H 
ATOM     24  C15 UNL A   1       9.318  25.186   4.202  1.00  0.00    +0.000 C 
BRANCH   24   23
ATOM    108  H11 UNL A   1       9.272  25.923   2.202  1.00  0.00    +0.000 H 
ATOM    109  H12 UNL A   1       9.654  27.132   3.443  1.00  0.00    +0.000 H 
ATOM     23  C14 UNL A   1       9.814  26.131   3.100  1.00  0.00    +0.000 C 
BRANCH   23   22
ATOM    106  H9  UNL A   1      11.545  26.477   1.890  1.00  0.00    +0.000 H 
ATOM    107  H10 UNL A   1      11.869  26.423   3.610  1.00  0.00    +0.000 H 
ATOM     22  C13 UNL A   1      11.311  25.982   2.811  1.00  0.00    +0.000 C 
BRANCH   22   21
ATOM    105  H8  UNL A   1      12.081  24.215   3.516  1.00  0.00    +0.000 H 
ATOM     21  N3  UNL A   1      11.659  24.578   2.704  1.00  0.00    +0.000 N 
BRANCH   21   19
ATOM     19  C12 UNL A   1      11.518  23.654   1.699  1.00  0.00    +0.000 C 
ATOM     20  O5  UNL A   1      10.568  22.875   1.766  1.00  0.00    +0.000 O 
BRANCH   19   18
ATOM    133  H36 UNL A   1      13.015  25.521   0.300  1.00  0.00    +0.000 H 
ATOM    134  H37 UNL A   1      14.921  25.054  -1.123  1.00  0.00    +0.000 H 
ATOM    103  H6  UNL A   1      13.811  21.004  -1.263  1.00  0.00    +0.000 H 
ATOM    104  H7  UNL A   1      12.108  21.429   0.418  1.00  0.00    +0.000 H 
ATOM     15  C8  UNL A   1      14.555  22.981  -1.250  1.00  0.00    +0.000 C 
ATOM     16  C9  UNL A   1      13.704  21.948  -0.858  1.00  0.00    +0.000 C 
ATOM     17  C10 UNL A   1      12.706  22.203   0.088  1.00  0.00    +0.000 C 
ATOM     18  C11 UNL A   1      12.507  23.497   0.596  1.00  0.00    +0.000 C 
ATOM     94  C64 UNL A   1      13.250  24.547   0.057  1.00  0.00    +0.000 C 
ATOM     95  C65 UNL A   1      14.312  24.284  -0.807  1.00  0.00    +0.000 C 
BRANCH   15   14
ATOM    102  H5  UNL A   1      18.719  22.655  -2.838  1.00  0.00    +0.000 H 
ATOM      9  C5  UNL A   1      16.992  22.723  -1.687  1.00  0.00    +0.000 C 
ATOM     10  C6  UNL A   1      17.687  22.672  -2.816  1.00  0.00    +0.000 C 
ATOM     11  O3  UNL A   1      16.907  22.641  -3.971  1.00  0.00    +0.000 O 
ATOM     12  C7  UNL A   1      15.615  22.679  -3.446  1.00  0.00    +0.000 C 
ATOM     13  O4  UNL A   1      14.615  22.708  -4.152  1.00  0.00    +0.000 O 
ATOM     14  N2  UNL A   1      15.677  22.725  -2.056  1.00  0.00    +0.000 N 
BRANCH    9    8
ATOM     97  C67 UNL A   1      18.194  21.367   1.626  1.00  0.00    +0.000 C 
ATOM    100  H3  UNL A   1      18.501  24.665   2.197  1.00  0.00    +0.000 H 
ATOM      5  C1  UNL A   1      18.486  22.555   2.306  1.00  0.00    +0.000 C 
ATOM      6  C2  UNL A   1      18.283  23.791   1.692  1.00  0.00    +0.000 C 
ATOM      7  C3  UNL A   1      17.781  23.836   0.389  1.00  0.00    +0.000 C 
ATOM    136  H39 UNL A   1      18.353  20.457   2.084  1.00  0.00    +0.000 H 
ATOM    101  H4  UNL A   1      17.625  24.749  -0.065  1.00  0.00    +0.000 H 
ATOM    135  H38 UNL A   1      17.457  20.545  -0.174  1.00  0.00    +0.000 H 
ATOM      8  C4  UNL A   1      17.487  22.653  -0.313  1.00  0.00    +0.000 C 
ATOM     96  C66 UNL A   1      17.687  21.420   0.323  1.00  0.00    +0.000 C 
BRANCH    5    2
ATOM      2  S1  UNL A   1      19.180  22.477   3.932  1.00  0.00    +0.000 S 
ATOM      3  O1  UNL A   1      20.394  23.270   3.969  1.00  0.00    +0.000 O 
ATOM      4  O2  UNL A   1      19.132  21.117   4.392  1.00  0.00    +0.000 O 
BRANCH    2    1
ATOM      1  N1  UNL A   1      18.056  23.332   4.838  1.00  0.00    +0.000 N 
ATOM     98  H1  UNL A   1      17.224  22.758   4.978  1.00  0.00    +0.000 H 
ATOM     99  H2  UNL A   1      17.800  24.187   4.344  1.00  0.00    +0.000 H 
ENDBRANCH    2    1
ENDBRANCH    5    2
ENDBRANCH    9    8
ENDBRANCH   15   14
ENDBRANCH   19   18
ENDBRANCH   21   19
ENDBRANCH   22   21
ENDBRANCH   23   22
ENDBRANCH   24   23
ENDBRANCH   25   24
ENDBRANCH   26   25
ENDBRANCH   27   26
ENDBRANCH   28   27
ENDBRANCH   29   28
ENDBRANCH   31   29
ENDBRANCH   35   34
BRANCH   39   40
ATOM     40  C28 UNL A   1       6.613  33.680  -3.661  1.00  0.00    +0.000 C 
ATOM     41  C29 UNL A   1       5.579  34.100  -4.526  1.00  0.00    +0.000 C 
ATOM     42  F1  UNL A   1       4.539  33.294  -4.791  1.00  0.00    +0.000 F 
ATOM     43  C30 UNL A   1       5.640  35.307  -5.227  1.00  0.00    +0.000 C 
ATOM     44  F2  UNL A   1       4.711  35.585  -6.151  1.00  0.00    +0.000 F 
ATOM     45  C31 UNL A   1       6.696  36.176  -5.032  1.00  0.00    +0.000 C 
ATOM     46  F3  UNL A   1       6.799  37.297  -5.757  1.00  0.00    +0.000 F 
ATOM     47  C32 UNL A   1       7.668  35.856  -4.111  1.00  0.00    +0.000 C 
ATOM     48  F4  UNL A   1       8.702  36.685  -3.909  1.00  0.00    +0.000 F 
ATOM     49  C33 UNL A   1       7.636  34.630  -3.448  1.00  0.00    +0.000 C 
ATOM     50  F5  UNL A   1       8.700  34.392  -2.676  1.00  0.00    +0.000 F 
ENDBRANCH   39   40
BRANCH   56   57
ATOM     65  F9  UNL A   1      13.114  27.016  -6.867  1.00  0.00    +0.000 F 
ATOM     66  C44 UNL A   1      12.036  28.568  -5.449  1.00  0.00    +0.000 C 
ATOM     67  F10 UNL A   1      12.154  29.498  -6.409  1.00  0.00    +0.000 F 
ATOM     57  C39 UNL A   1      11.374  28.876  -4.254  1.00  0.00    +0.000 C 
ATOM     58  C40 UNL A   1      11.232  27.845  -3.309  1.00  0.00    +0.000 C 
ATOM     59  F6  UNL A   1      10.530  28.036  -2.184  1.00  0.00    +0.000 F 
ATOM     60  C41 UNL A   1      11.766  26.577  -3.536  1.00  0.00    +0.000 C 
ATOM     61  F7  UNL A   1      11.627  25.613  -2.614  1.00  0.00    +0.000 F 
ATOM     62  C42 UNL A   1      12.410  26.299  -4.731  1.00  0.00    +0.000 C 
ATOM     63  F8  UNL A   1      12.886  25.069  -4.971  1.00  0.00    +0.000 F 
ATOM     64  C43 UNL A   1      12.536  27.292  -5.690  1.00  0.00    +0.000 C 
ENDBRANCH   56   57
BRANCH   71   72
ATOM     72  C48 UNL A   1      14.119  32.308   0.234  1.00  0.00    +0.000 C 
ATOM     73  C49 UNL A   1      13.828  33.334   1.147  1.00  0.00    +0.000 C 
ATOM     74  F11 UNL A   1      12.581  33.819   1.240  1.00  0.00    +0.000 F 
ATOM     75  C50 UNL A   1      14.794  33.828   2.030  1.00  0.00    +0.000 C 
ATOM     76  F12 UNL A   1      14.462  34.762   2.932  1.00  0.00    +0.000 F 
ATOM     77  C51 UNL A   1      16.080  33.312   2.021  1.00  0.00    +0.000 C 
ATOM     78  F13 UNL A   1      16.987  33.735   2.912  1.00  0.00    +0.000 F 
ATOM     79  C52 UNL A   1      16.408  32.323   1.112  1.00  0.00    +0.000 C 
ATOM     80  F14 UNL A   1      17.637  31.788   1.120  1.00  0.00    +0.000 F 
ATOM     81  C53 UNL A   1      15.443  31.828   0.233  1.00  0.00    +0.000 C 
ATOM     82  F15 UNL A   1      15.801  30.801  -0.552  1.00  0.00    +0.000 F 
ENDBRANCH   71   72
TORSDOF 19
ENDMDL
MODEL 8
REMARK VINA RESULT:      -8.7      6.224     11.989
ROOT
ATOM    129  H32 UNL A   1      49.294  27.319  29.914  1.00  0.00    +0.000 H 
ATOM    130  H33 UNL A   1      48.135  25.125  30.633  1.00  0.00    +0.000 H 
ATOM     35  C24 UNL A   1      45.288  25.454  30.867  1.00  0.00    +0.000 C 
ATOM     36  C25 UNL A   1      46.279  26.385  30.280  1.00  0.00    +0.000 C 
ATOM     37  N5  UNL A   1      46.068  27.585  29.855  1.00  0.00    +0.000 N 
ATOM     38  C26 UNL A   1      47.289  28.027  29.358  1.00  0.00    +0.000 C 
ATOM     39  C27 UNL A   1      47.329  28.916  28.325  1.00  0.00    +0.000 C 
ATOM     51  C34 UNL A   1      46.040  29.549  28.154  1.00  0.00    +0.000 C 
ATOM     52  C35 UNL A   1      45.217  30.319  28.954  1.00  0.00    +0.000 C 
ATOM     53  C36 UNL A   1      43.891  29.891  28.646  1.00  0.00    +0.000 C 
ATOM     54  C37 UNL A   1      43.970  28.943  27.625  1.00  0.00    +0.000 C 
ATOM     55  N6  UNL A   1      45.239  29.092  27.135  1.00  0.00    +0.000 N 
ATOM     56  C38 UNL A   1      43.051  27.934  27.153  1.00  0.00    +0.000 C 
ATOM     68  C45 UNL A   1      43.410  26.819  26.451  1.00  0.00    +0.000 C 
ATOM     69  N7  UNL A   1      42.593  25.698  26.434  1.00  0.00    +0.000 N 
ATOM     70  C46 UNL A   1      43.410  24.696  26.256  1.00  0.00    +0.000 C 
ATOM     71  C47 UNL A   1      43.277  23.401  26.970  1.00  0.00    +0.000 C 
ATOM     83  C54 UNL A   1      43.523  23.655  28.280  1.00  0.00    +0.000 C 
ATOM     84  C55 UNL A   1      43.190  22.890  29.458  1.00  0.00    +0.000 C 
ATOM     85  C56 UNL A   1      43.633  23.561  30.539  1.00  0.00    +0.000 C 
ATOM     86  C57 UNL A   1      44.443  24.711  30.117  1.00  0.00    +0.000 C 
ATOM     87  N8  UNL A   1      44.237  24.777  28.758  1.00  0.00    +0.000 N 
ATOM     88  C58 UNL A   1      44.718  25.040  25.723  1.00  0.00    +0.000 C 
ATOM     89  C59 UNL A   1      44.698  26.359  25.936  1.00  0.00    +0.000 C 
ATOM     90  C60 UNL A   1      48.279  27.128  29.885  1.00  0.00    +0.000 C 
ATOM     91  C61 UNL A   1      47.701  26.011  30.332  1.00  0.00    +0.000 C 
ATOM    121  H24 UNL A   1      45.501  31.047  29.629  1.00  0.00    +0.000 H 
ATOM    122  H25 UNL A   1      43.026  30.224  29.098  1.00  0.00    +0.000 H 
ATOM    123  H26 UNL A   1      45.529  28.904  26.213  1.00  0.00    +0.000 H 
ATOM    124  H27 UNL A   1      42.697  21.982  29.471  1.00  0.00    +0.000 H 
ATOM    125  H28 UNL A   1      43.433  23.305  31.519  1.00  0.00    +0.000 H 
ATOM    126  H29 UNL A   1      44.550  25.516  28.188  1.00  0.00    +0.000 H 
ATOM    127  H30 UNL A   1      45.447  24.441  25.304  1.00  0.00    +0.000 H 
ATOM    128  H31 UNL A   1      45.501  26.982  25.758  1.00  0.00    +0.000 H 
ENDROOT
BRANCH   35   34
ATOM     33  C22 UNL A   1      46.684  24.744  32.824  1.00  0.00    +0.000 C 
ATOM     34  C23 UNL A   1      45.474  25.210  32.288  1.00  0.00    +0.000 C 
ATOM    131  H34 UNL A   1      43.435  25.575  32.674  1.00  0.00    +0.000 H 
ATOM    132  H35 UNL A   1      43.792  25.734  35.066  1.00  0.00    +0.000 H 
ATOM    119  H22 UNL A   1      47.604  24.034  34.591  1.00  0.00    +0.000 H 
ATOM    120  H23 UNL A   1      47.512  24.621  32.219  1.00  0.00    +0.000 H 
ATOM     92  C62 UNL A   1      44.361  25.394  33.092  1.00  0.00    +0.000 C 
ATOM     93  C63 UNL A   1      44.512  25.330  34.445  1.00  0.00    +0.000 C 
ATOM     31  C20 UNL A   1      45.638  24.723  34.985  1.00  0.00    +0.000 C 
ATOM     32  C21 UNL A   1      46.751  24.448  34.183  1.00  0.00    +0.000 C 
BRANCH   31   29
ATOM     29  C19 UNL A   1      45.591  24.361  36.411  1.00  0.00    +0.000 C 
ATOM     30  O6  UNL A   1      44.966  23.373  36.779  1.00  0.00    +0.000 O 
BRANCH   29   28
ATOM     28  N4  UNL A   1      46.271  25.148  37.322  1.00  0.00    +0.000 N 
ATOM    118  H21 UNL A   1      46.905  24.681  37.911  1.00  0.00    +0.000 H 
BRANCH   28   27
ATOM     27  C18 UNL A   1      46.158  26.599  37.518  1.00  0.00    +0.000 C 
ATOM    116  H19 UNL A   1      45.155  26.901  37.295  1.00  0.00    +0.000 H 
ATOM    117  H20 UNL A   1      46.410  26.816  38.535  1.00  0.00    +0.000 H 
BRANCH   27   26
ATOM     26  C17 UNL A   1      47.113  27.368  36.621  1.00  0.00    +0.000 C 
ATOM    115  H18 UNL A   1      47.640  26.646  36.032  1.00  0.00    +0.000 H 
ATOM    114  H17 UNL A   1      47.768  27.945  37.240  1.00  0.00    +0.000 H 
BRANCH   26   25
ATOM     25  C16 UNL A   1      46.406  28.319  35.642  1.00  0.00    +0.000 C 
ATOM    113  H16 UNL A   1      46.658  29.306  35.972  1.00  0.00    +0.000 H 
ATOM    112  H15 UNL A   1      45.360  28.097  35.671  1.00  0.00    +0.000 H 
BRANCH   25   24
ATOM    110  H13 UNL A   1      47.858  28.631  34.119  1.00  0.00    +0.000 H 
ATOM    111  H14 UNL A   1      46.779  27.218  33.891  1.00  0.00    +0.000 H 
ATOM     24  C15 UNL A   1      46.860  28.247  34.175  1.00  0.00    +0.000 C 
BRANCH   24   23
ATOM    108  H11 UNL A   1      46.560  29.181  32.282  1.00  0.00    +0.000 H 
ATOM    109  H12 UNL A   1      45.110  28.457  33.004  1.00  0.00    +0.000 H 
ATOM     23  C14 UNL A   1      45.996  29.031  33.179  1.00  0.00    +0.000 C 
BRANCH   23   22
ATOM    106  H9  UNL A   1      45.535  30.372  34.781  1.00  0.00    +0.000 H 
ATOM    107  H10 UNL A   1      46.248  31.143  33.381  1.00  0.00    +0.000 H 
ATOM     22  C13 UNL A   1      45.556  30.398  33.711  1.00  0.00    +0.000 C 
BRANCH   22   21
ATOM    105  H8  UNL A   1      43.508  30.259  33.690  1.00  0.00    +0.000 H 
ATOM     21  N3  UNL A   1      44.233  30.722  33.212  1.00  0.00    +0.000 N 
BRANCH   21   19
ATOM     19  C12 UNL A   1      43.789  31.542  32.205  1.00  0.00    +0.000 C 
ATOM     20  O5  UNL A   1      44.607  32.291  31.674  1.00  0.00    +0.000 O 
BRANCH   19   18
ATOM    133  H36 UNL A   1      41.898  29.573  31.726  1.00  0.00    +0.000 H 
ATOM    134  H37 UNL A   1      39.502  29.899  31.548  1.00  0.00    +0.000 H 
ATOM    103  H6  UNL A   1      40.115  34.023  31.023  1.00  0.00    +0.000 H 
ATOM    104  H7  UNL A   1      42.472  33.722  31.530  1.00  0.00    +0.000 H 
ATOM     15  C8  UNL A   1      39.615  31.995  31.339  1.00  0.00    +0.000 C 
ATOM     16  C9  UNL A   1      40.478  33.088  31.267  1.00  0.00    +0.000 C 
ATOM     17  C10 UNL A   1      41.840  32.906  31.532  1.00  0.00    +0.000 C 
ATOM     18  C11 UNL A   1      42.358  31.628  31.799  1.00  0.00    +0.000 C 
ATOM     94  C64 UNL A   1      41.509  30.527  31.688  1.00  0.00    +0.000 C 
ATOM     95  C65 UNL A   1      40.137  30.712  31.528  1.00  0.00    +0.000 C 
BRANCH   15   14
ATOM    102  H5  UNL A   1      35.256  32.237  32.289  1.00  0.00    +0.000 H 
ATOM      9  C5  UNL A   1      37.332  32.278  32.289  1.00  0.00    +0.000 C 
ATOM     10  C6  UNL A   1      36.127  32.183  31.739  1.00  0.00    +0.000 C 
ATOM     11  O3  UNL A   1      36.138  32.005  30.356  1.00  0.00    +0.000 O 
ATOM     12  C7  UNL A   1      37.506  31.997  30.079  1.00  0.00    +0.000 C 
ATOM     13  O4  UNL A   1      37.950  31.821  28.952  1.00  0.00    +0.000 O 
ATOM     14  N2  UNL A   1      38.223  32.168  31.259  1.00  0.00    +0.000 N 
BRANCH    9    8
ATOM     97  C67 UNL A   1      38.161  31.859  35.949  1.00  0.00    +0.000 C 
ATOM    100  H3  UNL A   1      38.414  35.198  35.670  1.00  0.00    +0.000 H 
ATOM      5  C1  UNL A   1      38.380  33.189  36.322  1.00  0.00    +0.000 C 
ATOM      6  C2  UNL A   1      38.249  34.218  35.390  1.00  0.00    +0.000 C 
ATOM      7  C3  UNL A   1      37.894  33.911  34.075  1.00  0.00    +0.000 C 
ATOM    136  H39 UNL A   1      38.266  31.103  36.642  1.00  0.00    +0.000 H 
ATOM    101  H4  UNL A   1      37.791  34.671  33.384  1.00  0.00    +0.000 H 
ATOM    135  H38 UNL A   1      37.622  30.579  34.358  1.00  0.00    +0.000 H 
ATOM      8  C4  UNL A   1      37.674  32.579  33.678  1.00  0.00    +0.000 C 
ATOM     96  C66 UNL A   1      37.799  31.559  34.631  1.00  0.00    +0.000 C 
BRANCH    5    2
ATOM      2  S1  UNL A   1      38.892  33.553  37.977  1.00  0.00    +0.000 S 
ATOM      3  O1  UNL A   1      38.776  34.981  38.208  1.00  0.00    +0.000 O 
ATOM      4  O2  UNL A   1      40.095  32.821  38.262  1.00  0.00    +0.000 O 
BRANCH    2    1
ATOM      1  N1  UNL A   1      37.672  32.848  38.888  1.00  0.00    +0.000 N 
ATOM     98  H1  UNL A   1      36.791  32.904  38.378  1.00  0.00    +0.000 H 
ATOM     99  H2  UNL A   1      37.582  33.343  39.776  1.00  0.00    +0.000 H 
ENDBRANCH    2    1
ENDBRANCH    5    2
ENDBRANCH    9    8
ENDBRANCH   15   14
ENDBRANCH   19   18
ENDBRANCH   21   19
ENDBRANCH   22   21
ENDBRANCH   23   22
ENDBRANCH   24   23
ENDBRANCH   25   24
ENDBRANCH   26   25
ENDBRANCH   27   26
ENDBRANCH   28   27
ENDBRANCH   29   28
ENDBRANCH   31   29
ENDBRANCH   35   34
BRANCH   39   40
ATOM     40  C28 UNL A   1      48.356  28.895  27.208  1.00  0.00    +0.000 C 
ATOM     41  C29 UNL A   1      48.501  27.706  26.461  1.00  0.00    +0.000 C 
ATOM     42  F1  UNL A   1      47.564  26.746  26.511  1.00  0.00    +0.000 F 
ATOM     43  C30 UNL A   1      49.660  27.422  25.734  1.00  0.00    +0.000 C 
ATOM     44  F2  UNL A   1      49.812  26.216  25.171  1.00  0.00    +0.000 F 
ATOM     45  C31 UNL A   1      50.683  28.347  25.659  1.00  0.00    +0.000 C 
ATOM     46  F3  UNL A   1      51.826  28.050  25.029  1.00  0.00    +0.000 F 
ATOM     47  C32 UNL A   1      50.532  29.566  26.280  1.00  0.00    +0.000 C 
ATOM     48  F4  UNL A   1      51.515  30.477  26.222  1.00  0.00    +0.000 F 
ATOM     49  C33 UNL A   1      49.399  29.832  27.048  1.00  0.00    +0.000 C 
ATOM     50  F5  UNL A   1      49.433  31.001  27.695  1.00  0.00    +0.000 F 
ENDBRANCH   39   40
BRANCH   56   57
ATOM     65  F9  UNL A   1      38.557  29.686  26.654  1.00  0.00    +0.000 F 
ATOM     66  C44 UNL A   1      40.700  28.722  26.907  1.00  0.00    +0.000 C 
ATOM     67  F10 UNL A   1      41.049  29.233  25.715  1.00  0.00    +0.000 F 
ATOM     57  C39 UNL A   1      41.640  28.015  27.666  1.00  0.00    +0.000 C 
ATOM     58  C40 UNL A   1      41.233  27.552  28.930  1.00  0.00    +0.000 C 
ATOM     59  F6  UNL A   1      42.101  26.950  29.754  1.00  0.00    +0.000 F 
ATOM     60  C41 UNL A   1      39.932  27.755  29.390  1.00  0.00    +0.000 C 
ATOM     61  F7  UNL A   1      39.565  27.295  30.595  1.00  0.00    +0.000 F 
ATOM     62  C42 UNL A   1      39.026  28.465  28.619  1.00  0.00    +0.000 C 
ATOM     63  F8  UNL A   1      37.788  28.700  29.077  1.00  0.00    +0.000 F 
ATOM     64  C43 UNL A   1      39.413  28.957  27.383  1.00  0.00    +0.000 C 
ENDBRANCH   56   57
BRANCH   71   72
ATOM     72  C48 UNL A   1      43.224  22.100  26.265  1.00  0.00    +0.000 C 
ATOM     73  C49 UNL A   1      44.394  21.476  25.805  1.00  0.00    +0.000 C 
ATOM     74  F11 UNL A   1      45.554  22.150  25.787  1.00  0.00    +0.000 F 
ATOM     75  C50 UNL A   1      44.410  20.129  25.427  1.00  0.00    +0.000 C 
ATOM     76  F12 UNL A   1      45.560  19.551  25.056  1.00  0.00    +0.000 F 
ATOM     77  C51 UNL A   1      43.252  19.371  25.492  1.00  0.00    +0.000 C 
ATOM     78  F13 UNL A   1      43.280  18.064  25.196  1.00  0.00    +0.000 F 
ATOM     79  C52 UNL A   1      42.075  19.964  25.910  1.00  0.00    +0.000 C 
ATOM     80  F14 UNL A   1      40.957  19.231  26.016  1.00  0.00    +0.000 F 
ATOM     81  C53 UNL A   1      42.060  21.307  26.291  1.00  0.00    +0.000 C 
ATOM     82  F15 UNL A   1      40.910  21.791  26.780  1.00  0.00    +0.000 F 
ENDBRANCH   71   72
TORSDOF 19
ENDMDL
MODEL 9
REMARK VINA RESULT:      -8.7     39.460     46.488
ROOT
ATOM    129  H32 UNL A   1       5.664  32.677  -0.635  1.00  0.00    +0.000 H 
ATOM    130  H33 UNL A   1       7.232  31.951   1.286  1.00  0.00    +0.000 H 
ATOM     35  C24 UNL A   1       8.968  29.804   0.487  1.00  0.00    +0.000 C 
ATOM     36  C25 UNL A   1       8.089  30.641  -0.360  1.00  0.00    +0.000 C 
ATOM     37  N5  UNL A   1       7.846  30.497  -1.619  1.00  0.00    +0.000 N 
ATOM     38  C26 UNL A   1       7.004  31.549  -1.963  1.00  0.00    +0.000 C 
ATOM     39  C27 UNL A   1       7.041  32.076  -3.219  1.00  0.00    +0.000 C 
ATOM     51  C34 UNL A   1       7.721  31.175  -4.124  1.00  0.00    +0.000 C 
ATOM     52  C35 UNL A   1       7.521  29.872  -4.537  1.00  0.00    +0.000 C 
ATOM     53  C36 UNL A   1       8.830  29.310  -4.643  1.00  0.00    +0.000 C 
ATOM     54  C37 UNL A   1       9.755  30.317  -4.365  1.00  0.00    +0.000 C 
ATOM     55  N6  UNL A   1       9.023  31.469  -4.451  1.00  0.00    +0.000 N 
ATOM     56  C38 UNL A   1      11.147  30.287  -3.982  1.00  0.00    +0.000 C 
ATOM     68  C45 UNL A   1      11.800  31.299  -3.338  1.00  0.00    +0.000 C 
ATOM     69  N7  UNL A   1      12.951  31.047  -2.606  1.00  0.00    +0.000 N 
ATOM     70  C46 UNL A   1      12.964  31.970  -1.682  1.00  0.00    +0.000 C 
ATOM     71  C47 UNL A   1      13.355  31.707  -0.274  1.00  0.00    +0.000 C 
ATOM     83  C54 UNL A   1      12.404  30.889   0.245  1.00  0.00    +0.000 C 
ATOM     84  C55 UNL A   1      12.441  30.034   1.407  1.00  0.00    +0.000 C 
ATOM     85  C56 UNL A   1      11.254  29.404   1.508  1.00  0.00    +0.000 C 
ATOM     86  C57 UNL A   1      10.312  29.951   0.523  1.00  0.00    +0.000 C 
ATOM     87  N8  UNL A   1      11.097  30.749  -0.276  1.00  0.00    +0.000 N 
ATOM     88  C58 UNL A   1      12.127  33.130  -1.943  1.00  0.00    +0.000 C 
ATOM     89  C59 UNL A   1      11.374  32.635  -2.929  1.00  0.00    +0.000 C 
ATOM     90  C60 UNL A   1       6.493  32.067  -0.723  1.00  0.00    +0.000 C 
ATOM     91  C61 UNL A   1       7.243  31.649   0.299  1.00  0.00    +0.000 C 
ATOM    121  H24 UNL A   1       6.620  29.405  -4.728  1.00  0.00    +0.000 H 
ATOM    122  H25 UNL A   1       9.051  28.331  -4.882  1.00  0.00    +0.000 H 
ATOM    123  H26 UNL A   1       9.369  32.357  -4.704  1.00  0.00    +0.000 H 
ATOM    124  H27 UNL A   1      13.240  29.924   2.052  1.00  0.00    +0.000 H 
ATOM    125  H28 UNL A   1      11.039  28.648   2.178  1.00  0.00    +0.000 H 
ATOM    126  H29 UNL A   1      10.787  31.172  -1.109  1.00  0.00    +0.000 H 
ATOM    127  H30 UNL A   1      12.119  34.061  -1.497  1.00  0.00    +0.000 H 
ATOM    128  H31 UNL A   1      10.580  33.140  -3.354  1.00  0.00    +0.000 H 
ENDROOT
BRANCH   35   34
ATOM     33  C22 UNL A   1       7.563  27.824   1.111  1.00  0.00    +0.000 C 
ATOM     34  C23 UNL A   1       8.254  28.993   1.461  1.00  0.00    +0.000 C 
ATOM    131  H34 UNL A   1       8.595  30.417   2.977  1.00  0.00    +0.000 H 
ATOM    132  H35 UNL A   1       7.926  28.885   4.732  1.00  0.00    +0.000 H 
ATOM    119  H22 UNL A   1       6.251  26.336   1.843  1.00  0.00    +0.000 H 
ATOM    120  H23 UNL A   1       7.598  27.464   0.144  1.00  0.00    +0.000 H 
ATOM     92  C62 UNL A   1       8.229  29.477   2.759  1.00  0.00    +0.000 C 
ATOM     93  C63 UNL A   1       7.709  28.688   3.741  1.00  0.00    +0.000 C 
ATOM     31  C20 UNL A   1       6.888  27.620   3.406  1.00  0.00    +0.000 C 
ATOM     32  C21 UNL A   1       6.828  27.157   2.087  1.00  0.00    +0.000 C 
BRANCH   31   29
ATOM     29  C19 UNL A   1       6.076  27.029   4.482  1.00  0.00    +0.000 C 
ATOM     30  O6  UNL A   1       4.913  27.378   4.643  1.00  0.00    +0.000 O 
BRANCH   29   28
ATOM     28  N4  UNL A   1       6.646  26.068   5.298  1.00  0.00    +0.000 N 
ATOM    118  H21 UNL A   1       6.047  25.645   5.953  1.00  0.00    +0.000 H 
BRANCH   28   27
ATOM     27  C18 UNL A   1       8.040  25.606   5.305  1.00  0.00    +0.000 C 
ATOM    116  H19 UNL A   1       8.682  26.444   5.129  1.00  0.00    +0.000 H 
ATOM    117  H20 UNL A   1       8.237  25.163   6.259  1.00  0.00    +0.000 H 
BRANCH   27   26
ATOM     26  C17 UNL A   1       8.295  24.558   4.236  1.00  0.00    +0.000 C 
ATOM    115  H18 UNL A   1       7.701  24.824   3.387  1.00  0.00    +0.000 H 
ATOM    114  H17 UNL A   1       8.031  23.599   4.633  1.00  0.00    +0.000 H 
BRANCH   26   25
ATOM     25  C16 UNL A   1       9.757  24.502   3.765  1.00  0.00    +0.000 C 
ATOM    113  H16 UNL A   1       9.745  23.917   2.869  1.00  0.00    +0.000 H 
ATOM    112  H15 UNL A   1      10.339  24.083   4.559  1.00  0.00    +0.000 H 
BRANCH   25   24
ATOM    110  H13 UNL A   1       9.608  26.539   3.170  1.00  0.00    +0.000 H 
ATOM    111  H14 UNL A   1      11.019  26.127   4.196  1.00  0.00    +0.000 H 
ATOM     24  C15 UNL A   1      10.397  25.844   3.372  1.00  0.00    +0.000 C 
BRANCH   24   23
ATOM    108  H11 UNL A   1      12.048  26.574   2.239  1.00  0.00    +0.000 H 
ATOM    109  H12 UNL A   1      11.761  24.828   2.113  1.00  0.00    +0.000 H 
ATOM     23  C14 UNL A   1      11.315  25.801   2.144  1.00  0.00    +0.000 C 
BRANCH   23   22
ATOM    106  H9  UNL A   1       9.599  26.417   1.025  1.00  0.00    +0.000 H 
ATOM    107  H10 UNL A   1      11.124  26.664   0.200  1.00  0.00    +0.000 H 
ATOM     22  C13 UNL A   1      10.564  26.000   0.824  1.00  0.00    +0.000 C 
BRANCH   22   21
ATOM    105  H8  UNL A   1      10.348  23.960   0.760  1.00  0.00    +0.000 H 
ATOM     21  N3  UNL A   1      10.407  24.727   0.146  1.00  0.00    +0.000 N 
BRANCH   21   19
ATOM     19  C12 UNL A   1      10.323  24.378  -1.179  1.00  0.00    +0.000 C 
ATOM     20  O5  UNL A   1       9.677  25.112  -1.925  1.00  0.00    +0.000 O 
BRANCH   19   18
ATOM    133  H36 UNL A   1      10.253  23.280  -3.723  1.00  0.00    +0.000 H 
ATOM    134  H37 UNL A   1      11.643  21.470  -4.542  1.00  0.00    +0.000 H 
ATOM    103  H6  UNL A   1      12.643  20.464  -0.586  1.00  0.00    +0.000 H 
ATOM    104  H7  UNL A   1      11.517  22.471   0.193  1.00  0.00    +0.000 H 
ATOM     15  C8  UNL A   1      12.306  20.867  -2.632  1.00  0.00    +0.000 C 
ATOM     16  C9  UNL A   1      12.216  21.116  -1.263  1.00  0.00    +0.000 C 
ATOM     17  C10 UNL A   1      11.541  22.257  -0.816  1.00  0.00    +0.000 C 
ATOM     18  C11 UNL A   1      10.898  23.116  -1.723  1.00  0.00    +0.000 C 
ATOM     94  C64 UNL A   1      10.849  22.751  -3.068  1.00  0.00    +0.000 C 
ATOM     95  C65 UNL A   1      11.603  21.674  -3.531  1.00  0.00    +0.000 C 
BRANCH   15   14
ATOM    102  H5  UNL A   1      15.652  18.547  -4.474  1.00  0.00    +0.000 H 
ATOM      9  C5  UNL A   1      14.444  19.906  -3.470  1.00  0.00    +0.000 C 
ATOM     10  C6  UNL A   1      14.716  18.770  -4.101  1.00  0.00    +0.000 C 
ATOM     11  O3  UNL A   1      13.630  17.902  -4.217  1.00  0.00    +0.000 O 
ATOM     12  C7  UNL A   1      12.618  18.621  -3.579  1.00  0.00    +0.000 C 
ATOM     13  O4  UNL A   1      11.468  18.212  -3.499  1.00  0.00    +0.000 O 
ATOM     14  N2  UNL A   1      13.124  19.836  -3.125  1.00  0.00    +0.000 N 
BRANCH    9    8
ATOM     97  C67 UNL A   1      16.494  23.076  -3.539  1.00  0.00    +0.000 C 
ATOM    100  H3  UNL A   1      17.309  21.917  -0.491  1.00  0.00    +0.000 H 
ATOM      5  C1  UNL A   1      17.105  23.021  -2.281  1.00  0.00    +0.000 C 
ATOM      6  C2  UNL A   1      16.858  21.953  -1.419  1.00  0.00    +0.000 C 
ATOM      7  C3  UNL A   1      15.995  20.931  -1.823  1.00  0.00    +0.000 C 
ATOM    136  H39 UNL A   1      16.677  23.872  -4.168  1.00  0.00    +0.000 H 
ATOM    101  H4  UNL A   1      15.814  20.138  -1.189  1.00  0.00    +0.000 H 
ATOM    135  H38 UNL A   1      15.197  22.078  -4.873  1.00  0.00    +0.000 H 
ATOM      8  C4  UNL A   1      15.367  20.970  -3.081  1.00  0.00    +0.000 C 
ATOM     96  C66 UNL A   1      15.636  22.046  -3.939  1.00  0.00    +0.000 C 
BRANCH    5    2
ATOM      2  S1  UNL A   1      18.145  24.355  -1.762  1.00  0.00    +0.000 S 
ATOM      3  O1  UNL A   1      18.157  24.413  -0.312  1.00  0.00    +0.000 O 
ATOM      4  O2  UNL A   1      17.867  25.505  -2.578  1.00  0.00    +0.000 O 
BRANCH    2    1
ATOM      1  N1  UNL A   1      19.669  23.809  -2.203  1.00  0.00    +0.000 N 
ATOM     98  H1  UNL A   1      19.767  22.828  -1.943  1.00  0.00    +0.000 H 
ATOM     99  H2  UNL A   1      20.380  24.361  -1.724  1.00  0.00    +0.000 H 
ENDBRANCH    2    1
ENDBRANCH    5    2
ENDBRANCH    9    8
ENDBRANCH   15   14
ENDBRANCH   19   18
ENDBRANCH   21   19
ENDBRANCH   22   21
ENDBRANCH   23   22
ENDBRANCH   24   23
ENDBRANCH   25   24
ENDBRANCH   26   25
ENDBRANCH   27   26
ENDBRANCH   28   27
ENDBRANCH   29   28
ENDBRANCH   31   29
ENDBRANCH   35   34
BRANCH   39   40
ATOM     40  C28 UNL A   1       6.877  33.549  -3.542  1.00  0.00    +0.000 C 
ATOM     41  C29 UNL A   1       5.832  33.927  -4.414  1.00  0.00    +0.000 C 
ATOM     42  F1  UNL A   1       4.830  33.078  -4.690  1.00  0.00    +0.000 F 
ATOM     43  C30 UNL A   1       5.846  35.139  -5.109  1.00  0.00    +0.000 C 
ATOM     44  F2  UNL A   1       4.913  35.381  -6.039  1.00  0.00    +0.000 F 
ATOM     45  C31 UNL A   1       6.861  36.053  -4.902  1.00  0.00    +0.000 C 
ATOM     46  F3  UNL A   1       6.921  37.180  -5.621  1.00  0.00    +0.000 F 
ATOM     47  C32 UNL A   1       7.839  35.771  -3.975  1.00  0.00    +0.000 C 
ATOM     48  F4  UNL A   1       8.834  36.644  -3.761  1.00  0.00    +0.000 F 
ATOM     49  C33 UNL A   1       7.855  34.542  -3.317  1.00  0.00    +0.000 C 
ATOM     50  F5  UNL A   1       8.923  34.347  -2.537  1.00  0.00    +0.000 F 
ENDBRANCH   39   40
BRANCH   56   57
ATOM     65  F9  UNL A   1      13.175  26.927  -6.829  1.00  0.00    +0.000 F 
ATOM     66  C44 UNL A   1      12.287  28.564  -5.375  1.00  0.00    +0.000 C 
ATOM     67  F10 UNL A   1      12.144  29.390  -6.424  1.00  0.00    +0.000 F 
ATOM     57  C39 UNL A   1      11.853  28.964  -4.106  1.00  0.00    +0.000 C 
ATOM     58  C40 UNL A   1      11.977  28.036  -3.057  1.00  0.00    +0.000 C 
ATOM     59  F6  UNL A   1      11.499  28.310  -1.836  1.00  0.00    +0.000 F 
ATOM     60  C41 UNL A   1      12.548  26.781  -3.267  1.00  0.00    +0.000 C 
ATOM     61  F7  UNL A   1      12.665  25.917  -2.248  1.00  0.00    +0.000 F 
ATOM     62  C42 UNL A   1      12.962  26.410  -4.535  1.00  0.00    +0.000 C 
ATOM     63  F8  UNL A   1      13.471  25.188  -4.748  1.00  0.00    +0.000 F 
ATOM     64  C43 UNL A   1      12.822  27.297  -5.591  1.00  0.00    +0.000 C 
ENDBRANCH   56   57
BRANCH   71   72
ATOM     72  C48 UNL A   1      14.395  32.492   0.428  1.00  0.00    +0.000 C 
ATOM     73  C49 UNL A   1      14.050  33.533   1.304  1.00  0.00    +0.000 C 
ATOM     74  F11 UNL A   1      12.788  33.988   1.346  1.00  0.00    +0.000 F 
ATOM     75  C50 UNL A   1      14.974  34.073   2.205  1.00  0.00    +0.000 C 
ATOM     76  F12 UNL A   1      14.590  35.020   3.072  1.00  0.00    +0.000 F 
ATOM     77  C51 UNL A   1      16.272  33.590   2.249  1.00  0.00    +0.000 C 
ATOM     78  F13 UNL A   1      17.139  34.058   3.158  1.00  0.00    +0.000 F 
ATOM     79  C52 UNL A   1      16.653  32.587   1.377  1.00  0.00    +0.000 C 
ATOM     80  F14 UNL A   1      17.894  32.084   1.437  1.00  0.00    +0.000 F 
ATOM     81  C53 UNL A   1      15.730  32.046   0.480  1.00  0.00    +0.000 C 
ATOM     82  F15 UNL A   1      16.138  31.010  -0.267  1.00  0.00    +0.000 F 
ENDBRANCH   71   72
TORSDOF 19
ENDMDL
MODEL 10
REMARK VINA RESULT:      -8.7      5.169     10.848
ROOT
ATOM    129  H32 UNL A   1      41.454  24.914  25.089  1.00  0.00    +0.000 H 
ATOM    130  H33 UNL A   1      41.278  27.444  25.579  1.00  0.00    +0.000 H 
ATOM     35  C24 UNL A   1      41.654  28.015  28.372  1.00  0.00    +0.000 C 
ATOM     36  C25 UNL A   1      41.888  26.743  27.651  1.00  0.00    +0.000 C 
ATOM     37  N5  UNL A   1      42.206  25.601  28.162  1.00  0.00    +0.000 N 
ATOM     38  C26 UNL A   1      42.360  24.737  27.084  1.00  0.00    +0.000 C 
ATOM     39  C27 UNL A   1      43.245  23.703  27.153  1.00  0.00    +0.000 C 
ATOM     51  C34 UNL A   1      43.626  23.456  28.526  1.00  0.00    +0.000 C 
ATOM     52  C35 UNL A   1      42.947  23.122  29.683  1.00  0.00    +0.000 C 
ATOM     53  C36 UNL A   1      43.595  23.857  30.721  1.00  0.00    +0.000 C 
ATOM     54  C37 UNL A   1      44.676  24.537  30.158  1.00  0.00    +0.000 C 
ATOM     55  N6  UNL A   1      44.846  23.935  28.941  1.00  0.00    +0.000 N 
ATOM     56  C38 UNL A   1      45.458  25.667  30.601  1.00  0.00    +0.000 C 
ATOM     68  C45 UNL A   1      46.187  26.480  29.780  1.00  0.00    +0.000 C 
ATOM     69  N7  UNL A   1      46.519  27.769  30.172  1.00  0.00    +0.000 N 
ATOM     70  C46 UNL A   1      46.626  28.437  29.055  1.00  0.00    +0.000 C 
ATOM     71  C47 UNL A   1      46.117  29.821  28.884  1.00  0.00    +0.000 C 
ATOM     83  C54 UNL A   1      44.765  29.750  28.970  1.00  0.00    +0.000 C 
ATOM     84  C55 UNL A   1      43.790  30.780  29.238  1.00  0.00    +0.000 C 
ATOM     85  C56 UNL A   1      42.566  30.217  29.236  1.00  0.00    +0.000 C 
ATOM     86  C57 UNL A   1      42.657  28.823  28.783  1.00  0.00    +0.000 C 
ATOM     87  N8  UNL A   1      44.010  28.574  28.755  1.00  0.00    +0.000 N 
ATOM     88  C58 UNL A   1      46.806  27.632  27.857  1.00  0.00    +0.000 C 
ATOM     89  C59 UNL A   1      46.449  26.440  28.343  1.00  0.00    +0.000 C 
ATOM     90  C60 UNL A   1      41.733  25.386  25.964  1.00  0.00    +0.000 C 
ATOM     91  C61 UNL A   1      41.562  26.685  26.217  1.00  0.00    +0.000 C 
ATOM    121  H24 UNL A   1      42.145  22.478  29.775  1.00  0.00    +0.000 H 
ATOM    122  H25 UNL A   1      43.313  23.881  31.713  1.00  0.00    +0.000 H 
ATOM    123  H26 UNL A   1      45.695  23.857  28.448  1.00  0.00    +0.000 H 
ATOM    124  H27 UNL A   1      43.996  31.779  29.403  1.00  0.00    +0.000 H 
ATOM    125  H28 UNL A   1      41.693  30.695  29.511  1.00  0.00    +0.000 H 
ATOM    126  H29 UNL A   1      44.404  27.685  28.604  1.00  0.00    +0.000 H 
ATOM    127  H30 UNL A   1      47.117  27.903  26.912  1.00  0.00    +0.000 H 
ATOM    128  H31 UNL A   1      46.367  25.587  27.768  1.00  0.00    +0.000 H 
ENDROOT
BRANCH   35   34
ATOM     33  C22 UNL A   1      39.695  29.155  27.303  1.00  0.00    +0.000 C 
ATOM     34  C23 UNL A   1      40.265  28.448  28.371  1.00  0.00    +0.000 C 
ATOM    131  H34 UNL A   1      40.011  27.820  30.366  1.00  0.00    +0.000 H 
ATOM    132  H35 UNL A   1      37.597  27.999  30.241  1.00  0.00    +0.000 H 
ATOM    119  H22 UNL A   1      37.963  30.199  26.682  1.00  0.00    +0.000 H 
ATOM    120  H23 UNL A   1      40.237  29.332  26.442  1.00  0.00    +0.000 H 
ATOM     92  C62 UNL A   1      39.543  28.189  29.524  1.00  0.00    +0.000 C 
ATOM     93  C63 UNL A   1      38.202  28.433  29.525  1.00  0.00    +0.000 C 
ATOM     31  C20 UNL A   1      37.652  29.266  28.560  1.00  0.00    +0.000 C 
ATOM     32  C21 UNL A   1      38.385  29.614  27.420  1.00  0.00    +0.000 C 
BRANCH   31   29
ATOM     29  C19 UNL A   1      36.294  29.780  28.806  1.00  0.00    +0.000 C 
ATOM     30  O6  UNL A   1      35.344  29.350  28.163  1.00  0.00    +0.000 O 
BRANCH   29   28
ATOM     28  N4  UNL A   1      36.113  30.746  29.779  1.00  0.00    +0.000 N 
ATOM    118  H21 UNL A   1      36.098  30.427  30.709  1.00  0.00    +0.000 H 
BRANCH   28   27
ATOM     27  C18 UNL A   1      35.938  32.191  29.590  1.00  0.00    +0.000 C 
ATOM    116  H19 UNL A   1      36.850  32.687  29.849  1.00  0.00    +0.000 H 
ATOM    117  H20 UNL A   1      35.684  32.362  28.565  1.00  0.00    +0.000 H 
BRANCH   27   26
ATOM     26  C17 UNL A   1      34.816  32.744  30.452  1.00  0.00    +0.000 C 
ATOM    115  H18 UNL A   1      33.960  32.122  30.291  1.00  0.00    +0.000 H 
ATOM    114  H17 UNL A   1      34.640  33.761  30.167  1.00  0.00    +0.000 H 
BRANCH   26   25
ATOM     25  C16 UNL A   1      35.123  32.709  31.958  1.00  0.00    +0.000 C 
ATOM    113  H16 UNL A   1      35.968  32.060  32.061  1.00  0.00    +0.000 H 
ATOM    112  H15 UNL A   1      34.242  32.371  32.461  1.00  0.00    +0.000 H 
BRANCH   25   24
ATOM    110  H13 UNL A   1      34.962  34.820  32.154  1.00  0.00    +0.000 H 
ATOM    111  H14 UNL A   1      35.385  33.928  33.650  1.00  0.00    +0.000 H 
ATOM     24  C15 UNL A   1      35.547  34.041  32.598  1.00  0.00    +0.000 C 
BRANCH   24   23
ATOM    108  H11 UNL A   1      37.357  34.076  31.472  1.00  0.00    +0.000 H 
ATOM    109  H12 UNL A   1      37.106  35.471  32.540  1.00  0.00    +0.000 H 
ATOM     23  C14 UNL A   1      37.027  34.409  32.434  1.00  0.00    +0.000 C 
BRANCH   23   22
ATOM    106  H9  UNL A   1      38.100  34.488  34.284  1.00  0.00    +0.000 H 
ATOM    107  H10 UNL A   1      37.439  32.912  33.902  1.00  0.00    +0.000 H 
ATOM     22  C13 UNL A   1      37.925  33.777  33.503  1.00  0.00    +0.000 C 
BRANCH   22   21
ATOM    105  H8  UNL A   1      39.923  33.313  33.571  1.00  0.00    +0.000 H 
ATOM     21  N3  UNL A   1      39.192  33.384  32.916  1.00  0.00    +0.000 N 
BRANCH   21   19
ATOM     19  C12 UNL A   1      39.578  33.094  31.631  1.00  0.00    +0.000 C 
ATOM     20  O5  UNL A   1      39.081  32.105  31.094  1.00  0.00    +0.000 O 
BRANCH   19   18
ATOM    133  H36 UNL A   1      42.261  33.511  32.187  1.00  0.00    +0.000 H 
ATOM    134  H37 UNL A   1      43.924  34.380  30.652  1.00  0.00    +0.000 H 
ATOM    103  H6  UNL A   1      40.859  35.792  28.148  1.00  0.00    +0.000 H 
ATOM    104  H7  UNL A   1      39.223  34.634  29.523  1.00  0.00    +0.000 H 
ATOM     15  C8  UNL A   1      42.523  35.095  29.246  1.00  0.00    +0.000 C 
ATOM     16  C9  UNL A   1      41.167  35.226  28.955  1.00  0.00    +0.000 C 
ATOM     17  C10 UNL A   1      40.225  34.581  29.765  1.00  0.00    +0.000 C 
ATOM     18  C11 UNL A   1      40.626  33.863  30.904  1.00  0.00    +0.000 C 
ATOM     94  C64 UNL A   1      41.970  33.896  31.276  1.00  0.00    +0.000 C 
ATOM     95  C65 UNL A   1      42.921  34.448  30.419  1.00  0.00    +0.000 C 
BRANCH   15   14
ATOM    102  H5  UNL A   1      45.163  37.714  26.768  1.00  0.00    +0.000 H 
ATOM      9  C5  UNL A   1      43.959  36.853  28.225  1.00  0.00    +0.000 C 
ATOM     10  C6  UNL A   1      44.687  36.867  27.114  1.00  0.00    +0.000 C 
ATOM     11  O3  UNL A   1      44.755  35.639  26.457  1.00  0.00    +0.000 O 
ATOM     12  C7  UNL A   1      43.977  34.827  27.283  1.00  0.00    +0.000 C 
ATOM     13  O4  UNL A   1      43.748  33.652  27.028  1.00  0.00    +0.000 O 
ATOM     14  N2  UNL A   1      43.501  35.573  28.357  1.00  0.00    +0.000 N 
BRANCH    9    8
ATOM     97  C67 UNL A   1      44.257  38.933  31.362  1.00  0.00    +0.000 C 
ATOM    100  H3  UNL A   1      42.197  40.883  29.560  1.00  0.00    +0.000 H 
ATOM      5  C1  UNL A   1      43.444  40.024  31.033  1.00  0.00    +0.000 C 
ATOM      6  C2  UNL A   1      42.794  40.076  29.800  1.00  0.00    +0.000 C 
ATOM      7  C3  UNL A   1      42.959  39.027  28.892  1.00  0.00    +0.000 C 
ATOM    136  H39 UNL A   1      44.739  38.905  32.274  1.00  0.00    +0.000 H 
ATOM    101  H4  UNL A   1      42.476  39.061  27.981  1.00  0.00    +0.000 H 
ATOM    135  H38 UNL A   1      45.001  37.072  30.699  1.00  0.00    +0.000 H 
ATOM      8  C4  UNL A   1      43.777  37.925  29.202  1.00  0.00    +0.000 C 
ATOM     96  C66 UNL A   1      44.413  37.884  30.451  1.00  0.00    +0.000 C 
BRANCH    5    2
ATOM      2  S1  UNL A   1      43.298  41.372  32.169  1.00  0.00    +0.000 S 
ATOM      3  O1  UNL A   1      44.469  42.221  32.054  1.00  0.00    +0.000 O 
ATOM      4  O2  UNL A   1      42.831  40.867  33.431  1.00  0.00    +0.000 O 
BRANCH    2    1
ATOM      1  N1  UNL A   1      42.034  42.257  31.508  1.00  0.00    +0.000 N 
ATOM     98  H1  UNL A   1      41.299  41.621  31.197  1.00  0.00    +0.000 H 
ATOM     99  H2  UNL A   1      42.376  42.796  30.712  1.00  0.00    +0.000 H 
ENDBRANCH    2    1
ENDBRANCH    5    2
ENDBRANCH    9    8
ENDBRANCH   15   14
ENDBRANCH   19   18
ENDBRANCH   21   19
ENDBRANCH   22   21
ENDBRANCH   23   22
ENDBRANCH   24   23
ENDBRANCH   25   24
ENDBRANCH   26   25
ENDBRANCH   27   26
ENDBRANCH   28   27
ENDBRANCH   29   28
ENDBRANCH   31   29
ENDBRANCH   35   34
BRANCH   39   40
ATOM     40  C28 UNL A   1      44.097  23.217  25.995  1.00  0.00    +0.000 C 
ATOM     41  C29 UNL A   1      44.107  21.834  25.711  1.00  0.00    +0.000 C 
ATOM     42  F1  UNL A   1      43.167  21.023  26.221  1.00  0.00    +0.000 F 
ATOM     43  C30 UNL A   1      45.140  21.231  24.990  1.00  0.00    +0.000 C 
ATOM     44  F2  UNL A   1      45.183  19.896  24.882  1.00  0.00    +0.000 F 
ATOM     45  C31 UNL A   1      46.161  21.995  24.459  1.00  0.00    +0.000 C 
ATOM     46  F3  UNL A   1      47.194  21.414  23.835  1.00  0.00    +0.000 F 
ATOM     47  C32 UNL A   1      46.129  23.362  24.617  1.00  0.00    +0.000 C 
ATOM     48  F4  UNL A   1      47.112  24.122  24.111  1.00  0.00    +0.000 F 
ATOM     49  C33 UNL A   1      45.126  23.961  25.378  1.00  0.00    +0.000 C 
ATOM     50  F5  UNL A   1      45.278  25.277  25.554  1.00  0.00    +0.000 F 
ENDBRANCH   39   40
BRANCH   56   57
ATOM     65  F9  UNL A   1      46.894  25.420  35.225  1.00  0.00    +0.000 F 
ATOM     66  C44 UNL A   1      46.199  25.660  32.980  1.00  0.00    +0.000 C 
ATOM     67  F10 UNL A   1      47.267  24.945  32.593  1.00  0.00    +0.000 F 
ATOM     57  C39 UNL A   1      45.270  26.100  32.029  1.00  0.00    +0.000 C 
ATOM     58  C40 UNL A   1      44.143  26.797  32.499  1.00  0.00    +0.000 C 
ATOM     59  F6  UNL A   1      43.165  27.167  31.663  1.00  0.00    +0.000 F 
ATOM     60  C41 UNL A   1      43.979  27.073  33.857  1.00  0.00    +0.000 C 
ATOM     61  F7  UNL A   1      42.900  27.748  34.280  1.00  0.00    +0.000 F 
ATOM     62  C42 UNL A   1      44.910  26.619  34.775  1.00  0.00    +0.000 C 
ATOM     63  F8  UNL A   1      44.733  26.845  36.085  1.00  0.00    +0.000 F 
ATOM     64  C43 UNL A   1      46.014  25.904  34.337  1.00  0.00    +0.000 C 
ENDBRANCH   56   57
BRANCH   71   72
ATOM     72  C48 UNL A   1      46.964  30.929  28.385  1.00  0.00    +0.000 C 
ATOM     73  C49 UNL A   1      46.653  31.598  27.191  1.00  0.00    +0.000 C 
ATOM     74  F11 UNL A   1      45.723  31.100  26.362  1.00  0.00    +0.000 F 
ATOM     75  C50 UNL A   1      47.236  32.827  26.864  1.00  0.00    +0.000 C 
ATOM     76  F12 UNL A   1      46.866  33.468  25.747  1.00  0.00    +0.000 F 
ATOM     77  C51 UNL A   1      48.152  33.417  27.721  1.00  0.00    +0.000 C 
ATOM     78  F13 UNL A   1      48.659  34.626  27.442  1.00  0.00    +0.000 F 
ATOM     79  C52 UNL A   1      48.504  32.768  28.889  1.00  0.00    +0.000 C 
ATOM     80  F14 UNL A   1      49.357  33.347  29.745  1.00  0.00    +0.000 F 
ATOM     81  C53 UNL A   1      47.919  31.543  29.217  1.00  0.00    +0.000 C 
ATOM     82  F15 UNL A   1      48.230  31.018  30.411  1.00  0.00    +0.000 F 
ENDBRANCH   71   72
TORSDOF 19
ENDMDL
