MODEL 1
REMARK VINA RESULT:     -10.4      0.000      0.000
ROOT
ATOM     33  C22 UNL A   1      38.306  30.615  30.074  1.00  0.00    +0.000 C 
ATOM     34  C23 UNL A   1      39.381  29.736  29.501  1.00  0.00    +0.000 C 
ATOM     35  N6  UNL A   1      40.458  29.267  30.077  1.00  0.00    +0.000 N 
ATOM     36  C24 UNL A   1      41.092  28.488  29.118  1.00  0.00    +0.000 C 
ATOM     37  C25 UNL A   1      42.276  27.835  29.208  1.00  0.00    +0.000 C 
ATOM     49  C32 UNL A   1      43.117  27.835  30.379  1.00  0.00    +0.000 C 
ATOM     50  C33 UNL A   1      44.364  27.259  30.545  1.00  0.00    +0.000 C 
ATOM     51  C34 UNL A   1      44.766  27.456  31.870  1.00  0.00    +0.000 C 
ATOM     52  C35 UNL A   1      43.797  28.207  32.515  1.00  0.00    +0.000 C 
ATOM     53  N7  UNL A   1      42.792  28.436  31.586  1.00  0.00    +0.000 N 
ATOM     54  C36 UNL A   1      43.785  28.679  33.876  1.00  0.00    +0.000 C 
ATOM     66  C43 UNL A   1      42.811  29.450  34.420  1.00  0.00    +0.000 C 
ATOM     67  N8  UNL A   1      41.650  29.933  33.833  1.00  0.00    +0.000 N 
ATOM     68  C44 UNL A   1      41.027  30.607  34.769  1.00  0.00    +0.000 C 
ATOM     69  C45 UNL A   1      39.729  31.362  34.689  1.00  0.00    +0.000 C 
ATOM     81  C52 UNL A   1      39.060  31.398  33.521  1.00  0.00    +0.000 C 
ATOM     82  C53 UNL A   1      37.794  32.086  33.295  1.00  0.00    +0.000 C 
ATOM     83  C54 UNL A   1      37.388  31.853  32.037  1.00  0.00    +0.000 C 
ATOM     84  C55 UNL A   1      38.389  31.034  31.352  1.00  0.00    +0.000 C 
ATOM     85  N9  UNL A   1      39.352  30.822  32.307  1.00  0.00    +0.000 N 
ATOM     86  C56 UNL A   1      41.715  30.607  36.068  1.00  0.00    +0.000 C 
ATOM     87  C57 UNL A   1      42.817  29.924  35.788  1.00  0.00    +0.000 C 
ATOM     88  C58 UNL A   1      40.253  28.505  27.939  1.00  0.00    +0.000 C 
ATOM     89  C59 UNL A   1      39.212  29.310  28.103  1.00  0.00    +0.000 C 
ATOM    118  H24 UNL A   1      44.905  26.767  29.816  1.00  0.00    +0.000 H 
ATOM    119  H25 UNL A   1      45.637  27.102  32.295  1.00  0.00    +0.000 H 
ATOM    120  H26 UNL A   1      41.970  28.949  31.760  1.00  0.00    +0.000 H 
ATOM    121  H27 UNL A   1      37.292  32.660  33.990  1.00  0.00    +0.000 H 
ATOM    122  H28 UNL A   1      36.509  32.197  31.619  1.00  0.00    +0.000 H 
ATOM    123  H29 UNL A   1      40.174  30.307  32.139  1.00  0.00    +0.000 H 
ATOM    124  H30 UNL A   1      41.419  31.029  36.962  1.00  0.00    +0.000 H 
ATOM    125  H31 UNL A   1      43.580  29.752  36.461  1.00  0.00    +0.000 H 
ATOM    126  H32 UNL A   1      40.439  27.961  27.082  1.00  0.00    +0.000 H 
ATOM    127  H33 UNL A   1      38.476  29.568  27.428  1.00  0.00    +0.000 H 
ENDROOT
BRANCH   33   32
ATOM    129  H35 UNL A   1      34.229  29.623  28.171  1.00  0.00    +0.000 H 
ATOM    128  H34 UNL A   1      36.234  29.042  29.403  1.00  0.00    +0.000 H 
ATOM    116  H22 UNL A   1      35.582  33.589  27.820  1.00  0.00    +0.000 H 
ATOM    117  H23 UNL A   1      37.683  32.959  28.860  1.00  0.00    +0.000 H 
ATOM     90  C60 UNL A   1      36.102  30.007  29.060  1.00  0.00    +0.000 C 
ATOM     91  C61 UNL A   1      34.931  30.348  28.387  1.00  0.00    +0.000 C 
ATOM     29  C18 UNL A   1      34.708  31.674  28.006  1.00  0.00    +0.000 C 
ATOM     30  C19 UNL A   1      35.722  32.625  28.159  1.00  0.00    +0.000 C 
ATOM     31  C20 UNL A   1      36.923  32.266  28.773  1.00  0.00    +0.000 C 
ATOM     32  C21 UNL A   1      37.104  30.966  29.275  1.00  0.00    +0.000 C 
BRANCH   29   27
ATOM     27  C17 UNL A   1      33.413  32.105  27.431  1.00  0.00    +0.000 C 
ATOM     28  O5  UNL A   1      32.921  33.174  27.780  1.00  0.00    +0.000 O 
BRANCH   27   26
ATOM     26  N5  UNL A   1      32.750  31.304  26.534  1.00  0.00    +0.000 N 
ATOM    115  H21 UNL A   1      32.815  31.590  25.593  1.00  0.00    +0.000 H 
BRANCH   26   25
ATOM     25  C16 UNL A   1      31.970  30.100  26.761  1.00  0.00    +0.000 C 
ATOM    114  H20 UNL A   1      30.969  30.301  26.441  1.00  0.00    +0.000 H 
ATOM    113  H19 UNL A   1      32.014  29.856  27.802  1.00  0.00    +0.000 H 
BRANCH   25   24
ATOM    112  H18 UNL A   1      31.930  28.061  26.322  1.00  0.00    +0.000 H 
ATOM    111  H17 UNL A   1      33.535  28.837  26.107  1.00  0.00    +0.000 H 
ATOM     24  C15 UNL A   1      32.478  28.904  25.959  1.00  0.00    +0.000 C 
BRANCH   24   23
ATOM    109  H15 UNL A   1      32.681  29.835  24.068  1.00  0.00    +0.000 H 
ATOM    110  H16 UNL A   1      32.616  28.036  24.066  1.00  0.00    +0.000 H 
ATOM     23  C14 UNL A   1      32.217  28.950  24.452  1.00  0.00    +0.000 C 
BRANCH   23   22
ATOM    107  H13 UNL A   1      30.146  28.909  24.895  1.00  0.00    +0.000 H 
ATOM    108  H14 UNL A   1      30.633  29.875  23.455  1.00  0.00    +0.000 H 
ATOM     22  C13 UNL A   1      30.750  28.969  24.013  1.00  0.00    +0.000 C 
BRANCH   22   21
ATOM    105  H11 UNL A   1      29.768  28.306  22.262  1.00  0.00    +0.000 H 
ATOM    106  H12 UNL A   1      31.205  27.352  22.781  1.00  0.00    +0.000 H 
ATOM     21  C12 UNL A   1      30.305  27.854  23.069  1.00  0.00    +0.000 C 
BRANCH   21   20
ATOM     20  C11 UNL A   1      29.415  26.769  23.665  1.00  0.00    +0.000 C 
ATOM    103  H9  UNL A   1      28.764  27.226  24.380  1.00  0.00    +0.000 H 
ATOM    104  H10 UNL A   1      28.887  26.322  22.847  1.00  0.00    +0.000 H 
BRANCH   20   19
ATOM     19  N4  UNL A   1      30.138  25.696  24.328  1.00  0.00    +0.000 N 
ATOM    102  H8  UNL A   1      30.213  24.866  23.804  1.00  0.00    +0.000 H 
BRANCH   19   17
ATOM     17  C10 UNL A   1      30.735  25.649  25.568  1.00  0.00    +0.000 C 
ATOM     18  O4  UNL A   1      30.327  26.399  26.459  1.00  0.00    +0.000 O 
BRANCH   17   16
ATOM    130  H36 UNL A   1      33.435  25.811  25.265  1.00  0.00    +0.000 H 
ATOM     99  H5  UNL A   1      34.380  21.873  26.359  1.00  0.00    +0.000 H 
ATOM    100  H6  UNL A   1      32.142  21.609  27.261  1.00  0.00    +0.000 H 
ATOM     11  C5  UNL A   1      34.069  23.833  25.639  1.00  0.00    +0.000 C 
ATOM     12  C6  UNL A   1      33.694  22.638  26.262  1.00  0.00    +0.000 C 
ATOM     13  C7  UNL A   1      32.397  22.472  26.757  1.00  0.00    +0.000 C 
ATOM     14  C8  UNL A   1      31.448  23.475  26.565  1.00  0.00    +0.000 C 
ATOM     16  C9  UNL A   1      31.793  24.666  25.914  1.00  0.00    +0.000 C 
ATOM     92  C62 UNL A   1      33.131  24.873  25.572  1.00  0.00    +0.000 C 
BRANCH   11   10
ATOM     10  N3  UNL A   1      35.345  23.932  25.032  1.00  0.00    +0.000 N 
BRANCH   10    9
ATOM      9  N2  UNL A   1      36.196  24.279  25.885  1.00  0.00    +0.000 N 
BRANCH    9    8
ATOM     97  H3  UNL A   1      38.277  20.334  25.084  1.00  0.00    +0.000 H 
ATOM     98  H4  UNL A   1      36.399  21.862  24.895  1.00  0.00    +0.000 H 
ATOM    131  H37 UNL A   1      38.585  24.818  26.936  1.00  0.00    +0.000 H 
ATOM    132  H38 UNL A   1      40.462  23.293  27.143  1.00  0.00    +0.000 H 
ATOM      5  C1  UNL A   1      39.505  21.702  26.132  1.00  0.00    +0.000 C 
ATOM      6  C2  UNL A   1      38.341  21.285  25.480  1.00  0.00    +0.000 C 
ATOM      7  C3  UNL A   1      37.263  22.170  25.368  1.00  0.00    +0.000 C 
ATOM      8  C4  UNL A   1      37.342  23.468  25.890  1.00  0.00    +0.000 C 
ATOM     93  C63 UNL A   1      38.517  23.867  26.542  1.00  0.00    +0.000 C 
ATOM     94  C64 UNL A   1      39.599  22.990  26.664  1.00  0.00    +0.000 C 
BRANCH    5    2
ATOM      2  S1  UNL A   1      40.865  20.583  26.305  1.00  0.00    +0.000 S 
ATOM      3  O1  UNL A   1      42.055  21.203  25.775  1.00  0.00    +0.000 O 
ATOM      4  O2  UNL A   1      40.423  19.265  25.911  1.00  0.00    +0.000 O 
BRANCH    2    1
ATOM      1  N1  UNL A   1      41.106  20.524  27.970  1.00  0.00    +0.000 N 
ATOM     95  H1  UNL A   1      42.106  20.525  28.168  1.00  0.00    +0.000 H 
ATOM     96  H2  UNL A   1      40.684  19.676  28.345  1.00  0.00    +0.000 H 
ENDBRANCH    2    1
ENDBRANCH    5    2
ENDBRANCH    9    8
ENDBRANCH   10    9
ENDBRANCH   11   10
BRANCH   14   15
ATOM    101  H7  UNL A   1      29.979  23.384  27.934  1.00  0.00    +0.000 H 
ATOM     15  O3  UNL A   1      30.186  23.220  27.035  1.00  0.00    +0.000 O 
ENDBRANCH   14   15
ENDBRANCH   17   16
ENDBRANCH   19   17
ENDBRANCH   20   19
ENDBRANCH   21   20
ENDBRANCH   22   21
ENDBRANCH   23   22
ENDBRANCH   24   23
ENDBRANCH   25   24
ENDBRANCH   26   25
ENDBRANCH   27   26
ENDBRANCH   29   27
ENDBRANCH   33   32
BRANCH   37   38
ATOM     38  C26 UNL A   1      42.738  27.054  28.011  1.00  0.00    +0.000 C 
ATOM     39  C27 UNL A   1      43.458  27.658  26.969  1.00  0.00    +0.000 C 
ATOM     40  F1  UNL A   1      43.702  28.976  26.992  1.00  0.00    +0.000 F 
ATOM     41  C28 UNL A   1      43.903  26.913  25.880  1.00  0.00    +0.000 C 
ATOM     42  F2  UNL A   1      44.550  27.520  24.874  1.00  0.00    +0.000 F 
ATOM     43  C29 UNL A   1      43.670  25.547  25.827  1.00  0.00    +0.000 C 
ATOM     44  F3  UNL A   1      44.109  24.830  24.783  1.00  0.00    +0.000 F 
ATOM     45  C30 UNL A   1      42.977  24.925  26.854  1.00  0.00    +0.000 C 
ATOM     46  F4  UNL A   1      42.763  23.603  26.813  1.00  0.00    +0.000 F 
ATOM     47  C31 UNL A   1      42.503  25.673  27.929  1.00  0.00    +0.000 C 
ATOM     48  F5  UNL A   1      41.825  25.044  28.901  1.00  0.00    +0.000 F 
ENDBRANCH   37   38
BRANCH   54   55
ATOM     65  F10 UNL A   1      46.160  30.237  34.067  1.00  0.00    +0.000 F 
ATOM     55  C37 UNL A   1      44.944  28.311  34.758  1.00  0.00    +0.000 C 
ATOM     56  C38 UNL A   1      44.932  27.144  35.536  1.00  0.00    +0.000 C 
ATOM     57  F6  UNL A   1      43.850  26.351  35.547  1.00  0.00    +0.000 F 
ATOM     58  C39 UNL A   1      46.018  26.808  36.341  1.00  0.00    +0.000 C 
ATOM     59  F7  UNL A   1      45.964  25.716  37.115  1.00  0.00    +0.000 F 
ATOM     60  C40 UNL A   1      47.149  27.610  36.354  1.00  0.00    +0.000 C 
ATOM     61  F8  UNL A   1      48.197  27.282  37.123  1.00  0.00    +0.000 F 
ATOM     62  C41 UNL A   1      47.191  28.758  35.577  1.00  0.00    +0.000 C 
ATOM     63  F9  UNL A   1      48.289  29.527  35.577  1.00  0.00    +0.000 F 
ATOM     64  C42 UNL A   1      46.094  29.114  34.797  1.00  0.00    +0.000 C 
ENDBRANCH   54   55
BRANCH   69   70
ATOM     70  C46 UNL A   1      39.182  32.068  35.878  1.00  0.00    +0.000 C 
ATOM     71  C47 UNL A   1      39.531  33.398  36.153  1.00  0.00    +0.000 C 
ATOM     72  F11 UNL A   1      40.381  34.046  35.345  1.00  0.00    +0.000 F 
ATOM     73  C48 UNL A   1      39.041  34.052  37.281  1.00  0.00    +0.000 C 
ATOM     74  F12 UNL A   1      39.428  35.307  37.545  1.00  0.00    +0.000 F 
ATOM     75  C49 UNL A   1      38.165  33.402  38.137  1.00  0.00    +0.000 C 
ATOM     76  F13 UNL A   1      37.688  34.035  39.219  1.00  0.00    +0.000 F 
ATOM     77  C50 UNL A   1      37.789  32.094  37.875  1.00  0.00    +0.000 C 
ATOM     78  F14 UNL A   1      36.928  31.467  38.689  1.00  0.00    +0.000 F 
ATOM     79  C51 UNL A   1      38.304  31.427  36.766  1.00  0.00    +0.000 C 
ATOM     80  F15 UNL A   1      37.932  30.157  36.544  1.00  0.00    +0.000 F 
ENDBRANCH   69   70
TORSDOF 21
ENDMDL
MODEL 2
REMARK VINA RESULT:     -10.3     17.571     23.768
ROOT
ATOM     33  C22 UNL A   1      26.059  36.377  45.469  1.00  0.00    +0.000 C 
ATOM     34  C23 UNL A   1      25.992  37.525  46.435  1.00  0.00    +0.000 C 
ATOM     35  N6  UNL A   1      26.932  38.367  46.784  1.00  0.00    +0.000 N 
ATOM     36  C24 UNL A   1      26.339  39.247  47.679  1.00  0.00    +0.000 C 
ATOM     37  C25 UNL A   1      26.912  40.264  48.368  1.00  0.00    +0.000 C 
ATOM     49  C32 UNL A   1      28.304  40.624  48.277  1.00  0.00    +0.000 C 
ATOM     50  C33 UNL A   1      28.991  41.596  48.984  1.00  0.00    +0.000 C 
ATOM     51  C34 UNL A   1      30.307  41.634  48.511  1.00  0.00    +0.000 C 
ATOM     52  C35 UNL A   1      30.457  40.646  47.551  1.00  0.00    +0.000 C 
ATOM     53  N7  UNL A   1      29.220  40.031  47.421  1.00  0.00    +0.000 N 
ATOM     54  C36 UNL A   1      31.638  40.290  46.807  1.00  0.00    +0.000 C 
ATOM     66  C43 UNL A   1      31.711  39.275  45.910  1.00  0.00    +0.000 C 
ATOM     67  N8  UNL A   1      30.719  38.392  45.508  1.00  0.00    +0.000 N 
ATOM     68  C44 UNL A   1      31.273  37.612  44.612  1.00  0.00    +0.000 C 
ATOM     69  C45 UNL A   1      30.671  36.462  43.854  1.00  0.00    +0.000 C 
ATOM     81  C52 UNL A   1      29.387  36.125  44.081  1.00  0.00    +0.000 C 
ATOM     82  C53 UNL A   1      28.671  35.038  43.422  1.00  0.00    +0.000 C 
ATOM     83  C54 UNL A   1      27.396  35.036  43.842  1.00  0.00    +0.000 C 
ATOM     84  C55 UNL A   1      27.215  36.097  44.835  1.00  0.00    +0.000 C 
ATOM     85  N9  UNL A   1      28.453  36.683  44.922  1.00  0.00    +0.000 N 
ATOM     86  C56 UNL A   1      32.680  37.930  44.327  1.00  0.00    +0.000 C 
ATOM     87  C57 UNL A   1      32.908  38.923  45.175  1.00  0.00    +0.000 C 
ATOM     88  C58 UNL A   1      24.945  38.870  47.780  1.00  0.00    +0.000 C 
ATOM     89  C59 UNL A   1      24.692  37.775  47.076  1.00  0.00    +0.000 C 
ATOM    118  H24 UNL A   1      28.599  42.191  49.731  1.00  0.00    +0.000 H 
ATOM    119  H25 UNL A   1      31.042  42.287  48.824  1.00  0.00    +0.000 H 
ATOM    120  H26 UNL A   1      29.023  39.285  46.810  1.00  0.00    +0.000 H 
ATOM    121  H27 UNL A   1      29.079  34.377  42.744  1.00  0.00    +0.000 H 
ATOM    122  H28 UNL A   1      26.660  34.390  43.516  1.00  0.00    +0.000 H 
ATOM    123  H29 UNL A   1      28.654  37.432  45.528  1.00  0.00    +0.000 H 
ATOM    124  H30 UNL A   1      33.321  37.494  43.645  1.00  0.00    +0.000 H 
ATOM    125  H31 UNL A   1      33.823  39.386  45.295  1.00  0.00    +0.000 H 
ATOM    126  H32 UNL A   1      24.240  39.387  48.328  1.00  0.00    +0.000 H 
ATOM    127  H33 UNL A   1      23.814  37.240  46.997  1.00  0.00    +0.000 H 
ENDROOT
BRANCH   33   32
ATOM    129  H35 UNL A   1      23.315  32.704  45.929  1.00  0.00    +0.000 H 
ATOM    128  H34 UNL A   1      25.334  33.963  46.398  1.00  0.00    +0.000 H 
ATOM    116  H22 UNL A   1      21.952  35.803  43.434  1.00  0.00    +0.000 H 
ATOM    117  H23 UNL A   1      24.063  36.963  43.729  1.00  0.00    +0.000 H 
ATOM     90  C60 UNL A   1      24.621  34.352  45.761  1.00  0.00    +0.000 C 
ATOM     91  C61 UNL A   1      23.443  33.645  45.524  1.00  0.00    +0.000 C 
ATOM     29  C18 UNL A   1      22.436  34.212  44.738  1.00  0.00    +0.000 C 
ATOM     30  C19 UNL A   1      22.670  35.415  44.065  1.00  0.00    +0.000 C 
ATOM     31  C20 UNL A   1      23.878  36.091  44.248  1.00  0.00    +0.000 C 
ATOM     32  C21 UNL A   1      24.844  35.590  45.138  1.00  0.00    +0.000 C 
BRANCH   29   27
ATOM     27  C17 UNL A   1      21.113  33.564  44.593  1.00  0.00    +0.000 C 
ATOM     28  O5  UNL A   1      20.113  34.257  44.430  1.00  0.00    +0.000 O 
BRANCH   27   26
ATOM     26  N5  UNL A   1      20.997  32.197  44.666  1.00  0.00    +0.000 N 
ATOM    115  H21 UNL A   1      21.608  31.695  44.079  1.00  0.00    +0.000 H 
BRANCH   26   25
ATOM     25  C16 UNL A   1      20.112  31.381  45.479  1.00  0.00    +0.000 C 
ATOM    114  H20 UNL A   1      19.412  32.038  45.951  1.00  0.00    +0.000 H 
ATOM    113  H19 UNL A   1      20.702  30.846  46.195  1.00  0.00    +0.000 H 
BRANCH   25   24
ATOM    112  H18 UNL A   1      19.331  29.464  45.219  1.00  0.00    +0.000 H 
ATOM    111  H17 UNL A   1      19.774  30.300  43.693  1.00  0.00    +0.000 H 
ATOM     24  C15 UNL A   1      19.314  30.373  44.656  1.00  0.00    +0.000 C 
BRANCH   24   23
ATOM    109  H15 UNL A   1      17.413  30.929  45.404  1.00  0.00    +0.000 H 
ATOM    110  H16 UNL A   1      17.820  31.515  43.751  1.00  0.00    +0.000 H 
ATOM     23  C14 UNL A   1      17.834  30.702  44.447  1.00  0.00    +0.000 C 
BRANCH   23   22
ATOM    107  H13 UNL A   1      15.993  29.681  44.227  1.00  0.00    +0.000 H 
ATOM    108  H14 UNL A   1      17.024  29.787  42.755  1.00  0.00    +0.000 H 
ATOM     22  C13 UNL A   1      16.975  29.607  43.809  1.00  0.00    +0.000 C 
BRANCH   22   21
ATOM    105  H11 UNL A   1      17.686  27.775  43.028  1.00  0.00    +0.000 H 
ATOM    106  H12 UNL A   1      18.285  28.232  44.665  1.00  0.00    +0.000 H 
ATOM     21  C12 UNL A   1      17.452  28.168  43.996  1.00  0.00    +0.000 C 
BRANCH   21   20
ATOM     20  C11 UNL A   1      16.476  27.206  44.661  1.00  0.00    +0.000 C 
ATOM    103  H9  UNL A   1      16.988  26.705  45.455  1.00  0.00    +0.000 H 
ATOM    104  H10 UNL A   1      15.650  27.795  45.004  1.00  0.00    +0.000 H 
BRANCH   20   19
ATOM     19  N4  UNL A   1      15.924  26.199  43.769  1.00  0.00    +0.000 N 
ATOM    102  H8  UNL A   1      16.480  25.394  43.664  1.00  0.00    +0.000 H 
BRANCH   19   17
ATOM     17  C10 UNL A   1      14.750  26.185  43.048  1.00  0.00    +0.000 C 
ATOM     18  O4  UNL A   1      13.675  26.166  43.653  1.00  0.00    +0.000 O 
BRANCH   17   16
ATOM    130  H36 UNL A   1      13.922  24.374  41.193  1.00  0.00    +0.000 H 
ATOM     99  H5  UNL A   1      15.152  26.452  37.763  1.00  0.00    +0.000 H 
ATOM    100  H6  UNL A   1      15.448  28.453  39.106  1.00  0.00    +0.000 H 
ATOM     11  C5  UNL A   1      14.610  25.210  39.380  1.00  0.00    +0.000 C 
ATOM     12  C6  UNL A   1      15.006  26.411  38.783  1.00  0.00    +0.000 C 
ATOM     13  C7  UNL A   1      15.206  27.558  39.559  1.00  0.00    +0.000 C 
ATOM     14  C8  UNL A   1      15.079  27.488  40.945  1.00  0.00    +0.000 C 
ATOM     16  C9  UNL A   1      14.715  26.287  41.567  1.00  0.00    +0.000 C 
ATOM     92  C62 UNL A   1      14.368  25.200  40.762  1.00  0.00    +0.000 C 
BRANCH   11   10
ATOM     10  N3  UNL A   1      14.540  24.031  38.597  1.00  0.00    +0.000 N 
BRANCH   10    9
ATOM      9  N2  UNL A   1      15.051  23.073  39.225  1.00  0.00    +0.000 N 
BRANCH    9    8
ATOM     97  H3  UNL A   1      12.456  20.837  42.192  1.00  0.00    +0.000 H 
ATOM     98  H4  UNL A   1      13.866  22.702  41.531  1.00  0.00    +0.000 H 
ATOM    131  H37 UNL A   1      14.185  21.101  37.656  1.00  0.00    +0.000 H 
ATOM    132  H38 UNL A   1      12.790  19.225  38.311  1.00  0.00    +0.000 H 
ATOM      5  C1  UNL A   1      12.525  19.893  40.300  1.00  0.00    +0.000 C 
ATOM      6  C2  UNL A   1      12.825  20.892  41.230  1.00  0.00    +0.000 C 
ATOM      7  C3  UNL A   1      13.634  21.967  40.844  1.00  0.00    +0.000 C 
ATOM      8  C4  UNL A   1      14.132  22.059  39.538  1.00  0.00    +0.000 C 
ATOM     93  C63 UNL A   1      13.820  21.047  38.619  1.00  0.00    +0.000 C 
ATOM     94  C64 UNL A   1      13.017  19.965  38.994  1.00  0.00    +0.000 C 
BRANCH    5    2
ATOM      2  S1  UNL A   1      11.527  18.513  40.782  1.00  0.00    +0.000 S 
ATOM      3  O1  UNL A   1      12.180  17.815  41.862  1.00  0.00    +0.000 O 
ATOM      4  O2  UNL A   1      11.058  17.851  39.587  1.00  0.00    +0.000 O 
BRANCH    2    1
ATOM      1  N1  UNL A   1      10.179  19.239  41.481  1.00  0.00    +0.000 N 
ATOM     95  H1  UNL A   1      10.350  19.386  42.476  1.00  0.00    +0.000 H 
ATOM     96  H2  UNL A   1       9.367  18.635  41.360  1.00  0.00    +0.000 H 
ENDBRANCH    2    1
ENDBRANCH    5    2
ENDBRANCH    9    8
ENDBRANCH   10    9
ENDBRANCH   11   10
BRANCH   14   15
ATOM    101  H7  UNL A   1      15.287  28.643  42.576  1.00  0.00    +0.000 H 
ATOM     15  O3  UNL A   1      15.337  28.640  41.641  1.00  0.00    +0.000 O 
ENDBRANCH   14   15
ENDBRANCH   17   16
ENDBRANCH   19   17
ENDBRANCH   20   19
ENDBRANCH   21   20
ENDBRANCH   22   21
ENDBRANCH   23   22
ENDBRANCH   24   23
ENDBRANCH   25   24
ENDBRANCH   26   25
ENDBRANCH   27   26
ENDBRANCH   29   27
ENDBRANCH   33   32
BRANCH   37   38
ATOM     38  C26 UNL A   1      26.033  41.073  49.281  1.00  0.00    +0.000 C 
ATOM     39  C27 UNL A   1      25.860  40.731  50.630  1.00  0.00    +0.000 C 
ATOM     40  F1  UNL A   1      26.434  39.626  51.127  1.00  0.00    +0.000 F 
ATOM     41  C28 UNL A   1      25.064  41.508  51.469  1.00  0.00    +0.000 C 
ATOM     42  F2  UNL A   1      24.876  41.137  52.744  1.00  0.00    +0.000 F 
ATOM     43  C29 UNL A   1      24.459  42.659  50.987  1.00  0.00    +0.000 C 
ATOM     44  F3  UNL A   1      23.704  43.411  51.800  1.00  0.00    +0.000 F 
ATOM     45  C30 UNL A   1      24.632  43.027  49.662  1.00  0.00    +0.000 C 
ATOM     46  F4  UNL A   1      24.061  44.145  49.197  1.00  0.00    +0.000 F 
ATOM     47  C31 UNL A   1      25.401  42.234  48.812  1.00  0.00    +0.000 C 
ATOM     48  F5  UNL A   1      25.539  42.610  47.532  1.00  0.00    +0.000 F 
ENDBRANCH   37   38
BRANCH   54   55
ATOM     65  F10 UNL A   1      32.176  42.786  45.550  1.00  0.00    +0.000 F 
ATOM     55  C37 UNL A   1      32.890  41.084  47.051  1.00  0.00    +0.000 C 
ATOM     56  C38 UNL A   1      33.896  40.619  47.912  1.00  0.00    +0.000 C 
ATOM     57  F6  UNL A   1      33.733  39.469  48.582  1.00  0.00    +0.000 F 
ATOM     58  C39 UNL A   1      35.057  41.359  48.120  1.00  0.00    +0.000 C 
ATOM     59  F7  UNL A   1      35.981  40.922  48.987  1.00  0.00    +0.000 F 
ATOM     60  C40 UNL A   1      35.252  42.555  47.446  1.00  0.00    +0.000 C 
ATOM     61  F8  UNL A   1      36.374  43.262  47.641  1.00  0.00    +0.000 F 
ATOM     62  C41 UNL A   1      34.280  43.022  46.574  1.00  0.00    +0.000 C 
ATOM     63  F9  UNL A   1      34.473  44.170  45.909  1.00  0.00    +0.000 F 
ATOM     64  C42 UNL A   1      33.103  42.302  46.388  1.00  0.00    +0.000 C 
ENDBRANCH   54   55
BRANCH   69   70
ATOM     70  C46 UNL A   1      31.474  35.695  42.865  1.00  0.00    +0.000 C 
ATOM     71  C47 UNL A   1      31.499  36.065  41.512  1.00  0.00    +0.000 C 
ATOM     72  F11 UNL A   1      30.780  37.115  41.094  1.00  0.00    +0.000 F 
ATOM     73  C48 UNL A   1      32.229  35.332  40.579  1.00  0.00    +0.000 C 
ATOM     74  F12 UNL A   1      32.197  35.679  39.286  1.00  0.00    +0.000 F 
ATOM     75  C49 UNL A   1      32.976  34.236  40.985  1.00  0.00    +0.000 C 
ATOM     76  F13 UNL A   1      33.684  33.535  40.087  1.00  0.00    +0.000 F 
ATOM     77  C50 UNL A   1      32.983  33.863  42.320  1.00  0.00    +0.000 C 
ATOM     78  F14 UNL A   1      33.719  32.817  42.721  1.00  0.00    +0.000 F 
ATOM     79  C51 UNL A   1      32.228  34.575  43.248  1.00  0.00    +0.000 C 
ATOM     80  F15 UNL A   1      32.244  34.184  44.532  1.00  0.00    +0.000 F 
ENDBRANCH   69   70
TORSDOF 21
ENDMDL
MODEL 3
REMARK VINA RESULT:     -10.2     16.903     24.260
ROOT
ATOM     33  C22 UNL A   1      25.853  36.567  45.392  1.00  0.00    +0.000 C 
ATOM     34  C23 UNL A   1      25.798  37.733  46.338  1.00  0.00    +0.000 C 
ATOM     35  N6  UNL A   1      26.753  38.554  46.694  1.00  0.00    +0.000 N 
ATOM     36  C24 UNL A   1      26.165  39.466  47.561  1.00  0.00    +0.000 C 
ATOM     37  C25 UNL A   1      26.751  40.478  48.246  1.00  0.00    +0.000 C 
ATOM     49  C32 UNL A   1      28.154  40.797  48.181  1.00  0.00    +0.000 C 
ATOM     50  C33 UNL A   1      28.852  41.761  48.888  1.00  0.00    +0.000 C 
ATOM     51  C34 UNL A   1      30.179  41.754  48.444  1.00  0.00    +0.000 C 
ATOM     52  C35 UNL A   1      30.323  40.746  47.504  1.00  0.00    +0.000 C 
ATOM     53  N7  UNL A   1      29.072  40.165  47.356  1.00  0.00    +0.000 N 
ATOM     54  C36 UNL A   1      31.509  40.345  46.793  1.00  0.00    +0.000 C 
ATOM     66  C43 UNL A   1      31.574  39.314  45.915  1.00  0.00    +0.000 C 
ATOM     67  N8  UNL A   1      30.566  38.452  45.504  1.00  0.00    +0.000 N 
ATOM     68  C44 UNL A   1      31.118  37.642  44.634  1.00  0.00    +0.000 C 
ATOM     69  C45 UNL A   1      30.501  36.496  43.881  1.00  0.00    +0.000 C 
ATOM     81  C52 UNL A   1      29.203  36.200  44.084  1.00  0.00    +0.000 C 
ATOM     82  C53 UNL A   1      28.471  35.122  43.427  1.00  0.00    +0.000 C 
ATOM     83  C54 UNL A   1      27.188  35.163  43.817  1.00  0.00    +0.000 C 
ATOM     84  C55 UNL A   1      27.015  36.245  44.789  1.00  0.00    +0.000 C 
ATOM     85  N9  UNL A   1      28.267  36.797  44.894  1.00  0.00    +0.000 N 
ATOM     86  C56 UNL A   1      32.539  37.915  44.375  1.00  0.00    +0.000 C 
ATOM     87  C57 UNL A   1      32.776  38.916  45.213  1.00  0.00    +0.000 C 
ATOM     88  C58 UNL A   1      24.759  39.129  47.636  1.00  0.00    +0.000 C 
ATOM     89  C59 UNL A   1      24.491  38.030  46.944  1.00  0.00    +0.000 C 
ATOM    118  H24 UNL A   1      28.461  42.379  49.616  1.00  0.00    +0.000 H 
ATOM    119  H25 UNL A   1      30.925  42.392  48.764  1.00  0.00    +0.000 H 
ATOM    120  H26 UNL A   1      28.868  39.414  46.752  1.00  0.00    +0.000 H 
ATOM    121  H27 UNL A   1      28.875  34.438  42.769  1.00  0.00    +0.000 H 
ATOM    122  H28 UNL A   1      26.441  34.532  43.485  1.00  0.00    +0.000 H 
ATOM    123  H29 UNL A   1      28.475  37.551  45.493  1.00  0.00    +0.000 H 
ATOM    124  H30 UNL A   1      33.183  37.450  43.716  1.00  0.00    +0.000 H 
ATOM    125  H31 UNL A   1      33.701  39.355  45.346  1.00  0.00    +0.000 H 
ATOM    126  H32 UNL A   1      24.057  39.675  48.160  1.00  0.00    +0.000 H 
ATOM    127  H33 UNL A   1      23.600  37.519  46.854  1.00  0.00    +0.000 H 
ENDROOT
BRANCH   33   32
ATOM    129  H35 UNL A   1      23.208  32.797  45.502  1.00  0.00    +0.000 H 
ATOM    128  H34 UNL A   1      25.244  34.021  45.989  1.00  0.00    +0.000 H 
ATOM    116  H22 UNL A   1      21.590  36.207  43.648  1.00  0.00    +0.000 H 
ATOM    117  H23 UNL A   1      23.704  37.363  43.940  1.00  0.00    +0.000 H 
ATOM     90  C60 UNL A   1      24.472  34.485  45.483  1.00  0.00    +0.000 C 
ATOM     91  C61 UNL A   1      23.288  33.792  45.240  1.00  0.00    +0.000 C 
ATOM     29  C18 UNL A   1      22.208  34.446  44.641  1.00  0.00    +0.000 C 
ATOM     30  C19 UNL A   1      22.366  35.745  44.147  1.00  0.00    +0.000 C 
ATOM     31  C20 UNL A   1      23.577  36.416  44.331  1.00  0.00    +0.000 C 
ATOM     32  C21 UNL A   1      24.624  35.809  45.045  1.00  0.00    +0.000 C 
BRANCH   29   27
ATOM     27  C17 UNL A   1      20.887  33.794  44.508  1.00  0.00    +0.000 C 
ATOM     28  O5  UNL A   1      19.991  34.359  43.887  1.00  0.00    +0.000 O 
BRANCH   27   26
ATOM     26  N5  UNL A   1      20.650  32.577  45.099  1.00  0.00    +0.000 N 
ATOM    115  H21 UNL A   1      20.243  32.620  45.995  1.00  0.00    +0.000 H 
BRANCH   26   25
ATOM     25  C16 UNL A   1      20.908  31.236  44.604  1.00  0.00    +0.000 C 
ATOM    114  H20 UNL A   1      21.353  31.331  43.635  1.00  0.00    +0.000 H 
ATOM    113  H19 UNL A   1      19.981  30.701  44.566  1.00  0.00    +0.000 H 
BRANCH   25   24
ATOM    112  H18 UNL A   1      21.443  29.491  45.615  1.00  0.00    +0.000 H 
ATOM    111  H17 UNL A   1      22.015  31.006  46.391  1.00  0.00    +0.000 H 
ATOM     24  C15 UNL A   1      21.883  30.456  45.483  1.00  0.00    +0.000 C 
BRANCH   24   23
ATOM    109  H15 UNL A   1      23.156  29.470  44.107  1.00  0.00    +0.000 H 
ATOM    110  H16 UNL A   1      23.612  31.156  44.545  1.00  0.00    +0.000 H 
ATOM     23  C14 UNL A   1      23.267  30.201  44.882  1.00  0.00    +0.000 C 
BRANCH   23   22
ATOM    107  H13 UNL A   1      23.898  29.591  46.809  1.00  0.00    +0.000 H 
ATOM    108  H14 UNL A   1      24.700  28.781  45.416  1.00  0.00    +0.000 H 
ATOM     22  C13 UNL A   1      24.346  29.696  45.844  1.00  0.00    +0.000 C 
BRANCH   22   21
ATOM    105  H11 UNL A   1      26.244  30.358  45.184  1.00  0.00    +0.000 H 
ATOM    106  H12 UNL A   1      25.220  31.578  46.025  1.00  0.00    +0.000 H 
ATOM     21  C12 UNL A   1      25.587  30.574  46.000  1.00  0.00    +0.000 C 
BRANCH   21   20
ATOM     20  C11 UNL A   1      26.383  30.406  47.289  1.00  0.00    +0.000 C 
ATOM    103  H9  UNL A   1      25.711  30.513  48.115  1.00  0.00    +0.000 H 
ATOM    104  H10 UNL A   1      26.837  29.437  47.245  1.00  0.00    +0.000 H 
BRANCH   20   19
ATOM     19  N4  UNL A   1      27.464  31.364  47.456  1.00  0.00    +0.000 N 
ATOM    102  H8  UNL A   1      28.256  31.013  47.923  1.00  0.00    +0.000 H 
BRANCH   19   17
ATOM     17  C10 UNL A   1      27.563  32.682  47.067  1.00  0.00    +0.000 C 
ATOM     18  O4  UNL A   1      27.886  32.942  45.905  1.00  0.00    +0.000 O 
BRANCH   17   16
ATOM    130  H36 UNL A   1      25.240  33.197  48.388  1.00  0.00    +0.000 H 
ATOM     99  H5  UNL A   1      26.220  37.015  49.822  1.00  0.00    +0.000 H 
ATOM    100  H6  UNL A   1      28.545  36.608  49.256  1.00  0.00    +0.000 H 
ATOM     11  C5  UNL A   1      25.510  35.180  49.058  1.00  0.00    +0.000 C 
ATOM     12  C6  UNL A   1      26.486  36.139  49.346  1.00  0.00    +0.000 C 
ATOM     13  C7  UNL A   1      27.822  35.920  48.995  1.00  0.00    +0.000 C 
ATOM     14  C8  UNL A   1      28.174  34.770  48.289  1.00  0.00    +0.000 C 
ATOM     16  C9  UNL A   1      27.207  33.813  47.962  1.00  0.00    +0.000 C 
ATOM     92  C62 UNL A   1      25.912  33.977  48.460  1.00  0.00    +0.000 C 
BRANCH   11   10
ATOM     10  N3  UNL A   1      24.146  35.477  49.305  1.00  0.00    +0.000 N 
BRANCH   10    9
ATOM      9  N2  UNL A   1      23.441  34.469  49.058  1.00  0.00    +0.000 N 
BRANCH    9    8
ATOM     97  H3  UNL A   1      20.599  37.424  47.128  1.00  0.00    +0.000 H 
ATOM     98  H4  UNL A   1      22.783  36.749  47.948  1.00  0.00    +0.000 H 
ATOM    131  H37 UNL A   1      21.269  32.937  48.874  1.00  0.00    +0.000 H 
ATOM    132  H38 UNL A   1      19.078  33.608  48.070  1.00  0.00    +0.000 H 
ATOM      5  C1  UNL A   1      19.679  35.565  47.544  1.00  0.00    +0.000 C 
ATOM      6  C2  UNL A   1      20.740  36.473  47.501  1.00  0.00    +0.000 C 
ATOM      7  C3  UNL A   1      21.999  36.079  47.970  1.00  0.00    +0.000 C 
ATOM      8  C4  UNL A   1      22.207  34.785  48.468  1.00  0.00    +0.000 C 
ATOM     93  C63 UNL A   1      21.129  33.890  48.504  1.00  0.00    +0.000 C 
ATOM     94  C64 UNL A   1      19.866  34.274  48.043  1.00  0.00    +0.000 C 
BRANCH    5    2
ATOM      2  S1  UNL A   1      18.075  36.060  46.981  1.00  0.00    +0.000 S 
ATOM      3  O1  UNL A   1      17.250  36.369  48.123  1.00  0.00    +0.000 O 
ATOM      4  O2  UNL A   1      17.662  35.154  45.934  1.00  0.00    +0.000 O 
BRANCH    2    1
ATOM      1  N1  UNL A   1      18.369  37.541  46.238  1.00  0.00    +0.000 N 
ATOM     95  H1  UNL A   1      17.587  38.171  46.415  1.00  0.00    +0.000 H 
ATOM     96  H2  UNL A   1      18.473  37.402  45.233  1.00  0.00    +0.000 H 
ENDBRANCH    2    1
ENDBRANCH    5    2
ENDBRANCH    9    8
ENDBRANCH   10    9
ENDBRANCH   11   10
BRANCH   14   15
ATOM    101  H7  UNL A   1      29.828  33.821  47.655  1.00  0.00    +0.000 H 
ATOM     15  O3  UNL A   1      29.493  34.649  47.939  1.00  0.00    +0.000 O 
ENDBRANCH   14   15
ENDBRANCH   17   16
ENDBRANCH   19   17
ENDBRANCH   20   19
ENDBRANCH   21   20
ENDBRANCH   22   21
ENDBRANCH   23   22
ENDBRANCH   24   23
ENDBRANCH   25   24
ENDBRANCH   26   25
ENDBRANCH   27   26
ENDBRANCH   29   27
ENDBRANCH   33   32
BRANCH   37   38
ATOM     38  C26 UNL A   1      25.875  41.326  49.125  1.00  0.00    +0.000 C 
ATOM     39  C27 UNL A   1      25.264  42.495  48.649  1.00  0.00    +0.000 C 
ATOM     40  F1  UNL A   1      25.497  42.919  47.398  1.00  0.00    +0.000 F 
ATOM     41  C28 UNL A   1      24.432  43.253  49.470  1.00  0.00    +0.000 C 
ATOM     42  F2  UNL A   1      23.895  44.392  49.007  1.00  0.00    +0.000 F 
ATOM     43  C29 UNL A   1      24.168  42.841  50.766  1.00  0.00    +0.000 C 
ATOM     44  F3  UNL A   1      23.358  43.567  51.550  1.00  0.00    +0.000 F 
ATOM     45  C30 UNL A   1      24.746  41.679  51.253  1.00  0.00    +0.000 C 
ATOM     46  F4  UNL A   1      24.481  41.270  52.500  1.00  0.00    +0.000 F 
ATOM     47  C31 UNL A   1      25.603  40.935  50.445  1.00  0.00    +0.000 C 
ATOM     48  F5  UNL A   1      26.157  39.822  50.949  1.00  0.00    +0.000 F 
ENDBRANCH   37   38
BRANCH   54   55
ATOM     65  F10 UNL A   1      32.142  42.808  45.514  1.00  0.00    +0.000 F 
ATOM     55  C37 UNL A   1      32.777  41.107  47.053  1.00  0.00    +0.000 C 
ATOM     56  C38 UNL A   1      33.752  40.628  47.941  1.00  0.00    +0.000 C 
ATOM     57  F6  UNL A   1      33.544  39.492  48.623  1.00  0.00    +0.000 F 
ATOM     58  C39 UNL A   1      34.929  41.339  48.164  1.00  0.00    +0.000 C 
ATOM     59  F7  UNL A   1      35.823  40.888  49.055  1.00  0.00    +0.000 F 
ATOM     60  C40 UNL A   1      35.171  42.518  47.477  1.00  0.00    +0.000 C 
ATOM     61  F8  UNL A   1      36.308  43.197  47.686  1.00  0.00    +0.000 F 
ATOM     62  C41 UNL A   1      34.230  43.000  46.579  1.00  0.00    +0.000 C 
ATOM     63  F9  UNL A   1      34.469  44.133  45.902  1.00  0.00    +0.000 F 
ATOM     64  C42 UNL A   1      33.038  42.310  46.378  1.00  0.00    +0.000 C 
ENDBRANCH   54   55
BRANCH   69   70
ATOM     70  C46 UNL A   1      31.304  35.690  42.923  1.00  0.00    +0.000 C 
ATOM     71  C47 UNL A   1      31.433  36.081  41.582  1.00  0.00    +0.000 C 
ATOM     72  F11 UNL A   1      30.814  37.187  41.146  1.00  0.00    +0.000 F 
ATOM     73  C48 UNL A   1      32.162  35.313  40.677  1.00  0.00    +0.000 C 
ATOM     74  F12 UNL A   1      32.229  35.684  39.391  1.00  0.00    +0.000 F 
ATOM     75  C49 UNL A   1      32.805  34.160  41.100  1.00  0.00    +0.000 C 
ATOM     76  F13 UNL A   1      33.512  33.426  40.230  1.00  0.00    +0.000 F 
ATOM     77  C50 UNL A   1      32.709  33.766  42.426  1.00  0.00    +0.000 C 
ATOM     78  F14 UNL A   1      33.345  32.662  42.846  1.00  0.00    +0.000 F 
ATOM     79  C51 UNL A   1      31.953  34.513  43.325  1.00  0.00    +0.000 C 
ATOM     80  F15 UNL A   1      31.868  34.101  44.599  1.00  0.00    +0.000 F 
ENDBRANCH   69   70
TORSDOF 21
ENDMDL
MODEL 4
REMARK VINA RESULT:      -9.9      3.302      9.191
ROOT
ATOM     33  C22 UNL A   1      41.347  28.054  30.006  1.00  0.00    +0.000 C 
ATOM     34  C23 UNL A   1      40.184  29.000  29.910  1.00  0.00    +0.000 C 
ATOM     35  N6  UNL A   1      39.755  29.874  30.785  1.00  0.00    +0.000 N 
ATOM     36  C24 UNL A   1      38.673  30.507  30.189  1.00  0.00    +0.000 C 
ATOM     37  C25 UNL A   1      37.852  31.449  30.713  1.00  0.00    +0.000 C 
ATOM     49  C32 UNL A   1      37.975  31.983  32.046  1.00  0.00    +0.000 C 
ATOM     50  C33 UNL A   1      37.154  32.892  32.691  1.00  0.00    +0.000 C 
ATOM     51  C34 UNL A   1      37.705  33.168  33.946  1.00  0.00    +0.000 C 
ATOM     52  C35 UNL A   1      38.838  32.388  34.109  1.00  0.00    +0.000 C 
ATOM     53  N7  UNL A   1      38.990  31.662  32.936  1.00  0.00    +0.000 N 
ATOM     54  C36 UNL A   1      39.719  32.310  35.246  1.00  0.00    +0.000 C 
ATOM     66  C43 UNL A   1      40.790  31.484  35.342  1.00  0.00    +0.000 C 
ATOM     67  N8  UNL A   1      41.275  30.572  34.414  1.00  0.00    +0.000 N 
ATOM     68  C44 UNL A   1      42.336  30.033  34.962  1.00  0.00    +0.000 C 
ATOM     69  C45 UNL A   1      43.248  28.968  34.415  1.00  0.00    +0.000 C 
ATOM     81  C52 UNL A   1      42.994  28.447  33.200  1.00  0.00    +0.000 C 
ATOM     82  C53 UNL A   1      43.788  27.414  32.543  1.00  0.00    +0.000 C 
ATOM     83  C54 UNL A   1      43.285  27.187  31.320  1.00  0.00    +0.000 C 
ATOM     84  C55 UNL A   1      42.103  28.029  31.122  1.00  0.00    +0.000 C 
ATOM     85  N9  UNL A   1      42.000  28.734  32.294  1.00  0.00    +0.000 N 
ATOM     86  C56 UNL A   1      42.660  30.560  36.295  1.00  0.00    +0.000 C 
ATOM     87  C57 UNL A   1      41.661  31.410  36.496  1.00  0.00    +0.000 C 
ATOM     88  C58 UNL A   1      38.542  29.955  28.857  1.00  0.00    +0.000 C 
ATOM     89  C59 UNL A   1      39.416  28.978  28.656  1.00  0.00    +0.000 C 
ATOM    118  H24 UNL A   1      36.284  33.296  32.310  1.00  0.00    +0.000 H 
ATOM    119  H25 UNL A   1      37.331  33.839  34.635  1.00  0.00    +0.000 H 
ATOM    120  H26 UNL A   1      39.712  31.016  32.762  1.00  0.00    +0.000 H 
ATOM    121  H27 UNL A   1      44.604  26.935  32.953  1.00  0.00    +0.000 H 
ATOM    122  H28 UNL A   1      43.670  26.525  30.628  1.00  0.00    +0.000 H 
ATOM    123  H29 UNL A   1      41.282  29.384  32.471  1.00  0.00    +0.000 H 
ATOM    124  H30 UNL A   1      43.454  30.330  36.912  1.00  0.00    +0.000 H 
ATOM    125  H31 UNL A   1      41.525  31.951  37.364  1.00  0.00    +0.000 H 
ATOM    126  H32 UNL A   1      37.859  30.280  28.156  1.00  0.00    +0.000 H 
ATOM    127  H33 UNL A   1      39.528  28.364  27.834  1.00  0.00    +0.000 H 
ENDROOT
BRANCH   33   32
ATOM    129  H35 UNL A   1      43.852  27.132  26.251  1.00  0.00    +0.000 H 
ATOM    128  H34 UNL A   1      43.160  28.554  28.089  1.00  0.00    +0.000 H 
ATOM    116  H22 UNL A   1      41.196  24.143  27.552  1.00  0.00    +0.000 H 
ATOM    117  H23 UNL A   1      40.347  25.646  29.258  1.00  0.00    +0.000 H 
ATOM     90  C60 UNL A   1      42.735  27.621  27.972  1.00  0.00    +0.000 C 
ATOM     91  C61 UNL A   1      43.163  26.790  26.939  1.00  0.00    +0.000 C 
ATOM     29  C18 UNL A   1      42.658  25.491  26.835  1.00  0.00    +0.000 C 
ATOM     30  C19 UNL A   1      41.613  25.079  27.669  1.00  0.00    +0.000 C 
ATOM     31  C20 UNL A   1      41.137  25.938  28.662  1.00  0.00    +0.000 C 
ATOM     32  C21 UNL A   1      41.729  27.198  28.854  1.00  0.00    +0.000 C 
BRANCH   29   27
ATOM     27  C17 UNL A   1      43.200  24.527  25.851  1.00  0.00    +0.000 C 
ATOM     28  O5  UNL A   1      43.660  24.940  24.790  1.00  0.00    +0.000 O 
BRANCH   27   26
ATOM     26  N5  UNL A   1      43.165  23.179  26.106  1.00  0.00    +0.000 N 
ATOM    115  H21 UNL A   1      43.850  22.856  26.737  1.00  0.00    +0.000 H 
BRANCH   26   25
ATOM     25  C16 UNL A   1      42.272  22.156  25.589  1.00  0.00    +0.000 C 
ATOM    114  H20 UNL A   1      42.865  21.464  25.029  1.00  0.00    +0.000 H 
ATOM    113  H19 UNL A   1      41.529  22.628  24.980  1.00  0.00    +0.000 H 
BRANCH   25   24
ATOM    112  H18 UNL A   1      42.076  21.628  27.598  1.00  0.00    +0.000 H 
ATOM    111  H17 UNL A   1      41.621  20.333  26.441  1.00  0.00    +0.000 H 
ATOM     24  C15 UNL A   1      41.568  21.371  26.693  1.00  0.00    +0.000 C 
BRANCH   24   23
ATOM    109  H15 UNL A   1      39.832  21.372  27.906  1.00  0.00    +0.000 H 
ATOM    110  H16 UNL A   1      40.035  22.783  26.806  1.00  0.00    +0.000 H 
ATOM     23  C14 UNL A   1      40.097  21.722  26.930  1.00  0.00    +0.000 C 
BRANCH   23   22
ATOM    107  H13 UNL A   1      39.620  20.880  25.046  1.00  0.00    +0.000 H 
ATOM    108  H14 UNL A   1      38.641  20.309  26.445  1.00  0.00    +0.000 H 
ATOM     22  C13 UNL A   1      39.087  21.138  25.938  1.00  0.00    +0.000 C 
BRANCH   22   21
ATOM    105  H11 UNL A   1      37.820  22.794  26.291  1.00  0.00    +0.000 H 
ATOM    106  H12 UNL A   1      38.174  22.413  24.566  1.00  0.00    +0.000 H 
ATOM     21  C12 UNL A   1      37.922  22.042  25.537  1.00  0.00    +0.000 C 
BRANCH   21   20
ATOM     20  C11 UNL A   1      36.564  21.370  25.370  1.00  0.00    +0.000 C 
ATOM    103  H9  UNL A   1      36.247  21.504  24.357  1.00  0.00    +0.000 H 
ATOM    104  H10 UNL A   1      36.697  20.340  25.632  1.00  0.00    +0.000 H 
BRANCH   20   19
ATOM     19  N4  UNL A   1      35.525  21.889  26.244  1.00  0.00    +0.000 N 
ATOM    102  H8  UNL A   1      35.855  22.418  27.006  1.00  0.00    +0.000 H 
BRANCH   19   17
ATOM     17  C10 UNL A   1      34.154  21.764  26.182  1.00  0.00    +0.000 C 
ATOM     18  O4  UNL A   1      33.588  20.983  26.951  1.00  0.00    +0.000 O 
BRANCH   17   16
ATOM    130  H36 UNL A   1      33.676  24.443  26.239  1.00  0.00    +0.000 H 
ATOM     99  H5  UNL A   1      30.718  24.569  23.267  1.00  0.00    +0.000 H 
ATOM    100  H6  UNL A   1      31.329  22.318  22.593  1.00  0.00    +0.000 H 
ATOM     11  C5  UNL A   1      32.075  24.664  24.881  1.00  0.00    +0.000 C 
ATOM     12  C6  UNL A   1      31.437  24.052  23.797  1.00  0.00    +0.000 C 
ATOM     13  C7  UNL A   1      31.766  22.744  23.425  1.00  0.00    +0.000 C 
ATOM     14  C8  UNL A   1      32.685  22.018  24.181  1.00  0.00    +0.000 C 
ATOM     16  C9  UNL A   1      33.311  22.600  25.290  1.00  0.00    +0.000 C 
ATOM     92  C62 UNL A   1      33.086  23.954  25.547  1.00  0.00    +0.000 C 
BRANCH   11   10
ATOM     10  N3  UNL A   1      31.637  25.937  25.320  1.00  0.00    +0.000 N 
BRANCH   10    9
ATOM      9  N2  UNL A   1      32.106  26.829  24.574  1.00  0.00    +0.000 N 
BRANCH    9    8
ATOM     97  H3  UNL A   1      28.473  28.326  22.317  1.00  0.00    +0.000 H 
ATOM     98  H4  UNL A   1      29.971  26.572  23.077  1.00  0.00    +0.000 H 
ATOM    131  H37 UNL A   1      32.157  29.391  25.303  1.00  0.00    +0.000 H 
ATOM    132  H38 UNL A   1      30.674  31.153  24.537  1.00  0.00    +0.000 H 
ATOM      5  C1  UNL A   1      29.468  29.868  23.368  1.00  0.00    +0.000 C 
ATOM      6  C2  UNL A   1      29.257  28.553  22.949  1.00  0.00    +0.000 C 
ATOM      7  C3  UNL A   1      30.119  27.544  23.393  1.00  0.00    +0.000 C 
ATOM      8  C4  UNL A   1      31.180  27.836  24.261  1.00  0.00    +0.000 C 
ATOM     93  C63 UNL A   1      31.376  29.163  24.670  1.00  0.00    +0.000 C 
ATOM     94  C64 UNL A   1      30.524  30.180  24.229  1.00  0.00    +0.000 C 
BRANCH    5    2
ATOM      2  S1  UNL A   1      28.402  31.158  22.791  1.00  0.00    +0.000 S 
ATOM      3  O1  UNL A   1      29.191  32.336  22.525  1.00  0.00    +0.000 O 
ATOM      4  O2  UNL A   1      27.219  31.175  23.620  1.00  0.00    +0.000 O 
BRANCH    2    1
ATOM      1  N1  UNL A   1      27.914  30.606  21.279  1.00  0.00    +0.000 N 
ATOM     95  H1  UNL A   1      28.734  30.351  20.729  1.00  0.00    +0.000 H 
ATOM     96  H2  UNL A   1      27.397  31.341  20.799  1.00  0.00    +0.000 H 
ENDBRANCH    2    1
ENDBRANCH    5    2
ENDBRANCH    9    8
ENDBRANCH   10    9
ENDBRANCH   11   10
BRANCH   14   15
ATOM    101  H7  UNL A   1      32.269  20.069  23.925  1.00  0.00    +0.000 H 
ATOM     15  O3  UNL A   1      32.919  20.728  23.783  1.00  0.00    +0.000 O 
ENDBRANCH   14   15
ENDBRANCH   17   16
ENDBRANCH   19   17
ENDBRANCH   20   19
ENDBRANCH   21   20
ENDBRANCH   22   21
ENDBRANCH   23   22
ENDBRANCH   24   23
ENDBRANCH   25   24
ENDBRANCH   26   25
ENDBRANCH   27   26
ENDBRANCH   29   27
ENDBRANCH   33   32
BRANCH   37   38
ATOM     38  C26 UNL A   1      36.745  31.976  29.844  1.00  0.00    +0.000 C 
ATOM     39  C27 UNL A   1      35.670  31.166  29.448  1.00  0.00    +0.000 C 
ATOM     40  F1  UNL A   1      35.637  29.871  29.793  1.00  0.00    +0.000 F 
ATOM     41  C28 UNL A   1      34.638  31.679  28.666  1.00  0.00    +0.000 C 
ATOM     42  F2  UNL A   1      33.644  30.874  28.261  1.00  0.00    +0.000 F 
ATOM     43  C29 UNL A   1      34.641  33.014  28.295  1.00  0.00    +0.000 C 
ATOM     44  F3  UNL A   1      33.641  33.508  27.552  1.00  0.00    +0.000 F 
ATOM     45  C30 UNL A   1      35.684  33.838  28.691  1.00  0.00    +0.000 C 
ATOM     46  F4  UNL A   1      35.682  35.133  28.347  1.00  0.00    +0.000 F 
ATOM     47  C31 UNL A   1      36.733  33.321  29.447  1.00  0.00    +0.000 C 
ATOM     48  F5  UNL A   1      37.734  34.141  29.803  1.00  0.00    +0.000 F 
ENDBRANCH   37   38
BRANCH   54   55
ATOM     65  F10 UNL A   1      38.019  31.533  37.393  1.00  0.00    +0.000 F 
ATOM     55  C37 UNL A   1      39.424  33.193  36.426  1.00  0.00    +0.000 C 
ATOM     56  C38 UNL A   1      39.962  34.485  36.528  1.00  0.00    +0.000 C 
ATOM     57  F6  UNL A   1      40.802  34.942  35.588  1.00  0.00    +0.000 F 
ATOM     58  C39 UNL A   1      39.671  35.297  37.621  1.00  0.00    +0.000 C 
ATOM     59  F7  UNL A   1      40.237  36.507  37.723  1.00  0.00    +0.000 F 
ATOM     60  C40 UNL A   1      38.809  34.850  38.611  1.00  0.00    +0.000 C 
ATOM     61  F8  UNL A   1      38.524  35.636  39.659  1.00  0.00    +0.000 F 
ATOM     62  C41 UNL A   1      38.250  33.584  38.520  1.00  0.00    +0.000 C 
ATOM     63  F9  UNL A   1      37.405  33.156  39.469  1.00  0.00    +0.000 F 
ATOM     64  C42 UNL A   1      38.565  32.757  37.446  1.00  0.00    +0.000 C 
ENDBRANCH   54   55
BRANCH   69   70
ATOM     70  C46 UNL A   1      44.416  28.487  35.199  1.00  0.00    +0.000 C 
ATOM     71  C47 UNL A   1      44.290  27.423  36.104  1.00  0.00    +0.000 C 
ATOM     72  F11 UNL A   1      43.098  26.835  36.282  1.00  0.00    +0.000 F 
ATOM     73  C48 UNL A   1      45.376  26.988  36.859  1.00  0.00    +0.000 C 
ATOM     74  F12 UNL A   1      45.216  26.001  37.751  1.00  0.00    +0.000 F 
ATOM     75  C49 UNL A   1      46.618  27.584  36.700  1.00  0.00    +0.000 C 
ATOM     76  F13 UNL A   1      47.665  27.160  37.422  1.00  0.00    +0.000 F 
ATOM     77  C50 UNL A   1      46.772  28.624  35.796  1.00  0.00    +0.000 C 
ATOM     78  F14 UNL A   1      47.975  29.191  35.624  1.00  0.00    +0.000 F 
ATOM     79  C51 UNL A   1      45.680  29.082  35.065  1.00  0.00    +0.000 C 
ATOM     80  F15 UNL A   1      45.856  30.098  34.206  1.00  0.00    +0.000 F 
ENDBRANCH   69   70
TORSDOF 21
ENDMDL
MODEL 5
REMARK VINA RESULT:      -9.9     29.879     36.955
ROOT
ATOM     33  C22 UNL A   1      21.823  24.311   1.822  1.00  0.00    +0.000 C 
ATOM     34  C23 UNL A   1      22.705  23.288   2.478  1.00  0.00    +0.000 C 
ATOM     35  N6  UNL A   1      22.460  22.028   2.734  1.00  0.00    +0.000 N 
ATOM     36  C24 UNL A   1      23.617  21.528   3.319  1.00  0.00    +0.000 C 
ATOM     37  C25 UNL A   1      23.843  20.288   3.816  1.00  0.00    +0.000 C 
ATOM     49  C32 UNL A   1      22.873  19.223   3.817  1.00  0.00    +0.000 C 
ATOM     50  C33 UNL A   1      22.986  17.954   4.356  1.00  0.00    +0.000 C 
ATOM     51  C34 UNL A   1      21.820  17.243   4.054  1.00  0.00    +0.000 C 
ATOM     52  C35 UNL A   1      20.954  18.087   3.377  1.00  0.00    +0.000 C 
ATOM     53  N7  UNL A   1      21.612  19.301   3.242  1.00  0.00    +0.000 N 
ATOM     54  C36 UNL A   1      19.628  17.809   2.888  1.00  0.00    +0.000 C 
ATOM     66  C43 UNL A   1      18.826  18.710   2.269  1.00  0.00    +0.000 C 
ATOM     67  N8  UNL A   1      19.080  20.041   1.965  1.00  0.00    +0.000 N 
ATOM     68  C44 UNL A   1      18.008  20.480   1.351  1.00  0.00    +0.000 C 
ATOM     69  C45 UNL A   1      17.719  21.854   0.813  1.00  0.00    +0.000 C 
ATOM     81  C52 UNL A   1      18.646  22.822   0.952  1.00  0.00    +0.000 C 
ATOM     82  C53 UNL A   1      18.507  24.196   0.482  1.00  0.00    +0.000 C 
ATOM     83  C54 UNL A   1      19.646  24.861   0.730  1.00  0.00    +0.000 C 
ATOM     84  C55 UNL A   1      20.582  23.970   1.419  1.00  0.00    +0.000 C 
ATOM     85  N9  UNL A   1      19.898  22.785   1.518  1.00  0.00    +0.000 N 
ATOM     86  C56 UNL A   1      16.959  19.466   1.175  1.00  0.00    +0.000 C 
ATOM     87  C57 UNL A   1      17.492  18.419   1.790  1.00  0.00    +0.000 C 
ATOM     88  C58 UNL A   1      24.582  22.607   3.332  1.00  0.00    +0.000 C 
ATOM     89  C59 UNL A   1      24.049  23.733   2.877  1.00  0.00    +0.000 C 
ATOM    118  H24 UNL A   1      23.793  17.594   4.890  1.00  0.00    +0.000 H 
ATOM    119  H25 UNL A   1      21.635  16.257   4.295  1.00  0.00    +0.000 H 
ATOM    120  H26 UNL A   1      21.239  20.099   2.803  1.00  0.00    +0.000 H 
ATOM    121  H27 UNL A   1      17.668  24.593   0.032  1.00  0.00    +0.000 H 
ATOM    122  H28 UNL A   1      19.832  25.843   0.475  1.00  0.00    +0.000 H 
ATOM    123  H29 UNL A   1      20.269  21.983   1.953  1.00  0.00    +0.000 H 
ATOM    124  H30 UNL A   1      16.047  19.548   0.699  1.00  0.00    +0.000 H 
ATOM    125  H31 UNL A   1      17.015  17.511   1.910  1.00  0.00    +0.000 H 
ATOM    126  H32 UNL A   1      25.558  22.512   3.653  1.00  0.00    +0.000 H 
ATOM    127  H33 UNL A   1      24.468  24.673   2.818  1.00  0.00    +0.000 H 
ENDROOT
BRANCH   33   32
ATOM    129  H35 UNL A   1      24.258  27.336  -0.658  1.00  0.00    +0.000 H 
ATOM    128  H34 UNL A   1      23.494  25.096  -0.129  1.00  0.00    +0.000 H 
ATOM    116  H22 UNL A   1      21.952  28.878   2.503  1.00  0.00    +0.000 H 
ATOM    117  H23 UNL A   1      21.361  26.621   3.168  1.00  0.00    +0.000 H 
ATOM     90  C60 UNL A   1      23.172  25.897   0.437  1.00  0.00    +0.000 C 
ATOM     91  C61 UNL A   1      23.580  27.188   0.107  1.00  0.00    +0.000 C 
ATOM     29  C18 UNL A   1      23.071  28.282   0.812  1.00  0.00    +0.000 C 
ATOM     30  C19 UNL A   1      22.277  28.074   1.944  1.00  0.00    +0.000 C 
ATOM     31  C20 UNL A   1      21.922  26.776   2.316  1.00  0.00    +0.000 C 
ATOM     32  C21 UNL A   1      22.326  25.679   1.536  1.00  0.00    +0.000 C 
BRANCH   29   27
ATOM     27  C17 UNL A   1      23.358  29.672   0.392  1.00  0.00    +0.000 C 
ATOM     28  O5  UNL A   1      23.741  30.489   1.224  1.00  0.00    +0.000 O 
BRANCH   27   26
ATOM     26  N5  UNL A   1      23.171  30.056  -0.913  1.00  0.00    +0.000 N 
ATOM    115  H21 UNL A   1      22.396  30.645  -1.067  1.00  0.00    +0.000 H 
BRANCH   26   25
ATOM     25  C16 UNL A   1      23.942  29.728  -2.099  1.00  0.00    +0.000 C 
ATOM    114  H20 UNL A   1      24.792  29.159  -1.784  1.00  0.00    +0.000 H 
ATOM    113  H19 UNL A   1      24.230  30.638  -2.583  1.00  0.00    +0.000 H 
BRANCH   25   24
ATOM    112  H18 UNL A   1      23.358  27.859  -2.821  1.00  0.00    +0.000 H 
ATOM    111  H17 UNL A   1      23.494  29.133  -4.079  1.00  0.00    +0.000 H 
ATOM     24  C15 UNL A   1      23.162  28.874  -3.095  1.00  0.00    +0.000 C 
BRANCH   24   23
ATOM    109  H15 UNL A   1      21.405  29.776  -2.333  1.00  0.00    +0.000 H 
ATOM    110  H16 UNL A   1      21.354  29.271  -4.060  1.00  0.00    +0.000 H 
ATOM     23  C14 UNL A   1      21.640  29.025  -3.058  1.00  0.00    +0.000 C 
BRANCH   23   22
ATOM    107  H13 UNL A   1      20.152  27.585  -3.504  1.00  0.00    +0.000 H 
ATOM    108  H14 UNL A   1      21.566  27.001  -2.556  1.00  0.00    +0.000 H 
ATOM     22  C13 UNL A   1      20.837  27.770  -2.703  1.00  0.00    +0.000 C 
BRANCH   22   21
ATOM    105  H11 UNL A   1      20.141  26.871  -0.920  1.00  0.00    +0.000 H 
ATOM    106  H12 UNL A   1      20.429  28.648  -0.859  1.00  0.00    +0.000 H 
ATOM     21  C12 UNL A   1      20.033  27.818  -1.405  1.00  0.00    +0.000 C 
BRANCH   21   20
ATOM     20  C11 UNL A   1      18.541  28.101  -1.537  1.00  0.00    +0.000 C 
ATOM    103  H9  UNL A   1      18.173  27.569  -2.389  1.00  0.00    +0.000 H 
ATOM    104  H10 UNL A   1      18.087  27.784  -0.621  1.00  0.00    +0.000 H 
BRANCH   20   19
ATOM     19  N4  UNL A   1      18.208  29.507  -1.700  1.00  0.00    +0.000 N 
ATOM    102  H8  UNL A   1      17.610  29.703  -2.457  1.00  0.00    +0.000 H 
BRANCH   19   17
ATOM     17  C10 UNL A   1      18.591  30.610  -0.970  1.00  0.00    +0.000 C 
ATOM     18  O4  UNL A   1      19.426  31.384  -1.446  1.00  0.00    +0.000 O 
BRANCH   17   16
ATOM    130  H36 UNL A   1      15.993  31.137  -0.355  1.00  0.00    +0.000 H 
ATOM     99  H5  UNL A   1      16.572  32.374   3.611  1.00  0.00    +0.000 H 
ATOM    100  H6  UNL A   1      18.818  31.456   3.547  1.00  0.00    +0.000 H 
ATOM     11  C5  UNL A   1      16.122  31.927   1.598  1.00  0.00    +0.000 C 
ATOM     12  C6  UNL A   1      16.936  31.970   2.734  1.00  0.00    +0.000 C 
ATOM     13  C7  UNL A   1      18.241  31.468   2.692  1.00  0.00    +0.000 C 
ATOM     14  C8  UNL A   1      18.761  30.987   1.492  1.00  0.00    +0.000 C 
ATOM     16  C9  UNL A   1      17.974  30.966   0.334  1.00  0.00    +0.000 C 
ATOM     92  C62 UNL A   1      16.628  31.323   0.437  1.00  0.00    +0.000 C 
BRANCH   11   10
ATOM     10  N3  UNL A   1      14.853  32.556   1.625  1.00  0.00    +0.000 N 
BRANCH   10    9
ATOM      9  N2  UNL A   1      14.683  33.216   0.571  1.00  0.00    +0.000 N 
BRANCH    9    8
ATOM     97  H3  UNL A   1      10.256  32.640   1.351  1.00  0.00    +0.000 H 
ATOM     98  H4  UNL A   1      12.572  32.797   2.065  1.00  0.00    +0.000 H 
ATOM    131  H37 UNL A   1      13.739  33.689  -1.875  1.00  0.00    +0.000 H 
ATOM    132  H38 UNL A   1      11.428  33.519  -2.602  1.00  0.00    +0.000 H 
ATOM      5  C1  UNL A   1      10.675  33.064  -0.679  1.00  0.00    +0.000 C 
ATOM      6  C2  UNL A   1      10.996  32.860   0.665  1.00  0.00    +0.000 C 
ATOM      7  C3  UNL A   1      12.331  32.956   1.075  1.00  0.00    +0.000 C 
ATOM      8  C4  UNL A   1      13.343  33.266   0.156  1.00  0.00    +0.000 C 
ATOM     93  C63 UNL A   1      13.001  33.466  -1.189  1.00  0.00    +0.000 C 
ATOM     94  C64 UNL A   1      11.672  33.368  -1.610  1.00  0.00    +0.000 C 
BRANCH    5    2
ATOM      2  S1  UNL A   1       8.995  32.918  -1.215  1.00  0.00    +0.000 S 
ATOM      3  O1  UNL A   1       8.125  33.418  -0.178  1.00  0.00    +0.000 O 
ATOM      4  O2  UNL A   1       8.824  31.620  -1.826  1.00  0.00    +0.000 O 
BRANCH    2    1
ATOM      1  N1  UNL A   1       8.888  34.045  -2.459  1.00  0.00    +0.000 N 
ATOM     95  H1  UNL A   1       9.100  34.974  -2.095  1.00  0.00    +0.000 H 
ATOM     96  H2  UNL A   1       7.945  34.038  -2.845  1.00  0.00    +0.000 H 
ENDBRANCH    2    1
ENDBRANCH    5    2
ENDBRANCH    9    8
ENDBRANCH   10    9
ENDBRANCH   11   10
BRANCH   14   15
ATOM    101  H7  UNL A   1      20.425  30.121   0.773  1.00  0.00    +0.000 H 
ATOM     15  O3  UNL A   1      20.061  30.557   1.518  1.00  0.00    +0.000 O 
ENDBRANCH   14   15
ENDBRANCH   17   16
ENDBRANCH   19   17
ENDBRANCH   20   19
ENDBRANCH   21   20
ENDBRANCH   22   21
ENDBRANCH   23   22
ENDBRANCH   24   23
ENDBRANCH   25   24
ENDBRANCH   26   25
ENDBRANCH   27   26
ENDBRANCH   29   27
ENDBRANCH   33   32
BRANCH   37   38
ATOM     38  C26 UNL A   1      25.199  20.006   4.400  1.00  0.00    +0.000 C 
ATOM     39  C27 UNL A   1      25.415  19.983   5.786  1.00  0.00    +0.000 C 
ATOM     40  F1  UNL A   1      24.416  20.277   6.631  1.00  0.00    +0.000 F 
ATOM     41  C28 UNL A   1      26.672  19.691   6.310  1.00  0.00    +0.000 C 
ATOM     42  F2  UNL A   1      26.866  19.721   7.637  1.00  0.00    +0.000 F 
ATOM     43  C29 UNL A   1      27.726  19.381   5.464  1.00  0.00    +0.000 C 
ATOM     44  F3  UNL A   1      28.931  19.088   5.971  1.00  0.00    +0.000 F 
ATOM     45  C30 UNL A   1      27.530  19.378   4.091  1.00  0.00    +0.000 C 
ATOM     46  F4  UNL A   1      28.542  19.064   3.271  1.00  0.00    +0.000 F 
ATOM     47  C31 UNL A   1      26.283  19.700   3.563  1.00  0.00    +0.000 C 
ATOM     48  F5  UNL A   1      26.129  19.701   2.230  1.00  0.00    +0.000 F 
ENDBRANCH   37   38
BRANCH   54   55
ATOM     65  F10 UNL A   1      19.950  15.704   0.999  1.00  0.00    +0.000 F 
ATOM     55  C37 UNL A   1      19.079  16.426   3.093  1.00  0.00    +0.000 C 
ATOM     56  C38 UNL A   1      18.340  16.093   4.239  1.00  0.00    +0.000 C 
ATOM     57  F6  UNL A   1      18.155  17.000   5.210  1.00  0.00    +0.000 F 
ATOM     58  C39 UNL A   1      17.826  14.810   4.411  1.00  0.00    +0.000 C 
ATOM     59  F7  UNL A   1      17.169  14.500   5.537  1.00  0.00    +0.000 F 
ATOM     60  C40 UNL A   1      18.005  13.850   3.427  1.00  0.00    +0.000 C 
ATOM     61  F8  UNL A   1      17.502  12.618   3.590  1.00  0.00    +0.000 F 
ATOM     62  C41 UNL A   1      18.714  14.164   2.277  1.00  0.00    +0.000 C 
ATOM     63  F9  UNL A   1      18.876  13.241   1.318  1.00  0.00    +0.000 F 
ATOM     64  C42 UNL A   1      19.258  15.435   2.116  1.00  0.00    +0.000 C 
ENDBRANCH   54   55
BRANCH   69   70
ATOM     70  C46 UNL A   1      16.429  22.155   0.138  1.00  0.00    +0.000 C 
ATOM     71  C47 UNL A   1      15.344  22.680   0.854  1.00  0.00    +0.000 C 
ATOM     72  F11 UNL A   1      15.458  22.904   2.171  1.00  0.00    +0.000 F 
ATOM     73  C48 UNL A   1      14.126  22.937   0.229  1.00  0.00    +0.000 C 
ATOM     74  F12 UNL A   1      13.091  23.394   0.947  1.00  0.00    +0.000 F 
ATOM     75  C49 UNL A   1      13.979  22.707  -1.131  1.00  0.00    +0.000 C 
ATOM     76  F13 UNL A   1      12.809  22.961  -1.733  1.00  0.00    +0.000 F 
ATOM     77  C50 UNL A   1      15.044  22.208  -1.864  1.00  0.00    +0.000 C 
ATOM     78  F14 UNL A   1      14.914  22.002  -3.182  1.00  0.00    +0.000 F 
ATOM     79  C51 UNL A   1      16.252  21.919  -1.234  1.00  0.00    +0.000 C 
ATOM     80  F15 UNL A   1      17.262  21.425  -1.967  1.00  0.00    +0.000 F 
ENDBRANCH   69   70
TORSDOF 21
ENDMDL
MODEL 6
REMARK VINA RESULT:      -9.9     32.262     35.725
ROOT
ATOM     33  C22 UNL A   1      18.944  19.721   4.751  1.00  0.00    +0.000 C 
ATOM     34  C23 UNL A   1      17.713  20.399   5.282  1.00  0.00    +0.000 C 
ATOM     35  N6  UNL A   1      16.895  20.005   6.226  1.00  0.00    +0.000 N 
ATOM     36  C24 UNL A   1      15.944  21.010   6.346  1.00  0.00    +0.000 C 
ATOM     37  C25 UNL A   1      14.851  21.046   7.146  1.00  0.00    +0.000 C 
ATOM     49  C32 UNL A   1      14.476  19.994   8.057  1.00  0.00    +0.000 C 
ATOM     50  C33 UNL A   1      13.352  19.909   8.860  1.00  0.00    +0.000 C 
ATOM     51  C34 UNL A   1      13.448  18.742   9.626  1.00  0.00    +0.000 C 
ATOM     52  C35 UNL A   1      14.601  18.069   9.258  1.00  0.00    +0.000 C 
ATOM     53  N7  UNL A   1      15.220  18.847   8.291  1.00  0.00    +0.000 N 
ATOM     54  C36 UNL A   1      15.103  16.812   9.752  1.00  0.00    +0.000 C 
ATOM     66  C43 UNL A   1      16.226  16.197   9.305  1.00  0.00    +0.000 C 
ATOM     67  N8  UNL A   1      17.119  16.613   8.327  1.00  0.00    +0.000 N 
ATOM     68  C44 UNL A   1      18.048  15.691   8.273  1.00  0.00    +0.000 C 
ATOM     69  C45 UNL A   1      19.255  15.612   7.378  1.00  0.00    +0.000 C 
ATOM     81  C52 UNL A   1      19.471  16.590   6.478  1.00  0.00    +0.000 C 
ATOM     82  C53 UNL A   1      20.594  16.649   5.550  1.00  0.00    +0.000 C 
ATOM     83  C54 UNL A   1      20.526  17.793   4.852  1.00  0.00    +0.000 C 
ATOM     84  C55 UNL A   1      19.326  18.530   5.253  1.00  0.00    +0.000 C 
ATOM     85  N9  UNL A   1      18.756  17.735   6.215  1.00  0.00    +0.000 N 
ATOM     86  C56 UNL A   1      17.861  14.593   9.231  1.00  0.00    +0.000 C 
ATOM     87  C57 UNL A   1      16.714  14.930   9.805  1.00  0.00    +0.000 C 
ATOM     88  C58 UNL A   1      16.316  22.056   5.417  1.00  0.00    +0.000 C 
ATOM     89  C59 UNL A   1      17.369  21.702   4.693  1.00  0.00    +0.000 C 
ATOM    118  H24 UNL A   1      12.577  20.590   8.890  1.00  0.00    +0.000 H 
ATOM    119  H25 UNL A   1      12.772  18.435  10.344  1.00  0.00    +0.000 H 
ATOM    120  H26 UNL A   1      16.065  18.618   7.838  1.00  0.00    +0.000 H 
ATOM    121  H27 UNL A   1      21.323  15.926   5.445  1.00  0.00    +0.000 H 
ATOM    122  H28 UNL A   1      21.211  18.104   4.145  1.00  0.00    +0.000 H 
ATOM    123  H29 UNL A   1      17.914  17.961   6.672  1.00  0.00    +0.000 H 
ATOM    124  H30 UNL A   1      18.464  13.774   9.410  1.00  0.00    +0.000 H 
ATOM    125  H31 UNL A   1      16.232  14.360  10.518  1.00  0.00    +0.000 H 
ATOM    126  H32 UNL A   1      15.826  22.959   5.330  1.00  0.00    +0.000 H 
ATOM    127  H33 UNL A   1      17.827  22.208   3.920  1.00  0.00    +0.000 H 
ENDROOT
BRANCH   33   32
ATOM    129  H35 UNL A   1      20.059  20.757   0.402  1.00  0.00    +0.000 H 
ATOM    128  H34 UNL A   1      18.726  19.616   2.076  1.00  0.00    +0.000 H 
ATOM    116  H22 UNL A   1      22.333  22.572   3.437  1.00  0.00    +0.000 H 
ATOM    117  H23 UNL A   1      21.146  21.265   5.102  1.00  0.00    +0.000 H 
ATOM     90  C60 UNL A   1      19.498  20.236   2.367  1.00  0.00    +0.000 C 
ATOM     91  C61 UNL A   1      20.236  20.922   1.405  1.00  0.00    +0.000 C 
ATOM     29  C18 UNL A   1      21.218  21.835   1.800  1.00  0.00    +0.000 C 
ATOM     30  C19 UNL A   1      21.566  21.946   3.150  1.00  0.00    +0.000 C 
ATOM     31  C20 UNL A   1      20.870  21.207   4.110  1.00  0.00    +0.000 C 
ATOM     32  C21 UNL A   1      19.796  20.383   3.731  1.00  0.00    +0.000 C 
BRANCH   29   27
ATOM     27  C17 UNL A   1      21.913  22.695   0.817  1.00  0.00    +0.000 C 
ATOM     28  O5  UNL A   1      22.171  22.254  -0.300  1.00  0.00    +0.000 O 
BRANCH   27   26
ATOM     26  N5  UNL A   1      22.295  23.970   1.156  1.00  0.00    +0.000 N 
ATOM    115  H21 UNL A   1      23.267  24.132   1.142  1.00  0.00    +0.000 H 
BRANCH   26   25
ATOM     25  C16 UNL A   1      21.484  25.115   1.531  1.00  0.00    +0.000 C 
ATOM    114  H20 UNL A   1      21.152  24.959   2.536  1.00  0.00    +0.000 H 
ATOM    113  H19 UNL A   1      20.663  25.192   0.848  1.00  0.00    +0.000 H 
BRANCH   25   24
ATOM    112  H18 UNL A   1      22.566  26.562   0.487  1.00  0.00    +0.000 H 
ATOM    111  H17 UNL A   1      23.075  26.340   2.195  1.00  0.00    +0.000 H 
ATOM     24  C15 UNL A   1      22.263  26.428   1.504  1.00  0.00    +0.000 C 
BRANCH   24   23
ATOM    109  H15 UNL A   1      20.748  27.849   1.095  1.00  0.00    +0.000 H 
ATOM    110  H16 UNL A   1      21.049  27.486   2.832  1.00  0.00    +0.000 H 
ATOM     23  C14 UNL A   1      21.469  27.684   1.868  1.00  0.00    +0.000 C 
BRANCH   23   22
ATOM    107  H13 UNL A   1      21.686  29.653   2.618  1.00  0.00    +0.000 H 
ATOM    108  H14 UNL A   1      23.194  28.678   2.494  1.00  0.00    +0.000 H 
ATOM     22  C13 UNL A   1      22.274  28.976   2.035  1.00  0.00    +0.000 C 
BRANCH   22   21
ATOM    105  H11 UNL A   1      23.517  30.324   0.981  1.00  0.00    +0.000 H 
ATOM    106  H12 UNL A   1      22.880  28.924   0.043  1.00  0.00    +0.000 H 
ATOM     21  C12 UNL A   1      22.679  29.699   0.752  1.00  0.00    +0.000 C 
BRANCH   21   20
ATOM     20  C11 UNL A   1      21.616  30.575   0.098  1.00  0.00    +0.000 C 
ATOM    103  H9  UNL A   1      20.655  30.176   0.345  1.00  0.00    +0.000 H 
ATOM    104  H10 UNL A   1      21.764  31.567   0.472  1.00  0.00    +0.000 H 
BRANCH   20   19
ATOM     19  N4  UNL A   1      21.715  30.659  -1.350  1.00  0.00    +0.000 N 
ATOM    102  H8  UNL A   1      22.302  31.376  -1.681  1.00  0.00    +0.000 H 
BRANCH   19   17
ATOM     17  C10 UNL A   1      21.122  29.900  -2.336  1.00  0.00    +0.000 C 
ATOM     18  O4  UNL A   1      20.553  30.469  -3.270  1.00  0.00    +0.000 O 
BRANCH   17   16
ATOM    130  H36 UNL A   1      19.164  28.019  -2.149  1.00  0.00    +0.000 H 
ATOM     99  H5  UNL A   1      21.628  24.629  -1.970  1.00  0.00    +0.000 H 
ATOM    100  H6  UNL A   1      23.507  25.982  -2.701  1.00  0.00    +0.000 H 
ATOM     11  C5  UNL A   1      20.254  26.229  -1.895  1.00  0.00    +0.000 C 
ATOM     12  C6  UNL A   1      21.507  25.645  -2.106  1.00  0.00    +0.000 C 
ATOM     13  C7  UNL A   1      22.599  26.426  -2.498  1.00  0.00    +0.000 C 
ATOM     14  C8  UNL A   1      22.456  27.808  -2.613  1.00  0.00    +0.000 C 
ATOM     16  C9  UNL A   1      21.218  28.418  -2.375  1.00  0.00    +0.000 C 
ATOM     92  C62 UNL A   1      20.109  27.602  -2.140  1.00  0.00    +0.000 C 
BRANCH   11   10
ATOM     10  N3  UNL A   1      19.196  25.443  -1.374  1.00  0.00    +0.000 N 
BRANCH   10    9
ATOM      9  N2  UNL A   1      19.524  24.232  -1.380  1.00  0.00    +0.000 N 
BRANCH    9    8
ATOM     97  H3  UNL A   1      16.869  20.566  -1.163  1.00  0.00    +0.000 H 
ATOM     98  H4  UNL A   1      18.608  21.916  -2.190  1.00  0.00    +0.000 H 
ATOM    131  H37 UNL A   1      18.327  24.692   0.955  1.00  0.00    +0.000 H 
ATOM    132  H38 UNL A   1      16.577  23.358   1.982  1.00  0.00    +0.000 H 
ATOM      5  C1  UNL A   1      16.594  21.867   0.483  1.00  0.00    +0.000 C 
ATOM      6  C2  UNL A   1      17.176  21.444  -0.714  1.00  0.00    +0.000 C 
ATOM      7  C3  UNL A   1      18.182  22.221  -1.301  1.00  0.00    +0.000 C 
ATOM      8  C4  UNL A   1      18.617  23.408  -0.696  1.00  0.00    +0.000 C 
ATOM     93  C63 UNL A   1      18.019  23.817   0.504  1.00  0.00    +0.000 C 
ATOM     94  C64 UNL A   1      17.010  23.051   1.097  1.00  0.00    +0.000 C 
BRANCH    5    2
ATOM      2  S1  UNL A   1      15.302  20.908   1.220  1.00  0.00    +0.000 S 
ATOM      3  O1  UNL A   1      14.497  20.321   0.177  1.00  0.00    +0.000 O 
ATOM      4  O2  UNL A   1      14.739  21.667   2.314  1.00  0.00    +0.000 O 
BRANCH    2    1
ATOM      1  N1  UNL A   1      16.129  19.618   1.915  1.00  0.00    +0.000 N 
ATOM     95  H1  UNL A   1      16.281  18.895   1.212  1.00  0.00    +0.000 H 
ATOM     96  H2  UNL A   1      15.580  19.236   2.684  1.00  0.00    +0.000 H 
ENDBRANCH    2    1
ENDBRANCH    5    2
ENDBRANCH    9    8
ENDBRANCH   10    9
ENDBRANCH   11   10
BRANCH   14   15
ATOM    101  H7  UNL A   1      23.804  29.293  -2.489  1.00  0.00    +0.000 H 
ATOM     15  O3  UNL A   1      23.581  28.512  -2.955  1.00  0.00    +0.000 O 
ENDBRANCH   14   15
ENDBRANCH   17   16
ENDBRANCH   19   17
ENDBRANCH   20   19
ENDBRANCH   21   20
ENDBRANCH   22   21
ENDBRANCH   23   22
ENDBRANCH   24   23
ENDBRANCH   25   24
ENDBRANCH   26   25
ENDBRANCH   27   26
ENDBRANCH   29   27
ENDBRANCH   33   32
BRANCH   37   38
ATOM     38  C26 UNL A   1      13.977  22.267   7.083  1.00  0.00    +0.000 C 
ATOM     39  C27 UNL A   1      13.012  22.431   6.078  1.00  0.00    +0.000 C 
ATOM     40  F1  UNL A   1      12.887  21.517   5.105  1.00  0.00    +0.000 F 
ATOM     41  C28 UNL A   1      12.191  23.556   6.051  1.00  0.00    +0.000 C 
ATOM     42  F2  UNL A   1      11.306  23.714   5.055  1.00  0.00    +0.000 F 
ATOM     43  C29 UNL A   1      12.293  24.518   7.044  1.00  0.00    +0.000 C 
ATOM     44  F3  UNL A   1      11.494  25.594   7.022  1.00  0.00    +0.000 F 
ATOM     45  C30 UNL A   1      13.227  24.367   8.058  1.00  0.00    +0.000 C 
ATOM     46  F4  UNL A   1      13.318  25.287   9.027  1.00  0.00    +0.000 F 
ATOM     47  C31 UNL A   1      14.071  23.259   8.070  1.00  0.00    +0.000 C 
ATOM     48  F5  UNL A   1      14.973  23.148   9.057  1.00  0.00    +0.000 F 
ENDBRANCH   37   38
BRANCH   54   55
ATOM     65  F10 UNL A   1      13.084  14.881   9.211  1.00  0.00    +0.000 F 
ATOM     55  C37 UNL A   1      14.319  16.115  10.827  1.00  0.00    +0.000 C 
ATOM     56  C38 UNL A   1      14.525  16.399  12.186  1.00  0.00    +0.000 C 
ATOM     57  F6  UNL A   1      15.475  17.271  12.557  1.00  0.00    +0.000 F 
ATOM     58  C39 UNL A   1      13.783  15.754  13.172  1.00  0.00    +0.000 C 
ATOM     59  F7  UNL A   1      14.032  16.002  14.465  1.00  0.00    +0.000 F 
ATOM     60  C40 UNL A   1      12.798  14.844  12.820  1.00  0.00    +0.000 C 
ATOM     61  F8  UNL A   1      12.078  14.230  13.770  1.00  0.00    +0.000 F 
ATOM     62  C41 UNL A   1      12.563  14.565  11.482  1.00  0.00    +0.000 C 
ATOM     63  F9  UNL A   1      11.600  13.697  11.138  1.00  0.00    +0.000 F 
ATOM     64  C42 UNL A   1      13.325  15.182  10.495  1.00  0.00    +0.000 C 
ENDBRANCH   54   55
BRANCH   69   70
ATOM     70  C46 UNL A   1      20.204  14.471   7.475  1.00  0.00    +0.000 C 
ATOM     71  C47 UNL A   1      21.316  14.527   8.327  1.00  0.00    +0.000 C 
ATOM     72  F11 UNL A   1      21.543  15.628   9.058  1.00  0.00    +0.000 F 
ATOM     73  C48 UNL A   1      22.221  13.471   8.399  1.00  0.00    +0.000 C 
ATOM     74  F12 UNL A   1      23.301  13.571   9.186  1.00  0.00    +0.000 F 
ATOM     75  C49 UNL A   1      22.015  12.325   7.647  1.00  0.00    +0.000 C 
ATOM     76  F13 UNL A   1      22.882  11.305   7.722  1.00  0.00    +0.000 F 
ATOM     77  C50 UNL A   1      20.911  12.238   6.813  1.00  0.00    +0.000 C 
ATOM     78  F14 UNL A   1      20.695  11.123   6.100  1.00  0.00    +0.000 F 
ATOM     79  C51 UNL A   1      20.022  13.305   6.715  1.00  0.00    +0.000 C 
ATOM     80  F15 UNL A   1      18.969  13.198   5.891  1.00  0.00    +0.000 F 
ENDBRANCH   69   70
TORSDOF 21
ENDMDL
MODEL 7
REMARK VINA RESULT:      -9.9     35.972     40.381
ROOT
ATOM     33  C22 UNL A   1      10.865   2.808  21.466  1.00  0.00    +0.000 C 
ATOM     34  C23 UNL A   1       9.877   3.700  22.163  1.00  0.00    +0.000 C 
ATOM     35  N6  UNL A   1       9.391   4.853  21.777  1.00  0.00    +0.000 N 
ATOM     36  C24 UNL A   1       8.498   5.238  22.769  1.00  0.00    +0.000 C 
ATOM     37  C25 UNL A   1       7.783   6.385  22.862  1.00  0.00    +0.000 C 
ATOM     49  C32 UNL A   1       7.828   7.452  21.894  1.00  0.00    +0.000 C 
ATOM     50  C33 UNL A   1       7.192   8.680  21.933  1.00  0.00    +0.000 C 
ATOM     51  C34 UNL A   1       7.473   9.358  20.742  1.00  0.00    +0.000 C 
ATOM     52  C35 UNL A   1       8.333   8.578  19.986  1.00  0.00    +0.000 C 
ATOM     53  N7  UNL A   1       8.546   7.413  20.707  1.00  0.00    +0.000 N 
ATOM     54  C36 UNL A   1       8.915   8.872  18.701  1.00  0.00    +0.000 C 
ATOM     66  C43 UNL A   1       9.786   8.068  18.044  1.00  0.00    +0.000 C 
ATOM     67  N8  UNL A   1      10.290   6.831  18.424  1.00  0.00    +0.000 N 
ATOM     68  C44 UNL A   1      11.076   6.448  17.447  1.00  0.00    +0.000 C 
ATOM     69  C45 UNL A   1      11.901   5.196  17.330  1.00  0.00    +0.000 C 
ATOM     81  C52 UNL A   1      11.881   4.300  18.335  1.00  0.00    +0.000 C 
ATOM     82  C53 UNL A   1      12.625   3.045  18.360  1.00  0.00    +0.000 C 
ATOM     83  C54 UNL A   1      12.315   2.375  19.481  1.00  0.00    +0.000 C 
ATOM     84  C55 UNL A   1      11.382   3.175  20.277  1.00  0.00    +0.000 C 
ATOM     85  N9  UNL A   1      11.190   4.306  19.523  1.00  0.00    +0.000 N 
ATOM     86  C56 UNL A   1      11.141   7.392  16.322  1.00  0.00    +0.000 C 
ATOM     87  C57 UNL A   1      10.370   8.380  16.757  1.00  0.00    +0.000 C 
ATOM     88  C58 UNL A   1       8.470   4.171  23.748  1.00  0.00    +0.000 C 
ATOM     89  C59 UNL A   1       9.348   3.224  23.449  1.00  0.00    +0.000 C 
ATOM    118  H24 UNL A   1       6.609   9.034  22.708  1.00  0.00    +0.000 H 
ATOM    119  H25 UNL A   1       7.102  10.283  20.473  1.00  0.00    +0.000 H 
ATOM    120  H26 UNL A   1       9.121   6.668  20.417  1.00  0.00    +0.000 H 
ATOM    121  H27 UNL A   1      13.284   2.725  17.634  1.00  0.00    +0.000 H 
ATOM    122  H28 UNL A   1      12.677   1.444  19.740  1.00  0.00    +0.000 H 
ATOM    123  H29 UNL A   1      10.613   5.051  19.807  1.00  0.00    +0.000 H 
ATOM    124  H30 UNL A   1      11.652   7.308  15.430  1.00  0.00    +0.000 H 
ATOM    125  H31 UNL A   1      10.208   9.259  16.241  1.00  0.00    +0.000 H 
ATOM    126  H32 UNL A   1       7.847   4.151  24.569  1.00  0.00    +0.000 H 
ATOM    127  H33 UNL A   1       9.595   2.375  23.981  1.00  0.00    +0.000 H 
ENDROOT
BRANCH   33   32
ATOM    129  H35 UNL A   1      13.582   0.004  23.913  1.00  0.00    +0.000 H 
ATOM    128  H34 UNL A   1      13.027   2.143  22.914  1.00  0.00    +0.000 H 
ATOM    116  H22 UNL A   1      10.008  -1.631  22.418  1.00  0.00    +0.000 H 
ATOM    117  H23 UNL A   1       9.559   0.441  21.238  1.00  0.00    +0.000 H 
ATOM     90  C60 UNL A   1      12.388   1.340  22.800  1.00  0.00    +0.000 C 
ATOM     91  C61 UNL A   1      12.690   0.123  23.408  1.00  0.00    +0.000 C 
ATOM     29  C18 UNL A   1      11.781  -0.936  23.335  1.00  0.00    +0.000 C 
ATOM     30  C19 UNL A   1      10.647  -0.828  22.524  1.00  0.00    +0.000 C 
ATOM     31  C20 UNL A   1      10.379   0.371  21.859  1.00  0.00    +0.000 C 
ATOM     32  C21 UNL A   1      11.222   1.482  22.032  1.00  0.00    +0.000 C 
BRANCH   29   27
ATOM     27  C17 UNL A   1      11.992  -2.188  24.096  1.00  0.00    +0.000 C 
ATOM     28  O5  UNL A   1      11.257  -3.151  23.893  1.00  0.00    +0.000 O 
BRANCH   27   26
ATOM     26  N5  UNL A   1      12.983  -2.267  25.043  1.00  0.00    +0.000 N 
ATOM    115  H21 UNL A   1      13.902  -2.260  24.687  1.00  0.00    +0.000 H 
BRANCH   26   25
ATOM     25  C16 UNL A   1      12.883  -2.360  26.489  1.00  0.00    +0.000 C 
ATOM    114  H20 UNL A   1      13.837  -2.094  26.895  1.00  0.00    +0.000 H 
ATOM    113  H19 UNL A   1      12.605  -3.361  26.749  1.00  0.00    +0.000 H 
BRANCH   25   24
ATOM    112  H18 UNL A   1      11.402  -0.912  26.235  1.00  0.00    +0.000 H 
ATOM    111  H17 UNL A   1      12.361  -0.740  27.744  1.00  0.00    +0.000 H 
ATOM     24  C15 UNL A   1      11.850  -1.400  27.075  1.00  0.00    +0.000 C 
BRANCH   24   23
ATOM    109  H15 UNL A   1      10.737  -3.102  27.663  1.00  0.00    +0.000 H 
ATOM    110  H16 UNL A   1      10.840  -1.765  28.864  1.00  0.00    +0.000 H 
ATOM     23  C14 UNL A   1      10.696  -2.048  27.842  1.00  0.00    +0.000 C 
BRANCH   23   22
ATOM    107  H13 UNL A   1       8.721  -1.516  28.391  1.00  0.00    +0.000 H 
ATOM    108  H14 UNL A   1       9.423  -0.632  26.989  1.00  0.00    +0.000 H 
ATOM     22  C13 UNL A   1       9.286  -1.571  27.484  1.00  0.00    +0.000 C 
BRANCH   22   21
ATOM    105  H11 UNL A   1       8.641  -2.025  25.522  1.00  0.00    +0.000 H 
ATOM    106  H12 UNL A   1       8.884  -3.426  26.627  1.00  0.00    +0.000 H 
ATOM     21  C12 UNL A   1       8.501  -2.436  26.500  1.00  0.00    +0.000 C 
BRANCH   21   20
ATOM     20  C11 UNL A   1       7.000  -2.552  26.740  1.00  0.00    +0.000 C 
ATOM    103  H9  UNL A   1       6.777  -3.571  26.978  1.00  0.00    +0.000 H 
ATOM    104  H10 UNL A   1       6.763  -1.877  27.536  1.00  0.00    +0.000 H 
BRANCH   20   19
ATOM     19  N4  UNL A   1       6.178  -2.160  25.606  1.00  0.00    +0.000 N 
ATOM    102  H8  UNL A   1       5.405  -2.745  25.437  1.00  0.00    +0.000 H 
BRANCH   19   17
ATOM     17  C10 UNL A   1       6.304  -1.105  24.729  1.00  0.00    +0.000 C 
ATOM     18  O4  UNL A   1       6.370  -1.336  23.519  1.00  0.00    +0.000 O 
BRANCH   17   16
ATOM    130  H36 UNL A   1       8.334   0.535  25.502  1.00  0.00    +0.000 H 
ATOM     99  H5  UNL A   1       6.006   3.784  26.772  1.00  0.00    +0.000 H 
ATOM    100  H6  UNL A   1       4.081   2.816  25.654  1.00  0.00    +0.000 H 
ATOM     11  C5  UNL A   1       7.314   2.191  26.322  1.00  0.00    +0.000 C 
ATOM     12  C6  UNL A   1       6.088   2.862  26.317  1.00  0.00    +0.000 C 
ATOM     13  C7  UNL A   1       4.969   2.293  25.699  1.00  0.00    +0.000 C 
ATOM     14  C8  UNL A   1       5.057   1.017  25.145  1.00  0.00    +0.000 C 
ATOM     16  C9  UNL A   1       6.268   0.313  25.169  1.00  0.00    +0.000 C 
ATOM     92  C62 UNL A   1       7.406   0.964  25.648  1.00  0.00    +0.000 C 
BRANCH   11   10
ATOM     10  N3  UNL A   1       8.398   2.723  27.064  1.00  0.00    +0.000 N 
BRANCH   10    9
ATOM      9  N2  UNL A   1       9.379   1.945  27.001  1.00  0.00    +0.000 N 
BRANCH    9    8
ATOM     97  H3  UNL A   1      13.906   2.123  27.122  1.00  0.00    +0.000 H 
ATOM     98  H4  UNL A   1      11.799   1.326  26.212  1.00  0.00    +0.000 H 
ATOM    131  H37 UNL A   1       9.697   3.833  28.854  1.00  0.00    +0.000 H 
ATOM    132  H38 UNL A   1      11.797   4.624  29.780  1.00  0.00    +0.000 H 
ATOM      5  C1  UNL A   1      13.003   3.429  28.521  1.00  0.00    +0.000 C 
ATOM      6  C2  UNL A   1      13.012   2.484  27.492  1.00  0.00    +0.000 C 
ATOM      7  C3  UNL A   1      11.797   2.030  26.966  1.00  0.00    +0.000 C 
ATOM      8  C4  UNL A   1      10.577   2.522  27.451  1.00  0.00    +0.000 C 
ATOM     93  C63 UNL A   1      10.589   3.468  28.485  1.00  0.00    +0.000 C 
ATOM     94  C64 UNL A   1      11.797   3.925  29.021  1.00  0.00    +0.000 C 
BRANCH    5    2
ATOM      2  S1  UNL A   1      14.533   3.989  29.214  1.00  0.00    +0.000 S 
ATOM      3  O1  UNL A   1      14.710   5.385  28.895  1.00  0.00    +0.000 O 
ATOM      4  O2  UNL A   1      15.543   2.989  28.955  1.00  0.00    +0.000 O 
BRANCH    2    1
ATOM      1  N1  UNL A   1      14.241   3.951  30.871  1.00  0.00    +0.000 N 
ATOM     95  H1  UNL A   1      15.094   3.680  31.360  1.00  0.00    +0.000 H 
ATOM     96  H2  UNL A   1      13.504   3.276  31.071  1.00  0.00    +0.000 H 
ENDBRANCH    2    1
ENDBRANCH    5    2
ENDBRANCH    9    8
ENDBRANCH   10    9
ENDBRANCH   11   10
BRANCH   14   15
ATOM    101  H7  UNL A   1       3.642  -0.368  24.803  1.00  0.00    +0.000 H 
ATOM     15  O3  UNL A   1       3.908   0.507  24.600  1.00  0.00    +0.000 O 
ENDBRANCH   14   15
ENDBRANCH   17   16
ENDBRANCH   19   17
ENDBRANCH   20   19
ENDBRANCH   21   20
ENDBRANCH   22   21
ENDBRANCH   23   22
ENDBRANCH   24   23
ENDBRANCH   25   24
ENDBRANCH   26   25
ENDBRANCH   27   26
ENDBRANCH   29   27
ENDBRANCH   33   32
BRANCH   37   38
ATOM     38  C26 UNL A   1       6.879   6.552  24.051  1.00  0.00    +0.000 C 
ATOM     39  C27 UNL A   1       5.608   5.960  24.099  1.00  0.00    +0.000 C 
ATOM     40  F1  UNL A   1       5.142   5.274  23.046  1.00  0.00    +0.000 F 
ATOM     41  C28 UNL A   1       4.795   6.101  25.221  1.00  0.00    +0.000 C 
ATOM     42  F2  UNL A   1       3.565   5.566  25.226  1.00  0.00    +0.000 F 
ATOM     43  C29 UNL A   1       5.248   6.803  26.327  1.00  0.00    +0.000 C 
ATOM     44  F3  UNL A   1       4.468   6.927  27.410  1.00  0.00    +0.000 F 
ATOM     45  C30 UNL A   1       6.509   7.380  26.310  1.00  0.00    +0.000 C 
ATOM     46  F4  UNL A   1       6.956   8.045  27.383  1.00  0.00    +0.000 F 
ATOM     47  C31 UNL A   1       7.312   7.267  25.177  1.00  0.00    +0.000 C 
ATOM     48  F5  UNL A   1       8.522   7.847  25.186  1.00  0.00    +0.000 F 
ENDBRANCH   37   38
BRANCH   54   55
ATOM     65  F10 UNL A   1       6.695   9.168  16.944  1.00  0.00    +0.000 F 
ATOM     55  C37 UNL A   1       8.550  10.173  18.045  1.00  0.00    +0.000 C 
ATOM     56  C38 UNL A   1       9.312  11.334  18.245  1.00  0.00    +0.000 C 
ATOM     57  F6  UNL A   1      10.362  11.317  19.080  1.00  0.00    +0.000 F 
ATOM     58  C39 UNL A   1       8.970  12.532  17.621  1.00  0.00    +0.000 C 
ATOM     59  F7  UNL A   1       9.681  13.640  17.868  1.00  0.00    +0.000 F 
ATOM     60  C40 UNL A   1       7.887  12.582  16.756  1.00  0.00    +0.000 C 
ATOM     61  F8  UNL A   1       7.564  13.732  16.149  1.00  0.00    +0.000 F 
ATOM     62  C41 UNL A   1       7.133  11.440  16.527  1.00  0.00    +0.000 C 
ATOM     63  F9  UNL A   1       6.095  11.483  15.680  1.00  0.00    +0.000 F 
ATOM     64  C42 UNL A   1       7.452  10.251  17.175  1.00  0.00    +0.000 C 
ENDBRANCH   54   55
BRANCH   69   70
ATOM     70  C46 UNL A   1      12.734   4.940  16.125  1.00  0.00    +0.000 C 
ATOM     71  C47 UNL A   1      14.060   5.391  16.056  1.00  0.00    +0.000 C 
ATOM     72  F11 UNL A   1      14.588   6.076  17.080  1.00  0.00    +0.000 F 
ATOM     73  C48 UNL A   1      14.834   5.177  14.918  1.00  0.00    +0.000 C 
ATOM     74  F12 UNL A   1      16.083   5.660  14.860  1.00  0.00    +0.000 F 
ATOM     75  C49 UNL A   1      14.310   4.478  13.841  1.00  0.00    +0.000 C 
ATOM     76  F13 UNL A   1      15.058   4.265  12.748  1.00  0.00    +0.000 F 
ATOM     77  C50 UNL A   1      13.008   4.005  13.894  1.00  0.00    +0.000 C 
ATOM     78  F14 UNL A   1      12.503   3.311  12.864  1.00  0.00    +0.000 F 
ATOM     79  C51 UNL A   1      12.222   4.246  15.018  1.00  0.00    +0.000 C 
ATOM     80  F15 UNL A   1      10.962   3.787  15.037  1.00  0.00    +0.000 F 
ENDBRANCH   69   70
TORSDOF 21
ENDMDL
MODEL 8
REMARK VINA RESULT:      -9.9     20.607     28.739
ROOT
ATOM     33  C22 UNL A   1      24.442  39.465  47.129  1.00  0.00    +0.000 C 
ATOM     34  C23 UNL A   1      23.638  40.466  47.909  1.00  0.00    +0.000 C 
ATOM     35  N6  UNL A   1      22.435  40.347  48.411  1.00  0.00    +0.000 N 
ATOM     36  C24 UNL A   1      22.177  41.547  49.060  1.00  0.00    +0.000 C 
ATOM     37  C25 UNL A   1      21.041  41.940  49.687  1.00  0.00    +0.000 C 
ATOM     49  C32 UNL A   1      19.851  41.134  49.794  1.00  0.00    +0.000 C 
ATOM     50  C33 UNL A   1      18.630  41.469  50.352  1.00  0.00    +0.000 C 
ATOM     51  C34 UNL A   1      17.798  40.346  50.292  1.00  0.00    +0.000 C 
ATOM     52  C35 UNL A   1      18.479  39.329  49.644  1.00  0.00    +0.000 C 
ATOM     53  N7  UNL A   1      19.737  39.828  49.341  1.00  0.00    +0.000 N 
ATOM     54  C36 UNL A   1      18.020  38.001  49.328  1.00  0.00    +0.000 C 
ATOM     66  C43 UNL A   1      18.740  37.074  48.649  1.00  0.00    +0.000 C 
ATOM     67  N8  UNL A   1      20.026  37.172  48.134  1.00  0.00    +0.000 N 
ATOM     68  C44 UNL A   1      20.283  36.009  47.586  1.00  0.00    +0.000 C 
ATOM     69  C45 UNL A   1      21.521  35.556  46.862  1.00  0.00    +0.000 C 
ATOM     81  C52 UNL A   1      22.547  36.415  46.714  1.00  0.00    +0.000 C 
ATOM     82  C53 UNL A   1      23.806  36.116  46.040  1.00  0.00    +0.000 C 
ATOM     83  C54 UNL A   1      24.620  37.178  46.142  1.00  0.00    +0.000 C 
ATOM     84  C55 UNL A   1      23.923  38.252  46.853  1.00  0.00    +0.000 C 
ATOM     85  N9  UNL A   1      22.695  37.712  47.144  1.00  0.00    +0.000 N 
ATOM     86  C56 UNL A   1      19.194  35.031  47.712  1.00  0.00    +0.000 C 
ATOM     87  C57 UNL A   1      18.262  35.745  48.329  1.00  0.00    +0.000 C 
ATOM     88  C58 UNL A   1      23.368  42.360  48.935  1.00  0.00    +0.000 C 
ATOM     89  C59 UNL A   1      24.280  41.761  48.181  1.00  0.00    +0.000 C 
ATOM    118  H24 UNL A   1      18.377  42.389  50.745  1.00  0.00    +0.000 H 
ATOM    119  H25 UNL A   1      16.838  40.286  50.668  1.00  0.00    +0.000 H 
ATOM    120  H26 UNL A   1      20.445  39.327  48.872  1.00  0.00    +0.000 H 
ATOM    121  H27 UNL A   1      24.034  35.232  45.560  1.00  0.00    +0.000 H 
ATOM    122  H28 UNL A   1      25.584  37.230  45.778  1.00  0.00    +0.000 H 
ATOM    123  H29 UNL A   1      21.986  38.207  47.615  1.00  0.00    +0.000 H 
ATOM    124  H30 UNL A   1      19.162  34.048  47.400  1.00  0.00    +0.000 H 
ATOM    125  H31 UNL A   1      17.317  35.396  48.555  1.00  0.00    +0.000 H 
ATOM    126  H32 UNL A   1      23.491  43.285  49.375  1.00  0.00    +0.000 H 
ATOM    127  H33 UNL A   1      25.199  42.111  47.870  1.00  0.00    +0.000 H 
ENDROOT
BRANCH   33   32
ATOM    129  H35 UNL A   1      29.008  39.191  47.689  1.00  0.00    +0.000 H 
ATOM    128  H34 UNL A   1      26.719  38.785  48.381  1.00  0.00    +0.000 H 
ATOM    116  H22 UNL A   1      27.625  41.098  44.205  1.00  0.00    +0.000 H 
ATOM    117  H23 UNL A   1      25.342  40.887  45.001  1.00  0.00    +0.000 H 
ATOM     90  C60 UNL A   1      26.909  39.284  47.497  1.00  0.00    +0.000 C 
ATOM     91  C61 UNL A   1      28.225  39.481  47.082  1.00  0.00    +0.000 C 
ATOM     29  C18 UNL A   1      28.483  40.072  45.842  1.00  0.00    +0.000 C 
ATOM     30  C19 UNL A   1      27.430  40.605  45.090  1.00  0.00    +0.000 C 
ATOM     31  C20 UNL A   1      26.116  40.468  45.540  1.00  0.00    +0.000 C 
ATOM     32  C21 UNL A   1      25.840  39.762  46.723  1.00  0.00    +0.000 C 
BRANCH   29   27
ATOM     27  C17 UNL A   1      29.856  40.156  45.298  1.00  0.00    +0.000 C 
ATOM     28  O5  UNL A   1      30.022  40.275  44.087  1.00  0.00    +0.000 O 
BRANCH   27   26
ATOM     26  N5  UNL A   1      30.942  40.075  46.135  1.00  0.00    +0.000 N 
ATOM    115  H21 UNL A   1      31.061  40.844  46.739  1.00  0.00    +0.000 H 
BRANCH   26   25
ATOM     25  C16 UNL A   1      31.940  39.028  46.265  1.00  0.00    +0.000 C 
ATOM    114  H20 UNL A   1      32.793  39.455  46.751  1.00  0.00    +0.000 H 
ATOM    113  H19 UNL A   1      32.181  38.662  45.288  1.00  0.00    +0.000 H 
BRANCH   25   24
ATOM    112  H18 UNL A   1      30.787  38.278  47.834  1.00  0.00    +0.000 H 
ATOM    111  H17 UNL A   1      32.325  37.395  47.553  1.00  0.00    +0.000 H 
ATOM     24  C15 UNL A   1      31.462  37.857  47.120  1.00  0.00    +0.000 C 
BRANCH   24   23
ATOM    109  H15 UNL A   1      30.878  35.838  46.861  1.00  0.00    +0.000 H 
ATOM    110  H16 UNL A   1      29.645  37.082  46.448  1.00  0.00    +0.000 H 
ATOM     23  C14 UNL A   1      30.667  36.774  46.386  1.00  0.00    +0.000 C 
BRANCH   23   22
ATOM    107  H13 UNL A   1      31.682  37.346  44.618  1.00  0.00    +0.000 H 
ATOM    108  H14 UNL A   1      31.278  35.598  44.774  1.00  0.00    +0.000 H 
ATOM     22  C13 UNL A   1      30.954  36.612  44.891  1.00  0.00    +0.000 C 
BRANCH   22   21
ATOM    105  H11 UNL A   1      28.871  36.655  44.527  1.00  0.00    +0.000 H 
ATOM    106  H12 UNL A   1      29.885  37.727  43.494  1.00  0.00    +0.000 H 
ATOM     21  C12 UNL A   1      29.763  36.766  43.947  1.00  0.00    +0.000 C 
BRANCH   21   20
ATOM     20  C11 UNL A   1      29.681  35.782  42.785  1.00  0.00    +0.000 C 
ATOM    103  H9  UNL A   1      29.135  36.247  41.991  1.00  0.00    +0.000 H 
ATOM    104  H10 UNL A   1      30.689  35.544  42.514  1.00  0.00    +0.000 H 
BRANCH   20   19
ATOM     19  N4  UNL A   1      29.030  34.523  43.109  1.00  0.00    +0.000 N 
ATOM    102  H8  UNL A   1      29.475  33.725  42.745  1.00  0.00    +0.000 H 
BRANCH   19   17
ATOM     17  C10 UNL A   1      27.893  34.264  43.842  1.00  0.00    +0.000 C 
ATOM     18  O4  UNL A   1      26.797  34.283  43.275  1.00  0.00    +0.000 O 
BRANCH   17   16
ATOM    130  H36 UNL A   1      25.885  34.140  45.675  1.00  0.00    +0.000 H 
ATOM     99  H5  UNL A   1      28.231  33.327  49.055  1.00  0.00    +0.000 H 
ATOM    100  H6  UNL A   1      30.105  32.804  47.602  1.00  0.00    +0.000 H 
ATOM     11  C5  UNL A   1      26.923  33.880  47.494  1.00  0.00    +0.000 C 
ATOM     12  C6  UNL A   1      28.138  33.446  48.034  1.00  0.00    +0.000 C 
ATOM     13  C7  UNL A   1      29.228  33.172  47.202  1.00  0.00    +0.000 C 
ATOM     14  C8  UNL A   1      29.128  33.400  45.830  1.00  0.00    +0.000 C 
ATOM     16  C9  UNL A   1      27.932  33.866  45.272  1.00  0.00    +0.000 C 
ATOM     92  C62 UNL A   1      26.812  33.980  46.099  1.00  0.00    +0.000 C 
BRANCH   11   10
ATOM     10  N3  UNL A   1      25.875  34.276  48.361  1.00  0.00    +0.000 N 
BRANCH   10    9
ATOM      9  N2  UNL A   1      26.186  35.340  48.946  1.00  0.00    +0.000 N 
BRANCH    9    8
ATOM     97  H3  UNL A   1      24.332  38.894  51.060  1.00  0.00    +0.000 H 
ATOM     98  H4  UNL A   1      26.098  37.821  49.782  1.00  0.00    +0.000 H 
ATOM    131  H37 UNL A   1      23.816  34.296  49.570  1.00  0.00    +0.000 H 
ATOM    132  H38 UNL A   1      22.052  35.354  50.859  1.00  0.00    +0.000 H 
ATOM      5  C1  UNL A   1      23.066  37.199  51.056  1.00  0.00    +0.000 C 
ATOM      6  C2  UNL A   1      24.224  37.917  50.746  1.00  0.00    +0.000 C 
ATOM      7  C3  UNL A   1      25.237  37.297  50.005  1.00  0.00    +0.000 C 
ATOM      8  C4  UNL A   1      25.097  35.975  49.563  1.00  0.00    +0.000 C 
ATOM     93  C63 UNL A   1      23.928  35.271  49.885  1.00  0.00    +0.000 C 
ATOM     94  C64 UNL A   1      22.911  35.878  50.628  1.00  0.00    +0.000 C 
BRANCH    5    2
ATOM      2  S1  UNL A   1      21.789  37.962  52.016  1.00  0.00    +0.000 S 
ATOM      3  O1  UNL A   1      20.526  37.343  51.695  1.00  0.00    +0.000 O 
ATOM      4  O2  UNL A   1      21.993  39.392  51.990  1.00  0.00    +0.000 O 
BRANCH    2    1
ATOM      1  N1  UNL A   1      22.137  37.462  53.585  1.00  0.00    +0.000 N 
ATOM     95  H1  UNL A   1      22.188  38.276  54.197  1.00  0.00    +0.000 H 
ATOM     96  H2  UNL A   1      23.030  36.970  53.595  1.00  0.00    +0.000 H 
ENDBRANCH    2    1
ENDBRANCH    5    2
ENDBRANCH    9    8
ENDBRANCH   10    9
ENDBRANCH   11   10
BRANCH   14   15
ATOM    101  H7  UNL A   1      30.541  32.273  44.952  1.00  0.00    +0.000 H 
ATOM     15  O3  UNL A   1      30.253  33.154  45.087  1.00  0.00    +0.000 O 
ENDBRANCH   14   15
ENDBRANCH   17   16
ENDBRANCH   19   17
ENDBRANCH   20   19
ENDBRANCH   21   20
ENDBRANCH   22   21
ENDBRANCH   23   22
ENDBRANCH   24   23
ENDBRANCH   25   24
ENDBRANCH   26   25
ENDBRANCH   27   26
ENDBRANCH   29   27
ENDBRANCH   33   32
BRANCH   37   38
ATOM     38  C26 UNL A   1      21.026  43.304  50.317  1.00  0.00    +0.000 C 
ATOM     39  C27 UNL A   1      21.406  43.504  51.653  1.00  0.00    +0.000 C 
ATOM     40  F1  UNL A   1      21.738  42.458  52.424  1.00  0.00    +0.000 F 
ATOM     41  C28 UNL A   1      21.413  44.779  52.212  1.00  0.00    +0.000 C 
ATOM     42  F2  UNL A   1      21.736  44.940  53.504  1.00  0.00    +0.000 F 
ATOM     43  C29 UNL A   1      21.077  45.881  51.441  1.00  0.00    +0.000 C 
ATOM     44  F3  UNL A   1      21.097  47.109  51.979  1.00  0.00    +0.000 F 
ATOM     45  C30 UNL A   1      20.717  45.710  50.113  1.00  0.00    +0.000 C 
ATOM     46  F4  UNL A   1      20.407  46.774  49.361  1.00  0.00    +0.000 F 
ATOM     47  C31 UNL A   1      20.679  44.433  49.560  1.00  0.00    +0.000 C 
ATOM     48  F5  UNL A   1      20.314  44.299  48.275  1.00  0.00    +0.000 F 
ENDBRANCH   37   38
BRANCH   54   55
ATOM     65  F10 UNL A   1      15.860  37.639  47.510  1.00  0.00    +0.000 F 
ATOM     55  C37 UNL A   1      16.634  37.614  49.760  1.00  0.00    +0.000 C 
ATOM     56  C38 UNL A   1      16.313  37.428  51.113  1.00  0.00    +0.000 C 
ATOM     57  F6  UNL A   1      17.263  37.542  52.054  1.00  0.00    +0.000 F 
ATOM     58  C39 UNL A   1      15.022  37.080  51.501  1.00  0.00    +0.000 C 
ATOM     59  F7  UNL A   1      14.750  36.857  52.794  1.00  0.00    +0.000 F 
ATOM     60  C40 UNL A   1      14.020  36.950  50.551  1.00  0.00    +0.000 C 
ATOM     61  F8  UNL A   1      12.775  36.624  50.927  1.00  0.00    +0.000 F 
ATOM     62  C41 UNL A   1      14.310  37.151  49.210  1.00  0.00    +0.000 C 
ATOM     63  F9  UNL A   1      13.340  37.040  48.291  1.00  0.00    +0.000 F 
ATOM     64  C42 UNL A   1      15.608  37.465  48.815  1.00  0.00    +0.000 C 
ENDBRANCH   54   55
BRANCH   69   70
ATOM     70  C46 UNL A   1      21.621  34.179  46.308  1.00  0.00    +0.000 C 
ATOM     71  C47 UNL A   1      21.191  33.893  45.004  1.00  0.00    +0.000 C 
ATOM     72  F11 UNL A   1      20.669  34.865  44.244  1.00  0.00    +0.000 F 
ATOM     73  C48 UNL A   1      21.259  32.599  44.493  1.00  0.00    +0.000 C 
ATOM     74  F12 UNL A   1      20.798  32.344  43.261  1.00  0.00    +0.000 F 
ATOM     75  C49 UNL A   1      21.788  31.573  45.261  1.00  0.00    +0.000 C 
ATOM     76  F13 UNL A   1      21.860  30.329  44.766  1.00  0.00    +0.000 F 
ATOM     77  C50 UNL A   1      22.238  31.836  46.546  1.00  0.00    +0.000 C 
ATOM     78  F14 UNL A   1      22.769  30.853  47.286  1.00  0.00    +0.000 F 
ATOM     79  C51 UNL A   1      22.141  33.122  47.070  1.00  0.00    +0.000 C 
ATOM     80  F15 UNL A   1      22.573  33.346  48.321  1.00  0.00    +0.000 F 
ENDBRANCH   69   70
TORSDOF 21
ENDMDL
MODEL 9
REMARK VINA RESULT:      -9.8     38.406     43.729
ROOT
ATOM     33  C22 UNL A   1      13.860  53.767   5.212  1.00  0.00    +0.000 C 
ATOM     34  C23 UNL A   1      13.489  52.315   5.116  1.00  0.00    +0.000 C 
ATOM     35  N6  UNL A   1      13.885  51.417   4.250  1.00  0.00    +0.000 N 
ATOM     36  C24 UNL A   1      13.270  50.230   4.627  1.00  0.00    +0.000 C 
ATOM     37  C25 UNL A   1      13.315  49.023   4.012  1.00  0.00    +0.000 C 
ATOM     49  C32 UNL A   1      14.053  48.754   2.803  1.00  0.00    +0.000 C 
ATOM     50  C33 UNL A   1      14.107  47.582   2.070  1.00  0.00    +0.000 C 
ATOM     51  C34 UNL A   1      15.007  47.768   1.014  1.00  0.00    +0.000 C 
ATOM     52  C35 UNL A   1      15.468  49.073   1.054  1.00  0.00    +0.000 C 
ATOM     53  N7  UNL A   1      14.871  49.669   2.156  1.00  0.00    +0.000 N 
ATOM     54  C36 UNL A   1      16.385  49.729   0.158  1.00  0.00    +0.000 C 
ATOM     66  C43 UNL A   1      16.754  51.031   0.244  1.00  0.00    +0.000 C 
ATOM     67  N8  UNL A   1      16.367  51.989   1.171  1.00  0.00    +0.000 N 
ATOM     68  C44 UNL A   1      17.009  53.084   0.846  1.00  0.00    +0.000 C 
ATOM     69  C45 UNL A   1      16.957  54.441   1.492  1.00  0.00    +0.000 C 
ATOM     81  C52 UNL A   1      16.155  54.632   2.557  1.00  0.00    +0.000 C 
ATOM     82  C53 UNL A   1      16.003  55.887   3.285  1.00  0.00    +0.000 C 
ATOM     83  C54 UNL A   1      15.179  55.693   4.325  1.00  0.00    +0.000 C 
ATOM     84  C55 UNL A   1      14.707  54.306   4.313  1.00  0.00    +0.000 C 
ATOM     85  N9  UNL A   1      15.330  53.755   3.221  1.00  0.00    +0.000 N 
ATOM     86  C56 UNL A   1      17.898  52.938  -0.316  1.00  0.00    +0.000 C 
ATOM     87  C57 UNL A   1      17.672  51.680  -0.669  1.00  0.00    +0.000 C 
ATOM     88  C58 UNL A   1      12.516  50.510   5.831  1.00  0.00    +0.000 C 
ATOM     89  C59 UNL A   1      12.571  51.798   6.143  1.00  0.00    +0.000 C 
ATOM    118  H24 UNL A   1      13.576  46.720   2.267  1.00  0.00    +0.000 H 
ATOM    119  H25 UNL A   1      15.280  47.052   0.322  1.00  0.00    +0.000 H 
ATOM    120  H26 UNL A   1      15.008  50.603   2.436  1.00  0.00    +0.000 H 
ATOM    121  H27 UNL A   1      16.456  56.781   3.039  1.00  0.00    +0.000 H 
ATOM    122  H28 UNL A   1      14.918  56.407   5.024  1.00  0.00    +0.000 H 
ATOM    123  H29 UNL A   1      15.198  52.821   2.939  1.00  0.00    +0.000 H 
ATOM    124  H30 UNL A   1      18.530  53.632  -0.744  1.00  0.00    +0.000 H 
ATOM    125  H31 UNL A   1      18.097  51.222  -1.490  1.00  0.00    +0.000 H 
ATOM    126  H32 UNL A   1      12.004  49.799   6.376  1.00  0.00    +0.000 H 
ATOM    127  H33 UNL A   1      12.096  52.303   6.906  1.00  0.00    +0.000 H 
ENDROOT
BRANCH   33   32
ATOM    129  H35 UNL A   1      10.804  56.611   7.162  1.00  0.00    +0.000 H 
ATOM    128  H34 UNL A   1      11.660  55.305   5.307  1.00  0.00    +0.000 H 
ATOM    116  H22 UNL A   1      14.013  55.328   9.558  1.00  0.00    +0.000 H 
ATOM    117  H23 UNL A   1      14.985  54.198   7.643  1.00  0.00    +0.000 H 
ATOM     90  C60 UNL A   1      12.166  55.315   6.207  1.00  0.00    +0.000 C 
ATOM     91  C61 UNL A   1      11.651  56.034   7.283  1.00  0.00    +0.000 C 
ATOM     29  C18 UNL A   1      12.284  55.973   8.528  1.00  0.00    +0.000 C 
ATOM     30  C19 UNL A   1      13.514  55.319   8.655  1.00  0.00    +0.000 C 
ATOM     31  C20 UNL A   1      14.064  54.655   7.557  1.00  0.00    +0.000 C 
ATOM     32  C21 UNL A   1      13.370  54.605   6.337  1.00  0.00    +0.000 C 
BRANCH   29   27
ATOM     27  C17 UNL A   1      11.684  56.594   9.730  1.00  0.00    +0.000 C 
ATOM     28  O5  UNL A   1      11.548  57.813   9.779  1.00  0.00    +0.000 O 
BRANCH   27   26
ATOM     26  N5  UNL A   1      11.306  55.817  10.798  1.00  0.00    +0.000 N 
ATOM    115  H21 UNL A   1      11.647  56.116  11.673  1.00  0.00    +0.000 H 
BRANCH   26   25
ATOM     25  C16 UNL A   1      10.480  54.623  10.834  1.00  0.00    +0.000 C 
ATOM    114  H20 UNL A   1       9.804  54.674  10.006  1.00  0.00    +0.000 H 
ATOM    113  H19 UNL A   1       9.961  54.595  11.770  1.00  0.00    +0.000 H 
BRANCH   25   24
ATOM    112  H18 UNL A   1      11.067  52.756  11.558  1.00  0.00    +0.000 H 
ATOM    111  H17 UNL A   1      12.320  53.609  10.596  1.00  0.00    +0.000 H 
ATOM     24  C15 UNL A   1      11.290  53.337  10.688  1.00  0.00    +0.000 C 
BRANCH   24   23
ATOM    109  H15 UNL A   1      11.664  52.612   8.734  1.00  0.00    +0.000 H 
ATOM    110  H16 UNL A   1      10.900  51.453   9.880  1.00  0.00    +0.000 H 
ATOM     23  C14 UNL A   1      10.928  52.451   9.494  1.00  0.00    +0.000 C 
BRANCH   23   22
ATOM    107  H13 UNL A   1       8.960  51.809   9.047  1.00  0.00    +0.000 H 
ATOM    108  H14 UNL A   1       9.179  53.575   9.321  1.00  0.00    +0.000 H 
ATOM     22  C13 UNL A   1       9.552  52.682   8.865  1.00  0.00    +0.000 C 
BRANCH   22   21
ATOM    105  H11 UNL A   1       9.635  54.010   7.221  1.00  0.00    +0.000 H 
ATOM    106  H12 UNL A   1      10.319  52.365   6.954  1.00  0.00    +0.000 H 
ATOM     21  C12 UNL A   1       9.525  52.955   7.362  1.00  0.00    +0.000 C 
BRANCH   21   20
ATOM     20  C11 UNL A   1       8.273  52.518   6.610  1.00  0.00    +0.000 C 
ATOM    103  H9  UNL A   1       7.458  53.131   6.934  1.00  0.00    +0.000 H 
ATOM    104  H10 UNL A   1       8.488  52.628   5.567  1.00  0.00    +0.000 H 
BRANCH   20   19
ATOM     19  N4  UNL A   1       7.906  51.127   6.815  1.00  0.00    +0.000 N 
ATOM    102  H8  UNL A   1       7.024  50.991   7.231  1.00  0.00    +0.000 H 
BRANCH   19   17
ATOM     17  C10 UNL A   1       8.587  49.966   6.520  1.00  0.00    +0.000 C 
ATOM     18  O4  UNL A   1       9.193  49.882   5.449  1.00  0.00    +0.000 O 
BRANCH   17   16
ATOM    130  H36 UNL A   1       9.934  49.814   8.881  1.00  0.00    +0.000 H 
ATOM     99  H5  UNL A   1       9.366  45.723   9.612  1.00  0.00    +0.000 H 
ATOM    100  H6  UNL A   1       7.655  45.674   7.891  1.00  0.00    +0.000 H 
ATOM     11  C5  UNL A   1       9.873  47.752   9.325  1.00  0.00    +0.000 C 
ATOM     12  C6  UNL A   1       9.171  46.572   9.059  1.00  0.00    +0.000 C 
ATOM     13  C7  UNL A   1       8.205  46.532   8.048  1.00  0.00    +0.000 C 
ATOM     14  C8  UNL A   1       7.989  47.656   7.251  1.00  0.00    +0.000 C 
ATOM     16  C9  UNL A   1       8.705  48.838   7.479  1.00  0.00    +0.000 C 
ATOM     92  C62 UNL A   1       9.546  48.902   8.592  1.00  0.00    +0.000 C 
BRANCH   11   10
ATOM     10  N3  UNL A   1      10.935  47.736  10.263  1.00  0.00    +0.000 N 
BRANCH   10    9
ATOM      9  N2  UNL A   1      11.948  47.204   9.749  1.00  0.00    +0.000 N 
BRANCH    9    8
ATOM     97  H3  UNL A   1      14.115  51.084  10.636  1.00  0.00    +0.000 H 
ATOM     98  H4  UNL A   1      12.115  49.714  10.482  1.00  0.00    +0.000 H 
ATOM    131  H37 UNL A   1      14.464  46.384   9.446  1.00  0.00    +0.000 H 
ATOM    132  H38 UNL A   1      16.468  47.748   9.583  1.00  0.00    +0.000 H 
ATOM      5  C1  UNL A   1      15.437  49.516  10.116  1.00  0.00    +0.000 C 
ATOM      6  C2  UNL A   1      14.189  50.087  10.381  1.00  0.00    +0.000 C 
ATOM      7  C3  UNL A   1      13.039  49.293  10.296  1.00  0.00    +0.000 C 
ATOM      8  C4  UNL A   1      13.127  47.935   9.962  1.00  0.00    +0.000 C 
ATOM     93  C63 UNL A   1      14.388  47.381   9.699  1.00  0.00    +0.000 C 
ATOM     94  C64 UNL A   1      15.543  48.164   9.776  1.00  0.00    +0.000 C 
BRANCH    5    2
ATOM      2  S1  UNL A   1      16.896  50.515  10.191  1.00  0.00    +0.000 S 
ATOM      3  O1  UNL A   1      18.055  49.657  10.159  1.00  0.00    +0.000 O 
ATOM      4  O2  UNL A   1      16.698  51.532  11.198  1.00  0.00    +0.000 O 
BRANCH    2    1
ATOM      1  N1  UNL A   1      16.896  51.308   8.708  1.00  0.00    +0.000 N 
ATOM     95  H1  UNL A   1      15.950  51.623   8.491  1.00  0.00    +0.000 H 
ATOM     96  H2  UNL A   1      17.218  50.671   7.981  1.00  0.00    +0.000 H 
ENDBRANCH    2    1
ENDBRANCH    5    2
ENDBRANCH    9    8
ENDBRANCH   10    9
ENDBRANCH   11   10
BRANCH   14   15
ATOM    101  H7  UNL A   1       7.301  47.117   5.442  1.00  0.00    +0.000 H 
ATOM     15  O3  UNL A   1       7.062  47.525   6.251  1.00  0.00    +0.000 O 
ENDBRANCH   14   15
ENDBRANCH   17   16
ENDBRANCH   19   17
ENDBRANCH   20   19
ENDBRANCH   21   20
ENDBRANCH   22   21
ENDBRANCH   23   22
ENDBRANCH   24   23
ENDBRANCH   25   24
ENDBRANCH   26   25
ENDBRANCH   27   26
ENDBRANCH   29   27
ENDBRANCH   33   32
BRANCH   37   38
ATOM     38  C26 UNL A   1      12.551  47.890   4.637  1.00  0.00    +0.000 C 
ATOM     39  C27 UNL A   1      13.037  47.205   5.761  1.00  0.00    +0.000 C 
ATOM     40  F1  UNL A   1      14.238  47.511   6.273  1.00  0.00    +0.000 F 
ATOM     41  C28 UNL A   1      12.301  46.176   6.345  1.00  0.00    +0.000 C 
ATOM     42  F2  UNL A   1      12.806  45.504   7.390  1.00  0.00    +0.000 F 
ATOM     43  C29 UNL A   1      11.055  45.837   5.842  1.00  0.00    +0.000 C 
ATOM     44  F3  UNL A   1      10.344  44.854   6.413  1.00  0.00    +0.000 F 
ATOM     45  C30 UNL A   1      10.546  46.514   4.743  1.00  0.00    +0.000 C 
ATOM     46  F4  UNL A   1       9.336  46.199   4.264  1.00  0.00    +0.000 F 
ATOM     47  C31 UNL A   1      11.293  47.522   4.138  1.00  0.00    +0.000 C 
ATOM     48  F5  UNL A   1      10.779  48.149   3.069  1.00  0.00    +0.000 F 
ENDBRANCH   37   38
BRANCH   54   55
ATOM     65  F10 UNL A   1      18.806  48.248   0.379  1.00  0.00    +0.000 F 
ATOM     55  C37 UNL A   1      16.965  48.923  -0.969  1.00  0.00    +0.000 C 
ATOM     56  C38 UNL A   1      16.346  48.873  -2.228  1.00  0.00    +0.000 C 
ATOM     57  F6  UNL A   1      15.183  49.508  -2.435  1.00  0.00    +0.000 F 
ATOM     58  C39 UNL A   1      16.900  48.131  -3.268  1.00  0.00    +0.000 C 
ATOM     59  F7  UNL A   1      16.266  48.055  -4.446  1.00  0.00    +0.000 F 
ATOM     60  C40 UNL A   1      18.099  47.460  -3.084  1.00  0.00    +0.000 C 
ATOM     61  F8  UNL A   1      18.636  46.754  -4.089  1.00  0.00    +0.000 F 
ATOM     62  C41 UNL A   1      18.739  47.514  -1.854  1.00  0.00    +0.000 C 
ATOM     63  F9  UNL A   1      19.906  46.877  -1.678  1.00  0.00    +0.000 F 
ATOM     64  C42 UNL A   1      18.171  48.226  -0.802  1.00  0.00    +0.000 C 
ENDBRANCH   54   55
BRANCH   69   70
ATOM     70  C46 UNL A   1      17.774  55.568   0.969  1.00  0.00    +0.000 C 
ATOM     71  C47 UNL A   1      17.292  56.394  -0.058  1.00  0.00    +0.000 C 
ATOM     72  F11 UNL A   1      16.085  56.161  -0.591  1.00  0.00    +0.000 F 
ATOM     73  C48 UNL A   1      18.066  57.433  -0.569  1.00  0.00    +0.000 C 
ATOM     74  F12 UNL A   1      17.600  58.176  -1.582  1.00  0.00    +0.000 F 
ATOM     75  C49 UNL A   1      19.322  57.690  -0.040  1.00  0.00    +0.000 C 
ATOM     76  F13 UNL A   1      20.064  58.696  -0.527  1.00  0.00    +0.000 F 
ATOM     77  C50 UNL A   1      19.811  56.901   0.989  1.00  0.00    +0.000 C 
ATOM     78  F14 UNL A   1      21.016  57.158   1.517  1.00  0.00    +0.000 F 
ATOM     79  C51 UNL A   1      19.052  55.841   1.479  1.00  0.00    +0.000 C 
ATOM     80  F15 UNL A   1      19.556  55.086   2.467  1.00  0.00    +0.000 F 
ENDBRANCH   69   70
TORSDOF 21
ENDMDL
MODEL 10
REMARK VINA RESULT:      -9.8     17.398     24.400
ROOT
ATOM     33  C22 UNL A   1      26.024  36.441  45.304  1.00  0.00    +0.000 C 
ATOM     34  C23 UNL A   1      25.948  37.608  46.246  1.00  0.00    +0.000 C 
ATOM     35  N6  UNL A   1      26.893  38.439  46.610  1.00  0.00    +0.000 N 
ATOM     36  C24 UNL A   1      26.287  39.347  47.469  1.00  0.00    +0.000 C 
ATOM     37  C25 UNL A   1      26.857  40.366  48.157  1.00  0.00    +0.000 C 
ATOM     49  C32 UNL A   1      28.258  40.699  48.106  1.00  0.00    +0.000 C 
ATOM     50  C33 UNL A   1      28.940  41.671  48.816  1.00  0.00    +0.000 C 
ATOM     51  C34 UNL A   1      30.271  41.675  48.386  1.00  0.00    +0.000 C 
ATOM     52  C35 UNL A   1      30.434  40.666  47.451  1.00  0.00    +0.000 C 
ATOM     53  N7  UNL A   1      29.190  40.073  47.291  1.00  0.00    +0.000 N 
ATOM     54  C36 UNL A   1      31.631  40.274  46.753  1.00  0.00    +0.000 C 
ATOM     66  C43 UNL A   1      31.714  39.241  45.878  1.00  0.00    +0.000 C 
ATOM     67  N8  UNL A   1      30.719  38.369  45.460  1.00  0.00    +0.000 N 
ATOM     68  C44 UNL A   1      31.287  37.562  44.597  1.00  0.00    +0.000 C 
ATOM     69  C45 UNL A   1      30.688  36.408  43.841  1.00  0.00    +0.000 C 
ATOM     81  C52 UNL A   1      29.390  36.100  44.032  1.00  0.00    +0.000 C 
ATOM     82  C53 UNL A   1      28.675  35.015  43.370  1.00  0.00    +0.000 C 
ATOM     83  C54 UNL A   1      27.388  35.045  43.747  1.00  0.00    +0.000 C 
ATOM     84  C55 UNL A   1      27.195  36.127  44.714  1.00  0.00    +0.000 C 
ATOM     85  N9  UNL A   1      28.441  36.692  44.831  1.00  0.00    +0.000 N 
ATOM     86  C56 UNL A   1      32.707  37.848  44.352  1.00  0.00    +0.000 C 
ATOM     87  C57 UNL A   1      32.927  38.852  45.189  1.00  0.00    +0.000 C 
ATOM     88  C58 UNL A   1      24.884  38.998  47.531  1.00  0.00    +0.000 C 
ATOM     89  C59 UNL A   1      24.633  37.895  46.839  1.00  0.00    +0.000 C 
ATOM    118  H24 UNL A   1      28.536  42.287  49.539  1.00  0.00    +0.000 H 
ATOM    119  H25 UNL A   1      31.008  42.321  48.712  1.00  0.00    +0.000 H 
ATOM    120  H26 UNL A   1      28.999  39.318  46.688  1.00  0.00    +0.000 H 
ATOM    121  H27 UNL A   1      29.092  34.333  42.718  1.00  0.00    +0.000 H 
ATOM    122  H28 UNL A   1      26.651  34.406  43.409  1.00  0.00    +0.000 H 
ATOM    123  H29 UNL A   1      28.636  37.448  45.430  1.00  0.00    +0.000 H 
ATOM    124  H30 UNL A   1      33.362  37.387  43.701  1.00  0.00    +0.000 H 
ATOM    125  H31 UNL A   1      33.846  39.301  45.331  1.00  0.00    +0.000 H 
ATOM    126  H32 UNL A   1      24.171  39.538  48.046  1.00  0.00    +0.000 H 
ATOM    127  H33 UNL A   1      23.748  37.375  46.741  1.00  0.00    +0.000 H 
ENDROOT
BRANCH   33   32
ATOM    129  H35 UNL A   1      23.301  32.735  45.588  1.00  0.00    +0.000 H 
ATOM    128  H34 UNL A   1      25.324  33.971  46.096  1.00  0.00    +0.000 H 
ATOM    116  H22 UNL A   1      21.881  35.975  43.314  1.00  0.00    +0.000 H 
ATOM    117  H23 UNL A   1      23.994  37.123  43.640  1.00  0.00    +0.000 H 
ATOM     90  C60 UNL A   1      24.598  34.396  45.497  1.00  0.00    +0.000 C 
ATOM     91  C61 UNL A   1      23.419  33.699  45.240  1.00  0.00    +0.000 C 
ATOM     29  C18 UNL A   1      22.395  34.309  44.509  1.00  0.00    +0.000 C 
ATOM     30  C19 UNL A   1      22.613  35.552  43.906  1.00  0.00    +0.000 C 
ATOM     31  C20 UNL A   1      23.822  36.221  44.109  1.00  0.00    +0.000 C 
ATOM     32  C21 UNL A   1      24.806  35.670  44.948  1.00  0.00    +0.000 C 
BRANCH   29   27
ATOM     27  C17 UNL A   1      21.072  33.665  44.348  1.00  0.00    +0.000 C 
ATOM     28  O5  UNL A   1      20.107  34.342  44.006  1.00  0.00    +0.000 O 
BRANCH   27   26
ATOM     26  N5  UNL A   1      20.915  32.326  44.607  1.00  0.00    +0.000 N 
ATOM    115  H21 UNL A   1      21.097  31.730  43.843  1.00  0.00    +0.000 H 
BRANCH   26   25
ATOM     25  C16 UNL A   1      20.523  31.654  45.834  1.00  0.00    +0.000 C 
ATOM    114  H20 UNL A   1      20.787  30.622  45.734  1.00  0.00    +0.000 H 
ATOM    113  H19 UNL A   1      19.470  31.784  45.973  1.00  0.00    +0.000 H 
BRANCH   25   24
ATOM    112  H18 UNL A   1      21.844  33.011  46.711  1.00  0.00    +0.000 H 
ATOM    111  H17 UNL A   1      21.810  31.394  47.492  1.00  0.00    +0.000 H 
ATOM     24  C15 UNL A   1      21.247  32.196  47.064  1.00  0.00    +0.000 C 
BRANCH   24   23
ATOM    109  H15 UNL A   1      19.461  32.194  48.201  1.00  0.00    +0.000 H 
ATOM    110  H16 UNL A   1      20.945  32.755  49.052  1.00  0.00    +0.000 H 
ATOM     23  C14 UNL A   1      20.354  32.782  48.160  1.00  0.00    +0.000 C 
BRANCH   23   22
ATOM    107  H13 UNL A   1      19.792  34.425  46.949  1.00  0.00    +0.000 H 
ATOM    108  H14 UNL A   1      19.060  34.360  48.593  1.00  0.00    +0.000 H 
ATOM     22  C13 UNL A   1      19.939  34.246  47.994  1.00  0.00    +0.000 C 
BRANCH   22   21
ATOM    105  H11 UNL A   1      20.371  35.976  49.132  1.00  0.00    +0.000 H 
ATOM    106  H12 UNL A   1      21.682  34.746  49.019  1.00  0.00    +0.000 H 
ATOM     21  C12 UNL A   1      20.919  35.297  48.512  1.00  0.00    +0.000 C 
BRANCH   21   20
ATOM     20  C11 UNL A   1      21.653  36.123  47.461  1.00  0.00    +0.000 C 
ATOM    103  H9  UNL A   1      22.547  36.510  47.904  1.00  0.00    +0.000 H 
ATOM    104  H10 UNL A   1      21.846  35.468  46.636  1.00  0.00    +0.000 H 
BRANCH   20   19
ATOM     19  N4  UNL A   1      20.887  37.241  46.933  1.00  0.00    +0.000 N 
ATOM    102  H8  UNL A   1      21.124  38.117  47.313  1.00  0.00    +0.000 H 
BRANCH   19   17
ATOM     17  C10 UNL A   1      19.883  37.275  45.989  1.00  0.00    +0.000 C 
ATOM     18  O4  UNL A   1      20.141  37.686  44.855  1.00  0.00    +0.000 O 
BRANCH   17   16
ATOM    130  H36 UNL A   1      18.484  35.339  44.686  1.00  0.00    +0.000 H 
ATOM     99  H5  UNL A   1      14.821  35.833  46.669  1.00  0.00    +0.000 H 
ATOM    100  H6  UNL A   1      15.939  37.174  48.357  1.00  0.00    +0.000 H 
ATOM     11  C5  UNL A   1      16.537  35.555  45.473  1.00  0.00    +0.000 C 
ATOM     12  C6  UNL A   1      15.824  36.054  46.567  1.00  0.00    +0.000 C 
ATOM     13  C7  UNL A   1      16.458  36.851  47.525  1.00  0.00    +0.000 C 
ATOM     14  C8  UNL A   1      17.795  37.211  47.353  1.00  0.00    +0.000 C 
ATOM     16  C9  UNL A   1      18.519  36.749  46.247  1.00  0.00    +0.000 C 
ATOM     92  C62 UNL A   1      17.911  35.828  45.391  1.00  0.00    +0.000 C 
BRANCH   11   10
ATOM     10  N3  UNL A   1      15.848  34.860  44.449  1.00  0.00    +0.000 N 
BRANCH   10    9
ATOM      9  N2  UNL A   1      16.672  34.351  43.652  1.00  0.00    +0.000 N 
BRANCH    9    8
ATOM     97  H3  UNL A   1      18.382  30.365  42.341  1.00  0.00    +0.000 H 
ATOM     98  H4  UNL A   1      18.364  32.793  42.399  1.00  0.00    +0.000 H 
ATOM    131  H37 UNL A   1      15.113  32.716  45.064  1.00  0.00    +0.000 H 
ATOM    132  H38 UNL A   1      15.113  30.289  45.001  1.00  0.00    +0.000 H 
ATOM      5  C1  UNL A   1      16.745  30.151  43.664  1.00  0.00    +0.000 C 
ATOM      6  C2  UNL A   1      17.686  30.864  42.917  1.00  0.00    +0.000 C 
ATOM      7  C3  UNL A   1      17.676  32.263  42.956  1.00  0.00    +0.000 C 
ATOM      8  C4  UNL A   1      16.745  32.953  43.744  1.00  0.00    +0.000 C 
ATOM     93  C63 UNL A   1      15.807  32.219  44.485  1.00  0.00    +0.000 C 
ATOM     94  C64 UNL A   1      15.804  30.822  44.450  1.00  0.00    +0.000 C 
BRANCH    5    2
ATOM      2  S1  UNL A   1      16.728  28.382  43.600  1.00  0.00    +0.000 S 
ATOM      3  O1  UNL A   1      15.812  27.884  44.598  1.00  0.00    +0.000 O 
ATOM      4  O2  UNL A   1      18.092  27.919  43.483  1.00  0.00    +0.000 O 
BRANCH    2    1
ATOM      1  N1  UNL A   1      15.988  28.057  42.124  1.00  0.00    +0.000 N 
ATOM     95  H1  UNL A   1      15.127  27.534  42.284  1.00  0.00    +0.000 H 
ATOM     96  H2  UNL A   1      16.619  27.507  41.542  1.00  0.00    +0.000 H 
ENDBRANCH    2    1
ENDBRANCH    5    2
ENDBRANCH    9    8
ENDBRANCH   10    9
ENDBRANCH   11   10
BRANCH   14   15
ATOM    101  H7  UNL A   1      18.234  37.823  49.216  1.00  0.00    +0.000 H 
ATOM     15  O3  UNL A   1      18.334  38.032  48.308  1.00  0.00    +0.000 O 
ENDBRANCH   14   15
ENDBRANCH   17   16
ENDBRANCH   19   17
ENDBRANCH   20   19
ENDBRANCH   21   20
ENDBRANCH   22   21
ENDBRANCH   23   22
ENDBRANCH   24   23
ENDBRANCH   25   24
ENDBRANCH   26   25
ENDBRANCH   27   26
ENDBRANCH   29   27
ENDBRANCH   33   32
BRANCH   37   38
ATOM     38  C26 UNL A   1      25.965  41.209  49.025  1.00  0.00    +0.000 C 
ATOM     39  C27 UNL A   1      25.770  40.918  50.383  1.00  0.00    +0.000 C 
ATOM     40  F1  UNL A   1      26.337  39.833  50.930  1.00  0.00    +0.000 F 
ATOM     41  C28 UNL A   1      24.963  41.726  51.180  1.00  0.00    +0.000 C 
ATOM     42  F2  UNL A   1      24.755  41.403  52.465  1.00  0.00    +0.000 F 
ATOM     43  C29 UNL A   1      24.365  42.857  50.646  1.00  0.00    +0.000 C 
ATOM     44  F3  UNL A   1      23.598  43.640  51.418  1.00  0.00    +0.000 F 
ATOM     45  C30 UNL A   1      24.559  43.175  49.311  1.00  0.00    +0.000 C 
ATOM     46  F4  UNL A   1      23.995  44.275  48.795  1.00  0.00    +0.000 F 
ATOM     47  C31 UNL A   1      25.340  42.351  48.504  1.00  0.00    +0.000 C 
ATOM     48  F5  UNL A   1      25.498  42.679  47.212  1.00  0.00    +0.000 F 
ENDBRANCH   37   38
BRANCH   54   55
ATOM     65  F10 UNL A   1      33.585  39.465  48.658  1.00  0.00    +0.000 F 
ATOM     55  C37 UNL A   1      32.889  41.049  47.023  1.00  0.00    +0.000 C 
ATOM     56  C38 UNL A   1      33.168  42.252  46.356  1.00  0.00    +0.000 C 
ATOM     57  F6  UNL A   1      32.330  42.711  45.414  1.00  0.00    +0.000 F 
ATOM     58  C39 UNL A   1      34.332  42.966  46.625  1.00  0.00    +0.000 C 
ATOM     59  F7  UNL A   1      34.603  44.085  45.938  1.00  0.00    +0.000 F 
ATOM     60  C40 UNL A   1      35.220  42.515  47.589  1.00  0.00    +0.000 C 
ATOM     61  F8  UNL A   1      36.336  43.208  47.853  1.00  0.00    +0.000 F 
ATOM     62  C41 UNL A   1      34.954  41.339  48.276  1.00  0.00    +0.000 C 
ATOM     63  F9  UNL A   1      35.803  40.909  49.220  1.00  0.00    +0.000 F 
ATOM     64  C42 UNL A   1      33.807  40.605  47.987  1.00  0.00    +0.000 C 
ENDBRANCH   54   55
BRANCH   69   70
ATOM     70  C46 UNL A   1      31.508  35.608  42.893  1.00  0.00    +0.000 C 
ATOM     71  C47 UNL A   1      31.559  35.932  41.530  1.00  0.00    +0.000 C 
ATOM     72  F11 UNL A   1      30.849  36.969  41.063  1.00  0.00    +0.000 F 
ATOM     73  C48 UNL A   1      32.304  35.168  40.636  1.00  0.00    +0.000 C 
ATOM     74  F12 UNL A   1      32.297  35.472  39.331  1.00  0.00    +0.000 F 
ATOM     75  C49 UNL A   1      33.041  34.085  41.091  1.00  0.00    +0.000 C 
ATOM     76  F13 UNL A   1      33.764  33.354  40.232  1.00  0.00    +0.000 F 
ATOM     77  C50 UNL A   1      33.023  33.757  42.438  1.00  0.00    +0.000 C 
ATOM     78  F14 UNL A   1      33.749  32.724  42.887  1.00  0.00    +0.000 F 
ATOM     79  C51 UNL A   1      32.252  34.500  43.328  1.00  0.00    +0.000 C 
ATOM     80  F15 UNL A   1      32.243  34.153  44.624  1.00  0.00    +0.000 F 
ENDBRANCH   69   70
TORSDOF 21
ENDMDL
