MODEL 1
REMARK VINA RESULT:      -9.8      0.000      0.000
ROOT
ATOM     19  C15 UNL A   1      13.889  53.822   4.902  1.00  0.00    +0.000 C 
ATOM     20  C16 UNL A   1      14.818  54.283   3.816  1.00  0.00    +0.000 C 
ATOM     21  N3  UNL A   1      15.328  53.601   2.820  1.00  0.00    +0.000 N 
ATOM     22  C17 UNL A   1      16.101  54.502   2.100  1.00  0.00    +0.000 C 
ATOM     23  C18 UNL A   1      16.886  54.269   1.021  1.00  0.00    +0.000 C 
ATOM     35  C25 UNL A   1      17.045  52.984   0.393  1.00  0.00    +0.000 C 
ATOM     36  C26 UNL A   1      17.841  52.641  -0.686  1.00  0.00    +0.000 C 
ATOM     37  C27 UNL A   1      17.652  51.281  -0.956  1.00  0.00    +0.000 C 
ATOM     38  C28 UNL A   1      16.767  50.768  -0.022  1.00  0.00    +0.000 C 
ATOM     39  N4  UNL A   1      16.395  51.826   0.793  1.00  0.00    +0.000 N 
ATOM     40  C29 UNL A   1      16.297  49.416   0.121  1.00  0.00    +0.000 C 
ATOM     52  C36 UNL A   1      15.419  48.993   1.063  1.00  0.00    +0.000 C 
ATOM     53  N5  UNL A   1      14.788  49.724   2.060  1.00  0.00    +0.000 N 
ATOM     54  C37 UNL A   1      14.014  48.877   2.693  1.00  0.00    +0.000 C 
ATOM     55  C38 UNL A   1      13.117  49.113   3.875  1.00  0.00    +0.000 C 
ATOM     67  C45 UNL A   1      13.077  50.335   4.438  1.00  0.00    +0.000 C 
ATOM     68  C46 UNL A   1      12.289  50.703   5.610  1.00  0.00    +0.000 C 
ATOM     69  C47 UNL A   1      12.493  52.002   5.884  1.00  0.00    +0.000 C 
ATOM     70  C48 UNL A   1      13.443  52.552   4.916  1.00  0.00    +0.000 C 
ATOM     71  N6  UNL A   1      13.727  51.493   4.090  1.00  0.00    +0.000 N 
ATOM     72  C49 UNL A   1      14.056  47.510   2.156  1.00  0.00    +0.000 C 
ATOM     73  C50 UNL A   1      14.958  47.626   1.193  1.00  0.00    +0.000 C 
ATOM     74  C51 UNL A   1      15.952  55.793   2.740  1.00  0.00    +0.000 C 
ATOM     75  C52 UNL A   1      15.214  55.700   3.836  1.00  0.00    +0.000 C 
ATOM    119  H21 UNL A   1      18.467  53.278  -1.203  1.00  0.00    +0.000 H 
ATOM    120  H22 UNL A   1      18.095  50.750  -1.722  1.00  0.00    +0.000 H 
ATOM    121  H23 UNL A   1      15.763  51.764   1.546  1.00  0.00    +0.000 H 
ATOM    122  H24 UNL A   1      11.675  50.067   6.142  1.00  0.00    +0.000 H 
ATOM    123  H25 UNL A   1      12.049  52.528   6.654  1.00  0.00    +0.000 H 
ATOM    124  H26 UNL A   1      14.339  51.559   3.322  1.00  0.00    +0.000 H 
ATOM    125  H27 UNL A   1      13.522  46.677   2.451  1.00  0.00    +0.000 H 
ATOM    126  H28 UNL A   1      15.290  46.842   0.609  1.00  0.00    +0.000 H 
ATOM    127  H29 UNL A   1      16.366  56.669   2.387  1.00  0.00    +0.000 H 
ATOM    128  H30 UNL A   1      14.978  56.431   4.526  1.00  0.00    +0.000 H 
ENDROOT
BRANCH   19   18
ATOM    129  H31 UNL A   1      11.704  55.399   4.899  1.00  0.00    +0.000 H 
ATOM    130  H32 UNL A   1      10.996  56.995   6.583  1.00  0.00    +0.000 H 
ATOM     76  C53 UNL A   1      12.253  55.510   5.767  1.00  0.00    +0.000 C 
ATOM     77  C54 UNL A   1      11.823  56.401   6.750  1.00  0.00    +0.000 C 
ATOM     15  C11 UNL A   1      12.514  56.488   7.964  1.00  0.00    +0.000 C 
ATOM     16  C12 UNL A   1      13.695  55.764   8.150  1.00  0.00    +0.000 C 
ATOM     17  C13 UNL A   1      14.157  54.919   7.141  1.00  0.00    +0.000 C 
ATOM     18  C14 UNL A   1      13.427  54.766   5.951  1.00  0.00    +0.000 C 
ATOM    117  H19 UNL A   1      14.223  55.853   9.032  1.00  0.00    +0.000 H 
ATOM    118  H20 UNL A   1      15.041  54.402   7.270  1.00  0.00    +0.000 H 
BRANCH   15   13
ATOM     13  C10 UNL A   1      12.048  57.372   9.058  1.00  0.00    +0.000 C 
ATOM     14  O2  UNL A   1      12.201  58.586   8.961  1.00  0.00    +0.000 O 
BRANCH   13   12
ATOM    116  H18 UNL A   1      11.780  57.213  11.030  1.00  0.00    +0.000 H 
ATOM     12  N2  UNL A   1      11.461  56.846  10.174  1.00  0.00    +0.000 N 
BRANCH   12   11
ATOM    114  H16 UNL A   1       9.717  56.127  11.019  1.00  0.00    +0.000 H 
ATOM     11  C9  UNL A   1      10.433  55.821  10.284  1.00  0.00    +0.000 C 
ATOM    115  H17 UNL A   1       9.977  55.706   9.323  1.00  0.00    +0.000 H 
BRANCH   11   10
ATOM    113  H15 UNL A   1      11.174  53.926   9.786  1.00  0.00    +0.000 H 
ATOM     10  C8  UNL A   1      11.010  54.469  10.694  1.00  0.00    +0.000 C 
ATOM    112  H14 UNL A   1      10.310  53.994  11.350  1.00  0.00    +0.000 H 
BRANCH   10    9
ATOM      9  C7  UNL A   1      12.362  54.532  11.408  1.00  0.00    +0.000 C 
ATOM    110  H12 UNL A   1      12.810  55.479  11.187  1.00  0.00    +0.000 H 
ATOM    111  H13 UNL A   1      12.158  54.390  12.449  1.00  0.00    +0.000 H 
BRANCH    9    8
ATOM    108  H10 UNL A   1      12.935  52.890  10.192  1.00  0.00    +0.000 H 
ATOM    109  H11 UNL A   1      14.269  53.934  10.769  1.00  0.00    +0.000 H 
ATOM      8  C6  UNL A   1      13.353  53.435  11.012  1.00  0.00    +0.000 C 
BRANCH    8    7
ATOM    106  H8  UNL A   1      13.158  52.722  13.007  1.00  0.00    +0.000 H 
ATOM    107  H9  UNL A   1      13.412  51.470  11.762  1.00  0.00    +0.000 H 
ATOM      7  C5  UNL A   1      13.692  52.436  12.125  1.00  0.00    +0.000 C 
BRANCH    7    6
ATOM    105  H7  UNL A   1      15.319  52.677  13.485  1.00  0.00    +0.000 H 
ATOM      6  C4  UNL A   1      15.184  52.357  12.473  1.00  0.00    +0.000 C 
ATOM    104  H6  UNL A   1      15.734  52.989  11.806  1.00  0.00    +0.000 H 
BRANCH    6    5
ATOM      5  N1  UNL A   1      15.669  50.997  12.346  1.00  0.00    +0.000 N 
ATOM    103  H5  UNL A   1      15.210  50.314  12.888  1.00  0.00    +0.000 H 
BRANCH    5    3
ATOM      3  C3  UNL A   1      16.698  50.563  11.553  1.00  0.00    +0.000 C 
ATOM      4  O1  UNL A   1      17.773  51.153  11.660  1.00  0.00    +0.000 O 
BRANCH    3    2
ATOM      2  C2  UNL A   1      16.448  49.403  10.572  1.00  0.00    +0.000 C 
ATOM    102  H4  UNL A   1      16.633  48.483  11.086  1.00  0.00    +0.000 H 
BRANCH    2    1
ATOM      1  C1  UNL A   1      17.424  49.551   9.393  1.00  0.00    +0.000 C 
ATOM     99  H1  UNL A   1      18.080  50.376   9.575  1.00  0.00    +0.000 H 
ATOM    100  H2  UNL A   1      16.871  49.727   8.493  1.00  0.00    +0.000 H 
ATOM    101  H3  UNL A   1      17.997  48.654   9.289  1.00  0.00    +0.000 H 
ENDBRANCH    2    1
BRANCH    2   78
ATOM    131  H33 UNL A   1      14.916  51.086   9.042  1.00  0.00    +0.000 H 
ATOM    132  H34 UNL A   1      12.692  50.758   8.134  1.00  0.00    +0.000 H 
ATOM    133  H35 UNL A   1      10.320  49.681   7.221  1.00  0.00    +0.000 H 
ATOM    134  H36 UNL A   1       7.750  46.563   8.354  1.00  0.00    +0.000 H 
ATOM    135  H37 UNL A   1       9.358  45.800  10.017  1.00  0.00    +0.000 H 
ATOM    138  H40 UNL A   1      14.575  47.533  11.245  1.00  0.00    +0.000 H 
ATOM     78  C55 UNL A   1      14.986  49.275  10.112  1.00  0.00    +0.000 C 
ATOM     79  C56 UNL A   1      14.390  50.231   9.284  1.00  0.00    +0.000 C 
ATOM     80  C57 UNL A   1      13.096  50.057   8.775  1.00  0.00    +0.000 C 
ATOM     81  C58 UNL A   1      12.348  48.920   9.140  1.00  0.00    +0.000 C 
ATOM     82  C59 UNL A   1      11.082  48.408   8.746  1.00  0.00    +0.000 C 
ATOM     83  C60 UNL A   1      10.130  48.848   7.803  1.00  0.00    +0.000 C 
ATOM     84  C61 UNL A   1       8.932  48.155   7.661  1.00  0.00    +0.000 C 
ATOM     85 Cl1  UNL A   1       7.778  48.683   6.498  1.00  0.00    +0.000 Cl
ATOM     86  C62 UNL A   1       8.652  47.054   8.459  1.00  0.00    +0.000 C 
ATOM     87  C63 UNL A   1       9.580  46.602   9.407  1.00  0.00    +0.000 C 
ATOM     88  C64 UNL A   1      10.824  47.260   9.511  1.00  0.00    +0.000 C 
ATOM     89  N7  UNL A   1      11.934  47.044  10.333  1.00  0.00    +0.000 N 
ATOM     97  C69 UNL A   1      12.882  48.041  10.073  1.00  0.00    +0.000 C 
ATOM     98  C70 UNL A   1      14.194  48.204  10.559  1.00  0.00    +0.000 C 
BRANCH   89   90
ATOM     90  C65 UNL A   1      12.121  46.019  11.298  1.00  0.00    +0.000 C 
ATOM     91  O3  UNL A   1      12.431  44.909  10.847  1.00  0.00    +0.000 O 
BRANCH   90   92
ATOM    136  H38 UNL A   1      13.738  45.475  13.661  1.00  0.00    +0.000 H 
ATOM    137  H39 UNL A   1      10.376  47.249  15.231  1.00  0.00    +0.000 H 
ATOM     92  C66 UNL A   1      11.924  46.177  12.733  1.00  0.00    +0.000 C 
ATOM     93  C67 UNL A   1      12.806  45.908  13.761  1.00  0.00    +0.000 C 
ATOM     94  O4  UNL A   1      12.236  46.314  14.934  1.00  0.00    +0.000 O 
ATOM     95  C68 UNL A   1      11.040  46.837  14.557  1.00  0.00    +0.000 C 
ATOM     96  N8  UNL A   1      10.795  46.779  13.272  1.00  0.00    +0.000 N 
ENDBRANCH   90   92
ENDBRANCH   89   90
ENDBRANCH    2   78
ENDBRANCH    3    2
ENDBRANCH    5    3
ENDBRANCH    6    5
ENDBRANCH    7    6
ENDBRANCH    8    7
ENDBRANCH    9    8
ENDBRANCH   10    9
ENDBRANCH   11   10
ENDBRANCH   12   11
ENDBRANCH   13   12
ENDBRANCH   15   13
ENDBRANCH   19   18
BRANCH   23   24
ATOM     33  C24 UNL A   1      18.913  55.773   0.966  1.00  0.00    +0.000 C 
ATOM     34  F5  UNL A   1      19.474  55.038   1.937  1.00  0.00    +0.000 F 
ATOM     24  C19 UNL A   1      17.651  55.431   0.457  1.00  0.00    +0.000 C 
ATOM     25  C20 UNL A   1      17.109  56.237  -0.555  1.00  0.00    +0.000 C 
ATOM     26  F1  UNL A   1      15.910  55.944  -1.081  1.00  0.00    +0.000 F 
ATOM     27  C21 UNL A   1      17.811  57.331  -1.052  1.00  0.00    +0.000 C 
ATOM     28  F2  UNL A   1      17.289  58.065  -2.046  1.00  0.00    +0.000 F 
ATOM     29  C22 UNL A   1      19.052  57.658  -0.529  1.00  0.00    +0.000 C 
ATOM     30  F3  UNL A   1      19.723  58.718  -1.002  1.00  0.00    +0.000 F 
ATOM     31  C23 UNL A   1      19.601  56.883   0.483  1.00  0.00    +0.000 C 
ATOM     32  F4  UNL A   1      20.796  57.205   0.997  1.00  0.00    +0.000 F 
ENDBRANCH   23   24
BRANCH   40   41
ATOM     41  C30 UNL A   1      16.825  48.382  -0.830  1.00  0.00    +0.000 C 
ATOM     42  C31 UNL A   1      16.102  48.000  -1.969  1.00  0.00    +0.000 C 
ATOM     43  F6  UNL A   1      14.896  48.534  -2.214  1.00  0.00    +0.000 F 
ATOM     44  C32 UNL A   1      16.596  47.031  -2.837  1.00  0.00    +0.000 C 
ATOM     45  F7  UNL A   1      15.865  46.643  -3.892  1.00  0.00    +0.000 F 
ATOM     46  C33 UNL A   1      17.833  46.452  -2.601  1.00  0.00    +0.000 C 
ATOM     47  F8  UNL A   1      18.307  45.517  -3.437  1.00  0.00    +0.000 F 
ATOM     48  C34 UNL A   1      18.576  46.832  -1.493  1.00  0.00    +0.000 C 
ATOM     49  F9  UNL A   1      19.776  46.279  -1.270  1.00  0.00    +0.000 F 
ATOM     50  C35 UNL A   1      18.073  47.782  -0.609  1.00  0.00    +0.000 C 
ATOM     51  F10 UNL A   1      18.805  48.118   0.464  1.00  0.00    +0.000 F 
ENDBRANCH   40   41
BRANCH   55   56
ATOM     65  C44 UNL A   1      12.745  47.270   5.546  1.00  0.00    +0.000 C 
ATOM     66  F15 UNL A   1      13.936  47.540   6.100  1.00  0.00    +0.000 F 
ATOM     56  C39 UNL A   1      12.300  48.010   4.443  1.00  0.00    +0.000 C 
ATOM     57  C40 UNL A   1      11.051  47.683   3.897  1.00  0.00    +0.000 C 
ATOM     58  F11 UNL A   1      10.573  48.377   2.853  1.00  0.00    +0.000 F 
ATOM     59  C41 UNL A   1      10.267  46.672   4.448  1.00  0.00    +0.000 C 
ATOM     60  F12 UNL A   1       9.057  46.411   3.938  1.00  0.00    +0.000 F 
ATOM     61  C42 UNL A   1      10.730  45.948   5.537  1.00  0.00    +0.000 C 
ATOM     62  F13 UNL A   1       9.978  44.976   6.068  1.00  0.00    +0.000 F 
ATOM     63  C43 UNL A   1      11.973  46.240   6.080  1.00  0.00    +0.000 C 
ATOM     64  F14 UNL A   1      12.431  45.535   7.124  1.00  0.00    +0.000 F 
ENDBRANCH   55   56
TORSDOF 19
ENDMDL
MODEL 2
REMARK VINA RESULT:      -9.2     43.721     46.992
ROOT
ATOM     19  C15 UNL A   1      25.632  39.260  46.678  1.00  0.00    +0.000 C 
ATOM     20  C16 UNL A   1      24.984  37.926  46.440  1.00  0.00    +0.000 C 
ATOM     21  N3  UNL A   1      23.773  37.529  46.746  1.00  0.00    +0.000 N 
ATOM     22  C17 UNL A   1      23.677  36.221  46.289  1.00  0.00    +0.000 C 
ATOM     23  C18 UNL A   1      22.647  35.352  46.427  1.00  0.00    +0.000 C 
ATOM     35  C25 UNL A   1      21.405  35.658  47.088  1.00  0.00    +0.000 C 
ATOM     36  C26 UNL A   1      20.314  34.835  47.305  1.00  0.00    +0.000 C 
ATOM     37  C27 UNL A   1      19.330  35.577  47.968  1.00  0.00    +0.000 C 
ATOM     38  C28 UNL A   1      19.822  36.851  48.198  1.00  0.00    +0.000 C 
ATOM     39  N4  UNL A   1      21.093  36.890  47.644  1.00  0.00    +0.000 N 
ATOM     40  C29 UNL A   1      19.187  37.950  48.874  1.00  0.00    +0.000 C 
ATOM     52  C36 UNL A   1      19.736  39.176  49.052  1.00  0.00    +0.000 C 
ATOM     53  N5  UNL A   1      20.975  39.646  48.642  1.00  0.00    +0.000 N 
ATOM     54  C37 UNL A   1      21.030  40.899  49.023  1.00  0.00    +0.000 C 
ATOM     55  C38 UNL A   1      22.148  41.891  48.863  1.00  0.00    +0.000 C 
ATOM     67  C45 UNL A   1      23.299  41.498  48.286  1.00  0.00    +0.000 C 
ATOM     68  C46 UNL A   1      24.481  42.334  48.100  1.00  0.00    +0.000 C 
ATOM     69  C47 UNL A   1      25.435  41.613  47.487  1.00  0.00    +0.000 C 
ATOM     70  C48 UNL A   1      24.935  40.256  47.256  1.00  0.00    +0.000 C 
ATOM     71  N6  UNL A   1      23.655  40.284  47.753  1.00  0.00    +0.000 N 
ATOM     72  C49 UNL A   1      19.820  41.371  49.708  1.00  0.00    +0.000 C 
ATOM     73  C50 UNL A   1      19.081  40.271  49.738  1.00  0.00    +0.000 C 
ATOM     74  C51 UNL A   1      24.930  35.908  45.636  1.00  0.00    +0.000 C 
ATOM     75  C52 UNL A   1      25.791  36.908  45.750  1.00  0.00    +0.000 C 
ATOM    119  H21 UNL A   1      20.239  33.845  47.026  1.00  0.00    +0.000 H 
ATOM    120  H22 UNL A   1      18.395  35.233  48.239  1.00  0.00    +0.000 H 
ATOM    121  H23 UNL A   1      21.686  37.676  47.646  1.00  0.00    +0.000 H 
ATOM    122  H24 UNL A   1      24.570  43.319  48.391  1.00  0.00    +0.000 H 
ATOM    123  H25 UNL A   1      26.370  41.960  47.221  1.00  0.00    +0.000 H 
ATOM    124  H26 UNL A   1      23.052  39.507  47.729  1.00  0.00    +0.000 H 
ATOM    125  H27 UNL A   1      19.601  42.312  50.072  1.00  0.00    +0.000 H 
ATOM    126  H28 UNL A   1      18.156  40.204  50.191  1.00  0.00    +0.000 H 
ATOM    127  H29 UNL A   1      25.126  35.022  45.146  1.00  0.00    +0.000 H 
ATOM    128  H30 UNL A   1      26.774  36.960  45.437  1.00  0.00    +0.000 H 
ENDROOT
BRANCH   19   18
ATOM    129  H31 UNL A   1      27.911  38.737  48.014  1.00  0.00    +0.000 H 
ATOM    130  H32 UNL A   1      30.193  39.211  47.344  1.00  0.00    +0.000 H 
ATOM     76  C53 UNL A   1      28.099  39.165  47.094  1.00  0.00    +0.000 C 
ATOM     77  C54 UNL A   1      29.415  39.402  46.695  1.00  0.00    +0.000 C 
ATOM     15  C11 UNL A   1      29.677  39.899  45.413  1.00  0.00    +0.000 C 
ATOM     16  C12 UNL A   1      28.619  40.259  44.572  1.00  0.00    +0.000 C 
ATOM     17  C13 UNL A   1      27.303  40.078  44.997  1.00  0.00    +0.000 C 
ATOM     18  C14 UNL A   1      27.032  39.506  46.251  1.00  0.00    +0.000 C 
ATOM    117  H19 UNL A   1      28.812  40.657  43.640  1.00  0.00    +0.000 H 
ATOM    118  H20 UNL A   1      26.523  40.365  44.385  1.00  0.00    +0.000 H 
BRANCH   15   13
ATOM     13  C10 UNL A   1      31.063  40.099  44.929  1.00  0.00    +0.000 C 
ATOM     14  O2  UNL A   1      31.860  40.725  45.621  1.00  0.00    +0.000 O 
BRANCH   13   12
ATOM    116  H18 UNL A   1      31.833  40.265  43.095  1.00  0.00    +0.000 H 
ATOM     12  N2  UNL A   1      31.454  39.603  43.718  1.00  0.00    +0.000 N 
BRANCH   12   11
ATOM    114  H16 UNL A   1      30.533  38.145  42.578  1.00  0.00    +0.000 H 
ATOM     11  C9  UNL A   1      31.391  38.239  43.212  1.00  0.00    +0.000 C 
ATOM    115  H17 UNL A   1      32.295  38.046  42.672  1.00  0.00    +0.000 H 
BRANCH   11   10
ATOM    113  H15 UNL A   1      31.385  37.760  45.250  1.00  0.00    +0.000 H 
ATOM     10  C8  UNL A   1      31.287  37.213  44.336  1.00  0.00    +0.000 C 
ATOM    112  H14 UNL A   1      32.059  36.485  44.193  1.00  0.00    +0.000 H 
BRANCH   10    9
ATOM      9  C7  UNL A   1      29.948  36.477  44.418  1.00  0.00    +0.000 C 
ATOM    110  H12 UNL A   1      30.022  35.736  45.186  1.00  0.00    +0.000 H 
ATOM    111  H13 UNL A   1      29.208  37.224  44.617  1.00  0.00    +0.000 H 
BRANCH    9    8
ATOM    108  H10 UNL A   1      29.411  36.525  42.366  1.00  0.00    +0.000 H 
ATOM    109  H11 UNL A   1      30.271  35.054  42.910  1.00  0.00    +0.000 H 
ATOM      8  C6  UNL A   1      29.514  35.780  43.126  1.00  0.00    +0.000 C 
BRANCH    8    7
ATOM    106  H8  UNL A   1      27.499  35.596  43.781  1.00  0.00    +0.000 H 
ATOM    107  H9  UNL A   1      27.873  34.831  42.213  1.00  0.00    +0.000 H 
ATOM      7  C5  UNL A   1      28.193  35.007  43.218  1.00  0.00    +0.000 C 
BRANCH    7    6
ATOM    105  H7  UNL A   1      29.343  33.362  43.942  1.00  0.00    +0.000 H 
ATOM      6  C4  UNL A   1      28.309  33.632  43.887  1.00  0.00    +0.000 C 
ATOM    104  H6  UNL A   1      27.766  32.914  43.308  1.00  0.00    +0.000 H 
BRANCH    6    5
ATOM      5  N1  UNL A   1      27.765  33.667  45.230  1.00  0.00    +0.000 N 
ATOM    103  H5  UNL A   1      26.795  33.815  45.308  1.00  0.00    +0.000 H 
BRANCH    5    3
ATOM      3  C3  UNL A   1      28.459  33.517  46.401  1.00  0.00    +0.000 C 
ATOM      4  O1  UNL A   1      29.689  33.518  46.326  1.00  0.00    +0.000 O 
BRANCH    3    2
ATOM      2  C2  UNL A   1      27.679  33.330  47.714  1.00  0.00    +0.000 C 
ATOM    102  H4  UNL A   1      28.297  32.786  48.397  1.00  0.00    +0.000 H 
BRANCH    2    1
ATOM      1  C1  UNL A   1      26.403  32.528  47.408  1.00  0.00    +0.000 C 
ATOM     99  H1  UNL A   1      26.533  31.987  46.494  1.00  0.00    +0.000 H 
ATOM    100  H2  UNL A   1      25.575  33.200  47.310  1.00  0.00    +0.000 H 
ATOM    101  H3  UNL A   1      26.211  31.842  48.206  1.00  0.00    +0.000 H 
ENDBRANCH    2    1
BRANCH    2   78
ATOM    131  H33 UNL A   1      29.245  35.551  48.087  1.00  0.00    +0.000 H 
ATOM    132  H34 UNL A   1      28.678  37.698  49.062  1.00  0.00    +0.000 H 
ATOM    133  H35 UNL A   1      27.353  39.920  50.023  1.00  0.00    +0.000 H 
ATOM    134  H36 UNL A   1      23.823  40.678  52.161  1.00  0.00    +0.000 H 
ATOM    135  H37 UNL A   1      23.165  38.341  51.966  1.00  0.00    +0.000 H 
ATOM    138  H40 UNL A   1      25.515  34.011  49.235  1.00  0.00    +0.000 H 
ATOM     78  C55 UNL A   1      27.383  34.643  48.459  1.00  0.00    +0.000 C 
ATOM     79  C56 UNL A   1      28.308  35.691  48.498  1.00  0.00    +0.000 C 
ATOM     80  C57 UNL A   1      27.993  36.926  49.080  1.00  0.00    +0.000 C 
ATOM     81  C58 UNL A   1      26.736  37.113  49.689  1.00  0.00    +0.000 C 
ATOM     82  C59 UNL A   1      26.083  38.231  50.274  1.00  0.00    +0.000 C 
ATOM     83  C60 UNL A   1      26.458  39.584  50.415  1.00  0.00    +0.000 C 
ATOM     84  C61 UNL A   1      25.616  40.463  51.088  1.00  0.00    +0.000 C 
ATOM     85 Cl1  UNL A   1      26.066  42.118  51.246  1.00  0.00    +0.000 Cl
ATOM     86  C62 UNL A   1      24.427  40.017  51.648  1.00  0.00    +0.000 C 
ATOM     87  C63 UNL A   1      24.036  38.676  51.525  1.00  0.00    +0.000 C 
ATOM     88  C64 UNL A   1      24.854  37.793  50.788  1.00  0.00    +0.000 C 
ATOM     89  N7  UNL A   1      24.732  36.433  50.487  1.00  0.00    +0.000 N 
ATOM     97  C69 UNL A   1      25.870  36.031  49.778  1.00  0.00    +0.000 C 
ATOM     98  C70 UNL A   1      26.178  34.799  49.165  1.00  0.00    +0.000 C 
BRANCH   89   90
ATOM     90  C65 UNL A   1      23.670  35.553  50.827  1.00  0.00    +0.000 C 
ATOM     91  O3  UNL A   1      22.850  35.331  49.926  1.00  0.00    +0.000 O 
BRANCH   90   92
ATOM    136  H38 UNL A   1      21.332  34.887  52.431  1.00  0.00    +0.000 H 
ATOM    137  H39 UNL A   1      24.447  33.464  54.707  1.00  0.00    +0.000 H 
ATOM     92  C66 UNL A   1      23.466  34.961  52.142  1.00  0.00    +0.000 C 
ATOM     93  C67 UNL A   1      22.277  34.661  52.778  1.00  0.00    +0.000 C 
ATOM     94  O4  UNL A   1      22.566  34.013  53.945  1.00  0.00    +0.000 O 
ATOM     95  C68 UNL A   1      23.922  33.926  53.949  1.00  0.00    +0.000 C 
ATOM     96  N8  UNL A   1      24.510  34.473  52.914  1.00  0.00    +0.000 N 
ENDBRANCH   90   92
ENDBRANCH   89   90
ENDBRANCH    2   78
ENDBRANCH    3    2
ENDBRANCH    5    3
ENDBRANCH    6    5
ENDBRANCH    7    6
ENDBRANCH    8    7
ENDBRANCH    9    8
ENDBRANCH   10    9
ENDBRANCH   11   10
ENDBRANCH   12   11
ENDBRANCH   13   12
ENDBRANCH   15   13
ENDBRANCH   19   18
BRANCH   23   24
ATOM     33  C24 UNL A   1      23.068  32.879  46.708  1.00  0.00    +0.000 C 
ATOM     34  F5  UNL A   1      23.102  33.045  48.038  1.00  0.00    +0.000 F 
ATOM     24  C19 UNL A   1      22.826  33.973  45.863  1.00  0.00    +0.000 C 
ATOM     25  C20 UNL A   1      22.806  33.743  44.480  1.00  0.00    +0.000 C 
ATOM     26  F1  UNL A   1      22.567  34.755  43.631  1.00  0.00    +0.000 F 
ATOM     27  C21 UNL A   1      23.002  32.466  43.962  1.00  0.00    +0.000 C 
ATOM     28  F2  UNL A   1      22.942  32.265  42.638  1.00  0.00    +0.000 F 
ATOM     29  C22 UNL A   1      23.251  31.401  44.813  1.00  0.00    +0.000 C 
ATOM     30  F3  UNL A   1      23.450  30.173  44.313  1.00  0.00    +0.000 F 
ATOM     31  C23 UNL A   1      23.290  31.607  46.185  1.00  0.00    +0.000 C 
ATOM     32  F4  UNL A   1      23.541  30.580  47.008  1.00  0.00    +0.000 F 
ENDBRANCH   23   24
BRANCH   40   41
ATOM     41  C30 UNL A   1      17.817  37.729  49.444  1.00  0.00    +0.000 C 
ATOM     42  C31 UNL A   1      16.697  37.571  48.615  1.00  0.00    +0.000 C 
ATOM     43  F6  UNL A   1      16.827  37.648  47.282  1.00  0.00    +0.000 F 
ATOM     44  C32 UNL A   1      15.429  37.379  49.156  1.00  0.00    +0.000 C 
ATOM     45  F7  UNL A   1      14.365  37.282  48.347  1.00  0.00    +0.000 F 
ATOM     46  C33 UNL A   1      15.262  37.309  50.530  1.00  0.00    +0.000 C 
ATOM     47  F8  UNL A   1      14.040  37.126  51.050  1.00  0.00    +0.000 F 
ATOM     48  C34 UNL A   1      16.360  37.439  51.369  1.00  0.00    +0.000 C 
ATOM     49  F9  UNL A   1      16.201  37.362  52.697  1.00  0.00    +0.000 F 
ATOM     50  C35 UNL A   1      17.626  37.657  50.831  1.00  0.00    +0.000 C 
ATOM     51  F10 UNL A   1      18.666  37.797  51.667  1.00  0.00    +0.000 F 
ENDBRANCH   40   41
BRANCH   55   56
ATOM     65  C44 UNL A   1      22.305  43.617  50.686  1.00  0.00    +0.000 C 
ATOM     66  F15 UNL A   1      22.713  42.668  51.541  1.00  0.00    +0.000 F 
ATOM     56  C39 UNL A   1      22.006  43.284  49.358  1.00  0.00    +0.000 C 
ATOM     57  C40 UNL A   1      21.577  44.312  48.506  1.00  0.00    +0.000 C 
ATOM     58  F11 UNL A   1      21.299  44.045  47.221  1.00  0.00    +0.000 F 
ATOM     59  C41 UNL A   1      21.476  45.626  48.959  1.00  0.00    +0.000 C 
ATOM     60  F12 UNL A   1      21.109  46.597  48.113  1.00  0.00    +0.000 F 
ATOM     61  C42 UNL A   1      21.772  45.931  50.279  1.00  0.00    +0.000 C 
ATOM     62  F13 UNL A   1      21.674  47.194  50.715  1.00  0.00    +0.000 F 
ATOM     63  C43 UNL A   1      22.177  44.926  51.145  1.00  0.00    +0.000 C 
ATOM     64  F14 UNL A   1      22.452  45.214  52.425  1.00  0.00    +0.000 F 
ENDBRANCH   55   56
TORSDOF 19
ENDMDL
MODEL 3
REMARK VINA RESULT:      -9.1     43.372     46.895
ROOT
ATOM     19  C15 UNL A   1      25.828  38.099  49.970  1.00  0.00    +0.000 C 
ATOM     20  C16 UNL A   1      26.399  37.246  48.873  1.00  0.00    +0.000 C 
ATOM     21  N3  UNL A   1      25.777  36.458  48.031  1.00  0.00    +0.000 N 
ATOM     22  C17 UNL A   1      26.764  35.923  47.214  1.00  0.00    +0.000 C 
ATOM     23  C18 UNL A   1      26.639  35.000  46.230  1.00  0.00    +0.000 C 
ATOM     35  C25 UNL A   1      25.392  34.399  45.832  1.00  0.00    +0.000 C 
ATOM     36  C26 UNL A   1      25.167  33.432  44.868  1.00  0.00    +0.000 C 
ATOM     37  C27 UNL A   1      23.793  33.176  44.816  1.00  0.00    +0.000 C 
ATOM     38  C28 UNL A   1      23.166  33.955  45.774  1.00  0.00    +0.000 C 
ATOM     39  N4  UNL A   1      24.158  34.708  46.383  1.00  0.00    +0.000 N 
ATOM     40  C29 UNL A   1      21.768  34.009  46.114  1.00  0.00    +0.000 C 
ATOM     52  C36 UNL A   1      21.229  34.810  47.065  1.00  0.00    +0.000 C 
ATOM     53  N5  UNL A   1      21.859  35.728  47.894  1.00  0.00    +0.000 N 
ATOM     54  C37 UNL A   1      20.911  36.271  48.616  1.00  0.00    +0.000 C 
ATOM     55  C38 UNL A   1      21.018  37.312  49.695  1.00  0.00    +0.000 C 
ATOM     67  C45 UNL A   1      22.233  37.774  50.046  1.00  0.00    +0.000 C 
ATOM     68  C46 UNL A   1      22.497  38.750  51.098  1.00  0.00    +0.000 C 
ATOM     69  C47 UNL A   1      23.820  38.975  51.164  1.00  0.00    +0.000 C 
ATOM     70  C48 UNL A   1      24.497  38.141  50.170  1.00  0.00    +0.000 C 
ATOM     71  N6  UNL A   1      23.476  37.470  49.546  1.00  0.00    +0.000 N 
ATOM     72  C49 UNL A   1      19.564  35.767  48.315  1.00  0.00    +0.000 C 
ATOM     73  C50 UNL A   1      19.819  34.849  47.394  1.00  0.00    +0.000 C 
ATOM     74  C51 UNL A   1      28.020  36.516  47.623  1.00  0.00    +0.000 C 
ATOM     75  C52 UNL A   1      27.856  37.299  48.680  1.00  0.00    +0.000 C 
ATOM    119  H21 UNL A   1      25.889  32.978  44.287  1.00  0.00    +0.000 H 
ATOM    120  H22 UNL A   1      23.325  32.518  44.173  1.00  0.00    +0.000 H 
ATOM    121  H23 UNL A   1      24.008  35.364  47.102  1.00  0.00    +0.000 H 
ATOM    122  H24 UNL A   1      21.783  39.195  51.695  1.00  0.00    +0.000 H 
ATOM    123  H25 UNL A   1      24.284  39.631  51.812  1.00  0.00    +0.000 H 
ATOM    124  H26 UNL A   1      23.621  36.832  48.810  1.00  0.00    +0.000 H 
ATOM    125  H27 UNL A   1      18.656  36.053  48.715  1.00  0.00    +0.000 H 
ATOM    126  H28 UNL A   1      19.105  34.240  46.966  1.00  0.00    +0.000 H 
ATOM    127  H29 UNL A   1      28.923  36.351  47.153  1.00  0.00    +0.000 H 
ATOM    128  H30 UNL A   1      28.567  37.811  49.226  1.00  0.00    +0.000 H 
ENDROOT
BRANCH   19   18
ATOM    129  H31 UNL A   1      27.023  37.434  52.291  1.00  0.00    +0.000 H 
ATOM    130  H32 UNL A   1      28.413  38.816  53.719  1.00  0.00    +0.000 H 
ATOM     76  C53 UNL A   1      27.248  38.402  52.010  1.00  0.00    +0.000 C 
ATOM     77  C54 UNL A   1      28.079  39.182  52.815  1.00  0.00    +0.000 C 
ATOM     15  C11 UNL A   1      28.458  40.461  52.394  1.00  0.00    +0.000 C 
ATOM     16  C12 UNL A   1      27.920  41.000  51.221  1.00  0.00    +0.000 C 
ATOM     17  C13 UNL A   1      27.042  40.240  50.448  1.00  0.00    +0.000 C 
ATOM     18  C14 UNL A   1      26.717  38.926  50.823  1.00  0.00    +0.000 C 
ATOM    117  H19 UNL A   1      28.173  41.956  50.927  1.00  0.00    +0.000 H 
ATOM    118  H20 UNL A   1      26.627  40.647  49.595  1.00  0.00    +0.000 H 
BRANCH   15   13
ATOM     13  C10 UNL A   1      29.393  41.292  53.188  1.00  0.00    +0.000 C 
ATOM     14  O2  UNL A   1      29.078  42.441  53.484  1.00  0.00    +0.000 O 
BRANCH   13   12
ATOM    116  H18 UNL A   1      30.603  40.328  54.448  1.00  0.00    +0.000 H 
ATOM     12  N2  UNL A   1      30.603  40.794  53.581  1.00  0.00    +0.000 N 
BRANCH   12   11
ATOM    114  H16 UNL A   1      32.396  41.749  53.203  1.00  0.00    +0.000 H 
ATOM     11  C9  UNL A   1      31.892  40.852  52.907  1.00  0.00    +0.000 C 
ATOM    115  H17 UNL A   1      32.450  39.983  53.188  1.00  0.00    +0.000 H 
BRANCH   11   10
ATOM    113  H15 UNL A   1      32.676  41.209  50.999  1.00  0.00    +0.000 H 
ATOM     10  C8  UNL A   1      31.748  40.846  51.388  1.00  0.00    +0.000 C 
ATOM    112  H14 UNL A   1      30.912  41.464  51.132  1.00  0.00    +0.000 H 
BRANCH   10    9
ATOM      9  C7  UNL A   1      31.528  39.467  50.764  1.00  0.00    +0.000 C 
ATOM    110  H12 UNL A   1      32.485  39.005  50.633  1.00  0.00    +0.000 H 
ATOM    111  H13 UNL A   1      30.887  38.934  51.435  1.00  0.00    +0.000 H 
BRANCH    9    8
ATOM    108  H10 UNL A   1      29.793  39.209  49.570  1.00  0.00    +0.000 H 
ATOM    109  H11 UNL A   1      30.941  40.464  49.014  1.00  0.00    +0.000 H 
ATOM      8  C6  UNL A   1      30.817  39.477  49.409  1.00  0.00    +0.000 C 
BRANCH    8    7
ATOM    106  H8  UNL A   1      31.054  37.531  48.583  1.00  0.00    +0.000 H 
ATOM    107  H9  UNL A   1      31.072  38.874  47.409  1.00  0.00    +0.000 H 
ATOM      7  C5  UNL A   1      31.400  38.519  48.363  1.00  0.00    +0.000 C 
BRANCH    7    6
ATOM    105  H7  UNL A   1      33.254  37.477  48.192  1.00  0.00    +0.000 H 
ATOM      6  C4  UNL A   1      32.933  38.491  48.315  1.00  0.00    +0.000 C 
ATOM    104  H6  UNL A   1      33.320  38.897  49.226  1.00  0.00    +0.000 H 
BRANCH    6    5
ATOM      5  N1  UNL A   1      33.426  39.273  47.199  1.00  0.00    +0.000 N 
ATOM    103  H5  UNL A   1      33.997  40.044  47.420  1.00  0.00    +0.000 H 
BRANCH    5    3
ATOM      3  C3  UNL A   1      33.181  39.052  45.870  1.00  0.00    +0.000 C 
ATOM      4  O1  UNL A   1      33.601  37.998  45.391  1.00  0.00    +0.000 O 
BRANCH    3    2
ATOM      2  C2  UNL A   1      32.434  40.126  45.058  1.00  0.00    +0.000 C 
ATOM    102  H4  UNL A   1      32.584  39.925  44.018  1.00  0.00    +0.000 H 
BRANCH    2    1
ATOM      1  C1  UNL A   1      33.023  41.500  45.419  1.00  0.00    +0.000 C 
ATOM     99  H1  UNL A   1      33.182  42.065  44.524  1.00  0.00    +0.000 H 
ATOM    100  H2  UNL A   1      33.955  41.366  45.927  1.00  0.00    +0.000 H 
ATOM    101  H3  UNL A   1      32.342  42.024  46.056  1.00  0.00    +0.000 H 
ENDBRANCH    2    1
BRANCH    2   78
ATOM    131  H33 UNL A   1      30.600  38.319  44.112  1.00  0.00    +0.000 H 
ATOM    132  H34 UNL A   1      28.226  38.138  44.572  1.00  0.00    +0.000 H 
ATOM    133  H35 UNL A   1      25.704  38.338  45.675  1.00  0.00    +0.000 H 
ATOM    134  H36 UNL A   1      23.448  41.299  47.610  1.00  0.00    +0.000 H 
ATOM    135  H37 UNL A   1      25.389  42.768  47.693  1.00  0.00    +0.000 H 
ATOM    138  H40 UNL A   1      30.756  41.963  46.184  1.00  0.00    +0.000 H 
ATOM     78  C55 UNL A   1      30.905  40.082  45.220  1.00  0.00    +0.000 C 
ATOM     79  C56 UNL A   1      30.140  39.036  44.694  1.00  0.00    +0.000 C 
ATOM     80  C57 UNL A   1      28.763  38.940  44.937  1.00  0.00    +0.000 C 
ATOM     81  C58 UNL A   1      28.113  39.941  45.687  1.00  0.00    +0.000 C 
ATOM     82  C59 UNL A   1      26.789  40.098  46.177  1.00  0.00    +0.000 C 
ATOM     83  C60 UNL A   1      25.648  39.269  46.119  1.00  0.00    +0.000 C 
ATOM     84  C61 UNL A   1      24.447  39.715  46.661  1.00  0.00    +0.000 C 
ATOM     85 Cl1  UNL A   1      23.060  38.696  46.603  1.00  0.00    +0.000 Cl
ATOM     86  C62 UNL A   1      24.352  40.977  47.230  1.00  0.00    +0.000 C 
ATOM     87  C63 UNL A   1      25.469  41.820  47.294  1.00  0.00    +0.000 C 
ATOM     88  C64 UNL A   1      26.707  41.350  46.806  1.00  0.00    +0.000 C 
ATOM     89  N7  UNL A   1      27.974  41.937  46.741  1.00  0.00    +0.000 N 
ATOM     97  C69 UNL A   1      28.842  41.052  46.089  1.00  0.00    +0.000 C 
ATOM     98  C70 UNL A   1      30.231  41.131  45.868  1.00  0.00    +0.000 C 
BRANCH   89   90
ATOM     90  C65 UNL A   1      28.372  43.214  47.218  1.00  0.00    +0.000 C 
ATOM     91  O3  UNL A   1      28.405  44.116  46.370  1.00  0.00    +0.000 O 
BRANCH   90   92
ATOM    136  H38 UNL A   1      30.787  42.734  48.776  1.00  0.00    +0.000 H 
ATOM    137  H39 UNL A   1      28.436  44.898  51.364  1.00  0.00    +0.000 H 
ATOM     92  C66 UNL A   1      28.783  43.504  48.585  1.00  0.00    +0.000 C 
ATOM     93  C67 UNL A   1      29.997  43.248  49.194  1.00  0.00    +0.000 C 
ATOM     94  O4  UNL A   1      29.972  43.794  50.446  1.00  0.00    +0.000 O 
ATOM     95  C68 UNL A   1      28.749  44.380  50.528  1.00  0.00    +0.000 C 
ATOM     96  N8  UNL A   1      27.999  44.238  49.464  1.00  0.00    +0.000 N 
ENDBRANCH   90   92
ENDBRANCH   89   90
ENDBRANCH    2   78
ENDBRANCH    3    2
ENDBRANCH    5    3
ENDBRANCH    6    5
ENDBRANCH    7    6
ENDBRANCH    8    7
ENDBRANCH    9    8
ENDBRANCH   10    9
ENDBRANCH   11   10
ENDBRANCH   12   11
ENDBRANCH   13   12
ENDBRANCH   15   13
ENDBRANCH   19   18
BRANCH   23   24
ATOM     33  C24 UNL A   1      28.723  33.583  46.078  1.00  0.00    +0.000 C 
ATOM     34  F5  UNL A   1      28.389  32.984  47.231  1.00  0.00    +0.000 F 
ATOM     24  C19 UNL A   1      27.890  34.566  45.524  1.00  0.00    +0.000 C 
ATOM     25  C20 UNL A   1      28.289  35.163  44.319  1.00  0.00    +0.000 C 
ATOM     26  F1  UNL A   1      27.521  36.101  43.743  1.00  0.00    +0.000 F 
ATOM     27  C21 UNL A   1      29.466  34.778  43.684  1.00  0.00    +0.000 C 
ATOM     28  F2  UNL A   1      29.809  35.336  42.514  1.00  0.00    +0.000 F 
ATOM     29  C22 UNL A   1      30.281  33.812  44.254  1.00  0.00    +0.000 C 
ATOM     30  F3  UNL A   1      31.420  33.448  43.647  1.00  0.00    +0.000 F 
ATOM     31  C23 UNL A   1      29.913  33.218  45.453  1.00  0.00    +0.000 C 
ATOM     32  F4  UNL A   1      30.704  32.292  46.010  1.00  0.00    +0.000 F 
ENDBRANCH   23   24
BRANCH   40   41
ATOM     41  C30 UNL A   1      20.828  33.102  45.376  1.00  0.00    +0.000 C 
ATOM     42  C31 UNL A   1      20.042  33.572  44.314  1.00  0.00    +0.000 C 
ATOM     43  F6  UNL A   1      20.092  34.865  43.958  1.00  0.00    +0.000 F 
ATOM     44  C32 UNL A   1      19.164  32.725  43.645  1.00  0.00    +0.000 C 
ATOM     45  F7  UNL A   1      18.384  33.207  42.668  1.00  0.00    +0.000 F 
ATOM     46  C33 UNL A   1      19.082  31.387  44.001  1.00  0.00    +0.000 C 
ATOM     47  F8  UNL A   1      18.235  30.572  43.357  1.00  0.00    +0.000 F 
ATOM     48  C34 UNL A   1      19.869  30.895  45.032  1.00  0.00    +0.000 C 
ATOM     49  F9  UNL A   1      19.796  29.601  45.370  1.00  0.00    +0.000 F 
ATOM     50  C35 UNL A   1      20.728  31.747  45.721  1.00  0.00    +0.000 C 
ATOM     51  F10 UNL A   1      21.464  31.247  46.725  1.00  0.00    +0.000 F 
ENDBRANCH   40   41
BRANCH   55   56
ATOM     65  C44 UNL A   1      19.397  37.269  51.618  1.00  0.00    +0.000 C 
ATOM     66  F15 UNL A   1      20.093  36.266  52.174  1.00  0.00    +0.000 F 
ATOM     56  C39 UNL A   1      19.807  37.813  50.393  1.00  0.00    +0.000 C 
ATOM     57  C40 UNL A   1      19.041  38.855  49.851  1.00  0.00    +0.000 C 
ATOM     58  F11 UNL A   1      19.406  39.421  48.691  1.00  0.00    +0.000 F 
ATOM     59  C41 UNL A   1      17.924  39.350  50.521  1.00  0.00    +0.000 C 
ATOM     60  F12 UNL A   1      17.237  40.377  50.005  1.00  0.00    +0.000 F 
ATOM     61  C42 UNL A   1      17.533  38.792  51.729  1.00  0.00    +0.000 C 
ATOM     62  F13 UNL A   1      16.460  39.267  52.373  1.00  0.00    +0.000 F 
ATOM     63  C43 UNL A   1      18.264  37.746  52.273  1.00  0.00    +0.000 C 
ATOM     64  F14 UNL A   1      17.883  37.195  53.434  1.00  0.00    +0.000 F 
ENDBRANCH   55   56
TORSDOF 19
ENDMDL
MODEL 4
REMARK VINA RESULT:      -8.9     28.579     34.089
ROOT
ATOM     19  C15 UNL A   1      18.514  21.058   3.092  1.00  0.00    +0.000 C 
ATOM     20  C16 UNL A   1      19.174  19.818   3.624  1.00  0.00    +0.000 C 
ATOM     21  N3  UNL A   1      18.806  19.046   4.616  1.00  0.00    +0.000 N 
ATOM     22  C17 UNL A   1      19.749  18.029   4.676  1.00  0.00    +0.000 C 
ATOM     23  C18 UNL A   1      19.849  17.020   5.574  1.00  0.00    +0.000 C 
ATOM     35  C25 UNL A   1      18.935  16.809   6.667  1.00  0.00    +0.000 C 
ATOM     36  C26 UNL A   1      18.969  15.834   7.647  1.00  0.00    +0.000 C 
ATOM     37  C27 UNL A   1      17.860  16.011   8.481  1.00  0.00    +0.000 C 
ATOM     38  C28 UNL A   1      17.155  17.119   8.042  1.00  0.00    +0.000 C 
ATOM     39  N4  UNL A   1      17.820  17.594   6.922  1.00  0.00    +0.000 N 
ATOM     40  C29 UNL A   1      15.966  17.707   8.602  1.00  0.00    +0.000 C 
ATOM     52  C36 UNL A   1      15.328  18.794   8.105  1.00  0.00    +0.000 C 
ATOM     53  N5  UNL A   1      15.644  19.561   6.993  1.00  0.00    +0.000 N 
ATOM     54  C37 UNL A   1      14.713  20.478   6.910  1.00  0.00    +0.000 C 
ATOM     55  C38 UNL A   1      14.565  21.592   5.912  1.00  0.00    +0.000 C 
ATOM     67  C45 UNL A   1      15.503  21.752   4.960  1.00  0.00    +0.000 C 
ATOM     68  C46 UNL A   1      15.516  22.808   3.952  1.00  0.00    +0.000 C 
ATOM     69  C47 UNL A   1      16.595  22.652   3.169  1.00  0.00    +0.000 C 
ATOM     70  C48 UNL A   1      17.362  21.496   3.635  1.00  0.00    +0.000 C 
ATOM     71  N6  UNL A   1      16.632  21.018   4.695  1.00  0.00    +0.000 N 
ATOM     72  C49 UNL A   1      13.687  20.387   7.958  1.00  0.00    +0.000 C 
ATOM     73  C50 UNL A   1      14.132  19.372   8.684  1.00  0.00    +0.000 C 
ATOM     74  C51 UNL A   1      20.677  18.249   3.586  1.00  0.00    +0.000 C 
ATOM     75  C52 UNL A   1      20.398  19.372   2.940  1.00  0.00    +0.000 C 
ATOM    119  H21 UNL A   1      19.690  15.102   7.747  1.00  0.00    +0.000 H 
ATOM    120  H22 UNL A   1      17.608  15.416   9.286  1.00  0.00    +0.000 H 
ATOM    121  H23 UNL A   1      17.542  18.373   6.388  1.00  0.00    +0.000 H 
ATOM    122  H24 UNL A   1      14.809  23.553   3.857  1.00  0.00    +0.000 H 
ATOM    123  H25 UNL A   1      16.845  23.252   2.367  1.00  0.00    +0.000 H 
ATOM    124  H26 UNL A   1      16.894  20.224   5.215  1.00  0.00    +0.000 H 
ATOM    125  H27 UNL A   1      12.841  20.963   8.093  1.00  0.00    +0.000 H 
ATOM    126  H28 UNL A   1      13.684  19.036   9.550  1.00  0.00    +0.000 H 
ATOM    127  H29 UNL A   1      21.453  17.614   3.345  1.00  0.00    +0.000 H 
ATOM    128  H30 UNL A   1      20.907  19.817   2.160  1.00  0.00    +0.000 H 
ENDROOT
BRANCH   19   18
ATOM    129  H31 UNL A   1      20.360  23.019   3.129  1.00  0.00    +0.000 H 
ATOM    130  H32 UNL A   1      21.263  24.273   1.259  1.00  0.00    +0.000 H 
ATOM     76  C53 UNL A   1      20.060  22.796   2.166  1.00  0.00    +0.000 C 
ATOM     77  C54 UNL A   1      20.609  23.493   1.090  1.00  0.00    +0.000 C 
ATOM     15  C11 UNL A   1      20.272  23.134  -0.220  1.00  0.00    +0.000 C 
ATOM     16  C12 UNL A   1      19.306  22.150  -0.448  1.00  0.00    +0.000 C 
ATOM     17  C13 UNL A   1      18.713  21.496   0.631  1.00  0.00    +0.000 C 
ATOM     18  C14 UNL A   1      19.103  21.796   1.947  1.00  0.00    +0.000 C 
ATOM    117  H19 UNL A   1      19.032  21.907  -1.413  1.00  0.00    +0.000 H 
ATOM    118  H20 UNL A   1      17.983  20.786   0.462  1.00  0.00    +0.000 H 
BRANCH   15   13
ATOM     13  C10 UNL A   1      20.886  23.805  -1.389  1.00  0.00    +0.000 C 
ATOM     14  O2  UNL A   1      21.735  24.673  -1.211  1.00  0.00    +0.000 O 
BRANCH   13   12
ATOM    116  H18 UNL A   1      19.648  23.851  -2.954  1.00  0.00    +0.000 H 
ATOM     12  N2  UNL A   1      20.507  23.472  -2.659  1.00  0.00    +0.000 N 
BRANCH   12   11
ATOM    114  H16 UNL A   1      20.478  21.959  -4.066  1.00  0.00    +0.000 H 
ATOM     11  C9  UNL A   1      21.187  22.638  -3.640  1.00  0.00    +0.000 C 
ATOM    115  H17 UNL A   1      21.605  23.280  -4.386  1.00  0.00    +0.000 H 
BRANCH   11   10
ATOM    113  H15 UNL A   1      22.062  21.684  -1.994  1.00  0.00    +0.000 H 
ATOM     10  C8  UNL A   1      22.327  21.834  -3.020  1.00  0.00    +0.000 C 
ATOM    112  H14 UNL A   1      23.232  22.390  -3.147  1.00  0.00    +0.000 H 
BRANCH   10    9
ATOM      9  C7  UNL A   1      22.536  20.441  -3.618  1.00  0.00    +0.000 C 
ATOM    110  H12 UNL A   1      21.837  19.774  -3.159  1.00  0.00    +0.000 H 
ATOM    111  H13 UNL A   1      22.394  20.545  -4.674  1.00  0.00    +0.000 H 
BRANCH    9    8
ATOM    108  H10 UNL A   1      24.242  19.418  -4.356  1.00  0.00    +0.000 H 
ATOM    109  H11 UNL A   1      24.562  20.679  -3.128  1.00  0.00    +0.000 H 
ATOM      8  C6  UNL A   1      23.939  19.862  -3.431  1.00  0.00    +0.000 C 
BRANCH    8    7
ATOM    106  H8  UNL A   1      23.154  18.801  -1.763  1.00  0.00    +0.000 H 
ATOM    107  H9  UNL A   1      24.245  17.870  -2.824  1.00  0.00    +0.000 H 
ATOM      7  C5  UNL A   1      24.062  18.801  -2.331  1.00  0.00    +0.000 C 
BRANCH    7    6
ATOM    105  H7  UNL A   1      25.639  19.996  -1.534  1.00  0.00    +0.000 H 
ATOM      6  C4  UNL A   1      25.232  19.021  -1.364  1.00  0.00    +0.000 C 
ATOM    104  H6  UNL A   1      25.975  18.271  -1.536  1.00  0.00    +0.000 H 
BRANCH    6    5
ATOM      5  N1  UNL A   1      24.783  18.939   0.012  1.00  0.00    +0.000 N 
ATOM    103  H5  UNL A   1      23.815  19.040   0.166  1.00  0.00    +0.000 H 
BRANCH    5    3
ATOM      3  C3  UNL A   1      25.563  18.737   1.119  1.00  0.00    +0.000 C 
ATOM      4  O1  UNL A   1      26.600  19.396   1.200  1.00  0.00    +0.000 O 
BRANCH    3    2
ATOM      2  C2  UNL A   1      25.122  17.696   2.165  1.00  0.00    +0.000 C 
ATOM    102  H4  UNL A   1      25.800  16.870   2.122  1.00  0.00    +0.000 H 
BRANCH    2    1
ATOM      1  C1  UNL A   1      23.700  17.229   1.811  1.00  0.00    +0.000 C 
ATOM     99  H1  UNL A   1      23.029  18.061   1.863  1.00  0.00    +0.000 H 
ATOM    100  H2  UNL A   1      23.389  16.476   2.506  1.00  0.00    +0.000 H 
ATOM    101  H3  UNL A   1      23.693  16.825   0.821  1.00  0.00    +0.000 H 
ENDBRANCH    2    1
BRANCH    2   78
ATOM    131  H33 UNL A   1      23.678  19.596   3.517  1.00  0.00    +0.000 H 
ATOM    132  H34 UNL A   1      23.714  20.185   5.869  1.00  0.00    +0.000 H 
ATOM    133  H35 UNL A   1      24.059  20.192   8.607  1.00  0.00    +0.000 H 
ATOM    134  H36 UNL A   1      26.984  18.884  11.316  1.00  0.00    +0.000 H 
ATOM    135  H37 UNL A   1      28.195  17.771   9.520  1.00  0.00    +0.000 H 
ATOM    138  H40 UNL A   1      26.978  17.065   4.066  1.00  0.00    +0.000 H 
ATOM     78  C55 UNL A   1      25.235  18.184   3.619  1.00  0.00    +0.000 C 
ATOM     79  C56 UNL A   1      24.362  19.143   4.143  1.00  0.00    +0.000 C 
ATOM     80  C57 UNL A   1      24.395  19.503   5.497  1.00  0.00    +0.000 C 
ATOM     81  C58 UNL A   1      25.358  18.929   6.350  1.00  0.00    +0.000 C 
ATOM     82  C59 UNL A   1      25.602  19.004   7.749  1.00  0.00    +0.000 C 
ATOM     83  C60 UNL A   1      24.925  19.662   8.798  1.00  0.00    +0.000 C 
ATOM     84  C61 UNL A   1      25.432  19.592  10.091  1.00  0.00    +0.000 C 
ATOM     85 Cl1  UNL A   1      24.597  20.380  11.374  1.00  0.00    +0.000 Cl
ATOM     86  C62 UNL A   1      26.612  18.909  10.354  1.00  0.00    +0.000 C 
ATOM     87  C63 UNL A   1      27.304  18.254   9.327  1.00  0.00    +0.000 C 
ATOM     88  C64 UNL A   1      26.762  18.265   8.024  1.00  0.00    +0.000 C 
ATOM     89  N7  UNL A   1      27.202  17.707   6.820  1.00  0.00    +0.000 N 
ATOM     97  C69 UNL A   1      26.315  18.085   5.805  1.00  0.00    +0.000 C 
ATOM     98  C70 UNL A   1      26.261  17.702   4.449  1.00  0.00    +0.000 C 
BRANCH   89   90
ATOM     90  C65 UNL A   1      28.351  16.903   6.597  1.00  0.00    +0.000 C 
ATOM     91  O3  UNL A   1      28.198  15.688   6.781  1.00  0.00    +0.000 O 
BRANCH   90   92
ATOM    136  H38 UNL A   1      29.683  17.513   4.078  1.00  0.00    +0.000 H 
ATOM    137  H39 UNL A   1      32.436  18.707   6.891  1.00  0.00    +0.000 H 
ATOM     92  C66 UNL A   1      29.667  17.410   6.231  1.00  0.00    +0.000 C 
ATOM     93  C67 UNL A   1      30.164  17.693   4.973  1.00  0.00    +0.000 C 
ATOM     94  O4  UNL A   1      31.401  18.254   5.117  1.00  0.00    +0.000 O 
ATOM     95  C68 UNL A   1      31.585  18.309   6.462  1.00  0.00    +0.000 C 
ATOM     96  N8  UNL A   1      30.600  17.820   7.172  1.00  0.00    +0.000 N 
ENDBRANCH   90   92
ENDBRANCH   89   90
ENDBRANCH    2   78
ENDBRANCH    3    2
ENDBRANCH    5    3
ENDBRANCH    6    5
ENDBRANCH    7    6
ENDBRANCH    8    7
ENDBRANCH    9    8
ENDBRANCH   10    9
ENDBRANCH   11   10
ENDBRANCH   12   11
ENDBRANCH   13   12
ENDBRANCH   15   13
ENDBRANCH   19   18
BRANCH   23   24
ATOM     33  C24 UNL A   1      22.220  16.315   6.079  1.00  0.00    +0.000 C 
ATOM     34  F5  UNL A   1      22.356  17.379   6.883  1.00  0.00    +0.000 F 
ATOM     24  C19 UNL A   1      21.002  16.072   5.425  1.00  0.00    +0.000 C 
ATOM     25  C20 UNL A   1      20.916  14.947   4.592  1.00  0.00    +0.000 C 
ATOM     26  F1  UNL A   1      19.770  14.665   3.954  1.00  0.00    +0.000 F 
ATOM     27  C21 UNL A   1      22.000  14.087   4.434  1.00  0.00    +0.000 C 
ATOM     28  F2  UNL A   1      21.882  12.997   3.662  1.00  0.00    +0.000 F 
ATOM     29  C22 UNL A   1      23.197  14.351   5.081  1.00  0.00    +0.000 C 
ATOM     30  F3  UNL A   1      24.244  13.528   4.920  1.00  0.00    +0.000 F 
ATOM     31  C23 UNL A   1      23.310  15.466   5.898  1.00  0.00    +0.000 C 
ATOM     32  F4  UNL A   1      24.470  15.728   6.515  1.00  0.00    +0.000 F 
ENDBRANCH   23   24
BRANCH   40   41
ATOM     41  C30 UNL A   1      15.389  17.085   9.839  1.00  0.00    +0.000 C 
ATOM     42  C31 UNL A   1      15.592  17.652  11.106  1.00  0.00    +0.000 C 
ATOM     43  F6  UNL A   1      16.345  18.755  11.239  1.00  0.00    +0.000 F 
ATOM     44  C32 UNL A   1      15.062  17.059  12.248  1.00  0.00    +0.000 C 
ATOM     45  F7  UNL A   1      15.312  17.588  13.453  1.00  0.00    +0.000 F 
ATOM     46  C33 UNL A   1      14.292  15.911  12.141  1.00  0.00    +0.000 C 
ATOM     47  F8  UNL A   1      13.783  15.340  13.242  1.00  0.00    +0.000 F 
ATOM     48  C34 UNL A   1      14.057  15.347  10.896  1.00  0.00    +0.000 C 
ATOM     49  F9  UNL A   1      13.305  14.243  10.792  1.00  0.00    +0.000 F 
ATOM     50  C35 UNL A   1      14.608  15.923   9.754  1.00  0.00    +0.000 C 
ATOM     51  F10 UNL A   1      14.380  15.346   8.565  1.00  0.00    +0.000 F 
ENDBRANCH   40   41
BRANCH   55   56
ATOM     65  C44 UNL A   1      13.423  23.623   6.861  1.00  0.00    +0.000 C 
ATOM     66  F15 UNL A   1      14.473  23.828   7.669  1.00  0.00    +0.000 F 
ATOM     56  C39 UNL A   1      13.415  22.530   5.983  1.00  0.00    +0.000 C 
ATOM     57  C40 UNL A   1      12.291  22.356   5.165  1.00  0.00    +0.000 C 
ATOM     58  F11 UNL A   1      12.247  21.336   4.295  1.00  0.00    +0.000 F 
ATOM     59  C41 UNL A   1      11.226  23.254   5.206  1.00  0.00    +0.000 C 
ATOM     60  F12 UNL A   1      10.184  23.092   4.380  1.00  0.00    +0.000 F 
ATOM     61  C42 UNL A   1      11.252  24.325   6.087  1.00  0.00    +0.000 C 
ATOM     62  F13 UNL A   1      10.229  25.188   6.126  1.00  0.00    +0.000 F 
ATOM     63  C43 UNL A   1      12.346  24.505   6.921  1.00  0.00    +0.000 C 
ATOM     64  F14 UNL A   1      12.370  25.531   7.783  1.00  0.00    +0.000 F 
ENDBRANCH   55   56
TORSDOF 19
ENDMDL
MODEL 5
REMARK VINA RESULT:      -8.9     39.770     47.703
ROOT
ATOM     19  C15 UNL A   1      28.165  33.514  47.460  1.00  0.00    +0.000 C 
ATOM     20  C16 UNL A   1      28.921  32.578  48.360  1.00  0.00    +0.000 C 
ATOM     21  N3  UNL A   1      30.175  32.204  48.298  1.00  0.00    +0.000 N 
ATOM     22  C17 UNL A   1      30.370  31.350  49.376  1.00  0.00    +0.000 C 
ATOM     23  C18 UNL A   1      31.479  30.648  49.708  1.00  0.00    +0.000 C 
ATOM     35  C25 UNL A   1      32.716  30.683  48.972  1.00  0.00    +0.000 C 
ATOM     36  C26 UNL A   1      33.886  29.984  49.212  1.00  0.00    +0.000 C 
ATOM     37  C27 UNL A   1      34.827  30.360  48.247  1.00  0.00    +0.000 C 
ATOM     38  C28 UNL A   1      34.232  31.264  47.383  1.00  0.00    +0.000 C 
ATOM     39  N4  UNL A   1      32.940  31.461  47.845  1.00  0.00    +0.000 N 
ATOM     40  C29 UNL A   1      34.794  31.899  46.221  1.00  0.00    +0.000 C 
ATOM     52  C36 UNL A   1      34.144  32.785  45.427  1.00  0.00    +0.000 C 
ATOM     53  N5  UNL A   1      32.850  33.273  45.540  1.00  0.00    +0.000 N 
ATOM     54  C37 UNL A   1      32.699  34.124  44.555  1.00  0.00    +0.000 C 
ATOM     55  C38 UNL A   1      31.489  34.933  44.178  1.00  0.00    +0.000 C 
ATOM     67  C45 UNL A   1      30.354  34.790  44.887  1.00  0.00    +0.000 C 
ATOM     68  C46 UNL A   1      29.094  35.474  44.616  1.00  0.00    +0.000 C 
ATOM     69  C47 UNL A   1      28.184  35.093  45.527  1.00  0.00    +0.000 C 
ATOM     70  C48 UNL A   1      28.794  34.120  46.435  1.00  0.00    +0.000 C 
ATOM     71  N6  UNL A   1      30.086  34.010  45.985  1.00  0.00    +0.000 N 
ATOM     72  C49 UNL A   1      33.890  34.283  43.711  1.00  0.00    +0.000 C 
ATOM     73  C50 UNL A   1      34.727  33.414  44.260  1.00  0.00    +0.000 C 
ATOM     74  C51 UNL A   1      29.122  31.304  50.108  1.00  0.00    +0.000 C 
ATOM     75  C52 UNL A   1      28.179  32.001  49.492  1.00  0.00    +0.000 C 
ATOM    119  H21 UNL A   1      34.038  29.303  49.972  1.00  0.00    +0.000 H 
ATOM    120  H22 UNL A   1      35.800  30.021  48.189  1.00  0.00    +0.000 H 
ATOM    121  H23 UNL A   1      32.278  32.064  47.434  1.00  0.00    +0.000 H 
ATOM    122  H24 UNL A   1      28.929  36.143  43.848  1.00  0.00    +0.000 H 
ATOM    123  H25 UNL A   1      27.210  35.432  45.579  1.00  0.00    +0.000 H 
ATOM    124  H26 UNL A   1      30.756  33.427  46.410  1.00  0.00    +0.000 H 
ATOM    125  H27 UNL A   1      34.038  34.908  42.903  1.00  0.00    +0.000 H 
ATOM    126  H28 UNL A   1      35.673  33.211  43.901  1.00  0.00    +0.000 H 
ATOM    127  H29 UNL A   1      28.986  30.795  50.995  1.00  0.00    +0.000 H 
ATOM    128  H30 UNL A   1      27.183  32.111  49.741  1.00  0.00    +0.000 H 
ENDROOT
BRANCH   19   18
ATOM    129  H31 UNL A   1      27.084  35.327  49.132  1.00  0.00    +0.000 H 
ATOM    130  H32 UNL A   1      24.738  35.746  49.587  1.00  0.00    +0.000 H 
ATOM     76  C53 UNL A   1      26.358  34.795  48.626  1.00  0.00    +0.000 C 
ATOM     77  C54 UNL A   1      25.010  35.064  48.862  1.00  0.00    +0.000 C 
ATOM     15  C11 UNL A   1      24.025  34.408  48.115  1.00  0.00    +0.000 C 
ATOM     16  C12 UNL A   1      24.386  33.407  47.208  1.00  0.00    +0.000 C 
ATOM     17  C13 UNL A   1      25.733  33.097  47.017  1.00  0.00    +0.000 C 
ATOM     18  C14 UNL A   1      26.731  33.805  47.706  1.00  0.00    +0.000 C 
ATOM    117  H19 UNL A   1      23.660  32.900  46.680  1.00  0.00    +0.000 H 
ATOM    118  H20 UNL A   1      25.997  32.342  46.365  1.00  0.00    +0.000 H 
BRANCH   15   13
ATOM     13  C10 UNL A   1      22.587  34.717  48.288  1.00  0.00    +0.000 C 
ATOM     14  O2  UNL A   1      21.865  33.921  48.880  1.00  0.00    +0.000 O 
BRANCH   13   12
ATOM    116  H18 UNL A   1      21.230  35.765  47.266  1.00  0.00    +0.000 H 
ATOM     12  N2  UNL A   1      22.059  35.874  47.787  1.00  0.00    +0.000 N 
BRANCH   12   11
ATOM    114  H16 UNL A   1      21.714  37.881  48.137  1.00  0.00    +0.000 H 
ATOM     11  C9  UNL A   1      22.542  37.241  47.908  1.00  0.00    +0.000 C 
ATOM    115  H17 UNL A   1      23.277  37.264  48.685  1.00  0.00    +0.000 H 
BRANCH   11   10
ATOM    113  H15 UNL A   1      24.197  38.022  46.890  1.00  0.00    +0.000 H 
ATOM     10  C8  UNL A   1      23.202  37.734  46.622  1.00  0.00    +0.000 C 
ATOM    112  H14 UNL A   1      22.615  38.543  46.237  1.00  0.00    +0.000 H 
BRANCH   10    9
ATOM      9  C7  UNL A   1      23.340  36.680  45.521  1.00  0.00    +0.000 C 
ATOM    110  H12 UNL A   1      24.357  36.681  45.187  1.00  0.00    +0.000 H 
ATOM    111  H13 UNL A   1      23.037  35.751  45.957  1.00  0.00    +0.000 H 
BRANCH    9    8
ATOM    108  H10 UNL A   1      22.995  37.448  43.574  1.00  0.00    +0.000 H 
ATOM    109  H11 UNL A   1      22.150  35.921  43.970  1.00  0.00    +0.000 H 
ATOM      8  C6  UNL A   1      22.440  36.896  44.304  1.00  0.00    +0.000 C 
BRANCH    8    7
ATOM    106  H8  UNL A   1      21.339  38.400  45.329  1.00  0.00    +0.000 H 
ATOM    107  H9  UNL A   1      20.821  38.075  43.654  1.00  0.00    +0.000 H 
ATOM      7  C5  UNL A   1      21.139  37.657  44.586  1.00  0.00    +0.000 C 
BRANCH    7    6
ATOM    105  H7  UNL A   1      19.087  37.071  44.585  1.00  0.00    +0.000 H 
ATOM      6  C4  UNL A   1      19.986  36.777  45.086  1.00  0.00    +0.000 C 
ATOM    104  H6  UNL A   1      19.881  36.904  46.143  1.00  0.00    +0.000 H 
BRANCH    6    5
ATOM      5  N1  UNL A   1      20.244  35.380  44.798  1.00  0.00    +0.000 N 
ATOM    103  H5  UNL A   1      20.623  35.177  43.912  1.00  0.00    +0.000 H 
BRANCH    5    3
ATOM      3  C3  UNL A   1      20.015  34.315  45.627  1.00  0.00    +0.000 C 
ATOM      4  O1  UNL A   1      19.176  34.469  46.516  1.00  0.00    +0.000 O 
BRANCH    3    2
ATOM      2  C2  UNL A   1      20.823  33.021  45.424  1.00  0.00    +0.000 C 
ATOM    102  H4  UNL A   1      21.186  32.699  46.377  1.00  0.00    +0.000 H 
BRANCH    2    1
ATOM      1  C1  UNL A   1      22.005  33.332  44.489  1.00  0.00    +0.000 C 
ATOM     99  H1  UNL A   1      22.758  33.864  45.032  1.00  0.00    +0.000 H 
ATOM    100  H2  UNL A   1      21.664  33.933  43.671  1.00  0.00    +0.000 H 
ATOM    101  H3  UNL A   1      22.413  32.418  44.114  1.00  0.00    +0.000 H 
ENDBRANCH    2    1
BRANCH    2   78
ATOM    131  H33 UNL A   1      21.428  30.348  45.322  1.00  0.00    +0.000 H 
ATOM    132  H34 UNL A   1      20.011  28.461  44.763  1.00  0.00    +0.000 H 
ATOM    133  H35 UNL A   1      17.867  26.791  44.282  1.00  0.00    +0.000 H 
ATOM    134  H36 UNL A   1      14.061  27.135  42.549  1.00  0.00    +0.000 H 
ATOM    135  H37 UNL A   1      14.316  29.552  42.394  1.00  0.00    +0.000 H 
ATOM    138  H40 UNL A   1      18.387  33.006  44.191  1.00  0.00    +0.000 H 
ATOM     78  C55 UNL A   1      19.984  31.829  44.932  1.00  0.00    +0.000 C 
ATOM     79  C56 UNL A   1      20.459  30.516  45.006  1.00  0.00    +0.000 C 
ATOM     80  C57 UNL A   1      19.652  29.423  44.663  1.00  0.00    +0.000 C 
ATOM     81  C58 UNL A   1      18.346  29.643  44.181  1.00  0.00    +0.000 C 
ATOM     82  C59 UNL A   1      17.267  28.783  43.838  1.00  0.00    +0.000 C 
ATOM     83  C60 UNL A   1      17.111  27.382  43.901  1.00  0.00    +0.000 C 
ATOM     84  C61 UNL A   1      15.931  26.802  43.444  1.00  0.00    +0.000 C 
ATOM     85 Cl1  UNL A   1      15.735  25.094  43.536  1.00  0.00    +0.000 Cl
ATOM     86  C62 UNL A   1      14.921  27.584  42.901  1.00  0.00    +0.000 C 
ATOM     87  C63 UNL A   1      15.057  28.977  42.823  1.00  0.00    +0.000 C 
ATOM     88  C64 UNL A   1      16.222  29.578  43.344  1.00  0.00    +0.000 C 
ATOM     89  N7  UNL A   1      16.635  30.912  43.420  1.00  0.00    +0.000 N 
ATOM     97  C69 UNL A   1      17.922  30.948  43.972  1.00  0.00    +0.000 C 
ATOM     98  C70 UNL A   1      18.725  32.044  44.346  1.00  0.00    +0.000 C 
BRANCH   89   90
ATOM     90  C65 UNL A   1      15.927  32.072  43.011  1.00  0.00    +0.000 C 
ATOM     91  O3  UNL A   1      15.262  32.632  43.893  1.00  0.00    +0.000 O 
BRANCH   90   92
ATOM    136  H38 UNL A   1      16.542  30.977  40.382  1.00  0.00    +0.000 H 
ATOM    137  H39 UNL A   1      15.116  34.734  39.506  1.00  0.00    +0.000 H 
ATOM     92  C66 UNL A   1      15.892  32.593  41.651  1.00  0.00    +0.000 C 
ATOM     93  C67 UNL A   1      16.179  31.939  40.468  1.00  0.00    +0.000 C 
ATOM     94  O4  UNL A   1      15.902  32.784  39.432  1.00  0.00    +0.000 O 
ATOM     95  C68 UNL A   1      15.431  33.906  40.037  1.00  0.00    +0.000 C 
ATOM     96  N8  UNL A   1      15.407  33.857  41.345  1.00  0.00    +0.000 N 
ENDBRANCH   90   92
ENDBRANCH   89   90
ENDBRANCH    2   78
ENDBRANCH    3    2
ENDBRANCH    5    3
ENDBRANCH    6    5
ENDBRANCH    7    6
ENDBRANCH    8    7
ENDBRANCH    9    8
ENDBRANCH   10    9
ENDBRANCH   11   10
ENDBRANCH   12   11
ENDBRANCH   13   12
ENDBRANCH   15   13
ENDBRANCH   19   18
BRANCH   23   24
ATOM     33  C24 UNL A   1      31.015  28.419  50.799  1.00  0.00    +0.000 C 
ATOM     34  F5  UNL A   1      30.749  27.895  49.594  1.00  0.00    +0.000 F 
ATOM     24  C19 UNL A   1      31.402  29.763  50.917  1.00  0.00    +0.000 C 
ATOM     25  C20 UNL A   1      31.663  30.261  52.202  1.00  0.00    +0.000 C 
ATOM     26  F1  UNL A   1      32.047  31.536  52.366  1.00  0.00    +0.000 F 
ATOM     27  C21 UNL A   1      31.560  29.442  53.323  1.00  0.00    +0.000 C 
ATOM     28  F2  UNL A   1      31.851  29.931  54.537  1.00  0.00    +0.000 F 
ATOM     29  C22 UNL A   1      31.166  28.121  53.186  1.00  0.00    +0.000 C 
ATOM     30  F3  UNL A   1      31.058  27.335  54.267  1.00  0.00    +0.000 F 
ATOM     31  C23 UNL A   1      30.888  27.610  51.925  1.00  0.00    +0.000 C 
ATOM     32  F4  UNL A   1      30.497  26.335  51.793  1.00  0.00    +0.000 F 
ENDBRANCH   23   24
BRANCH   40   41
ATOM     41  C30 UNL A   1      36.203  31.551  45.840  1.00  0.00    +0.000 C 
ATOM     42  C31 UNL A   1      37.292  32.305  46.299  1.00  0.00    +0.000 C 
ATOM     43  F6  UNL A   1      37.090  33.384  47.070  1.00  0.00    +0.000 F 
ATOM     44  C32 UNL A   1      38.594  31.979  45.928  1.00  0.00    +0.000 C 
ATOM     45  F7  UNL A   1      39.616  32.743  46.336  1.00  0.00    +0.000 F 
ATOM     46  C33 UNL A   1      38.832  30.877  45.122  1.00  0.00    +0.000 C 
ATOM     47  F8  UNL A   1      40.085  30.565  44.764  1.00  0.00    +0.000 F 
ATOM     48  C34 UNL A   1      37.770  30.103  44.675  1.00  0.00    +0.000 C 
ATOM     49  F9  UNL A   1      38.001  29.032  43.904  1.00  0.00    +0.000 F 
ATOM     50  C35 UNL A   1      36.465  30.442  45.023  1.00  0.00    +0.000 C 
ATOM     51  F10 UNL A   1      35.458  29.685  44.563  1.00  0.00    +0.000 F 
ENDBRANCH   40   41
BRANCH   55   56
ATOM     65  C44 UNL A   1      31.519  35.382  41.703  1.00  0.00    +0.000 C 
ATOM     66  F15 UNL A   1      31.495  34.062  41.470  1.00  0.00    +0.000 F 
ATOM     56  C39 UNL A   1      31.526  35.862  43.020  1.00  0.00    +0.000 C 
ATOM     57  C40 UNL A   1      31.558  37.251  43.210  1.00  0.00    +0.000 C 
ATOM     58  F11 UNL A   1      31.546  37.757  44.452  1.00  0.00    +0.000 F 
ATOM     59  C41 UNL A   1      31.558  38.126  42.126  1.00  0.00    +0.000 C 
ATOM     60  F12 UNL A   1      31.542  39.448  42.334  1.00  0.00    +0.000 F 
ATOM     61  C42 UNL A   1      31.556  37.628  40.831  1.00  0.00    +0.000 C 
ATOM     62  F13 UNL A   1      31.557  38.468  39.788  1.00  0.00    +0.000 F 
ATOM     63  C43 UNL A   1      31.546  36.257  40.619  1.00  0.00    +0.000 C 
ATOM     64  F14 UNL A   1      31.558  35.772  39.370  1.00  0.00    +0.000 F 
ENDBRANCH   55   56
TORSDOF 19
ENDMDL
MODEL 6
REMARK VINA RESULT:      -8.8     24.580     29.701
ROOT
ATOM     19  C15 UNL A   1      15.330  21.741   5.607  1.00  0.00    +0.000 C 
ATOM     20  C16 UNL A   1      16.537  22.041   4.764  1.00  0.00    +0.000 C 
ATOM     21  N3  UNL A   1      17.677  21.399   4.695  1.00  0.00    +0.000 N 
ATOM     22  C17 UNL A   1      18.437  22.076   3.750  1.00  0.00    +0.000 C 
ATOM     23  C18 UNL A   1      19.716  21.844   3.371  1.00  0.00    +0.000 C 
ATOM     35  C25 UNL A   1      20.544  20.790   3.898  1.00  0.00    +0.000 C 
ATOM     36  C26 UNL A   1      21.862  20.494   3.600  1.00  0.00    +0.000 C 
ATOM     37  C27 UNL A   1      22.237  19.367   4.340  1.00  0.00    +0.000 C 
ATOM     38  C28 UNL A   1      21.164  18.985   5.128  1.00  0.00    +0.000 C 
ATOM     39  N4  UNL A   1      20.128  19.860   4.840  1.00  0.00    +0.000 N 
ATOM     40  C29 UNL A   1      21.086  17.905   6.076  1.00  0.00    +0.000 C 
ATOM     52  C36 UNL A   1      19.990  17.588   6.807  1.00  0.00    +0.000 C 
ATOM     53  N5  UNL A   1      18.740  18.192   6.814  1.00  0.00    +0.000 N 
ATOM     54  C37 UNL A   1      18.014  17.507   7.662  1.00  0.00    +0.000 C 
ATOM     55  C38 UNL A   1      16.588  17.727   8.083  1.00  0.00    +0.000 C 
ATOM     67  C45 UNL A   1      15.908  18.777   7.584  1.00  0.00    +0.000 C 
ATOM     68  C46 UNL A   1      14.538  19.140   7.930  1.00  0.00    +0.000 C 
ATOM     69  C47 UNL A   1      14.188  20.237   7.238  1.00  0.00    +0.000 C 
ATOM     70  C48 UNL A   1      15.321  20.665   6.416  1.00  0.00    +0.000 C 
ATOM     71  N6  UNL A   1      16.294  19.733   6.677  1.00  0.00    +0.000 N 
ATOM     72  C49 UNL A   1      18.720  16.377   8.281  1.00  0.00    +0.000 C 
ATOM     73  C50 UNL A   1      19.931  16.498   7.759  1.00  0.00    +0.000 C 
ATOM     74  C51 UNL A   1      17.610  23.145   3.230  1.00  0.00    +0.000 C 
ATOM     75  C52 UNL A   1      16.447  23.200   3.863  1.00  0.00    +0.000 C 
ATOM    119  H21 UNL A   1      22.465  21.014   2.944  1.00  0.00    +0.000 H 
ATOM    120  H22 UNL A   1      23.156  18.900   4.304  1.00  0.00    +0.000 H 
ATOM    121  H23 UNL A   1      19.231  19.827   5.244  1.00  0.00    +0.000 H 
ATOM    122  H24 UNL A   1      13.934  18.635   8.597  1.00  0.00    +0.000 H 
ATOM    123  H25 UNL A   1      13.268  20.703   7.279  1.00  0.00    +0.000 H 
ATOM    124  H26 UNL A   1      17.183  19.750   6.255  1.00  0.00    +0.000 H 
ATOM    125  H27 UNL A   1      18.365  15.674   8.948  1.00  0.00    +0.000 H 
ATOM    126  H28 UNL A   1      20.731  15.892   7.999  1.00  0.00    +0.000 H 
ATOM    127  H29 UNL A   1      17.890  23.779   2.467  1.00  0.00    +0.000 H 
ATOM    128  H30 UNL A   1      15.678  23.880   3.752  1.00  0.00    +0.000 H 
ENDROOT
BRANCH   19   18
ATOM    129  H31 UNL A   1      14.666  23.829   7.174  1.00  0.00    +0.000 H 
ATOM    130  H32 UNL A   1      12.659  25.190   7.100  1.00  0.00    +0.000 H 
ATOM     76  C53 UNL A   1      13.951  23.654   6.450  1.00  0.00    +0.000 C 
ATOM     77  C54 UNL A   1      12.816  24.463   6.386  1.00  0.00    +0.000 C 
ATOM     15  C11 UNL A   1      11.890  24.286   5.351  1.00  0.00    +0.000 C 
ATOM     16  C12 UNL A   1      12.046  23.233   4.445  1.00  0.00    +0.000 C 
ATOM     17  C13 UNL A   1      13.151  22.387   4.547  1.00  0.00    +0.000 C 
ATOM     18  C14 UNL A   1      14.126  22.606   5.535  1.00  0.00    +0.000 C 
ATOM    117  H19 UNL A   1      11.347  23.081   3.703  1.00  0.00    +0.000 H 
ATOM    118  H20 UNL A   1      13.253  21.596   3.893  1.00  0.00    +0.000 H 
BRANCH   15   13
ATOM     13  C10 UNL A   1      10.709  25.169   5.211  1.00  0.00    +0.000 C 
ATOM     14  O2  UNL A   1      10.427  25.950   6.115  1.00  0.00    +0.000 O 
BRANCH   13   12
ATOM    116  H18 UNL A   1       9.159  24.500   4.145  1.00  0.00    +0.000 H 
ATOM     12  N2  UNL A   1       9.928  25.112   4.090  1.00  0.00    +0.000 N 
BRANCH   12   11
ATOM    114  H16 UNL A   1      10.196  25.107   2.041  1.00  0.00    +0.000 H 
ATOM     11  C9  UNL A   1      10.068  25.822   2.828  1.00  0.00    +0.000 C 
ATOM    115  H17 UNL A   1       9.185  26.408   2.679  1.00  0.00    +0.000 H 
BRANCH   11   10
ATOM    113  H15 UNL A   1      12.133  26.153   2.933  1.00  0.00    +0.000 H 
ATOM     10  C8  UNL A   1      11.265  26.769   2.829  1.00  0.00    +0.000 C 
ATOM    112  H14 UNL A   1      11.139  27.462   3.636  1.00  0.00    +0.000 H 
BRANCH   10    9
ATOM      9  C7  UNL A   1      11.458  27.570   1.540  1.00  0.00    +0.000 C 
ATOM    110  H12 UNL A   1      12.422  28.032   1.576  1.00  0.00    +0.000 H 
ATOM    111  H13 UNL A   1      11.350  26.872   0.735  1.00  0.00    +0.000 H 
BRANCH    9    8
ATOM    108  H10 UNL A   1      10.625  29.118   0.352  1.00  0.00    +0.000 H 
ATOM    109  H11 UNL A   1       9.461  28.182   1.336  1.00  0.00    +0.000 H 
ATOM      8  C6  UNL A   1      10.416  28.665   1.298  1.00  0.00    +0.000 C 
BRANCH    8    7
ATOM    106  H8  UNL A   1       9.530  30.393   2.165  1.00  0.00    +0.000 H 
ATOM    107  H9  UNL A   1      10.331  29.282   3.308  1.00  0.00    +0.000 H 
ATOM      7  C5  UNL A   1      10.379  29.771   2.358  1.00  0.00    +0.000 C 
BRANCH    7    6
ATOM    105  H7  UNL A   1      12.472  30.082   2.081  1.00  0.00    +0.000 H 
ATOM      6  C4  UNL A   1      11.628  30.663   2.388  1.00  0.00    +0.000 C 
ATOM    104  H6  UNL A   1      11.771  31.032   3.382  1.00  0.00    +0.000 H 
BRANCH    6    5
ATOM      5  N1  UNL A   1      11.480  31.784   1.482  1.00  0.00    +0.000 N 
ATOM    103  H5  UNL A   1      10.662  31.801   0.933  1.00  0.00    +0.000 H 
BRANCH    5    3
ATOM      3  C3  UNL A   1      12.357  32.820   1.308  1.00  0.00    +0.000 C 
ATOM      4  O1  UNL A   1      12.034  33.697   0.505  1.00  0.00    +0.000 O 
BRANCH    3    2
ATOM      2  C2  UNL A   1      13.683  32.818   2.090  1.00  0.00    +0.000 C 
ATOM    102  H4  UNL A   1      13.578  32.160   2.927  1.00  0.00    +0.000 H 
BRANCH    2    1
ATOM      1  C1  UNL A   1      13.958  34.250   2.578  1.00  0.00    +0.000 C 
ATOM     99  H1  UNL A   1      13.094  34.857   2.407  1.00  0.00    +0.000 H 
ATOM    100  H2  UNL A   1      14.791  34.655   2.041  1.00  0.00    +0.000 H 
ATOM    101  H3  UNL A   1      14.182  34.234   3.624  1.00  0.00    +0.000 H 
ENDBRANCH    2    1
BRANCH    2   78
ATOM    131  H33 UNL A   1      16.369  33.342   2.276  1.00  0.00    +0.000 H 
ATOM    132  H34 UNL A   1      18.240  32.234   1.204  1.00  0.00    +0.000 H 
ATOM    133  H35 UNL A   1      19.880  30.436  -0.100  1.00  0.00    +0.000 H 
ATOM    134  H36 UNL A   1      19.501  27.692  -3.251  1.00  0.00    +0.000 H 
ATOM    135  H37 UNL A   1      17.092  28.050  -3.314  1.00  0.00    +0.000 H 
ATOM    138  H40 UNL A   1      13.678  31.106  -0.038  1.00  0.00    +0.000 H 
ATOM     78  C55 UNL A   1      14.869  32.226   1.309  1.00  0.00    +0.000 C 
ATOM     79  C56 UNL A   1      16.189  32.594   1.588  1.00  0.00    +0.000 C 
ATOM     80  C57 UNL A   1      17.274  31.973   0.954  1.00  0.00    +0.000 C 
ATOM     81  C58 UNL A   1      17.040  30.987  -0.026  1.00  0.00    +0.000 C 
ATOM     82  C59 UNL A   1      17.886  30.123  -0.773  1.00  0.00    +0.000 C 
ATOM     83  C60 UNL A   1      19.283  29.920  -0.765  1.00  0.00    +0.000 C 
ATOM     84  C61 UNL A   1      19.850  29.019  -1.660  1.00  0.00    +0.000 C 
ATOM     85 Cl1  UNL A   1      21.552  28.759  -1.639  1.00  0.00    +0.000 Cl
ATOM     86  C62 UNL A   1      19.061  28.342  -2.580  1.00  0.00    +0.000 C 
ATOM     87  C63 UNL A   1      17.673  28.533  -2.611  1.00  0.00    +0.000 C 
ATOM     88  C64 UNL A   1      17.082  29.396  -1.663  1.00  0.00    +0.000 C 
ATOM     89  N7  UNL A   1      15.756  29.774  -1.438  1.00  0.00    +0.000 N 
ATOM     97  C69 UNL A   1      15.732  30.720  -0.406  1.00  0.00    +0.000 C 
ATOM     98  C70 UNL A   1      14.644  31.325   0.255  1.00  0.00    +0.000 C 
BRANCH   89   90
ATOM     90  C65 UNL A   1      14.591  29.327  -2.116  1.00  0.00    +0.000 C 
ATOM     91  O3  UNL A   1      14.208  28.185  -1.826  1.00  0.00    +0.000 O 
BRANCH   90   92
ATOM    136  H38 UNL A   1      14.482  32.135  -2.886  1.00  0.00    +0.000 H 
ATOM    137  H39 UNL A   1      12.119  30.311  -5.715  1.00  0.00    +0.000 H 
ATOM     92  C66 UNL A   1      13.877  30.082  -3.137  1.00  0.00    +0.000 C 
ATOM     93  C67 UNL A   1      13.949  31.432  -3.421  1.00  0.00    +0.000 C 
ATOM     94  O4  UNL A   1      13.194  31.678  -4.532  1.00  0.00    +0.000 O 
ATOM     95  C68 UNL A   1      12.719  30.455  -4.887  1.00  0.00    +0.000 C 
ATOM     96  N8  UNL A   1      13.082  29.474  -4.099  1.00  0.00    +0.000 N 
ENDBRANCH   90   92
ENDBRANCH   89   90
ENDBRANCH    2   78
ENDBRANCH    3    2
ENDBRANCH    5    3
ENDBRANCH    6    5
ENDBRANCH    7    6
ENDBRANCH    8    7
ENDBRANCH    9    8
ENDBRANCH   10    9
ENDBRANCH   11   10
ENDBRANCH   12   11
ENDBRANCH   13   12
ENDBRANCH   15   13
ENDBRANCH   19   18
BRANCH   23   24
ATOM     33  C24 UNL A   1      21.103  23.854   2.731  1.00  0.00    +0.000 C 
ATOM     34  F5  UNL A   1      21.375  24.068   4.026  1.00  0.00    +0.000 F 
ATOM     24  C19 UNL A   1      20.311  22.763   2.344  1.00  0.00    +0.000 C 
ATOM     25  C20 UNL A   1      20.054  22.589   0.976  1.00  0.00    +0.000 C 
ATOM     26  F1  UNL A   1      19.311  21.553   0.556  1.00  0.00    +0.000 F 
ATOM     27  C21 UNL A   1      20.584  23.462   0.031  1.00  0.00    +0.000 C 
ATOM     28  F2  UNL A   1      20.355  23.254  -1.274  1.00  0.00    +0.000 F 
ATOM     29  C22 UNL A   1      21.355  24.540   0.434  1.00  0.00    +0.000 C 
ATOM     30  F3  UNL A   1      21.857  25.387  -0.477  1.00  0.00    +0.000 F 
ATOM     31  C23 UNL A   1      21.610  24.741   1.783  1.00  0.00    +0.000 C 
ATOM     32  F4  UNL A   1      22.347  25.789   2.175  1.00  0.00    +0.000 F 
ENDBRANCH   23   24
BRANCH   40   41
ATOM     41  C30 UNL A   1      22.313  17.067   6.292  1.00  0.00    +0.000 C 
ATOM     42  C31 UNL A   1      23.240  17.374   7.299  1.00  0.00    +0.000 C 
ATOM     43  F6  UNL A   1      23.062  18.455   8.074  1.00  0.00    +0.000 F 
ATOM     44  C32 UNL A   1      24.380  16.597   7.481  1.00  0.00    +0.000 C 
ATOM     45  F7  UNL A   1      25.279  16.939   8.414  1.00  0.00    +0.000 F 
ATOM     46  C33 UNL A   1      24.596  15.483   6.685  1.00  0.00    +0.000 C 
ATOM     47  F8  UNL A   1      25.696  14.736   6.860  1.00  0.00    +0.000 F 
ATOM     48  C34 UNL A   1      23.680  15.147   5.699  1.00  0.00    +0.000 C 
ATOM     49  F9  UNL A   1      23.884  14.065   4.937  1.00  0.00    +0.000 F 
ATOM     50  C35 UNL A   1      22.552  15.937   5.498  1.00  0.00    +0.000 C 
ATOM     51  F10 UNL A   1      21.692  15.598   4.526  1.00  0.00    +0.000 F 
ENDBRANCH   40   41
BRANCH   55   56
ATOM     65  C44 UNL A   1      15.888  17.132  10.425  1.00  0.00    +0.000 C 
ATOM     66  F15 UNL A   1      16.456  18.260  10.874  1.00  0.00    +0.000 F 
ATOM     56  C39 UNL A   1      15.933  16.819   9.059  1.00  0.00    +0.000 C 
ATOM     57  C40 UNL A   1      15.331  15.624   8.642  1.00  0.00    +0.000 C 
ATOM     58  F11 UNL A   1      15.332  15.292   7.342  1.00  0.00    +0.000 F 
ATOM     59  C41 UNL A   1      14.687  14.787   9.551  1.00  0.00    +0.000 C 
ATOM     60  F12 UNL A   1      14.079  13.674   9.119  1.00  0.00    +0.000 F 
ATOM     61  C42 UNL A   1      14.660  15.114  10.898  1.00  0.00    +0.000 C 
ATOM     62  F13 UNL A   1      14.041  14.310  11.772  1.00  0.00    +0.000 F 
ATOM     63  C43 UNL A   1      15.268  16.281  11.337  1.00  0.00    +0.000 C 
ATOM     64  F14 UNL A   1      15.255  16.594  12.640  1.00  0.00    +0.000 F 
ENDBRANCH   55   56
TORSDOF 19
ENDMDL
MODEL 7
REMARK VINA RESULT:      -8.8      1.752      3.899
ROOT
ATOM     19  C15 UNL A   1      13.814  53.843   5.020  1.00  0.00    +0.000 C 
ATOM     20  C16 UNL A   1      14.768  54.299   3.953  1.00  0.00    +0.000 C 
ATOM     21  N3  UNL A   1      15.285  53.618   2.961  1.00  0.00    +0.000 N 
ATOM     22  C17 UNL A   1      16.083  54.514   2.261  1.00  0.00    +0.000 C 
ATOM     23  C18 UNL A   1      16.883  54.278   1.194  1.00  0.00    +0.000 C 
ATOM     35  C25 UNL A   1      17.037  52.995   0.560  1.00  0.00    +0.000 C 
ATOM     36  C26 UNL A   1      17.847  52.649  -0.508  1.00  0.00    +0.000 C 
ATOM     37  C27 UNL A   1      17.644  51.294  -0.791  1.00  0.00    +0.000 C 
ATOM     38  C28 UNL A   1      16.737  50.786   0.124  1.00  0.00    +0.000 C 
ATOM     39  N4  UNL A   1      16.364  51.843   0.941  1.00  0.00    +0.000 N 
ATOM     40  C29 UNL A   1      16.247  49.439   0.250  1.00  0.00    +0.000 C 
ATOM     52  C36 UNL A   1      15.347  49.021   1.173  1.00  0.00    +0.000 C 
ATOM     53  N5  UNL A   1      14.709  49.753   2.164  1.00  0.00    +0.000 N 
ATOM     54  C37 UNL A   1      13.913  48.912   2.777  1.00  0.00    +0.000 C 
ATOM     55  C38 UNL A   1      12.999  49.152   3.946  1.00  0.00    +0.000 C 
ATOM     67  C45 UNL A   1      12.965  50.370   4.517  1.00  0.00    +0.000 C 
ATOM     68  C46 UNL A   1      12.162  50.740   5.678  1.00  0.00    +0.000 C 
ATOM     69  C47 UNL A   1      12.377  52.035   5.965  1.00  0.00    +0.000 C 
ATOM     70  C48 UNL A   1      13.351  52.579   5.017  1.00  0.00    +0.000 C 
ATOM     71  N6  UNL A   1      13.636  51.523   4.188  1.00  0.00    +0.000 N 
ATOM     72  C49 UNL A   1      13.946  47.549   2.231  1.00  0.00    +0.000 C 
ATOM     73  C50 UNL A   1      14.866  47.659   1.285  1.00  0.00    +0.000 C 
ATOM     74  C51 UNL A   1      15.939  55.801   2.908  1.00  0.00    +0.000 C 
ATOM     75  C52 UNL A   1      15.181  55.711   3.991  1.00  0.00    +0.000 C 
ATOM    119  H21 UNL A   1      18.490  53.282  -1.009  1.00  0.00    +0.000 H 
ATOM    120  H22 UNL A   1      18.094  50.763  -1.553  1.00  0.00    +0.000 H 
ATOM    121  H23 UNL A   1      15.719  51.784   1.682  1.00  0.00    +0.000 H 
ATOM    122  H24 UNL A   1      11.530  50.109   6.195  1.00  0.00    +0.000 H 
ATOM    123  H25 UNL A   1      11.927  52.561   6.730  1.00  0.00    +0.000 H 
ATOM    124  H26 UNL A   1      14.262  51.586   3.432  1.00  0.00    +0.000 H 
ATOM    125  H27 UNL A   1      13.396  46.721   2.511  1.00  0.00    +0.000 H 
ATOM    126  H28 UNL A   1      15.198  46.876   0.701  1.00  0.00    +0.000 H 
ATOM    127  H29 UNL A   1      16.371  56.675   2.569  1.00  0.00    +0.000 H 
ATOM    128  H30 UNL A   1      14.943  56.440   4.681  1.00  0.00    +0.000 H 
ENDROOT
BRANCH   19   18
ATOM    129  H31 UNL A   1      15.026  54.527   7.327  1.00  0.00    +0.000 H 
ATOM    130  H32 UNL A   1      14.220  56.008   9.070  1.00  0.00    +0.000 H 
ATOM     76  C53 UNL A   1      14.122  55.013   7.213  1.00  0.00    +0.000 C 
ATOM     77  C54 UNL A   1      13.679  55.894   8.200  1.00  0.00    +0.000 C 
ATOM     15  C11 UNL A   1      12.499  56.622   8.008  1.00  0.00    +0.000 C 
ATOM     16  C12 UNL A   1      11.709  56.388   6.878  1.00  0.00    +0.000 C 
ATOM     17  C13 UNL A   1      12.124  55.462   5.921  1.00  0.00    +0.000 C 
ATOM     18  C14 UNL A   1      13.346  54.785   6.068  1.00  0.00    +0.000 C 
ATOM    117  H19 UNL A   1      10.823  56.900   6.752  1.00  0.00    +0.000 H 
ATOM    118  H20 UNL A   1      11.529  55.274   5.099  1.00  0.00    +0.000 H 
BRANCH   15   13
ATOM     13  C10 UNL A   1      12.033  57.616   9.002  1.00  0.00    +0.000 C 
ATOM     14  O2  UNL A   1      12.223  58.811   8.797  1.00  0.00    +0.000 O 
BRANCH   13   12
ATOM    116  H18 UNL A   1      11.900  57.380  10.979  1.00  0.00    +0.000 H 
ATOM     12  N2  UNL A   1      11.403  57.212  10.146  1.00  0.00    +0.000 N 
BRANCH   12   11
ATOM    114  H16 UNL A   1       9.752  56.764  11.305  1.00  0.00    +0.000 H 
ATOM     11  C9  UNL A   1      10.108  56.571  10.313  1.00  0.00    +0.000 C 
ATOM    115  H17 UNL A   1       9.443  56.972   9.578  1.00  0.00    +0.000 H 
BRANCH   11   10
ATOM    113  H15 UNL A   1      10.007  54.894   9.062  1.00  0.00    +0.000 H 
ATOM     10  C8  UNL A   1      10.183  55.060  10.105  1.00  0.00    +0.000 C 
ATOM    112  H14 UNL A   1       9.450  54.602  10.736  1.00  0.00    +0.000 H 
BRANCH   10    9
ATOM      9  C7  UNL A   1      11.541  54.431  10.417  1.00  0.00    +0.000 C 
ATOM    110  H12 UNL A   1      12.243  54.774   9.685  1.00  0.00    +0.000 H 
ATOM    111  H13 UNL A   1      11.788  54.730  11.415  1.00  0.00    +0.000 H 
BRANCH    9    8
ATOM    108  H10 UNL A   1      12.528  52.582  10.087  1.00  0.00    +0.000 H 
ATOM    109  H11 UNL A   1      11.327  52.597  11.412  1.00  0.00    +0.000 H 
ATOM      8  C6  UNL A   1      11.560  52.901  10.413  1.00  0.00    +0.000 C 
BRANCH    8    7
ATOM    106  H8  UNL A   1      10.041  53.007   8.929  1.00  0.00    +0.000 H 
ATOM    107  H9  UNL A   1      11.035  51.526   8.908  1.00  0.00    +0.000 H 
ATOM      7  C5  UNL A   1      10.513  52.241   9.508  1.00  0.00    +0.000 C 
BRANCH    7    6
ATOM    105  H7  UNL A   1       9.150  50.609   9.684  1.00  0.00    +0.000 H 
ATOM      6  C4  UNL A   1       9.422  51.469  10.260  1.00  0.00    +0.000 C 
ATOM    104  H6  UNL A   1       8.574  52.106  10.401  1.00  0.00    +0.000 H 
BRANCH    6    5
ATOM      5  N1  UNL A   1       9.905  51.027  11.554  1.00  0.00    +0.000 N 
ATOM    103  H5  UNL A   1      10.539  51.624  12.014  1.00  0.00    +0.000 H 
BRANCH    5    3
ATOM      3  C3  UNL A   1       9.572  49.868  12.202  1.00  0.00    +0.000 C 
ATOM      4  O1  UNL A   1       8.731  49.950  13.098  1.00  0.00    +0.000 O 
BRANCH    3    2
ATOM      2  C2  UNL A   1      10.275  48.558  11.802  1.00  0.00    +0.000 C 
ATOM    102  H4  UNL A   1       9.594  47.977  11.217  1.00  0.00    +0.000 H 
BRANCH    2    1
ATOM      1  C1  UNL A   1      10.646  47.798  13.086  1.00  0.00    +0.000 C 
ATOM     99  H1  UNL A   1       9.855  47.896  13.799  1.00  0.00    +0.000 H 
ATOM    100  H2  UNL A   1      11.548  48.206  13.494  1.00  0.00    +0.000 H 
ATOM    101  H3  UNL A   1      10.795  46.763  12.858  1.00  0.00    +0.000 H 
ENDBRANCH    2    1
BRANCH    2   78
ATOM    131  H33 UNL A   1      10.801  47.485   9.333  1.00  0.00    +0.000 H 
ATOM    132  H34 UNL A   1      12.591  47.986   7.776  1.00  0.00    +0.000 H 
ATOM    133  H35 UNL A   1      14.671  49.171   6.400  1.00  0.00    +0.000 H 
ATOM    134  H36 UNL A   1      18.059  51.450   7.364  1.00  0.00    +0.000 H 
ATOM    135  H37 UNL A   1      17.320  51.628   9.678  1.00  0.00    +0.000 H 
ATOM    138  H40 UNL A   1      12.609  49.906  12.242  1.00  0.00    +0.000 H 
ATOM     78  C55 UNL A   1      11.481  48.755  10.867  1.00  0.00    +0.000 C 
ATOM     79  C56 UNL A   1      11.543  48.148   9.609  1.00  0.00    +0.000 C 
ATOM     80  C57 UNL A   1      12.588  48.416   8.714  1.00  0.00    +0.000 C 
ATOM     81  C58 UNL A   1      13.634  49.278   9.100  1.00  0.00    +0.000 C 
ATOM     82  C59 UNL A   1      14.763  49.817   8.425  1.00  0.00    +0.000 C 
ATOM     83  C60 UNL A   1      15.217  49.706   7.094  1.00  0.00    +0.000 C 
ATOM     84  C61 UNL A   1      16.408  50.321   6.722  1.00  0.00    +0.000 C 
ATOM     85 Cl1  UNL A   1      16.954  50.198   5.093  1.00  0.00    +0.000 Cl
ATOM     86  C62 UNL A   1      17.168  51.016   7.653  1.00  0.00    +0.000 C 
ATOM     87  C63 UNL A   1      16.740  51.135   8.982  1.00  0.00    +0.000 C 
ATOM     88  C64 UNL A   1      15.501  50.569   9.351  1.00  0.00    +0.000 C 
ATOM     89  N7  UNL A   1      14.814  50.530  10.568  1.00  0.00    +0.000 N 
ATOM     97  C69 UNL A   1      13.649  49.771  10.398  1.00  0.00    +0.000 C 
ATOM     98  C70 UNL A   1      12.582  49.522  11.284  1.00  0.00    +0.000 C 
BRANCH   89   90
ATOM     90  C65 UNL A   1      15.187  51.122  11.804  1.00  0.00    +0.000 C 
ATOM     91  O3  UNL A   1      16.193  50.641  12.345  1.00  0.00    +0.000 O 
BRANCH   90   92
ATOM    136  H38 UNL A   1      13.213  51.209  13.944  1.00  0.00    +0.000 H 
ATOM    137  H39 UNL A   1      13.886  55.187  13.147  1.00  0.00    +0.000 H 
ATOM     92  C66 UNL A   1      14.453  52.185  12.477  1.00  0.00    +0.000 C 
ATOM     93  C67 UNL A   1      13.556  52.086  13.523  1.00  0.00    +0.000 C 
ATOM     94  O4  UNL A   1      13.203  53.349  13.906  1.00  0.00    +0.000 O 
ATOM     95  C68 UNL A   1      13.926  54.157  13.088  1.00  0.00    +0.000 C 
ATOM     96  N8  UNL A   1      14.678  53.530  12.219  1.00  0.00    +0.000 N 
ENDBRANCH   90   92
ENDBRANCH   89   90
ENDBRANCH    2   78
ENDBRANCH    3    2
ENDBRANCH    5    3
ENDBRANCH    6    5
ENDBRANCH    7    6
ENDBRANCH    8    7
ENDBRANCH    9    8
ENDBRANCH   10    9
ENDBRANCH   11   10
ENDBRANCH   12   11
ENDBRANCH   13   12
ENDBRANCH   15   13
ENDBRANCH   19   18
BRANCH   23   24
ATOM     33  C24 UNL A   1      17.185  56.197  -0.419  1.00  0.00    +0.000 C 
ATOM     34  F5  UNL A   1      15.982  55.929  -0.948  1.00  0.00    +0.000 F 
ATOM     24  C19 UNL A   1      17.673  55.433   0.653  1.00  0.00    +0.000 C 
ATOM     25  C20 UNL A   1      18.939  55.753   1.165  1.00  0.00    +0.000 C 
ATOM     26  F1  UNL A   1      19.444  55.060   2.197  1.00  0.00    +0.000 F 
ATOM     27  C21 UNL A   1      19.679  56.808   0.638  1.00  0.00    +0.000 C 
ATOM     28  F2  UNL A   1      20.871  57.119   1.169  1.00  0.00    +0.000 F 
ATOM     29  C22 UNL A   1      19.184  57.542  -0.428  1.00  0.00    +0.000 C 
ATOM     30  F3  UNL A   1      19.903  58.551  -0.941  1.00  0.00    +0.000 F 
ATOM     31  C23 UNL A   1      17.940  57.234  -0.960  1.00  0.00    +0.000 C 
ATOM     32  F4  UNL A   1      17.465  57.937  -1.997  1.00  0.00    +0.000 F 
ENDBRANCH   23   24
BRANCH   40   41
ATOM     41  C30 UNL A   1      16.777  48.405  -0.700  1.00  0.00    +0.000 C 
ATOM     42  C31 UNL A   1      18.021  47.791  -0.492  1.00  0.00    +0.000 C 
ATOM     43  F6  UNL A   1      18.783  48.147   0.553  1.00  0.00    +0.000 F 
ATOM     44  C32 UNL A   1      18.508  46.843  -1.386  1.00  0.00    +0.000 C 
ATOM     45  F7  UNL A   1      19.722  46.307  -1.197  1.00  0.00    +0.000 F 
ATOM     46  C33 UNL A   1      17.748  46.466  -2.483  1.00  0.00    +0.000 C 
ATOM     47  F8  UNL A   1      18.219  45.554  -3.345  1.00  0.00    +0.000 F 
ATOM     48  C34 UNL A   1      16.504  47.043  -2.694  1.00  0.00    +0.000 C 
ATOM     49  F9  UNL A   1      15.765  46.673  -3.749  1.00  0.00    +0.000 F 
ATOM     50  C35 UNL A   1      16.026  48.011  -1.816  1.00  0.00    +0.000 C 
ATOM     51  F10 UNL A   1      14.827  48.564  -2.055  1.00  0.00    +0.000 F 
ENDBRANCH   40   41
BRANCH   55   56
ATOM     65  C44 UNL A   1      10.828  47.888   4.080  1.00  0.00    +0.000 C 
ATOM     66  F15 UNL A   1      10.288  48.733   3.191  1.00  0.00    +0.000 F 
ATOM     56  C39 UNL A   1      12.157  48.056   4.491  1.00  0.00    +0.000 C 
ATOM     57  C40 UNL A   1      12.672  47.149   5.428  1.00  0.00    +0.000 C 
ATOM     58  F11 UNL A   1      13.945  47.258   5.837  1.00  0.00    +0.000 F 
ATOM     59  C41 UNL A   1      11.895  46.100   5.916  1.00  0.00    +0.000 C 
ATOM     60  F12 UNL A   1      12.426  45.219   6.774  1.00  0.00    +0.000 F 
ATOM     61  C42 UNL A   1      10.580  45.956   5.499  1.00  0.00    +0.000 C 
ATOM     62  F13 UNL A   1       9.833  44.948   5.967  1.00  0.00    +0.000 F 
ATOM     63  C43 UNL A   1      10.044  46.855   4.589  1.00  0.00    +0.000 C 
ATOM     64  F14 UNL A   1       8.769  46.727   4.193  1.00  0.00    +0.000 F 
ENDBRANCH   55   56
TORSDOF 19
ENDMDL
MODEL 8
REMARK VINA RESULT:      -8.7     42.691     46.927
ROOT
ATOM     19  C15 UNL A   1      25.930  37.303  46.118  1.00  0.00    +0.000 C 
ATOM     20  C16 UNL A   1      25.999  38.552  46.950  1.00  0.00    +0.000 C 
ATOM     21  N3  UNL A   1      27.016  39.352  47.156  1.00  0.00    +0.000 N 
ATOM     22  C17 UNL A   1      26.541  40.364  47.981  1.00  0.00    +0.000 C 
ATOM     23  C18 UNL A   1      27.224  41.395  48.533  1.00  0.00    +0.000 C 
ATOM     35  C25 UNL A   1      28.628  41.641  48.333  1.00  0.00    +0.000 C 
ATOM     36  C26 UNL A   1      29.416  42.642  48.874  1.00  0.00    +0.000 C 
ATOM     37  C27 UNL A   1      30.715  42.494  48.375  1.00  0.00    +0.000 C 
ATOM     38  C28 UNL A   1      30.745  41.380  47.553  1.00  0.00    +0.000 C 
ATOM     39  N4  UNL A   1      29.455  40.872  47.528  1.00  0.00    +0.000 N 
ATOM     40  C29 UNL A   1      31.864  40.816  46.845  1.00  0.00    +0.000 C 
ATOM     52  C36 UNL A   1      31.808  39.720  46.049  1.00  0.00    +0.000 C 
ATOM     53  N5  UNL A   1      30.717  38.923  45.735  1.00  0.00    +0.000 N 
ATOM     54  C37 UNL A   1      31.164  38.010  44.908  1.00  0.00    +0.000 C 
ATOM     55  C38 UNL A   1      30.424  36.871  44.263  1.00  0.00    +0.000 C 
ATOM     67  C45 UNL A   1      29.124  36.680  44.556  1.00  0.00    +0.000 C 
ATOM     68  C46 UNL A   1      28.291  35.598  44.042  1.00  0.00    +0.000 C 
ATOM     69  C47 UNL A   1      27.051  35.725  44.543  1.00  0.00    +0.000 C 
ATOM     70  C48 UNL A   1      27.011  36.888  45.430  1.00  0.00    +0.000 C 
ATOM     71  N6  UNL A   1      28.283  37.399  45.368  1.00  0.00    +0.000 N 
ATOM     72  C49 UNL A   1      32.592  38.136  44.591  1.00  0.00    +0.000 C 
ATOM     73  C50 UNL A   1      32.946  39.166  45.344  1.00  0.00    +0.000 C 
ATOM     74  C51 UNL A   1      25.131  40.108  48.193  1.00  0.00    +0.000 C 
ATOM     75  C52 UNL A   1      24.760  38.972  47.623  1.00  0.00    +0.000 C 
ATOM    119  H21 UNL A   1      29.101  43.371  49.532  1.00  0.00    +0.000 H 
ATOM    120  H22 UNL A   1      31.516  43.112  48.582  1.00  0.00    +0.000 H 
ATOM    121  H23 UNL A   1      29.169  40.081  47.016  1.00  0.00    +0.000 H 
ATOM    122  H24 UNL A   1      28.603  34.856  43.397  1.00  0.00    +0.000 H 
ATOM    123  H25 UNL A   1      26.254  35.103  44.334  1.00  0.00    +0.000 H 
ATOM    124  H26 UNL A   1      28.565  38.204  45.860  1.00  0.00    +0.000 H 
ATOM    125  H27 UNL A   1      33.170  37.570  43.949  1.00  0.00    +0.000 H 
ATOM    126  H28 UNL A   1      33.910  39.528  45.420  1.00  0.00    +0.000 H 
ATOM    127  H29 UNL A   1      24.499  40.732  48.719  1.00  0.00    +0.000 H 
ATOM    128  H30 UNL A   1      23.841  38.502  47.646  1.00  0.00    +0.000 H 
ENDROOT
BRANCH   19   18
ATOM    129  H31 UNL A   1      23.953  37.546  44.304  1.00  0.00    +0.000 H 
ATOM    130  H32 UNL A   1      21.855  36.335  44.191  1.00  0.00    +0.000 H 
ATOM     76  C53 UNL A   1      23.747  36.807  44.994  1.00  0.00    +0.000 C 
ATOM     77  C54 UNL A   1      22.557  36.085  44.904  1.00  0.00    +0.000 C 
ATOM     15  C11 UNL A   1      22.316  35.023  45.783  1.00  0.00    +0.000 C 
ATOM     16  C12 UNL A   1      23.217  34.753  46.817  1.00  0.00    +0.000 C 
ATOM     17  C13 UNL A   1      24.378  35.515  46.943  1.00  0.00    +0.000 C 
ATOM     18  C14 UNL A   1      24.666  36.532  46.018  1.00  0.00    +0.000 C 
ATOM    117  H19 UNL A   1      23.023  33.991  47.486  1.00  0.00    +0.000 H 
ATOM    118  H20 UNL A   1      25.031  35.330  47.721  1.00  0.00    +0.000 H 
BRANCH   15   13
ATOM     13  C10 UNL A   1      21.095  34.191  45.675  1.00  0.00    +0.000 C 
ATOM     14  O2  UNL A   1      20.804  33.424  46.588  1.00  0.00    +0.000 O 
BRANCH   13   12
ATOM    116  H18 UNL A   1      20.765  34.496  43.730  1.00  0.00    +0.000 H 
ATOM     12  N2  UNL A   1      20.299  34.265  44.566  1.00  0.00    +0.000 N 
BRANCH   12   11
ATOM    114  H16 UNL A   1      18.518  33.516  45.299  1.00  0.00    +0.000 H 
ATOM     11  C9  UNL A   1      18.865  34.052  44.439  1.00  0.00    +0.000 C 
ATOM    115  H17 UNL A   1      18.395  35.010  44.363  1.00  0.00    +0.000 H 
BRANCH   11   10
ATOM    113  H15 UNL A   1      19.022  33.729  42.376  1.00  0.00    +0.000 H 
ATOM     10  C8  UNL A   1      18.510  33.254  43.187  1.00  0.00    +0.000 C 
ATOM    112  H14 UNL A   1      17.445  33.263  43.079  1.00  0.00    +0.000 H 
BRANCH   10    9
ATOM      9  C7  UNL A   1      18.976  31.797  43.196  1.00  0.00    +0.000 C 
ATOM    110  H12 UNL A   1      18.528  31.300  42.360  1.00  0.00    +0.000 H 
ATOM    111  H13 UNL A   1      20.045  31.824  43.152  1.00  0.00    +0.000 H 
BRANCH    9    8
ATOM    108  H10 UNL A   1      18.339  31.714  45.218  1.00  0.00    +0.000 H 
ATOM    109  H11 UNL A   1      17.829  30.345  44.185  1.00  0.00    +0.000 H 
ATOM      8  C6  UNL A   1      18.619  31.012  44.460  1.00  0.00    +0.000 C 
BRANCH    8    7
ATOM    106  H8  UNL A   1      19.638  30.087  46.082  1.00  0.00    +0.000 H 
ATOM    107  H9  UNL A   1      19.650  29.179  44.546  1.00  0.00    +0.000 H 
ATOM      7  C5  UNL A   1      19.746  30.134  45.018  1.00  0.00    +0.000 C 
BRANCH    7    6
ATOM    105  H7  UNL A   1      21.281  31.612  45.130  1.00  0.00    +0.000 H 
ATOM      6  C4  UNL A   1      21.159  30.639  44.702  1.00  0.00    +0.000 C 
ATOM    104  H6  UNL A   1      21.287  30.682  43.640  1.00  0.00    +0.000 H 
BRANCH    6    5
ATOM      5  N1  UNL A   1      22.159  29.754  45.265  1.00  0.00    +0.000 N 
ATOM    103  H5  UNL A   1      22.170  28.830  44.926  1.00  0.00    +0.000 H 
BRANCH    5    3
ATOM      3  C3  UNL A   1      23.088  30.068  46.220  1.00  0.00    +0.000 C 
ATOM      4  O1  UNL A   1      22.740  30.853  47.103  1.00  0.00    +0.000 O 
BRANCH    3    2
ATOM      2  C2  UNL A   1      24.497  29.456  46.123  1.00  0.00    +0.000 C 
ATOM    102  H4  UNL A   1      24.655  29.136  45.114  1.00  0.00    +0.000 H 
BRANCH    2    1
ATOM      1  C1  UNL A   1      24.566  28.249  47.073  1.00  0.00    +0.000 C 
ATOM     99  H1  UNL A   1      23.924  28.419  47.912  1.00  0.00    +0.000 H 
ATOM    100  H2  UNL A   1      25.572  28.121  47.415  1.00  0.00    +0.000 H 
ATOM    101  H3  UNL A   1      24.251  27.367  46.555  1.00  0.00    +0.000 H 
ENDBRANCH    2    1
BRANCH    2   78
ATOM    131  H33 UNL A   1      24.835  32.014  45.195  1.00  0.00    +0.000 H 
ATOM    132  H34 UNL A   1      26.515  33.663  45.778  1.00  0.00    +0.000 H 
ATOM    133  H35 UNL A   1      28.503  35.112  47.031  1.00  0.00    +0.000 H 
ATOM    134  H36 UNL A   1      31.973  34.261  49.230  1.00  0.00    +0.000 H 
ATOM    135  H37 UNL A   1      31.402  31.894  49.276  1.00  0.00    +0.000 H 
ATOM    138  H40 UNL A   1      26.870  29.105  47.429  1.00  0.00    +0.000 H 
ATOM     78  C55 UNL A   1      25.636  30.461  46.368  1.00  0.00    +0.000 C 
ATOM     79  C56 UNL A   1      25.602  31.754  45.836  1.00  0.00    +0.000 C 
ATOM     80  C57 UNL A   1      26.583  32.703  46.152  1.00  0.00    +0.000 C 
ATOM     81  C58 UNL A   1      27.662  32.344  46.984  1.00  0.00    +0.000 C 
ATOM     82  C59 UNL A   1      28.745  33.065  47.555  1.00  0.00    +0.000 C 
ATOM     83  C60 UNL A   1      29.103  34.429  47.521  1.00  0.00    +0.000 C 
ATOM     84  C61 UNL A   1      30.270  34.849  48.151  1.00  0.00    +0.000 C 
ATOM     85 Cl1  UNL A   1      30.697  36.517  48.122  1.00  0.00    +0.000 Cl
ATOM     86  C62 UNL A   1      31.100  33.936  48.785  1.00  0.00    +0.000 C 
ATOM     87  C63 UNL A   1      30.769  32.575  48.827  1.00  0.00    +0.000 C 
ATOM     88  C64 UNL A   1      29.554  32.151  48.247  1.00  0.00    +0.000 C 
ATOM     89  N7  UNL A   1      28.955  30.892  48.140  1.00  0.00    +0.000 N 
ATOM     97  C69 UNL A   1      27.774  31.024  47.398  1.00  0.00    +0.000 C 
ATOM     98  C70 UNL A   1      26.770  30.079  47.103  1.00  0.00    +0.000 C 
BRANCH   89   90
ATOM     90  C65 UNL A   1      29.421  29.654  48.655  1.00  0.00    +0.000 C 
ATOM     91  O3  UNL A   1      29.258  29.485  49.871  1.00  0.00    +0.000 O 
BRANCH   90   92
ATOM    136  H38 UNL A   1      32.202  28.845  48.333  1.00  0.00    +0.000 H 
ATOM    137  H39 UNL A   1      30.167  26.070  46.081  1.00  0.00    +0.000 H 
ATOM     92  C66 UNL A   1      30.106  28.631  47.878  1.00  0.00    +0.000 C 
ATOM     93  C67 UNL A   1      31.454  28.326  47.847  1.00  0.00    +0.000 C 
ATOM     94  O4  UNL A   1      31.627  27.221  47.065  1.00  0.00    +0.000 O 
ATOM     95  C68 UNL A   1      30.368  26.889  46.677  1.00  0.00    +0.000 C 
ATOM     96  N8  UNL A   1      29.428  27.687  47.119  1.00  0.00    +0.000 N 
ENDBRANCH   90   92
ENDBRANCH   89   90
ENDBRANCH    2   78
ENDBRANCH    3    2
ENDBRANCH    5    3
ENDBRANCH    6    5
ENDBRANCH    7    6
ENDBRANCH    8    7
ENDBRANCH    9    8
ENDBRANCH   10    9
ENDBRANCH   11   10
ENDBRANCH   12   11
ENDBRANCH   13   12
ENDBRANCH   15   13
ENDBRANCH   19   18
BRANCH   23   24
ATOM     33  C24 UNL A   1      25.856  43.484  48.905  1.00  0.00    +0.000 C 
ATOM     34  F5  UNL A   1      25.914  43.746  47.591  1.00  0.00    +0.000 F 
ATOM     24  C19 UNL A   1      26.462  42.331  49.425  1.00  0.00    +0.000 C 
ATOM     25  C20 UNL A   1      26.375  42.109  50.807  1.00  0.00    +0.000 C 
ATOM     26  F1  UNL A   1      26.929  41.014  51.351  1.00  0.00    +0.000 F 
ATOM     27  C21 UNL A   1      25.693  42.996  51.635  1.00  0.00    +0.000 C 
ATOM     28  F2  UNL A   1      25.591  42.744  52.947  1.00  0.00    +0.000 F 
ATOM     29  C22 UNL A   1      25.111  44.136  51.102  1.00  0.00    +0.000 C 
ATOM     30  F3  UNL A   1      24.462  44.995  51.901  1.00  0.00    +0.000 F 
ATOM     31  C23 UNL A   1      25.196  44.383  49.739  1.00  0.00    +0.000 C 
ATOM     32  F4  UNL A   1      24.643  45.490  49.226  1.00  0.00    +0.000 F 
ENDBRANCH   23   24
BRANCH   40   41
ATOM     41  C30 UNL A   1      33.203  41.474  47.004  1.00  0.00    +0.000 C 
ATOM     42  C31 UNL A   1      33.559  42.600  46.248  1.00  0.00    +0.000 C 
ATOM     43  F6  UNL A   1      32.711  43.094  45.332  1.00  0.00    +0.000 F 
ATOM     44  C32 UNL A   1      34.809  43.194  46.396  1.00  0.00    +0.000 C 
ATOM     45  F7  UNL A   1      35.148  44.236  45.626  1.00  0.00    +0.000 F 
ATOM     46  C33 UNL A   1      35.710  42.695  47.324  1.00  0.00    +0.000 C 
ATOM     47  F8  UNL A   1      36.914  43.267  47.465  1.00  0.00    +0.000 F 
ATOM     48  C34 UNL A   1      35.369  41.597  48.101  1.00  0.00    +0.000 C 
ATOM     49  F9  UNL A   1      36.236  41.122  49.004  1.00  0.00    +0.000 F 
ATOM     50  C35 UNL A   1      34.129  40.985  47.936  1.00  0.00    +0.000 C 
ATOM     51  F10 UNL A   1      33.834  39.914  48.688  1.00  0.00    +0.000 F 
ENDBRANCH   40   41
BRANCH   55   56
ATOM     65  C44 UNL A   1      31.281  36.263  41.977  1.00  0.00    +0.000 C 
ATOM     66  F15 UNL A   1      30.795  37.416  41.495  1.00  0.00    +0.000 F 
ATOM     56  C39 UNL A   1      31.117  35.944  43.332  1.00  0.00    +0.000 C 
ATOM     57  C40 UNL A   1      31.638  34.724  43.784  1.00  0.00    +0.000 C 
ATOM     58  F11 UNL A   1      31.522  34.384  45.077  1.00  0.00    +0.000 F 
ATOM     59  C41 UNL A   1      32.318  33.867  42.921  1.00  0.00    +0.000 C 
ATOM     60  F12 UNL A   1      32.847  32.729  43.388  1.00  0.00    +0.000 F 
ATOM     61  C42 UNL A   1      32.464  34.201  41.582  1.00  0.00    +0.000 C 
ATOM     62  F13 UNL A   1      33.117  33.379  40.752  1.00  0.00    +0.000 F 
ATOM     63  C43 UNL A   1      31.938  35.394  41.109  1.00  0.00    +0.000 C 
ATOM     64  F14 UNL A   1      32.065  35.715  39.813  1.00  0.00    +0.000 F 
ENDBRANCH   55   56
TORSDOF 19
ENDMDL
MODEL 9
REMARK VINA RESULT:      -8.7     65.195     70.224
ROOT
ATOM     19  C15 UNL A   1      25.252 -12.182  29.816  1.00  0.00    +0.000 C 
ATOM     20  C16 UNL A   1      24.467 -11.692  30.999  1.00  0.00    +0.000 C 
ATOM     21  N3  UNL A   1      24.699 -11.871  32.276  1.00  0.00    +0.000 N 
ATOM     22  C17 UNL A   1      23.688 -11.194  32.944  1.00  0.00    +0.000 C 
ATOM     23  C18 UNL A   1      23.446 -11.135  34.276  1.00  0.00    +0.000 C 
ATOM     35  C25 UNL A   1      24.250 -11.784  35.278  1.00  0.00    +0.000 C 
ATOM     36  C26 UNL A   1      24.068 -11.808  36.650  1.00  0.00    +0.000 C 
ATOM     37  C27 UNL A   1      25.114 -12.544  37.218  1.00  0.00    +0.000 C 
ATOM     38  C28 UNL A   1      25.926 -13.010  36.197  1.00  0.00    +0.000 C 
ATOM     39  N4  UNL A   1      25.390 -12.528  35.013  1.00  0.00    +0.000 N 
ATOM     40  C29 UNL A   1      27.101 -13.836  36.291  1.00  0.00    +0.000 C 
ATOM     52  C36 UNL A   1      27.850 -14.245  35.238  1.00  0.00    +0.000 C 
ATOM     53  N5  UNL A   1      27.679 -13.976  33.887  1.00  0.00    +0.000 N 
ATOM     54  C37 UNL A   1      28.674 -14.568  33.273  1.00  0.00    +0.000 C 
ATOM     55  C38 UNL A   1      28.979 -14.629  31.803  1.00  0.00    +0.000 C 
ATOM     67  C45 UNL A   1      28.137 -14.045  30.930  1.00  0.00    +0.000 C 
ATOM     68  C46 UNL A   1      28.279 -14.057  29.478  1.00  0.00    +0.000 C 
ATOM     69  C47 UNL A   1      27.260 -13.372  28.933  1.00  0.00    +0.000 C 
ATOM     70  C48 UNL A   1      26.381 -12.891  30.000  1.00  0.00    +0.000 C 
ATOM     71  N6  UNL A   1      26.986 -13.328  31.152  1.00  0.00    +0.000 N 
ATOM     72  C49 UNL A   1      29.601 -15.270  34.171  1.00  0.00    +0.000 C 
ATOM     73  C50 UNL A   1      29.029 -15.078  35.351  1.00  0.00    +0.000 C 
ATOM     74  C51 UNL A   1      22.871 -10.553  31.935  1.00  0.00    +0.000 C 
ATOM     75  C52 UNL A   1      23.278 -10.874  30.716  1.00  0.00    +0.000 C 
ATOM    119  H21 UNL A   1      23.295 -11.361  37.166  1.00  0.00    +0.000 H 
ATOM    120  H22 UNL A   1      25.257 -12.711  38.226  1.00  0.00    +0.000 H 
ATOM    121  H23 UNL A   1      25.763 -12.691  34.116  1.00  0.00    +0.000 H 
ATOM    122  H24 UNL A   1      29.040 -14.517  28.955  1.00  0.00    +0.000 H 
ATOM    123  H25 UNL A   1      27.119 -13.211  27.923  1.00  0.00    +0.000 H 
ATOM    124  H26 UNL A   1      26.629 -13.146  32.051  1.00  0.00    +0.000 H 
ATOM    125  H27 UNL A   1      30.469 -15.779  33.943  1.00  0.00    +0.000 H 
ATOM    126  H28 UNL A   1      29.380 -15.472  36.238  1.00  0.00    +0.000 H 
ATOM    127  H29 UNL A   1      22.076  -9.927  32.140  1.00  0.00    +0.000 H 
ATOM    128  H30 UNL A   1      22.866 -10.618  29.804  1.00  0.00    +0.000 H 
ENDROOT
BRANCH   19   18
ATOM    129  H31 UNL A   1      26.162 -13.190  27.490  1.00  0.00    +0.000 H 
ATOM    130  H32 UNL A   1      25.490 -12.613  25.232  1.00  0.00    +0.000 H 
ATOM     76  C53 UNL A   1      25.412 -12.498  27.337  1.00  0.00    +0.000 C 
ATOM     77  C54 UNL A   1      25.001 -12.196  26.038  1.00  0.00    +0.000 C 
ATOM     15  C11 UNL A   1      23.925 -11.327  25.831  1.00  0.00    +0.000 C 
ATOM     16  C12 UNL A   1      23.330 -10.678  26.917  1.00  0.00    +0.000 C 
ATOM     17  C13 UNL A   1      23.783 -10.935  28.211  1.00  0.00    +0.000 C 
ATOM     18  C14 UNL A   1      24.811 -11.866  28.434  1.00  0.00    +0.000 C 
ATOM    117  H19 UNL A   1      22.558 -10.011  26.763  1.00  0.00    +0.000 H 
ATOM    118  H20 UNL A   1      23.359 -10.438  29.011  1.00  0.00    +0.000 H 
BRANCH   15   13
ATOM     13  C10 UNL A   1      23.416 -11.035  24.471  1.00  0.00    +0.000 C 
ATOM     14  O2  UNL A   1      23.677  -9.956  23.946  1.00  0.00    +0.000 O 
BRANCH   13   12
ATOM    116  H18 UNL A   1      21.787 -12.161  24.222  1.00  0.00    +0.000 H 
ATOM     12  N2  UNL A   1      22.652 -11.951  23.803  1.00  0.00    +0.000 N 
BRANCH   12   11
ATOM    114  H16 UNL A   1      22.014 -12.795  22.028  1.00  0.00    +0.000 H 
ATOM     11  C9  UNL A   1      22.931 -12.662  22.564  1.00  0.00    +0.000 C 
ATOM    115  H17 UNL A   1      23.629 -12.080  21.999  1.00  0.00    +0.000 H 
BRANCH   11   10
ATOM    113  H15 UNL A   1      22.749 -14.684  23.080  1.00  0.00    +0.000 H 
ATOM     10  C8  UNL A   1      23.556 -14.032  22.815  1.00  0.00    +0.000 C 
ATOM    112  H14 UNL A   1      24.287 -13.926  23.589  1.00  0.00    +0.000 H 
BRANCH   10    9
ATOM      9  C7  UNL A   1      24.238 -14.664  21.600  1.00  0.00    +0.000 C 
ATOM    110  H12 UNL A   1      25.076 -15.231  21.947  1.00  0.00    +0.000 H 
ATOM    111  H13 UNL A   1      23.492 -15.261  21.115  1.00  0.00    +0.000 H 
BRANCH    9    8
ATOM    108  H10 UNL A   1      24.559 -14.090  19.583  1.00  0.00    +0.000 H 
ATOM    109  H11 UNL A   1      24.204 -12.758  20.724  1.00  0.00    +0.000 H 
ATOM      8  C6  UNL A   1      24.738 -13.670  20.550  1.00  0.00    +0.000 C 
BRANCH    8    7
ATOM    106  H8  UNL A   1      26.650 -13.874  21.458  1.00  0.00    +0.000 H 
ATOM    107  H9  UNL A   1      26.661 -13.564  19.702  1.00  0.00    +0.000 H 
ATOM      7  C5  UNL A   1      26.227 -13.318  20.648  1.00  0.00    +0.000 C 
BRANCH    7    6
ATOM    105  H7  UNL A   1      25.843 -11.251  20.286  1.00  0.00    +0.000 H 
ATOM      6  C4  UNL A   1      26.513 -11.830  20.886  1.00  0.00    +0.000 C 
ATOM    104  H6  UNL A   1      27.528 -11.621  20.619  1.00  0.00    +0.000 H 
BRANCH    6    5
ATOM      5  N1  UNL A   1      26.307 -11.485  22.279  1.00  0.00    +0.000 N 
ATOM    103  H5  UNL A   1      25.373 -11.407  22.579  1.00  0.00    +0.000 H 
BRANCH    5    3
ATOM      3  C3  UNL A   1      27.276 -11.255  23.219  1.00  0.00    +0.000 C 
ATOM      4  O1  UNL A   1      27.828 -12.243  23.705  1.00  0.00    +0.000 O 
BRANCH    3    2
ATOM      2  C2  UNL A   1      27.594  -9.806  23.628  1.00  0.00    +0.000 C 
ATOM    102  H4  UNL A   1      26.813  -9.174  23.258  1.00  0.00    +0.000 H 
BRANCH    2    1
ATOM      1  C1  UNL A   1      28.936  -9.409  22.992  1.00  0.00    +0.000 C 
ATOM     99  H1  UNL A   1      28.828  -9.366  21.928  1.00  0.00    +0.000 H 
ATOM    100  H2  UNL A   1      29.680 -10.136  23.246  1.00  0.00    +0.000 H 
ATOM    101  H3  UNL A   1      29.236  -8.450  23.359  1.00  0.00    +0.000 H 
ENDBRANCH    2    1
BRANCH    2   78
ATOM    131  H33 UNL A   1      25.818  -8.397  25.172  1.00  0.00    +0.000 H 
ATOM    132  H34 UNL A   1      25.665  -8.221  27.585  1.00  0.00    +0.000 H 
ATOM    133  H35 UNL A   1      25.892  -8.632  30.305  1.00  0.00    +0.000 H 
ATOM    134  H36 UNL A   1      28.871  -9.942  32.954  1.00  0.00    +0.000 H 
ATOM    135  H37 UNL A   1      30.313 -10.542  31.086  1.00  0.00    +0.000 H 
ATOM    138  H40 UNL A   1      29.445 -10.474  25.520  1.00  0.00    +0.000 H 
ATOM     78  C55 UNL A   1      27.570  -9.563  25.146  1.00  0.00    +0.000 C 
ATOM     79  C56 UNL A   1      26.538  -8.846  25.760  1.00  0.00    +0.000 C 
ATOM     80  C57 UNL A   1      26.458  -8.722  27.154  1.00  0.00    +0.000 C 
ATOM     81  C58 UNL A   1      27.463  -9.286  27.965  1.00  0.00    +0.000 C 
ATOM     82  C59 UNL A   1      27.634  -9.416  29.369  1.00  0.00    +0.000 C 
ATOM     83  C60 UNL A   1      26.821  -9.055  30.464  1.00  0.00    +0.000 C 
ATOM     84  C61 UNL A   1      27.279  -9.270  31.760  1.00  0.00    +0.000 C 
ATOM     85 Cl1  UNL A   1      26.280  -8.843  33.096  1.00  0.00    +0.000 Cl
ATOM     86  C62 UNL A   1      28.539  -9.807  31.986  1.00  0.00    +0.000 C 
ATOM     87  C63 UNL A   1      29.366 -10.169  30.914  1.00  0.00    +0.000 C 
ATOM     88  C64 UNL A   1      28.883 -10.014  29.598  1.00  0.00    +0.000 C 
ATOM     89  N7  UNL A   1      29.454 -10.287  28.351  1.00  0.00    +0.000 N 
ATOM     97  C69 UNL A   1      28.561  -9.875  27.354  1.00  0.00    +0.000 C 
ATOM     98  C70 UNL A   1      28.623 -10.024  25.953  1.00  0.00    +0.000 C 
BRANCH   89   90
ATOM     90  C65 UNL A   1      30.722 -10.864  28.077  1.00  0.00    +0.000 C 
ATOM     91  O3  UNL A   1      30.777 -12.099  28.161  1.00  0.00    +0.000 O 
BRANCH   90   92
ATOM    136  H38 UNL A   1      32.844 -11.126  26.098  1.00  0.00    +0.000 H 
ATOM    137  H39 UNL A   1      33.819  -7.635  28.040  1.00  0.00    +0.000 H 
ATOM     92  C66 UNL A   1      31.931 -10.114  27.767  1.00  0.00    +0.000 C 
ATOM     93  C67 UNL A   1      32.847 -10.332  26.757  1.00  0.00    +0.000 C 
ATOM     94  O4  UNL A   1      33.759  -9.315  26.777  1.00  0.00    +0.000 O 
ATOM     95  C68 UNL A   1      33.335  -8.511  27.787  1.00  0.00    +0.000 C 
ATOM     96  N8  UNL A   1      32.265  -8.932  28.413  1.00  0.00    +0.000 N 
ENDBRANCH   90   92
ENDBRANCH   89   90
ENDBRANCH    2   78
ENDBRANCH    3    2
ENDBRANCH    5    3
ENDBRANCH    6    5
ENDBRANCH    7    6
ENDBRANCH    8    7
ENDBRANCH    9    8
ENDBRANCH   10    9
ENDBRANCH   11   10
ENDBRANCH   12   11
ENDBRANCH   13   12
ENDBRANCH   15   13
ENDBRANCH   19   18
BRANCH   23   24
ATOM     33  C24 UNL A   1      22.389  -9.050  35.229  1.00  0.00    +0.000 C 
ATOM     34  F5  UNL A   1      23.596  -8.468  35.272  1.00  0.00    +0.000 F 
ATOM     24  C19 UNL A   1      22.248 -10.353  34.728  1.00  0.00    +0.000 C 
ATOM     25  C20 UNL A   1      20.963 -10.915  34.710  1.00  0.00    +0.000 C 
ATOM     26  F1  UNL A   1      20.774 -12.154  34.230  1.00  0.00    +0.000 F 
ATOM     27  C21 UNL A   1      19.859 -10.195  35.159  1.00  0.00    +0.000 C 
ATOM     28  F2  UNL A   1      18.635 -10.739  35.098  1.00  0.00    +0.000 F 
ATOM     29  C22 UNL A   1      20.022  -8.913  35.660  1.00  0.00    +0.000 C 
ATOM     30  F3  UNL A   1      18.960  -8.223  36.102  1.00  0.00    +0.000 F 
ATOM     31  C23 UNL A   1      21.286  -8.342  35.701  1.00  0.00    +0.000 C 
ATOM     32  F4  UNL A   1      21.446  -7.107  36.195  1.00  0.00    +0.000 F 
ENDBRANCH   23   24
BRANCH   40   41
ATOM     41  C30 UNL A   1      27.530 -14.299  37.652  1.00  0.00    +0.000 C 
ATOM     42  C31 UNL A   1      28.623 -13.717  38.310  1.00  0.00    +0.000 C 
ATOM     43  F6  UNL A   1      29.333 -12.748  37.714  1.00  0.00    +0.000 F 
ATOM     44  C32 UNL A   1      29.020 -14.163  39.567  1.00  0.00    +0.000 C 
ATOM     45  F7  UNL A   1      30.098 -13.629  40.157  1.00  0.00    +0.000 F 
ATOM     46  C33 UNL A   1      28.313 -15.173  40.202  1.00  0.00    +0.000 C 
ATOM     47  F8  UNL A   1      28.697 -15.604  41.412  1.00  0.00    +0.000 F 
ATOM     48  C34 UNL A   1      27.214 -15.747  39.579  1.00  0.00    +0.000 C 
ATOM     49  F9  UNL A   1      26.525 -16.716  40.196  1.00  0.00    +0.000 F 
ATOM     50  C35 UNL A   1      26.831 -15.320  38.310  1.00  0.00    +0.000 C 
ATOM     51  F10 UNL A   1      25.775 -15.904  37.724  1.00  0.00    +0.000 F 
ENDBRANCH   40   41
BRANCH   55   56
ATOM     65  C44 UNL A   1      30.164 -16.736  31.104  1.00  0.00    +0.000 C 
ATOM     66  F15 UNL A   1      29.058 -17.442  31.380  1.00  0.00    +0.000 F 
ATOM     56  C39 UNL A   1      30.179 -15.348  31.304  1.00  0.00    +0.000 C 
ATOM     57  C40 UNL A   1      31.362 -14.658  31.007  1.00  0.00    +0.000 C 
ATOM     58  F11 UNL A   1      31.418 -13.327  31.163  1.00  0.00    +0.000 F 
ATOM     59  C41 UNL A   1      32.478 -15.325  30.507  1.00  0.00    +0.000 C 
ATOM     60  F12 UNL A   1      33.581 -14.636  30.186  1.00  0.00    +0.000 F 
ATOM     61  C42 UNL A   1      32.442 -16.700  30.322  1.00  0.00    +0.000 C 
ATOM     62  F13 UNL A   1      33.515 -17.341  29.842  1.00  0.00    +0.000 F 
ATOM     63  C43 UNL A   1      31.289 -17.406  30.630  1.00  0.00    +0.000 C 
ATOM     64  F14 UNL A   1      31.254 -18.736  30.466  1.00  0.00    +0.000 F 
ENDBRANCH   55   56
TORSDOF 19
ENDMDL
MODEL 10
REMARK VINA RESULT:      -8.7     33.962     38.868
ROOT
ATOM     19  C15 UNL A   1      50.233  46.027  16.639  1.00  0.00    +0.000 C 
ATOM     20  C16 UNL A   1      48.777  46.233  16.949  1.00  0.00    +0.000 C 
ATOM     21  N3  UNL A   1      48.106  45.902  18.025  1.00  0.00    +0.000 N 
ATOM     22  C17 UNL A   1      46.805  46.337  17.809  1.00  0.00    +0.000 C 
ATOM     23  C18 UNL A   1      45.716  46.169  18.597  1.00  0.00    +0.000 C 
ATOM     35  C25 UNL A   1      45.727  45.493  19.868  1.00  0.00    +0.000 C 
ATOM     36  C26 UNL A   1      44.669  45.246  20.725  1.00  0.00    +0.000 C 
ATOM     37  C27 UNL A   1      45.165  44.579  21.851  1.00  0.00    +0.000 C 
ATOM     38  C28 UNL A   1      46.524  44.376  21.678  1.00  0.00    +0.000 C 
ATOM     39  N4  UNL A   1      46.858  44.951  20.461  1.00  0.00    +0.000 N 
ATOM     40  C29 UNL A   1      47.451  43.707  22.552  1.00  0.00    +0.000 C 
ATOM     52  C36 UNL A   1      48.776  43.557  22.312  1.00  0.00    +0.000 C 
ATOM     53  N5  UNL A   1      49.523  43.995  21.228  1.00  0.00    +0.000 N 
ATOM     54  C37 UNL A   1      50.759  43.634  21.472  1.00  0.00    +0.000 C 
ATOM     55  C38 UNL A   1      51.987  43.827  20.628  1.00  0.00    +0.000 C 
ATOM     67  C45 UNL A   1      51.873  44.417  19.423  1.00  0.00    +0.000 C 
ATOM     68  C46 UNL A   1      52.965  44.635  18.480  1.00  0.00    +0.000 C 
ATOM     69  C47 UNL A   1      52.483  45.252  17.388  1.00  0.00    +0.000 C 
ATOM     70  C48 UNL A   1      51.042  45.453  17.549  1.00  0.00    +0.000 C 
ATOM     71  N6  UNL A   1      50.770  44.936  18.791  1.00  0.00    +0.000 N 
ATOM     72  C49 UNL A   1      50.938  42.936  22.752  1.00  0.00    +0.000 C 
ATOM     73  C50 UNL A   1      49.694  42.878  23.204  1.00  0.00    +0.000 C 
ATOM     74  C51 UNL A   1      46.791  47.005  16.524  1.00  0.00    +0.000 C 
ATOM     75  C52 UNL A   1      47.971  46.920  15.928  1.00  0.00    +0.000 C 
ATOM    119  H21 UNL A   1      43.685  45.508  20.562  1.00  0.00    +0.000 H 
ATOM    120  H22 UNL A   1      44.612  44.287  22.672  1.00  0.00    +0.000 H 
ATOM    121  H23 UNL A   1      47.764  44.971  20.075  1.00  0.00    +0.000 H 
ATOM    122  H24 UNL A   1      53.948  44.360  18.628  1.00  0.00    +0.000 H 
ATOM    123  H25 UNL A   1      53.040  45.538  16.568  1.00  0.00    +0.000 H 
ATOM    124  H26 UNL A   1      49.870  44.938  19.190  1.00  0.00    +0.000 H 
ATOM    125  H27 UNL A   1      51.806  42.584  23.187  1.00  0.00    +0.000 H 
ATOM    126  H28 UNL A   1      49.414  42.409  24.080  1.00  0.00    +0.000 H 
ATOM    127  H29 UNL A   1      45.969  47.485  16.126  1.00  0.00    +0.000 H 
ATOM    128  H30 UNL A   1      48.252  47.250  14.991  1.00  0.00    +0.000 H 
ENDROOT
BRANCH   19   18
ATOM    129  H31 UNL A   1      50.509  44.637  14.348  1.00  0.00    +0.000 H 
ATOM    130  H32 UNL A   1      51.508  45.359  12.260  1.00  0.00    +0.000 H 
ATOM     76  C53 UNL A   1      50.863  45.602  14.253  1.00  0.00    +0.000 C 
ATOM     77  C54 UNL A   1      51.403  46.027  13.039  1.00  0.00    +0.000 C 
ATOM     15  C11 UNL A   1      51.801  47.358  12.879  1.00  0.00    +0.000 C 
ATOM     16  C12 UNL A   1      51.759  48.237  13.967  1.00  0.00    +0.000 C 
ATOM     17  C13 UNL A   1      51.276  47.794  15.198  1.00  0.00    +0.000 C 
ATOM     18  C14 UNL A   1      50.800  46.480  15.345  1.00  0.00    +0.000 C 
ATOM    117  H19 UNL A   1      52.084  49.210  13.859  1.00  0.00    +0.000 H 
ATOM    118  H20 UNL A   1      51.267  48.436  16.006  1.00  0.00    +0.000 H 
BRANCH   15   13
ATOM     13  C10 UNL A   1      52.315  47.863  11.585  1.00  0.00    +0.000 C 
ATOM     14  O2  UNL A   1      53.156  48.757  11.575  1.00  0.00    +0.000 O 
BRANCH   13   12
ATOM    116  H18 UNL A   1      52.350  46.571  10.063  1.00  0.00    +0.000 H 
ATOM     12  N2  UNL A   1      51.853  47.349  10.406  1.00  0.00    +0.000 N 
BRANCH   12   11
ATOM    114  H16 UNL A   1      50.866  48.816   9.336  1.00  0.00    +0.000 H 
ATOM     11  C9  UNL A   1      50.734  47.782   9.582  1.00  0.00    +0.000 C 
ATOM    115  H17 UNL A   1      50.717  47.174   8.702  1.00  0.00    +0.000 H 
BRANCH   11   10
ATOM    113  H15 UNL A   1      49.565  46.916  11.089  1.00  0.00    +0.000 H 
ATOM     10  C8  UNL A   1      49.395  47.613  10.295  1.00  0.00    +0.000 C 
ATOM    112  H14 UNL A   1      48.678  47.271   9.578  1.00  0.00    +0.000 H 
BRANCH   10    9
ATOM      9  C7  UNL A   1      48.846  48.883  10.949  1.00  0.00    +0.000 C 
ATOM    110  H12 UNL A   1      49.602  49.638  10.896  1.00  0.00    +0.000 H 
ATOM    111  H13 UNL A   1      47.955  49.135  10.410  1.00  0.00    +0.000 H 
BRANCH    9    8
ATOM    108  H10 UNL A   1      47.438  48.327  12.436  1.00  0.00    +0.000 H 
ATOM    109  H11 UNL A   1      49.159  48.085  12.863  1.00  0.00    +0.000 H 
ATOM      8  C6  UNL A   1      48.430  48.727  12.413  1.00  0.00    +0.000 C 
BRANCH    8    7
ATOM    106  H8  UNL A   1      47.557  50.044  13.837  1.00  0.00    +0.000 H 
ATOM    107  H9  UNL A   1      49.340  50.015  13.807  1.00  0.00    +0.000 H 
ATOM      7  C5  UNL A   1      48.439  50.024  13.231  1.00  0.00    +0.000 C 
BRANCH    7    6
ATOM    105  H7  UNL A   1      48.782  51.056  11.396  1.00  0.00    +0.000 H 
ATOM      6  C4  UNL A   1      48.470  51.305  12.388  1.00  0.00    +0.000 C 
ATOM    104  H6  UNL A   1      49.154  51.999  12.831  1.00  0.00    +0.000 H 
BRANCH    6    5
ATOM      5  N1  UNL A   1      47.155  51.910  12.325  1.00  0.00    +0.000 N 
ATOM    103  H5  UNL A   1      46.489  51.457  11.758  1.00  0.00    +0.000 H 
BRANCH    5    3
ATOM      3  C3  UNL A   1      46.741  53.044  12.970  1.00  0.00    +0.000 C 
ATOM      4  O1  UNL A   1      47.294  54.099  12.656  1.00  0.00    +0.000 O 
BRANCH    3    2
ATOM      2  C2  UNL A   1      45.649  52.936  14.050  1.00  0.00    +0.000 C 
ATOM    102  H4  UNL A   1      44.890  52.271  13.694  1.00  0.00    +0.000 H 
BRANCH    2    1
ATOM      1  C1  UNL A   1      45.056  54.336  14.279  1.00  0.00    +0.000 C 
ATOM     99  H1  UNL A   1      44.055  54.364  13.904  1.00  0.00    +0.000 H 
ATOM    100  H2  UNL A   1      45.650  55.063  13.765  1.00  0.00    +0.000 H 
ATOM    101  H3  UNL A   1      45.052  54.555  15.326  1.00  0.00    +0.000 H 
ENDBRANCH    2    1
BRANCH    2   78
ATOM    131  H33 UNL A   1      44.256  51.484  15.914  1.00  0.00    +0.000 H 
ATOM    132  H34 UNL A   1      45.067  50.260  17.844  1.00  0.00    +0.000 H 
ATOM    133  H35 UNL A   1      46.623  48.904  19.677  1.00  0.00    +0.000 H 
ATOM    134  H36 UNL A   1      50.516  49.231  21.207  1.00  0.00    +0.000 H 
ATOM    135  H37 UNL A   1      51.047  50.957  19.572  1.00  0.00    +0.000 H 
ATOM    138  H40 UNL A   1      48.082  53.083  15.281  1.00  0.00    +0.000 H 
ATOM     78  C55 UNL A   1      46.124  52.278  15.357  1.00  0.00    +0.000 C 
ATOM     79  C56 UNL A   1      45.258  51.529  16.159  1.00  0.00    +0.000 C 
ATOM     80  C57 UNL A   1      45.717  50.838  17.289  1.00  0.00    +0.000 C 
ATOM     81  C58 UNL A   1      47.072  50.934  17.665  1.00  0.00    +0.000 C 
ATOM     82  C59 UNL A   1      47.860  50.312  18.670  1.00  0.00    +0.000 C 
ATOM     83  C60 UNL A   1      47.563  49.328  19.638  1.00  0.00    +0.000 C 
ATOM     84  C61 UNL A   1      48.546  48.935  20.540  1.00  0.00    +0.000 C 
ATOM     85 Cl1  UNL A   1      48.188  47.723  21.710  1.00  0.00    +0.000 Cl
ATOM     86  C62 UNL A   1      49.804  49.521  20.517  1.00  0.00    +0.000 C 
ATOM     87  C63 UNL A   1      50.120  50.503  19.569  1.00  0.00    +0.000 C 
ATOM     88  C64 UNL A   1      49.150  50.861  18.609  1.00  0.00    +0.000 C 
ATOM     89  N7  UNL A   1      49.168  51.778  17.554  1.00  0.00    +0.000 N 
ATOM     97  C69 UNL A   1      47.903  51.789  16.953  1.00  0.00    +0.000 C 
ATOM     98  C70 UNL A   1      47.444  52.459  15.801  1.00  0.00    +0.000 C 
BRANCH   89   90
ATOM     90  C65 UNL A   1      50.244  52.599  17.127  1.00  0.00    +0.000 C 
ATOM     91  O3  UNL A   1      50.215  53.771  17.526  1.00  0.00    +0.000 O 
BRANCH   90   92
ATOM    136  H38 UNL A   1      50.407  51.947  14.292  1.00  0.00    +0.000 H 
ATOM    137  H39 UNL A   1      54.319  51.668  15.528  1.00  0.00    +0.000 H 
ATOM     92  C66 UNL A   1      51.314  52.176  16.233  1.00  0.00    +0.000 C 
ATOM     93  C67 UNL A   1      51.258  51.932  14.874  1.00  0.00    +0.000 C 
ATOM     94  O4  UNL A   1      52.524  51.670  14.433  1.00  0.00    +0.000 O 
ATOM     95  C68 UNL A   1      53.294  51.793  15.545  1.00  0.00    +0.000 C 
ATOM     96  N8  UNL A   1      52.638  52.084  16.640  1.00  0.00    +0.000 N 
ENDBRANCH   90   92
ENDBRANCH   89   90
ENDBRANCH    2   78
ENDBRANCH    3    2
ENDBRANCH    5    3
ENDBRANCH    6    5
ENDBRANCH    7    6
ENDBRANCH    8    7
ENDBRANCH    9    8
ENDBRANCH   10    9
ENDBRANCH   11   10
ENDBRANCH   12   11
ENDBRANCH   13   12
ENDBRANCH   15   13
ENDBRANCH   19   18
BRANCH   23   24
ATOM     33  C24 UNL A   1      43.632  45.987  17.184  1.00  0.00    +0.000 C 
ATOM     34  F5  UNL A   1      44.026  44.772  16.775  1.00  0.00    +0.000 F 
ATOM     24  C19 UNL A   1      44.410  46.714  18.097  1.00  0.00    +0.000 C 
ATOM     25  C20 UNL A   1      43.954  47.981  18.487  1.00  0.00    +0.000 C 
ATOM     26  F1  UNL A   1      44.656  48.711  19.367  1.00  0.00    +0.000 F 
ATOM     27  C21 UNL A   1      42.756  48.494  17.997  1.00  0.00    +0.000 C 
ATOM     28  F2  UNL A   1      42.320  49.692  18.413  1.00  0.00    +0.000 F 
ATOM     29  C22 UNL A   1      42.007  47.764  17.087  1.00  0.00    +0.000 C 
ATOM     30  F3  UNL A   1      40.858  48.262  16.607  1.00  0.00    +0.000 F 
ATOM     31  C23 UNL A   1      42.447  46.514  16.676  1.00  0.00    +0.000 C 
ATOM     32  F4  UNL A   1      41.730  45.812  15.788  1.00  0.00    +0.000 F 
ENDBRANCH   23   24
BRANCH   40   41
ATOM     41  C30 UNL A   1      46.917  43.112  23.821  1.00  0.00    +0.000 C 
ATOM     42  C31 UNL A   1      46.630  41.743  23.923  1.00  0.00    +0.000 C 
ATOM     43  F6  UNL A   1      46.796  40.937  22.863  1.00  0.00    +0.000 F 
ATOM     44  C32 UNL A   1      46.123  41.204  25.102  1.00  0.00    +0.000 C 
ATOM     45  F7  UNL A   1      45.806  39.904  25.161  1.00  0.00    +0.000 F 
ATOM     46  C33 UNL A   1      45.928  42.016  26.209  1.00  0.00    +0.000 C 
ATOM     47  F8  UNL A   1      45.438  41.497  27.344  1.00  0.00    +0.000 F 
ATOM     48  C34 UNL A   1      46.228  43.369  26.138  1.00  0.00    +0.000 C 
ATOM     49  F9  UNL A   1      46.048  44.151  27.211  1.00  0.00    +0.000 F 
ATOM     50  C35 UNL A   1      46.710  43.915  24.952  1.00  0.00    +0.000 C 
ATOM     51  F10 UNL A   1      46.976  45.229  24.907  1.00  0.00    +0.000 F 
ENDBRANCH   40   41
BRANCH   55   56
ATOM     65  C44 UNL A   1      53.865  42.153  20.622  1.00  0.00    +0.000 C 
ATOM     66  F15 UNL A   1      53.186  41.403  19.743  1.00  0.00    +0.000 F 
ATOM     56  C39 UNL A   1      53.315  43.352  21.096  1.00  0.00    +0.000 C 
ATOM     57  C40 UNL A   1      54.062  44.095  22.020  1.00  0.00    +0.000 C 
ATOM     58  F11 UNL A   1      53.586  45.259  22.486  1.00  0.00    +0.000 F 
ATOM     59  C41 UNL A   1      55.322  43.668  22.435  1.00  0.00    +0.000 C 
ATOM     60  F12 UNL A   1      56.037  44.420  23.282  1.00  0.00    +0.000 F 
ATOM     61  C42 UNL A   1      55.845  42.476  21.957  1.00  0.00    +0.000 C 
ATOM     62  F13 UNL A   1      57.056  42.065  22.355  1.00  0.00    +0.000 F 
ATOM     63  C43 UNL A   1      55.113  41.714  21.058  1.00  0.00    +0.000 C 
ATOM     64  F14 UNL A   1      55.608  40.554  20.604  1.00  0.00    +0.000 F 
ENDBRANCH   55   56
TORSDOF 19
ENDMDL
