MODEL 1
REMARK VINA RESULT:     -12.0      0.000      0.000
ROOT
ATOM    129  H32 UNL A   1      36.517  32.080  31.770  1.00  0.00    +0.000 H 
ATOM    130  H33 UNL A   1      37.179  32.583  34.240  1.00  0.00    +0.000 H 
ATOM    131  H34 UNL A   1      40.240  30.413  32.483  1.00  0.00    +0.000 H 
ATOM    132  H35 UNL A   1      45.822  27.397  32.863  1.00  0.00    +0.000 H 
ATOM    133  H36 UNL A   1      45.371  27.238  30.370  1.00  0.00    +0.000 H 
ATOM    134  H37 UNL A   1      42.142  29.177  32.130  1.00  0.00    +0.000 H 
ATOM    135  H38 UNL A   1      43.591  29.997  36.928  1.00  0.00    +0.000 H 
ATOM    136  H39 UNL A   1      41.375  31.224  37.294  1.00  0.00    +0.000 H 
ATOM    137  H40 UNL A   1      38.891  29.568  27.703  1.00  0.00    +0.000 H 
ATOM    138  H41 UNL A   1      41.001  28.158  27.374  1.00  0.00    +0.000 H 
ATOM     31  C26 UNL A   1      42.833  28.270  29.568  1.00  0.00    +0.000 C 
ATOM     32  C27 UNL A   1      41.445  28.878  29.477  1.00  0.00    +0.000 C 
ATOM     33  N4  UNL A   1      40.771  29.560  30.374  1.00  0.00    +0.000 N 
ATOM     34  C28 UNL A   1      39.575  29.926  29.764  1.00  0.00    +0.000 C 
ATOM     35  C29 UNL A   1      38.526  30.617  30.276  1.00  0.00    +0.000 C 
ATOM     47  C36 UNL A   1      38.430  31.090  31.634  1.00  0.00    +0.000 C 
ATOM     48  C37 UNL A   1      37.396  31.794  32.230  1.00  0.00    +0.000 C 
ATOM     49  C38 UNL A   1      37.744  32.052  33.559  1.00  0.00    +0.000 C 
ATOM     50  C39 UNL A   1      38.975  31.469  33.804  1.00  0.00    +0.000 C 
ATOM     51  N5  UNL A   1      39.390  30.892  32.613  1.00  0.00    +0.000 N 
ATOM     52  C40 UNL A   1      39.728  31.443  35.031  1.00  0.00    +0.000 C 
ATOM     64  C47 UNL A   1      40.919  30.815  35.181  1.00  0.00    +0.000 C 
ATOM     65  N6  UNL A   1      41.642  30.094  34.239  1.00  0.00    +0.000 N 
ATOM     66  C48 UNL A   1      42.733  29.701  34.849  1.00  0.00    +0.000 C 
ATOM     67  C49 UNL A   1      43.879  28.884  34.316  1.00  0.00    +0.000 C 
ATOM     79  C56 UNL A   1      43.903  28.510  33.020  1.00  0.00    +0.000 C 
ATOM     80  C57 UNL A   1      44.991  27.775  32.380  1.00  0.00    +0.000 C 
ATOM     81  C58 UNL A   1      44.740  27.666  31.066  1.00  0.00    +0.000 C 
ATOM     82  C59 UNL A   1      43.432  28.249  30.777  1.00  0.00    +0.000 C 
ATOM     83  N7  UNL A   1      43.008  28.725  32.000  1.00  0.00    +0.000 N 
ATOM     84  C60 UNL A   1      42.829  30.147  36.248  1.00  0.00    +0.000 C 
ATOM     85  C61 UNL A   1      41.682  30.793  36.408  1.00  0.00    +0.000 C 
ATOM     86  C62 UNL A   1      39.621  29.407  28.413  1.00  0.00    +0.000 C 
ATOM     87  C63 UNL A   1      40.723  28.698  28.209  1.00  0.00    +0.000 C 
ENDROOT
BRANCH   31   30
ATOM    139  H42 UNL A   1      42.790  25.704  28.661  1.00  0.00    +0.000 H 
ATOM    140  H43 UNL A   1      44.169  24.685  26.945  1.00  0.00    +0.000 H 
ATOM     88  C64 UNL A   1      43.420  26.295  28.097  1.00  0.00    +0.000 C 
ATOM     89  C65 UNL A   1      44.202  25.707  27.089  1.00  0.00    +0.000 C 
ATOM     27  C22 UNL A   1      45.023  26.497  26.281  1.00  0.00    +0.000 C 
ATOM     28  C23 UNL A   1      44.962  27.882  26.408  1.00  0.00    +0.000 C 
ATOM     29  C24 UNL A   1      44.238  28.460  27.462  1.00  0.00    +0.000 C 
ATOM     30  C25 UNL A   1      43.483  27.675  28.350  1.00  0.00    +0.000 C 
ATOM    127  H30 UNL A   1      45.449  28.484  25.726  1.00  0.00    +0.000 H 
ATOM    128  H31 UNL A   1      44.262  29.484  27.587  1.00  0.00    +0.000 H 
BRANCH   27   25
ATOM     25  C21 UNL A   1      45.919  25.839  25.297  1.00  0.00    +0.000 C 
ATOM     26  O2  UNL A   1      46.439  26.524  24.419  1.00  0.00    +0.000 O 
BRANCH   25   24
ATOM    126  H29 UNL A   1      46.708  24.152  26.046  1.00  0.00    +0.000 H 
ATOM     24  N3  UNL A   1      46.129  24.474  25.318  1.00  0.00    +0.000 N 
BRANCH   24   23
ATOM    124  H27 UNL A   1      45.928  23.688  23.432  1.00  0.00    +0.000 H 
ATOM    125  H28 UNL A   1      46.037  22.519  24.783  1.00  0.00    +0.000 H 
ATOM     23  C20 UNL A   1      45.626  23.442  24.428  1.00  0.00    +0.000 C 
BRANCH   23   22
ATOM    122  H25 UNL A   1      43.680  24.146  24.849  1.00  0.00    +0.000 H 
ATOM    123  H26 UNL A   1      43.860  23.063  23.408  1.00  0.00    +0.000 H 
ATOM     22  C19 UNL A   1      44.107  23.259  24.431  1.00  0.00    +0.000 C 
BRANCH   22   21
ATOM    121  H24 UNL A   1      42.688  21.764  24.614  1.00  0.00    +0.000 H 
ATOM     21  C18 UNL A   1      43.529  22.069  25.200  1.00  0.00    +0.000 C 
ATOM    120  H23 UNL A   1      43.316  22.409  26.193  1.00  0.00    +0.000 H 
BRANCH   21   20
ATOM     20  C17 UNL A   1      44.375  20.797  25.331  1.00  0.00    +0.000 C 
ATOM    118  H21 UNL A   1      45.196  20.900  24.655  1.00  0.00    +0.000 H 
ATOM    119  H22 UNL A   1      44.604  20.757  26.375  1.00  0.00    +0.000 H 
BRANCH   20   19
ATOM     19  C16 UNL A   1      43.740  19.432  25.054  1.00  0.00    +0.000 C 
ATOM    116  H19 UNL A   1      43.323  19.478  24.069  1.00  0.00    +0.000 H 
ATOM    117  H20 UNL A   1      44.546  18.746  25.211  1.00  0.00    +0.000 H 
BRANCH   19   18
ATOM     18  C15 UNL A   1      42.643  18.905  25.974  1.00  0.00    +0.000 C 
ATOM    115  H18 UNL A   1      42.999  19.090  26.966  1.00  0.00    +0.000 H 
ATOM    114  H17 UNL A   1      42.487  17.874  25.735  1.00  0.00    +0.000 H 
BRANCH   18   17
ATOM     17  N2  UNL A   1      41.366  19.562  25.909  1.00  0.00    +0.000 N 
ATOM    113  H16 UNL A   1      40.846  19.360  25.098  1.00  0.00    +0.000 H 
BRANCH   17   15
ATOM     15  C14 UNL A   1      40.742  20.424  26.783  1.00  0.00    +0.000 C 
ATOM     16  O1  UNL A   1      40.995  20.235  27.979  1.00  0.00    +0.000 O 
BRANCH   15   14
ATOM      9  C8  UNL A   1      38.610  21.630  25.784  1.00  0.00    +0.000 C 
ATOM     10  C9  UNL A   1      37.876  22.845  25.769  1.00  0.00    +0.000 C 
ATOM     11  C10 UNL A   1      38.360  24.019  26.337  1.00  0.00    +0.000 C 
ATOM     12  C11 UNL A   1      39.600  24.004  26.950  1.00  0.00    +0.000 C 
ATOM    109  H12 UNL A   1      36.947  22.859  25.319  1.00  0.00    +0.000 H 
ATOM     14  C13 UNL A   1      39.856  21.594  26.447  1.00  0.00    +0.000 C 
ATOM     13  C12 UNL A   1      40.324  22.808  27.016  1.00  0.00    +0.000 C 
ATOM    110  H13 UNL A   1      37.803  24.887  26.302  1.00  0.00    +0.000 H 
ATOM    112  H15 UNL A   1      41.235  22.809  27.501  1.00  0.00    +0.000 H 
ATOM    111  H14 UNL A   1      39.989  24.870  27.355  1.00  0.00    +0.000 H 
BRANCH    9    8
ATOM    108  H11 UNL A   1      38.674  20.030  24.463  1.00  0.00    +0.000 H 
ATOM      8  N1  UNL A   1      38.060  20.594  24.987  1.00  0.00    +0.000 N 
BRANCH    8    7
ATOM      1  C1  UNL A   1      33.083  16.898  25.430  1.00  0.00    +0.000 C 
ATOM      2  C2  UNL A   1      34.365  17.198  24.622  1.00  0.00    +0.000 C 
ATOM      3  C3  UNL A   1      35.422  16.182  25.110  1.00  0.00    +0.000 C 
ATOM      4  C4  UNL A   1      34.070  16.955  23.129  1.00  0.00    +0.000 C 
ATOM      5  C5  UNL A   1      34.838  18.650  24.755  1.00  0.00    +0.000 C 
ATOM      6  C6  UNL A   1      36.199  18.993  24.957  1.00  0.00    +0.000 C 
ATOM      7  C7  UNL A   1      36.659  20.326  24.906  1.00  0.00    +0.000 C 
ATOM    141  H44 UNL A   1      36.012  22.336  24.783  1.00  0.00    +0.000 H 
ATOM    142  H45 UNL A   1      31.391  21.048  25.074  1.00  0.00    +0.000 H 
ATOM    143  H46 UNL A   1      31.589  21.082  23.333  1.00  0.00    +0.000 H 
ATOM     90  C66 UNL A   1      35.713  21.349  24.764  1.00  0.00    +0.000 C 
ATOM     91  C67 UNL A   1      34.375  21.033  24.600  1.00  0.00    +0.000 C 
ATOM     92  C68 UNL A   1      33.959  19.717  24.571  1.00  0.00    +0.000 C 
ATOM     93  O3  UNL A   1      32.625  19.587  24.299  1.00  0.00    +0.000 O 
ATOM     94  C69 UNL A   1      32.086  20.926  24.268  1.00  0.00    +0.000 C 
ATOM     95  C70 UNL A   1      33.221  21.957  24.415  1.00  0.00    +0.000 C 
ATOM     98  H1  UNL A   1      32.808  15.871  25.295  1.00  0.00    +0.000 H 
ATOM     99  H2  UNL A   1      32.289  17.527  25.087  1.00  0.00    +0.000 H 
ATOM    100  H3  UNL A   1      33.264  17.084  26.468  1.00  0.00    +0.000 H 
ATOM    101  H4  UNL A   1      35.040  15.189  24.995  1.00  0.00    +0.000 H 
ATOM    102  H5  UNL A   1      35.641  16.363  26.141  1.00  0.00    +0.000 H 
ATOM    103  H6  UNL A   1      36.314  16.291  24.530  1.00  0.00    +0.000 H 
ATOM    104  H7  UNL A   1      33.736  15.948  22.991  1.00  0.00    +0.000 H 
ATOM    105  H8  UNL A   1      34.961  17.116  22.559  1.00  0.00    +0.000 H 
ATOM    106  H9  UNL A   1      33.309  17.631  22.801  1.00  0.00    +0.000 H 
ATOM    107  H10 UNL A   1      36.877  18.240  25.149  1.00  0.00    +0.000 H 
BRANCH   95   96
ATOM    145  H48 UNL A   1      33.734  22.563  26.403  1.00  0.00    +0.000 H 
ATOM    146  H49 UNL A   1      32.031  22.690  26.036  1.00  0.00    +0.000 H 
ATOM    144  H47 UNL A   1      33.154  23.862  25.389  1.00  0.00    +0.000 H 
ATOM     96  C71 UNL A   1      33.020  22.834  25.654  1.00  0.00    +0.000 C 
ENDBRANCH   95   96
BRANCH   95   97
ATOM     97  C72 UNL A   1      33.359  22.822  23.159  1.00  0.00    +0.000 C 
ATOM    147  H50 UNL A   1      34.182  22.469  22.573  1.00  0.00    +0.000 H 
ATOM    148  H51 UNL A   1      33.534  23.838  23.442  1.00  0.00    +0.000 H 
ATOM    149  H52 UNL A   1      32.459  22.760  22.583  1.00  0.00    +0.000 H 
ENDBRANCH   95   97
ENDBRANCH    8    7
ENDBRANCH    9    8
ENDBRANCH   15   14
ENDBRANCH   17   15
ENDBRANCH   18   17
ENDBRANCH   19   18
ENDBRANCH   20   19
ENDBRANCH   21   20
ENDBRANCH   22   21
ENDBRANCH   23   22
ENDBRANCH   24   23
ENDBRANCH   25   24
ENDBRANCH   27   25
ENDBRANCH   31   30
BRANCH   35   36
ATOM     36  C30 UNL A   1      37.370  30.919  29.365  1.00  0.00    +0.000 C 
ATOM     37  C31 UNL A   1      36.419  29.944  29.034  1.00  0.00    +0.000 C 
ATOM     38  F1  UNL A   1      36.572  28.681  29.458  1.00  0.00    +0.000 F 
ATOM     39  C32 UNL A   1      35.314  30.260  28.247  1.00  0.00    +0.000 C 
ATOM     40  F2  UNL A   1      34.434  29.305  27.918  1.00  0.00    +0.000 F 
ATOM     41  C33 UNL A   1      35.123  31.560  27.802  1.00  0.00    +0.000 C 
ATOM     42  F3  UNL A   1      34.049  31.866  27.061  1.00  0.00    +0.000 F 
ATOM     43  C34 UNL A   1      36.046  32.542  28.125  1.00  0.00    +0.000 C 
ATOM     44  F4  UNL A   1      35.855  33.803  27.711  1.00  0.00    +0.000 F 
ATOM     45  C35 UNL A   1      37.167  32.224  28.888  1.00  0.00    +0.000 C 
ATOM     46  F5  UNL A   1      38.041  33.197  29.185  1.00  0.00    +0.000 F 
ENDBRANCH   35   36
BRANCH   52   53
ATOM     53  C41 UNL A   1      39.149  32.145  36.224  1.00  0.00    +0.000 C 
ATOM     54  C42 UNL A   1      39.461  33.482  36.512  1.00  0.00    +0.000 C 
ATOM     55  F6  UNL A   1      40.350  34.145  35.757  1.00  0.00    +0.000 F 
ATOM     56  C43 UNL A   1      38.879  34.137  37.594  1.00  0.00    +0.000 C 
ATOM     57  F7  UNL A   1      39.218  35.405  37.870  1.00  0.00    +0.000 F 
ATOM     58  C44 UNL A   1      37.955  33.479  38.392  1.00  0.00    +0.000 C 
ATOM     59  F8  UNL A   1      37.386  34.115  39.426  1.00  0.00    +0.000 F 
ATOM     60  C45 UNL A   1      37.623  32.161  38.121  1.00  0.00    +0.000 C 
ATOM     61  F9  UNL A   1      36.721  31.527  38.884  1.00  0.00    +0.000 F 
ATOM     62  C46 UNL A   1      38.222  31.495  37.055  1.00  0.00    +0.000 C 
ATOM     63  F10 UNL A   1      37.883  30.219  36.820  1.00  0.00    +0.000 F 
ENDBRANCH   52   53
BRANCH   67   68
ATOM     68  C50 UNL A   1      44.997  28.492  35.216  1.00  0.00    +0.000 C 
ATOM     69  C51 UNL A   1      44.984  27.257  35.879  1.00  0.00    +0.000 C 
ATOM     70  F11 UNL A   1      43.939  26.429  35.732  1.00  0.00    +0.000 F 
ATOM     71  C52 UNL A   1      46.027  26.882  36.724  1.00  0.00    +0.000 C 
ATOM     72  F12 UNL A   1      45.972  25.712  37.374  1.00  0.00    +0.000 F 
ATOM     73  C53 UNL A   1      47.114  27.724  36.902  1.00  0.00    +0.000 C 
ATOM     74  F13 UNL A   1      48.124  27.358  37.704  1.00  0.00    +0.000 F 
ATOM     75  C54 UNL A   1      47.151  28.949  36.253  1.00  0.00    +0.000 C 
ATOM     76  F14 UNL A   1      48.206  29.760  36.412  1.00  0.00    +0.000 F 
ATOM     77  C55 UNL A   1      46.096  29.337  35.431  1.00  0.00    +0.000 C 
ATOM     78  F15 UNL A   1      46.151  30.533  34.828  1.00  0.00    +0.000 F 
ENDBRANCH   67   68
TORSDOF 19
ENDMDL
MODEL 2
REMARK VINA RESULT:     -11.8      0.411      2.082
ROOT
ATOM    129  H32 UNL A   1      36.435  32.018  32.021  1.00  0.00    +0.000 H 
ATOM    130  H33 UNL A   1      37.104  32.518  34.490  1.00  0.00    +0.000 H 
ATOM    131  H34 UNL A   1      40.199  30.429  32.695  1.00  0.00    +0.000 H 
ATOM    132  H35 UNL A   1      45.849  27.535  33.014  1.00  0.00    +0.000 H 
ATOM    133  H36 UNL A   1      45.383  27.383  30.523  1.00  0.00    +0.000 H 
ATOM    134  H37 UNL A   1      42.126  29.238  32.320  1.00  0.00    +0.000 H 
ATOM    135  H38 UNL A   1      43.591  30.057  37.113  1.00  0.00    +0.000 H 
ATOM    136  H39 UNL A   1      41.351  31.232  37.504  1.00  0.00    +0.000 H 
ATOM    137  H40 UNL A   1      38.834  29.587  27.919  1.00  0.00    +0.000 H 
ATOM    138  H41 UNL A   1      40.972  28.225  27.566  1.00  0.00    +0.000 H 
ATOM     31  C26 UNL A   1      42.817  28.364  29.747  1.00  0.00    +0.000 C 
ATOM     32  C27 UNL A   1      41.415  28.942  29.670  1.00  0.00    +0.000 C 
ATOM     33  N4  UNL A   1      40.734  29.602  30.577  1.00  0.00    +0.000 N 
ATOM     34  C28 UNL A   1      39.525  29.945  29.978  1.00  0.00    +0.000 C 
ATOM     35  C29 UNL A   1      38.465  30.610  30.502  1.00  0.00    +0.000 C 
ATOM     47  C36 UNL A   1      38.369  31.072  31.864  1.00  0.00    +0.000 C 
ATOM     48  C37 UNL A   1      37.323  31.748  32.472  1.00  0.00    +0.000 C 
ATOM     49  C38 UNL A   1      37.675  32.005  33.801  1.00  0.00    +0.000 C 
ATOM     50  C39 UNL A   1      38.921  31.448  34.032  1.00  0.00    +0.000 C 
ATOM     51  N5  UNL A   1      39.340  30.888  32.835  1.00  0.00    +0.000 N 
ATOM     52  C40 UNL A   1      39.684  31.430  35.254  1.00  0.00    +0.000 C 
ATOM     64  C47 UNL A   1      40.889  30.828  35.391  1.00  0.00    +0.000 C 
ATOM     65  N6  UNL A   1      41.621  30.129  34.439  1.00  0.00    +0.000 N 
ATOM     66  C48 UNL A   1      42.725  29.756  35.038  1.00  0.00    +0.000 C 
ATOM     67  C49 UNL A   1      43.885  28.968  34.491  1.00  0.00    +0.000 C 
ATOM     79  C56 UNL A   1      43.908  28.604  33.192  1.00  0.00    +0.000 C 
ATOM     80  C57 UNL A   1      45.007  27.897  32.540  1.00  0.00    +0.000 C 
ATOM     81  C58 UNL A   1      44.748  27.791  31.227  1.00  0.00    +0.000 C 
ATOM     82  C59 UNL A   1      43.426  28.348  30.951  1.00  0.00    +0.000 C 
ATOM     83  N7  UNL A   1      43.000  28.806  32.180  1.00  0.00    +0.000 N 
ATOM     84  C60 UNL A   1      42.821  30.195  36.440  1.00  0.00    +0.000 C 
ATOM     85  C61 UNL A   1      41.661  30.814  36.613  1.00  0.00    +0.000 C 
ATOM     86  C62 UNL A   1      39.573  29.437  28.623  1.00  0.00    +0.000 C 
ATOM     87  C63 UNL A   1      40.688  28.754  28.406  1.00  0.00    +0.000 C 
ENDROOT
BRANCH   31   30
ATOM    139  H42 UNL A   1      42.738  25.825  28.766  1.00  0.00    +0.000 H 
ATOM    140  H43 UNL A   1      44.120  24.830  27.038  1.00  0.00    +0.000 H 
ATOM     88  C64 UNL A   1      43.386  26.420  28.227  1.00  0.00    +0.000 C 
ATOM     89  C65 UNL A   1      44.170  25.847  27.211  1.00  0.00    +0.000 C 
ATOM     27  C22 UNL A   1      45.015  26.644  26.436  1.00  0.00    +0.000 C 
ATOM     28  C23 UNL A   1      44.978  28.026  26.602  1.00  0.00    +0.000 C 
ATOM     29  C24 UNL A   1      44.252  28.587  27.664  1.00  0.00    +0.000 C 
ATOM     30  C25 UNL A   1      43.471  27.792  28.520  1.00  0.00    +0.000 C 
ATOM    127  H30 UNL A   1      45.484  28.637  25.944  1.00  0.00    +0.000 H 
ATOM    128  H31 UNL A   1      44.292  29.607  27.819  1.00  0.00    +0.000 H 
BRANCH   27   25
ATOM     25  C21 UNL A   1      45.911  25.998  25.444  1.00  0.00    +0.000 C 
ATOM     26  O2  UNL A   1      46.349  26.671  24.515  1.00  0.00    +0.000 O 
BRANCH   25   24
ATOM    126  H29 UNL A   1      46.828  24.400  26.240  1.00  0.00    +0.000 H 
ATOM     24  N3  UNL A   1      46.209  24.651  25.518  1.00  0.00    +0.000 N 
BRANCH   24   23
ATOM    124  H27 UNL A   1      46.252  23.615  23.746  1.00  0.00    +0.000 H 
ATOM    125  H28 UNL A   1      45.976  22.656  25.232  1.00  0.00    +0.000 H 
ATOM     23  C20 UNL A   1      45.750  23.550  24.689  1.00  0.00    +0.000 C 
BRANCH   23   22
ATOM    122  H25 UNL A   1      43.855  24.482  24.668  1.00  0.00    +0.000 H 
ATOM    123  H26 UNL A   1      44.161  23.231  23.395  1.00  0.00    +0.000 H 
ATOM     22  C19 UNL A   1      44.244  23.516  24.423  1.00  0.00    +0.000 C 
BRANCH   22   21
ATOM    121  H24 UNL A   1      42.717  22.120  24.443  1.00  0.00    +0.000 H 
ATOM     21  C18 UNL A   1      43.405  22.482  25.177  1.00  0.00    +0.000 C 
ATOM    120  H23 UNL A   1      42.977  22.980  26.023  1.00  0.00    +0.000 H 
BRANCH   21   20
ATOM     20  C17 UNL A   1      44.094  21.217  25.700  1.00  0.00    +0.000 C 
ATOM    118  H21 UNL A   1      45.129  21.298  25.443  1.00  0.00    +0.000 H 
ATOM    119  H22 UNL A   1      43.849  21.213  26.742  1.00  0.00    +0.000 H 
BRANCH   20   19
ATOM     19  C16 UNL A   1      43.623  19.842  25.219  1.00  0.00    +0.000 C 
ATOM    116  H19 UNL A   1      43.289  19.965  24.210  1.00  0.00    +0.000 H 
ATOM    117  H20 UNL A   1      44.478  19.217  25.377  1.00  0.00    +0.000 H 
BRANCH   19   18
ATOM     18  C15 UNL A   1      42.510  19.117  25.969  1.00  0.00    +0.000 C 
ATOM    115  H18 UNL A   1      42.806  19.141  26.997  1.00  0.00    +0.000 H 
ATOM    114  H17 UNL A   1      42.421  18.137  25.548  1.00  0.00    +0.000 H 
BRANCH   18   17
ATOM     17  N2  UNL A   1      41.206  19.719  25.942  1.00  0.00    +0.000 N 
ATOM    113  H16 UNL A   1      40.631  19.410  25.205  1.00  0.00    +0.000 H 
BRANCH   17   15
ATOM     15  C14 UNL A   1      40.619  20.652  26.768  1.00  0.00    +0.000 C 
ATOM     16  O1  UNL A   1      40.974  20.604  27.951  1.00  0.00    +0.000 O 
BRANCH   15   14
ATOM      9  C8  UNL A   1      38.399  21.673  25.755  1.00  0.00    +0.000 C 
ATOM     10  C9  UNL A   1      37.597  22.843  25.684  1.00  0.00    +0.000 C 
ATOM     11  C10 UNL A   1      38.029  24.076  26.162  1.00  0.00    +0.000 C 
ATOM     12  C11 UNL A   1      39.283  24.168  26.739  1.00  0.00    +0.000 C 
ATOM    109  H12 UNL A   1      36.658  22.778  25.261  1.00  0.00    +0.000 H 
ATOM     14  C13 UNL A   1      39.661  21.747  26.383  1.00  0.00    +0.000 C 
ATOM     13  C12 UNL A   1      40.074  23.020  26.861  1.00  0.00    +0.000 C 
ATOM    110  H13 UNL A   1      37.424  24.908  26.087  1.00  0.00    +0.000 H 
ATOM    112  H15 UNL A   1      40.995  23.101  27.319  1.00  0.00    +0.000 H 
ATOM    111  H14 UNL A   1      39.633  25.078  27.077  1.00  0.00    +0.000 H 
BRANCH    9    8
ATOM    108  H11 UNL A   1      38.526  19.923  24.645  1.00  0.00    +0.000 H 
ATOM      8  N1  UNL A   1      37.887  20.559  25.041  1.00  0.00    +0.000 N 
BRANCH    8    7
ATOM      1  C1  UNL A   1      32.015  22.345  24.061  1.00  0.00    +0.000 C 
ATOM      2  C2  UNL A   1      33.186  22.353  25.069  1.00  0.00    +0.000 C 
ATOM      3  C3  UNL A   1      33.850  23.742  24.937  1.00  0.00    +0.000 C 
ATOM      4  C4  UNL A   1      32.609  22.192  26.488  1.00  0.00    +0.000 C 
ATOM      5  C5  UNL A   1      34.177  21.203  24.854  1.00  0.00    +0.000 C 
ATOM      6  C6  UNL A   1      35.582  21.391  24.892  1.00  0.00    +0.000 C 
ATOM      7  C7  UNL A   1      36.491  20.312  24.868  1.00  0.00    +0.000 C 
ATOM    141  H44 UNL A   1      36.624  18.217  24.604  1.00  0.00    +0.000 H 
ATOM    142  H45 UNL A   1      31.949  17.880  23.544  1.00  0.00    +0.000 H 
ATOM    143  H46 UNL A   1      31.891  17.585  25.270  1.00  0.00    +0.000 H 
ATOM     90  C66 UNL A   1      35.981  19.020  24.685  1.00  0.00    +0.000 C 
ATOM     91  C67 UNL A   1      34.613  18.823  24.612  1.00  0.00    +0.000 C 
ATOM     92  C68 UNL A   1      33.740  19.886  24.721  1.00  0.00    +0.000 C 
ATOM     93  O3  UNL A   1      32.428  19.498  24.729  1.00  0.00    +0.000 O 
ATOM     94  C69 UNL A   1      32.425  18.076  24.482  1.00  0.00    +0.000 C 
ATOM     95  C70 UNL A   1      33.870  17.543  24.441  1.00  0.00    +0.000 C 
ATOM     98  H1  UNL A   1      31.363  23.170  24.265  1.00  0.00    +0.000 H 
ATOM     99  H2  UNL A   1      31.470  21.429  24.154  1.00  0.00    +0.000 H 
ATOM    100  H3  UNL A   1      32.399  22.433  23.067  1.00  0.00    +0.000 H 
ATOM    101  H4  UNL A   1      33.115  24.504  25.096  1.00  0.00    +0.000 H 
ATOM    102  H5  UNL A   1      34.267  23.847  23.958  1.00  0.00    +0.000 H 
ATOM    103  H6  UNL A   1      34.625  23.836  25.668  1.00  0.00    +0.000 H 
ATOM    104  H7  UNL A   1      31.910  22.978  26.681  1.00  0.00    +0.000 H 
ATOM    105  H8  UNL A   1      33.404  22.240  27.204  1.00  0.00    +0.000 H 
ATOM    106  H9  UNL A   1      32.115  21.247  26.568  1.00  0.00    +0.000 H 
ATOM    107  H10 UNL A   1      35.953  22.353  24.937  1.00  0.00    +0.000 H 
BRANCH   95   96
ATOM    145  H48 UNL A   1      33.517  16.089  22.910  1.00  0.00    +0.000 H 
ATOM    146  H49 UNL A   1      35.195  16.539  23.093  1.00  0.00    +0.000 H 
ATOM    144  H47 UNL A   1      34.077  17.632  22.313  1.00  0.00    +0.000 H 
ATOM     96  C71 UNL A   1      34.189  16.902  23.088  1.00  0.00    +0.000 C 
ENDBRANCH   95   96
BRANCH   95   97
ATOM     97  C72 UNL A   1      34.136  16.555  25.581  1.00  0.00    +0.000 C 
ATOM    147  H50 UNL A   1      33.548  15.674  25.433  1.00  0.00    +0.000 H 
ATOM    148  H51 UNL A   1      33.871  17.007  26.514  1.00  0.00    +0.000 H 
ATOM    149  H52 UNL A   1      35.173  16.294  25.592  1.00  0.00    +0.000 H 
ENDBRANCH   95   97
ENDBRANCH    8    7
ENDBRANCH    9    8
ENDBRANCH   15   14
ENDBRANCH   17   15
ENDBRANCH   18   17
ENDBRANCH   19   18
ENDBRANCH   20   19
ENDBRANCH   21   20
ENDBRANCH   22   21
ENDBRANCH   23   22
ENDBRANCH   24   23
ENDBRANCH   25   24
ENDBRANCH   27   25
ENDBRANCH   31   30
BRANCH   35   36
ATOM     36  C30 UNL A   1      37.296  30.892  29.601  1.00  0.00    +0.000 C 
ATOM     37  C31 UNL A   1      37.142  32.129  28.960  1.00  0.00    +0.000 C 
ATOM     38  F1  UNL A   1      37.998  33.130  29.211  1.00  0.00    +0.000 F 
ATOM     39  C32 UNL A   1      36.093  32.349  28.071  1.00  0.00    +0.000 C 
ATOM     40  F2  UNL A   1      35.946  33.548  27.494  1.00  0.00    +0.000 F 
ATOM     41  C33 UNL A   1      35.197  31.329  27.784  1.00  0.00    +0.000 C 
ATOM     42  F3  UNL A   1      34.198  31.536  26.914  1.00  0.00    +0.000 F 
ATOM     43  C34 UNL A   1      35.335  30.095  28.399  1.00  0.00    +0.000 C 
ATOM     44  F4  UNL A   1      34.481  29.102  28.110  1.00  0.00    +0.000 F 
ATOM     45  C35 UNL A   1      36.367  29.880  29.310  1.00  0.00    +0.000 C 
ATOM     46  F5  UNL A   1      36.476  28.674  29.888  1.00  0.00    +0.000 F 
ENDBRANCH   35   36
BRANCH   52   53
ATOM     53  C41 UNL A   1      39.098  32.111  36.456  1.00  0.00    +0.000 C 
ATOM     54  C42 UNL A   1      39.447  33.426  36.797  1.00  0.00    +0.000 C 
ATOM     55  F6  UNL A   1      40.376  34.083  36.087  1.00  0.00    +0.000 F 
ATOM     56  C43 UNL A   1      38.859  34.065  37.887  1.00  0.00    +0.000 C 
ATOM     57  F7  UNL A   1      39.233  35.310  38.214  1.00  0.00    +0.000 F 
ATOM     58  C44 UNL A   1      37.894  33.412  38.639  1.00  0.00    +0.000 C 
ATOM     59  F8  UNL A   1      37.320  34.031  39.680  1.00  0.00    +0.000 F 
ATOM     60  C45 UNL A   1      37.526  32.115  38.315  1.00  0.00    +0.000 C 
ATOM     61  F9  UNL A   1      36.585  31.487  39.034  1.00  0.00    +0.000 F 
ATOM     62  C46 UNL A   1      38.130  31.465  37.241  1.00  0.00    +0.000 C 
ATOM     63  F10 UNL A   1      37.755  30.210  36.955  1.00  0.00    +0.000 F 
ENDBRANCH   52   53
BRANCH   67   68
ATOM     68  C50 UNL A   1      45.018  28.595  35.381  1.00  0.00    +0.000 C 
ATOM     69  C51 UNL A   1      45.027  27.364  36.050  1.00  0.00    +0.000 C 
ATOM     70  F11 UNL A   1      43.991  26.523  35.921  1.00  0.00    +0.000 F 
ATOM     71  C52 UNL A   1      46.084  27.007  36.885  1.00  0.00    +0.000 C 
ATOM     72  F12 UNL A   1      46.051  25.840  37.543  1.00  0.00    +0.000 F 
ATOM     73  C53 UNL A   1      47.163  27.863  37.046  1.00  0.00    +0.000 C 
ATOM     74  F13 UNL A   1      48.186  27.514  37.838  1.00  0.00    +0.000 F 
ATOM     75  C54 UNL A   1      47.178  29.084  36.389  1.00  0.00    +0.000 C 
ATOM     76  F14 UNL A   1      48.225  29.909  36.531  1.00  0.00    +0.000 F 
ATOM     77  C55 UNL A   1      46.109  29.454  35.578  1.00  0.00    +0.000 C 
ATOM     78  F15 UNL A   1      46.143  30.648  34.967  1.00  0.00    +0.000 F 
ENDBRANCH   67   68
TORSDOF 19
ENDMDL
MODEL 3
REMARK VINA RESULT:     -11.2     19.998     27.086
ROOT
ATOM    129  H32 UNL A   1      18.921  42.452  50.422  1.00  0.00    +0.000 H 
ATOM    130  H33 UNL A   1      17.317  40.402  50.544  1.00  0.00    +0.000 H 
ATOM    131  H34 UNL A   1      20.792  39.229  48.618  1.00  0.00    +0.000 H 
ATOM    132  H35 UNL A   1      24.197  34.858  45.503  1.00  0.00    +0.000 H 
ATOM    133  H36 UNL A   1      25.909  36.719  45.722  1.00  0.00    +0.000 H 
ATOM    134  H37 UNL A   1      22.356  38.048  47.422  1.00  0.00    +0.000 H 
ATOM    135  H38 UNL A   1      19.355  33.952  47.502  1.00  0.00    +0.000 H 
ATOM    136  H39 UNL A   1      17.591  35.376  48.690  1.00  0.00    +0.000 H 
ATOM    137  H40 UNL A   1      23.842  43.237  48.510  1.00  0.00    +0.000 H 
ATOM    138  H41 UNL A   1      25.531  41.894  47.135  1.00  0.00    +0.000 H 
ATOM     31  C26 UNL A   1      24.895  39.116  46.896  1.00  0.00    +0.000 C 
ATOM     32  C27 UNL A   1      24.061  40.214  47.530  1.00  0.00    +0.000 C 
ATOM     33  N4  UNL A   1      22.871  40.148  48.080  1.00  0.00    +0.000 N 
ATOM     34  C28 UNL A   1      22.590  41.428  48.548  1.00  0.00    +0.000 C 
ATOM     35  C29 UNL A   1      21.476  41.889  49.170  1.00  0.00    +0.000 C 
ATOM     47  C36 UNL A   1      20.294  41.109  49.438  1.00  0.00    +0.000 C 
ATOM     48  C37 UNL A   1      19.121  41.507  50.060  1.00  0.00    +0.000 C 
ATOM     49  C38 UNL A   1      18.254  40.412  50.112  1.00  0.00    +0.000 C 
ATOM     50  C39 UNL A   1      18.869  39.343  49.483  1.00  0.00    +0.000 C 
ATOM     51  N5  UNL A   1      20.123  39.780  49.084  1.00  0.00    +0.000 N 
ATOM     52  C40 UNL A   1      18.359  38.015  49.265  1.00  0.00    +0.000 C 
ATOM     64  C47 UNL A   1      19.029  37.040  48.606  1.00  0.00    +0.000 C 
ATOM     65  N6  UNL A   1      20.288  37.097  48.022  1.00  0.00    +0.000 N 
ATOM     66  C48 UNL A   1      20.510  35.904  47.529  1.00  0.00    +0.000 C 
ATOM     67  C49 UNL A   1      21.713  35.390  46.784  1.00  0.00    +0.000 C 
ATOM     79  C56 UNL A   1      22.791  36.181  46.607  1.00  0.00    +0.000 C 
ATOM     80  C57 UNL A   1      24.035  35.769  45.959  1.00  0.00    +0.000 C 
ATOM     81  C58 UNL A   1      24.931  36.763  46.050  1.00  0.00    +0.000 C 
ATOM     82  C59 UNL A   1      24.305  37.920  46.688  1.00  0.00    +0.000 C 
ATOM     83  N7  UNL A   1      23.032  37.481  46.983  1.00  0.00    +0.000 N 
ATOM     84  C60 UNL A   1      19.414  34.949  47.761  1.00  0.00    +0.000 C 
ATOM     85  C61 UNL A   1      18.524  35.702  48.391  1.00  0.00    +0.000 C 
ATOM     86  C62 UNL A   1      23.740  42.248  48.235  1.00  0.00    +0.000 C 
ATOM     87  C63 UNL A   1      24.645  41.564  47.549  1.00  0.00    +0.000 C 
ENDROOT
BRANCH   31   30
ATOM    139  H42 UNL A   1      25.853  40.830  45.011  1.00  0.00    +0.000 H 
ATOM    140  H43 UNL A   1      28.087  40.947  44.071  1.00  0.00    +0.000 H 
ATOM     88  C64 UNL A   1      26.605  40.248  45.412  1.00  0.00    +0.000 C 
ATOM     89  C65 UNL A   1      27.903  40.333  44.881  1.00  0.00    +0.000 C 
ATOM     27  C22 UNL A   1      28.945  39.591  45.442  1.00  0.00    +0.000 C 
ATOM     28  C23 UNL A   1      28.706  38.866  46.606  1.00  0.00    +0.000 C 
ATOM     29  C24 UNL A   1      27.396  38.724  47.089  1.00  0.00    +0.000 C 
ATOM     30  C25 UNL A   1      26.314  39.383  46.479  1.00  0.00    +0.000 C 
ATOM    127  H30 UNL A   1      29.492  38.432  47.113  1.00  0.00    +0.000 H 
ATOM    128  H31 UNL A   1      27.224  38.124  47.911  1.00  0.00    +0.000 H 
BRANCH   27   25
ATOM     25  C21 UNL A   1      30.281  39.617  44.795  1.00  0.00    +0.000 C 
ATOM     26  O2  UNL A   1      31.240  40.046  45.432  1.00  0.00    +0.000 O 
BRANCH   25   24
ATOM    126  H29 UNL A   1      29.956  39.755  42.819  1.00  0.00    +0.000 H 
ATOM     24  N3  UNL A   1      30.450  39.222  43.482  1.00  0.00    +0.000 N 
BRANCH   24   23
ATOM    124  H27 UNL A   1      31.590  38.438  41.964  1.00  0.00    +0.000 H 
ATOM    125  H28 UNL A   1      32.036  37.965  43.632  1.00  0.00    +0.000 H 
ATOM     23  C20 UNL A   1      31.245  38.137  42.932  1.00  0.00    +0.000 C 
BRANCH   23   22
ATOM    122  H25 UNL A   1      29.741  36.943  42.053  1.00  0.00    +0.000 H 
ATOM    123  H26 UNL A   1      31.281  36.106  42.513  1.00  0.00    +0.000 H 
ATOM     22  C19 UNL A   1      30.513  36.802  42.780  1.00  0.00    +0.000 C 
BRANCH   22   21
ATOM    121  H24 UNL A   1      29.755  37.024  44.693  1.00  0.00    +0.000 H 
ATOM     21  C18 UNL A   1      29.863  36.196  44.025  1.00  0.00    +0.000 C 
ATOM    120  H23 UNL A   1      30.498  35.400  44.357  1.00  0.00    +0.000 H 
BRANCH   21   20
ATOM     20  C17 UNL A   1      28.447  35.622  43.910  1.00  0.00    +0.000 C 
ATOM    118  H21 UNL A   1      27.945  35.846  44.827  1.00  0.00    +0.000 H 
ATOM    119  H22 UNL A   1      28.065  36.079  43.021  1.00  0.00    +0.000 H 
BRANCH   20   19
ATOM     19  C16 UNL A   1      28.253  34.125  43.652  1.00  0.00    +0.000 C 
ATOM    116  H19 UNL A   1      27.338  34.020  43.108  1.00  0.00    +0.000 H 
ATOM    117  H20 UNL A   1      29.155  33.840  43.151  1.00  0.00    +0.000 H 
BRANCH   19   18
ATOM     18  C15 UNL A   1      28.181  33.157  44.829  1.00  0.00    +0.000 C 
ATOM    115  H18 UNL A   1      29.142  33.217  45.298  1.00  0.00    +0.000 H 
ATOM    114  H17 UNL A   1      27.928  32.193  44.441  1.00  0.00    +0.000 H 
BRANCH   18   17
ATOM     17  N2  UNL A   1      27.239  33.465  45.871  1.00  0.00    +0.000 N 
ATOM    113  H16 UNL A   1      26.808  34.345  45.781  1.00  0.00    +0.000 H 
BRANCH   17   15
ATOM     15  C14 UNL A   1      26.834  32.743  46.971  1.00  0.00    +0.000 C 
ATOM     16  O1  UNL A   1      26.448  33.421  47.931  1.00  0.00    +0.000 O 
BRANCH   15   14
ATOM      9  C8  UNL A   1      27.468  30.367  47.945  1.00  0.00    +0.000 C 
ATOM     10  C9  UNL A   1      27.055  29.011  48.033  1.00  0.00    +0.000 C 
ATOM     11  C10 UNL A   1      25.999  28.501  47.286  1.00  0.00    +0.000 C 
ATOM     12  C11 UNL A   1      25.315  29.345  46.430  1.00  0.00    +0.000 C 
ATOM    109  H12 UNL A   1      27.558  28.379  48.676  1.00  0.00    +0.000 H 
ATOM     14  C13 UNL A   1      26.747  31.247  47.109  1.00  0.00    +0.000 C 
ATOM     13  C12 UNL A   1      25.674  30.696  46.359  1.00  0.00    +0.000 C 
ATOM    110  H13 UNL A   1      25.730  27.508  47.369  1.00  0.00    +0.000 H 
ATOM    112  H15 UNL A   1      25.136  31.318  45.735  1.00  0.00    +0.000 H 
ATOM    111  H14 UNL A   1      24.545  28.981  45.848  1.00  0.00    +0.000 H 
BRANCH    9    8
ATOM    108  H11 UNL A   1      28.642  30.874  49.580  1.00  0.00    +0.000 H 
ATOM      8  N1  UNL A   1      28.680  30.663  48.619  1.00  0.00    +0.000 N 
BRANCH    8    7
ATOM      1  C1  UNL A   1      33.733  33.475  46.340  1.00  0.00    +0.000 C 
ATOM      2  C2  UNL A   1      32.217  33.253  46.148  1.00  0.00    +0.000 C 
ATOM      3  C3  UNL A   1      31.527  34.507  46.731  1.00  0.00    +0.000 C 
ATOM      4  C4  UNL A   1      31.924  33.162  44.638  1.00  0.00    +0.000 C 
ATOM      5  C5  UNL A   1      31.710  31.953  46.782  1.00  0.00    +0.000 C 
ATOM      6  C6  UNL A   1      30.512  31.890  47.539  1.00  0.00    +0.000 C 
ATOM      7  C7  UNL A   1      29.955  30.669  47.975  1.00  0.00    +0.000 C 
ATOM    141  H44 UNL A   1      30.326  28.590  48.104  1.00  0.00    +0.000 H 
ATOM    142  H45 UNL A   1      34.785  29.104  46.386  1.00  0.00    +0.000 H 
ATOM    143  H46 UNL A   1      33.920  28.782  44.897  1.00  0.00    +0.000 H 
ATOM     90  C66 UNL A   1      30.679  29.491  47.746  1.00  0.00    +0.000 C 
ATOM     91  C67 UNL A   1      31.867  29.539  47.038  1.00  0.00    +0.000 C 
ATOM     92  C68 UNL A   1      32.351  30.736  46.550  1.00  0.00    +0.000 C 
ATOM     93  O3  UNL A   1      33.479  30.584  45.790  1.00  0.00    +0.000 O 
ATOM     94  C69 UNL A   1      33.844  29.191  45.883  1.00  0.00    +0.000 C 
ATOM     95  C70 UNL A   1      32.772  28.414  46.671  1.00  0.00    +0.000 C 
ATOM     98  H1  UNL A   1      34.021  34.396  45.877  1.00  0.00    +0.000 H 
ATOM     99  H2  UNL A   1      34.272  32.667  45.892  1.00  0.00    +0.000 H 
ATOM    100  H3  UNL A   1      33.958  33.518  47.386  1.00  0.00    +0.000 H 
ATOM    101  H4  UNL A   1      31.917  35.382  46.254  1.00  0.00    +0.000 H 
ATOM    102  H5  UNL A   1      31.714  34.560  47.783  1.00  0.00    +0.000 H 
ATOM    103  H6  UNL A   1      30.473  34.446  46.557  1.00  0.00    +0.000 H 
ATOM    104  H7  UNL A   1      32.263  34.054  44.154  1.00  0.00    +0.000 H 
ATOM    105  H8  UNL A   1      30.871  33.053  44.485  1.00  0.00    +0.000 H 
ATOM    106  H9  UNL A   1      32.434  32.317  44.226  1.00  0.00    +0.000 H 
ATOM    107  H10 UNL A   1      30.031  32.770  47.781  1.00  0.00    +0.000 H 
BRANCH   95   96
ATOM    145  H48 UNL A   1      33.049  28.298  48.790  1.00  0.00    +0.000 H 
ATOM    146  H49 UNL A   1      34.434  27.778  47.861  1.00  0.00    +0.000 H 
ATOM    144  H47 UNL A   1      33.029  26.746  47.988  1.00  0.00    +0.000 H 
ATOM     96  C71 UNL A   1      33.366  27.760  47.922  1.00  0.00    +0.000 C 
ENDBRANCH   95   96
BRANCH   95   97
ATOM     97  C72 UNL A   1      32.079  27.368  45.793  1.00  0.00    +0.000 C 
ATOM    147  H50 UNL A   1      31.300  26.893  46.351  1.00  0.00    +0.000 H 
ATOM    148  H51 UNL A   1      32.792  26.634  45.481  1.00  0.00    +0.000 H 
ATOM    149  H52 UNL A   1      31.659  27.847  44.932  1.00  0.00    +0.000 H 
ENDBRANCH   95   97
ENDBRANCH    8    7
ENDBRANCH    9    8
ENDBRANCH   15   14
ENDBRANCH   17   15
ENDBRANCH   18   17
ENDBRANCH   19   18
ENDBRANCH   20   19
ENDBRANCH   21   20
ENDBRANCH   22   21
ENDBRANCH   23   22
ENDBRANCH   24   23
ENDBRANCH   25   24
ENDBRANCH   27   25
ENDBRANCH   31   30
BRANCH   35   36
ATOM     36  C30 UNL A   1      21.463  43.323  49.619  1.00  0.00    +0.000 C 
ATOM     37  C31 UNL A   1      21.916  43.700  50.891  1.00  0.00    +0.000 C 
ATOM     38  F1  UNL A   1      22.289  42.767  51.778  1.00  0.00    +0.000 F 
ATOM     39  C32 UNL A   1      21.966  45.041  51.265  1.00  0.00    +0.000 C 
ATOM     40  F2  UNL A   1      22.371  45.377  52.496  1.00  0.00    +0.000 F 
ATOM     41  C33 UNL A   1      21.594  46.030  50.365  1.00  0.00    +0.000 C 
ATOM     42  F3  UNL A   1      21.661  47.321  50.720  1.00  0.00    +0.000 F 
ATOM     43  C34 UNL A   1      21.153  45.681  49.098  1.00  0.00    +0.000 C 
ATOM     44  F4  UNL A   1      20.810  46.635  48.221  1.00  0.00    +0.000 F 
ATOM     45  C35 UNL A   1      21.075  44.339  48.732  1.00  0.00    +0.000 C 
ATOM     46  F5  UNL A   1      20.645  44.033  47.497  1.00  0.00    +0.000 F 
ENDBRANCH   35   36
BRANCH   52   53
ATOM     53  C41 UNL A   1      16.990  37.694  49.790  1.00  0.00    +0.000 C 
ATOM     54  C42 UNL A   1      16.738  37.586  51.166  1.00  0.00    +0.000 C 
ATOM     55  F6  UNL A   1      17.744  37.698  52.046  1.00  0.00    +0.000 F 
ATOM     56  C43 UNL A   1      15.453  37.338  51.643  1.00  0.00    +0.000 C 
ATOM     57  F7  UNL A   1      15.243  37.205  52.960  1.00  0.00    +0.000 F 
ATOM     58  C44 UNL A   1      14.392  37.219  50.757  1.00  0.00    +0.000 C 
ATOM     59  F8  UNL A   1      13.154  36.992  51.218  1.00  0.00    +0.000 F 
ATOM     60  C45 UNL A   1      14.615  37.332  49.394  1.00  0.00    +0.000 C 
ATOM     61  F9  UNL A   1      13.589  37.229  48.537  1.00  0.00    +0.000 F 
ATOM     62  C46 UNL A   1      15.903  37.556  48.913  1.00  0.00    +0.000 C 
ATOM     63  F10 UNL A   1      16.087  37.657  47.588  1.00  0.00    +0.000 F 
ENDBRANCH   52   53
BRANCH   67   68
ATOM     68  C50 UNL A   1      21.721  34.002  46.248  1.00  0.00    +0.000 C 
ATOM     69  C51 UNL A   1      21.334  33.743  44.926  1.00  0.00    +0.000 C 
ATOM     70  F11 UNL A   1      20.918  34.747  44.140  1.00  0.00    +0.000 F 
ATOM     71  C52 UNL A   1      21.339  32.446  44.416  1.00  0.00    +0.000 C 
ATOM     72  F12 UNL A   1      20.930  32.221  43.160  1.00  0.00    +0.000 F 
ATOM     73  C53 UNL A   1      21.754  31.389  45.210  1.00  0.00    +0.000 C 
ATOM     74  F13 UNL A   1      21.772  30.143  44.716  1.00  0.00    +0.000 F 
ATOM     75  C54 UNL A   1      22.146  31.622  46.520  1.00  0.00    +0.000 C 
ATOM     76  F14 UNL A   1      22.560  30.604  47.287  1.00  0.00    +0.000 F 
ATOM     77  C55 UNL A   1      22.114  32.913  47.039  1.00  0.00    +0.000 C 
ATOM     78  F15 UNL A   1      22.483  33.107  48.313  1.00  0.00    +0.000 F 
ENDBRANCH   67   68
TORSDOF 19
ENDMDL
MODEL 4
REMARK VINA RESULT:     -11.1      5.484     11.533
ROOT
ATOM    129  H32 UNL A   1      36.858  33.128  34.154  1.00  0.00    +0.000 H 
ATOM    130  H33 UNL A   1      35.920  32.839  31.739  1.00  0.00    +0.000 H 
ATOM    131  H34 UNL A   1      39.288  30.457  32.128  1.00  0.00    +0.000 H 
ATOM    132  H35 UNL A   1      43.593  26.499  29.639  1.00  0.00    +0.000 H 
ATOM    133  H36 UNL A   1      44.284  26.469  32.081  1.00  0.00    +0.000 H 
ATOM    134  H37 UNL A   1      41.078  29.086  31.694  1.00  0.00    +0.000 H 
ATOM    135  H38 UNL A   1      39.448  28.431  26.929  1.00  0.00    +0.000 H 
ATOM    136  H39 UNL A   1      37.571  30.096  27.435  1.00  0.00    +0.000 H 
ATOM    137  H40 UNL A   1      40.965  31.034  36.843  1.00  0.00    +0.000 H 
ATOM    138  H41 UNL A   1      42.969  29.539  36.296  1.00  0.00    +0.000 H 
ATOM     31  C26 UNL A   1      42.809  28.264  33.741  1.00  0.00    +0.000 C 
ATOM     32  C27 UNL A   1      41.867  29.299  34.329  1.00  0.00    +0.000 C 
ATOM     33  N4  UNL A   1      40.800  29.852  33.802  1.00  0.00    +0.000 N 
ATOM     34  C28 UNL A   1      40.279  30.694  34.780  1.00  0.00    +0.000 C 
ATOM     35  C29 UNL A   1      39.197  31.511  34.722  1.00  0.00    +0.000 C 
ATOM     47  C36 UNL A   1      38.365  31.702  33.560  1.00  0.00    +0.000 C 
ATOM     48  C37 UNL A   1      37.253  32.518  33.422  1.00  0.00    +0.000 C 
ATOM     49  C38 UNL A   1      36.759  32.375  32.122  1.00  0.00    +0.000 C 
ATOM     50  C39 UNL A   1      37.589  31.504  31.438  1.00  0.00    +0.000 C 
ATOM     51  N5  UNL A   1      38.563  31.091  32.333  1.00  0.00    +0.000 N 
ATOM     52  C40 UNL A   1      37.501  31.070  30.068  1.00  0.00    +0.000 C 
ATOM     64  C47 UNL A   1      38.386  30.234  29.475  1.00  0.00    +0.000 C 
ATOM     65  N6  UNL A   1      39.517  29.640  30.022  1.00  0.00    +0.000 N 
ATOM     66  C48 UNL A   1      40.032  28.904  29.069  1.00  0.00    +0.000 C 
ATOM     67  C49 UNL A   1      41.264  28.039  29.096  1.00  0.00    +0.000 C 
ATOM     79  C56 UNL A   1      41.965  27.890  30.238  1.00  0.00    +0.000 C 
ATOM     80  C57 UNL A   1      43.134  27.028  30.397  1.00  0.00    +0.000 C 
ATOM     81  C58 UNL A   1      43.517  27.034  31.683  1.00  0.00    +0.000 C 
ATOM     82  C59 UNL A   1      42.676  27.965  32.431  1.00  0.00    +0.000 C 
ATOM     83  N7  UNL A   1      41.782  28.429  31.489  1.00  0.00    +0.000 N 
ATOM     84  C60 UNL A   1      39.270  28.938  27.810  1.00  0.00    +0.000 C 
ATOM     85  C61 UNL A   1      38.297  29.790  28.102  1.00  0.00    +0.000 C 
ATOM     86  C62 UNL A   1      41.135  30.566  35.940  1.00  0.00    +0.000 C 
ATOM     87  C63 UNL A   1      42.165  29.769  35.690  1.00  0.00    +0.000 C 
ENDROOT
BRANCH   31   30
ATOM    139  H42 UNL A   1      42.663  26.099  35.386  1.00  0.00    +0.000 H 
ATOM    140  H43 UNL A   1      44.263  25.359  37.052  1.00  0.00    +0.000 H 
ATOM     88  C64 UNL A   1      43.581  26.566  35.453  1.00  0.00    +0.000 C 
ATOM     89  C65 UNL A   1      44.516  26.121  36.404  1.00  0.00    +0.000 C 
ATOM     27  C22 UNL A   1      45.782  26.706  36.476  1.00  0.00    +0.000 C 
ATOM     28  C23 UNL A   1      46.146  27.646  35.516  1.00  0.00    +0.000 C 
ATOM     29  C24 UNL A   1      45.188  28.140  34.617  1.00  0.00    +0.000 C 
ATOM     30  C25 UNL A   1      43.877  27.636  34.592  1.00  0.00    +0.000 C 
ATOM    127  H30 UNL A   1      47.121  27.980  35.466  1.00  0.00    +0.000 H 
ATOM    128  H31 UNL A   1      45.454  28.890  33.959  1.00  0.00    +0.000 H 
BRANCH   27   25
ATOM     25  C21 UNL A   1      46.710  26.292  37.558  1.00  0.00    +0.000 C 
ATOM     26  O2  UNL A   1      46.874  25.093  37.771  1.00  0.00    +0.000 O 
BRANCH   25   24
ATOM    126  H29 UNL A   1      48.267  27.435  38.104  1.00  0.00    +0.000 H 
ATOM     24  N3  UNL A   1      47.340  27.224  38.359  1.00  0.00    +0.000 N 
BRANCH   24   23
ATOM    124  H27 UNL A   1      46.398  27.227  40.183  1.00  0.00    +0.000 H 
ATOM    125  H28 UNL A   1      47.688  28.444  39.942  1.00  0.00    +0.000 H 
ATOM     23  C20 UNL A   1      46.843  27.940  39.521  1.00  0.00    +0.000 C 
BRANCH   23   22
ATOM    122  H25 UNL A   1      44.927  28.535  38.862  1.00  0.00    +0.000 H 
ATOM    123  H26 UNL A   1      45.694  29.547  40.155  1.00  0.00    +0.000 H 
ATOM     22  C19 UNL A   1      45.806  29.025  39.227  1.00  0.00    +0.000 C 
BRANCH   22   21
ATOM    121  H24 UNL A   1      46.751  29.599  37.478  1.00  0.00    +0.000 H 
ATOM     21  C18 UNL A   1      46.174  30.114  38.217  1.00  0.00    +0.000 C 
ATOM    120  H23 UNL A   1      46.678  30.888  38.758  1.00  0.00    +0.000 H 
BRANCH   21   20
ATOM     20  C17 UNL A   1      45.052  30.783  37.415  1.00  0.00    +0.000 C 
ATOM    118  H21 UNL A   1      44.316  30.031  37.223  1.00  0.00    +0.000 H 
ATOM    119  H22 UNL A   1      44.760  31.605  38.034  1.00  0.00    +0.000 H 
BRANCH   20   19
ATOM     19  C16 UNL A   1      45.370  31.445  36.071  1.00  0.00    +0.000 C 
ATOM    116  H19 UNL A   1      46.406  31.713  36.095  1.00  0.00    +0.000 H 
ATOM    117  H20 UNL A   1      45.073  30.707  35.355  1.00  0.00    +0.000 H 
BRANCH   19   18
ATOM     18  C15 UNL A   1      44.601  32.689  35.639  1.00  0.00    +0.000 C 
ATOM    115  H18 UNL A   1      45.352  33.411  35.396  1.00  0.00    +0.000 H 
ATOM    114  H17 UNL A   1      43.953  32.965  36.444  1.00  0.00    +0.000 H 
BRANCH   18   17
ATOM     17  N2  UNL A   1      43.795  32.578  34.454  1.00  0.00    +0.000 N 
ATOM    113  H16 UNL A   1      43.798  31.684  34.043  1.00  0.00    +0.000 H 
BRANCH   17   15
ATOM     15  C14 UNL A   1      43.019  33.504  33.793  1.00  0.00    +0.000 C 
ATOM     16  O1  UNL A   1      42.969  34.621  34.321  1.00  0.00    +0.000 O 
BRANCH   15   14
ATOM      9  C8  UNL A   1      42.411  32.322  31.506  1.00  0.00    +0.000 C 
ATOM     10  C9  UNL A   1      41.461  32.275  30.451  1.00  0.00    +0.000 C 
ATOM     11  C10 UNL A   1      40.447  33.216  30.315  1.00  0.00    +0.000 C 
ATOM     12  C11 UNL A   1      40.349  34.234  31.247  1.00  0.00    +0.000 C 
ATOM    109  H12 UNL A   1      41.526  31.513  29.758  1.00  0.00    +0.000 H 
ATOM     14  C13 UNL A   1      42.291  33.330  32.487  1.00  0.00    +0.000 C 
ATOM     13  C12 UNL A   1      41.245  34.277  32.320  1.00  0.00    +0.000 C 
ATOM    110  H13 UNL A   1      39.778  33.156  29.532  1.00  0.00    +0.000 H 
ATOM    112  H15 UNL A   1      41.141  35.027  33.021  1.00  0.00    +0.000 H 
ATOM    111  H14 UNL A   1      39.619  34.957  31.150  1.00  0.00    +0.000 H 
BRANCH    9    8
ATOM    108  H11 UNL A   1      43.692  30.814  32.134  1.00  0.00    +0.000 H 
ATOM      8  N1  UNL A   1      43.489  31.409  31.376  1.00  0.00    +0.000 N 
BRANCH    8    7
ATOM      1  C1  UNL A   1      46.202  33.737  26.291  1.00  0.00    +0.000 C 
ATOM      2  C2  UNL A   1      44.853  33.356  26.941  1.00  0.00    +0.000 C 
ATOM      3  C3  UNL A   1      44.254  34.675  27.478  1.00  0.00    +0.000 C 
ATOM      4  C4  UNL A   1      43.931  32.780  25.849  1.00  0.00    +0.000 C 
ATOM      5  C5  UNL A   1      44.986  32.283  28.028  1.00  0.00    +0.000 C 
ATOM      6  C6  UNL A   1      44.312  32.371  29.272  1.00  0.00    +0.000 C 
ATOM      7  C7  UNL A   1      44.293  31.308  30.200  1.00  0.00    +0.000 C 
ATOM    141  H44 UNL A   1      45.121  29.405  30.609  1.00  0.00    +0.000 H 
ATOM    142  H45 UNL A   1      48.073  29.684  26.827  1.00  0.00    +0.000 H 
ATOM    143  H46 UNL A   1      46.716  28.854  26.093  1.00  0.00    +0.000 H 
ATOM     90  C66 UNL A   1      45.067  30.173  29.923  1.00  0.00    +0.000 C 
ATOM     91  C67 UNL A   1      45.759  30.086  28.728  1.00  0.00    +0.000 C 
ATOM     92  C68 UNL A   1      45.695  31.105  27.798  1.00  0.00    +0.000 C 
ATOM     93  O3  UNL A   1      46.354  30.807  26.637  1.00  0.00    +0.000 O 
ATOM     94  C69 UNL A   1      47.013  29.542  26.858  1.00  0.00    +0.000 C 
ATOM     95  C70 UNL A   1      46.615  28.971  28.233  1.00  0.00    +0.000 C 
ATOM     98  H1  UNL A   1      46.039  34.487  25.545  1.00  0.00    +0.000 H 
ATOM     99  H2  UNL A   1      46.636  32.871  25.837  1.00  0.00    +0.000 H 
ATOM    100  H3  UNL A   1      46.864  34.118  27.040  1.00  0.00    +0.000 H 
ATOM    101  H4  UNL A   1      44.184  35.385  26.680  1.00  0.00    +0.000 H 
ATOM    102  H5  UNL A   1      44.884  35.065  28.249  1.00  0.00    +0.000 H 
ATOM    103  H6  UNL A   1      43.278  34.487  27.874  1.00  0.00    +0.000 H 
ATOM    104  H7  UNL A   1      43.809  33.500  25.067  1.00  0.00    +0.000 H 
ATOM    105  H8  UNL A   1      42.975  32.553  26.274  1.00  0.00    +0.000 H 
ATOM    106  H9  UNL A   1      44.365  31.889  25.449  1.00  0.00    +0.000 H 
ATOM    107  H10 UNL A   1      43.817  33.245  29.508  1.00  0.00    +0.000 H 
BRANCH   95   96
ATOM    145  H48 UNL A   1      48.722  28.739  28.530  1.00  0.00    +0.000 H 
ATOM    146  H49 UNL A   1      47.740  27.871  29.684  1.00  0.00    +0.000 H 
ATOM    144  H47 UNL A   1      47.913  29.606  29.813  1.00  0.00    +0.000 H 
ATOM     96  C71 UNL A   1      47.840  28.783  29.132  1.00  0.00    +0.000 C 
ENDBRANCH   95   96
BRANCH   95   97
ATOM     97  C72 UNL A   1      45.841  27.657  28.092  1.00  0.00    +0.000 C 
ATOM    147  H50 UNL A   1      45.821  27.153  29.035  1.00  0.00    +0.000 H 
ATOM    148  H51 UNL A   1      46.322  27.036  27.366  1.00  0.00    +0.000 H 
ATOM    149  H52 UNL A   1      44.840  27.865  27.778  1.00  0.00    +0.000 H 
ENDBRANCH   95   97
ENDBRANCH    8    7
ENDBRANCH    9    8
ENDBRANCH   15   14
ENDBRANCH   17   15
ENDBRANCH   18   17
ENDBRANCH   19   18
ENDBRANCH   20   19
ENDBRANCH   21   20
ENDBRANCH   22   21
ENDBRANCH   23   22
ENDBRANCH   24   23
ENDBRANCH   25   24
ENDBRANCH   27   25
ENDBRANCH   31   30
BRANCH   35   36
ATOM     36  C30 UNL A   1      38.827  32.278  35.960  1.00  0.00    +0.000 C 
ATOM     37  C31 UNL A   1      38.088  31.692  36.997  1.00  0.00    +0.000 C 
ATOM     38  F1  UNL A   1      37.611  30.446  36.864  1.00  0.00    +0.000 F 
ATOM     39  C32 UNL A   1      37.818  32.395  38.169  1.00  0.00    +0.000 C 
ATOM     40  F2  UNL A   1      37.082  31.827  39.133  1.00  0.00    +0.000 F 
ATOM     41  C33 UNL A   1      38.306  33.683  38.338  1.00  0.00    +0.000 C 
ATOM     42  F3  UNL A   1      38.060  34.351  39.474  1.00  0.00    +0.000 F 
ATOM     43  C34 UNL A   1      39.047  34.279  37.330  1.00  0.00    +0.000 C 
ATOM     44  F4  UNL A   1      39.535  35.516  37.499  1.00  0.00    +0.000 F 
ATOM     45  C35 UNL A   1      39.295  33.589  36.146  1.00  0.00    +0.000 C 
ATOM     46  F5  UNL A   1      40.019  34.192  35.189  1.00  0.00    +0.000 F 
ENDBRANCH   35   36
BRANCH   52   53
ATOM     53  C41 UNL A   1      36.362  31.590  29.239  1.00  0.00    +0.000 C 
ATOM     54  C42 UNL A   1      35.289  30.766  28.867  1.00  0.00    +0.000 C 
ATOM     55  F6  UNL A   1      35.296  29.464  29.189  1.00  0.00    +0.000 F 
ATOM     56  C43 UNL A   1      34.214  31.272  28.140  1.00  0.00    +0.000 C 
ATOM     57  F7  UNL A   1      33.217  30.458  27.768  1.00  0.00    +0.000 F 
ATOM     58  C44 UNL A   1      34.178  32.615  27.794  1.00  0.00    +0.000 C 
ATOM     59  F8  UNL A   1      33.138  33.104  27.105  1.00  0.00    +0.000 F 
ATOM     60  C45 UNL A   1      35.222  33.451  28.159  1.00  0.00    +0.000 C 
ATOM     61  F9  UNL A   1      35.183  34.751  27.836  1.00  0.00    +0.000 F 
ATOM     62  C46 UNL A   1      36.310  32.942  28.865  1.00  0.00    +0.000 C 
ATOM     63  F10 UNL A   1      37.306  33.775  29.200  1.00  0.00    +0.000 F 
ENDBRANCH   52   53
BRANCH   67   68
ATOM     68  C50 UNL A   1      41.707  27.336  27.862  1.00  0.00    +0.000 C 
ATOM     69  C51 UNL A   1      42.529  27.980  26.927  1.00  0.00    +0.000 C 
ATOM     70  F11 UNL A   1      42.895  29.255  27.122  1.00  0.00    +0.000 F 
ATOM     71  C52 UNL A   1      42.949  27.328  25.769  1.00  0.00    +0.000 C 
ATOM     72  F12 UNL A   1      43.704  27.979  24.873  1.00  0.00    +0.000 F 
ATOM     73  C53 UNL A   1      42.576  26.013  25.536  1.00  0.00    +0.000 C 
ATOM     74  F13 UNL A   1      42.991  25.382  24.429  1.00  0.00    +0.000 F 
ATOM     75  C54 UNL A   1      41.767  25.354  26.450  1.00  0.00    +0.000 C 
ATOM     76  F14 UNL A   1      41.415  24.079  26.235  1.00  0.00    +0.000 F 
ATOM     77  C55 UNL A   1      41.323  26.014  27.593  1.00  0.00    +0.000 C 
ATOM     78  F15 UNL A   1      40.529  25.358  28.451  1.00  0.00    +0.000 F 
ENDBRANCH   67   68
TORSDOF 19
ENDMDL
MODEL 5
REMARK VINA RESULT:     -11.1     20.620     27.384
ROOT
ATOM    129  H32 UNL A   1      52.749  14.429  50.879  1.00  0.00    +0.000 H 
ATOM    130  H33 UNL A   1      53.274  12.696  52.754  1.00  0.00    +0.000 H 
ATOM    131  H34 UNL A   1      49.894  11.434  50.717  1.00  0.00    +0.000 H 
ATOM    132  H35 UNL A   1      45.052   7.382  49.991  1.00  0.00    +0.000 H 
ATOM    133  H36 UNL A   1      44.759   8.838  47.933  1.00  0.00    +0.000 H 
ATOM    134  H37 UNL A   1      47.991  10.313  50.090  1.00  0.00    +0.000 H 
ATOM    135  H38 UNL A   1      48.805   6.856  53.719  1.00  0.00    +0.000 H 
ATOM    136  H39 UNL A   1      50.820   8.244  54.468  1.00  0.00    +0.000 H 
ATOM    137  H40 UNL A   1      49.022  14.806  47.077  1.00  0.00    +0.000 H 
ATOM    138  H41 UNL A   1      46.884  13.549  46.449  1.00  0.00    +0.000 H 
ATOM     31  C26 UNL A   1      46.569  11.040  47.785  1.00  0.00    +0.000 C 
ATOM     32  C27 UNL A   1      47.644  12.089  48.007  1.00  0.00    +0.000 C 
ATOM     33  N4  UNL A   1      48.640  12.097  48.862  1.00  0.00    +0.000 N 
ATOM     34  C28 UNL A   1      49.353  13.266  48.615  1.00  0.00    +0.000 C 
ATOM     35  C29 UNL A   1      50.452  13.751  49.245  1.00  0.00    +0.000 C 
ATOM     47  C36 UNL A   1      51.096  13.135  50.377  1.00  0.00    +0.000 C 
ATOM     48  C37 UNL A   1      52.212  13.570  51.076  1.00  0.00    +0.000 C 
ATOM     49  C38 UNL A   1      52.485  12.649  52.091  1.00  0.00    +0.000 C 
ATOM     50  C39 UNL A   1      51.513  11.664  52.054  1.00  0.00    +0.000 C 
ATOM     51  N5  UNL A   1      50.674  11.968  50.993  1.00  0.00    +0.000 N 
ATOM     52  C40 UNL A   1      51.360  10.522  52.916  1.00  0.00    +0.000 C 
ATOM     64  C47 UNL A   1      50.349   9.625  52.820  1.00  0.00    +0.000 C 
ATOM     65  N6  UNL A   1      49.292   9.604  51.919  1.00  0.00    +0.000 N 
ATOM     66  C48 UNL A   1      48.594   8.534  52.208  1.00  0.00    +0.000 C 
ATOM     67  C49 UNL A   1      47.340   8.012  51.560  1.00  0.00    +0.000 C 
ATOM     79  C56 UNL A   1      46.823   8.634  50.480  1.00  0.00    +0.000 C 
ATOM     80  C57 UNL A   1      45.652   8.181  49.733  1.00  0.00    +0.000 C 
ATOM     81  C58 UNL A   1      45.480   8.967  48.660  1.00  0.00    +0.000 C 
ATOM     82  C59 UNL A   1      46.476  10.036  48.682  1.00  0.00    +0.000 C 
ATOM     83  N7  UNL A   1      47.231   9.758  49.802  1.00  0.00    +0.000 N 
ATOM     84  C60 UNL A   1      49.146   7.745  53.321  1.00  0.00    +0.000 C 
ATOM     85  C61 UNL A   1      50.195   8.472  53.679  1.00  0.00    +0.000 C 
ATOM     86  C62 UNL A   1      48.687  13.935  47.517  1.00  0.00    +0.000 C 
ATOM     87  C63 UNL A   1      47.591  13.284  47.152  1.00  0.00    +0.000 C 
ENDROOT
BRANCH   31   30
ATOM    139  H42 UNL A   1      44.175  12.327  47.630  1.00  0.00    +0.000 H 
ATOM    140  H43 UNL A   1      42.480  12.161  45.902  1.00  0.00    +0.000 H 
ATOM     88  C64 UNL A   1      44.376  11.795  46.769  1.00  0.00    +0.000 C 
ATOM     89  C65 UNL A   1      43.402  11.718  45.760  1.00  0.00    +0.000 C 
ATOM     27  C22 UNL A   1      43.673  11.045  44.566  1.00  0.00    +0.000 C 
ATOM     28  C23 UNL A   1      44.959  10.561  44.343  1.00  0.00    +0.000 C 
ATOM     29  C24 UNL A   1      45.905  10.574  45.380  1.00  0.00    +0.000 C 
ATOM     30  C25 UNL A   1      45.620  11.158  46.626  1.00  0.00    +0.000 C 
ATOM    127  H30 UNL A   1      45.216  10.192  43.415  1.00  0.00    +0.000 H 
ATOM    128  H31 UNL A   1      46.831  10.145  45.222  1.00  0.00    +0.000 H 
BRANCH   27   25
ATOM     25  C21 UNL A   1      42.591  10.886  43.563  1.00  0.00    +0.000 C 
ATOM     26  O2  UNL A   1      42.649   9.948  42.772  1.00  0.00    +0.000 O 
BRANCH   25   24
ATOM    126  H29 UNL A   1      40.746  11.566  43.970  1.00  0.00    +0.000 H 
ATOM     24  N3  UNL A   1      41.560  11.801  43.469  1.00  0.00    +0.000 N 
BRANCH   24   23
ATOM    124  H27 UNL A   1      42.349  13.112  42.100  1.00  0.00    +0.000 H 
ATOM    125  H28 UNL A   1      40.564  13.042  42.211  1.00  0.00    +0.000 H 
ATOM     23  C20 UNL A   1      41.494  13.056  42.741  1.00  0.00    +0.000 C 
BRANCH   23   22
ATOM    122  H25 UNL A   1      41.060  15.105  43.014  1.00  0.00    +0.000 H 
ATOM    123  H26 UNL A   1      40.894  14.036  44.468  1.00  0.00    +0.000 H 
ATOM     22  C19 UNL A   1      41.469  14.315  43.609  1.00  0.00    +0.000 C 
BRANCH   22   21
ATOM    121  H24 UNL A   1      42.954  14.205  45.046  1.00  0.00    +0.000 H 
ATOM     21  C18 UNL A   1      42.796  14.817  44.183  1.00  0.00    +0.000 C 
ATOM    120  H23 UNL A   1      42.686  15.867  44.360  1.00  0.00    +0.000 H 
BRANCH   21   20
ATOM     20  C17 UNL A   1      44.072  14.632  43.355  1.00  0.00    +0.000 C 
ATOM    118  H21 UNL A   1      43.914  13.781  42.727  1.00  0.00    +0.000 H 
ATOM    119  H22 UNL A   1      44.196  15.579  42.873  1.00  0.00    +0.000 H 
BRANCH   20   19
ATOM     19  C16 UNL A   1      45.412  14.416  44.064  1.00  0.00    +0.000 C 
ATOM    116  H19 UNL A   1      45.263  13.633  44.778  1.00  0.00    +0.000 H 
ATOM    117  H20 UNL A   1      46.091  14.221  43.259  1.00  0.00    +0.000 H 
BRANCH   19   18
ATOM     18  C15 UNL A   1      46.070  15.574  44.809  1.00  0.00    +0.000 C 
ATOM    115  H18 UNL A   1      47.123  15.419  44.690  1.00  0.00    +0.000 H 
ATOM    114  H17 UNL A   1      45.721  15.548  45.820  1.00  0.00    +0.000 H 
BRANCH   18   17
ATOM     17  N2  UNL A   1      45.829  16.897  44.301  1.00  0.00    +0.000 N 
ATOM    113  H16 UNL A   1      46.260  17.085  43.436  1.00  0.00    +0.000 H 
BRANCH   17   15
ATOM     15  C14 UNL A   1      45.101  17.947  44.813  1.00  0.00    +0.000 C 
ATOM     16  O1  UNL A   1      44.051  18.202  44.211  1.00  0.00    +0.000 O 
BRANCH   15   14
ATOM      9  C8  UNL A   1      46.239  18.476  47.142  1.00  0.00    +0.000 C 
ATOM     10  C9  UNL A   1      46.512  19.504  48.083  1.00  0.00    +0.000 C 
ATOM     11  C10 UNL A   1      45.942  20.770  47.995  1.00  0.00    +0.000 C 
ATOM     12  C11 UNL A   1      45.085  21.046  46.945  1.00  0.00    +0.000 C 
ATOM    109  H12 UNL A   1      47.157  19.305  48.864  1.00  0.00    +0.000 H 
ATOM     14  C13 UNL A   1      45.402  18.763  46.042  1.00  0.00    +0.000 C 
ATOM     13  C12 UNL A   1      44.835  20.064  45.980  1.00  0.00    +0.000 C 
ATOM    110  H13 UNL A   1      46.156  21.491  48.701  1.00  0.00    +0.000 H 
ATOM    112  H15 UNL A   1      44.214  20.296  45.189  1.00  0.00    +0.000 H 
ATOM    111  H14 UNL A   1      44.632  21.970  46.875  1.00  0.00    +0.000 H 
BRANCH    9    8
ATOM    108  H11 UNL A   1      47.530  16.855  47.017  1.00  0.00    +0.000 H 
ATOM      8  N1  UNL A   1      46.741  17.198  47.497  1.00  0.00    +0.000 N 
BRANCH    8    7
ATOM      1  C1  UNL A   1      42.515  13.187  49.661  1.00  0.00    +0.000 C 
ATOM      2  C2  UNL A   1      42.750  14.634  49.176  1.00  0.00    +0.000 C 
ATOM      3  C3  UNL A   1      42.266  14.674  47.709  1.00  0.00    +0.000 C 
ATOM      4  C4  UNL A   1      41.884  15.581  50.029  1.00  0.00    +0.000 C 
ATOM      5  C5  UNL A   1      44.204  15.096  49.330  1.00  0.00    +0.000 C 
ATOM      6  C6  UNL A   1      44.889  15.808  48.312  1.00  0.00    +0.000 C 
ATOM      7  C7  UNL A   1      46.161  16.383  48.517  1.00  0.00    +0.000 C 
ATOM    141  H44 UNL A   1      47.767  16.495  49.889  1.00  0.00    +0.000 H 
ATOM    142  H45 UNL A   1      45.712  13.289  52.821  1.00  0.00    +0.000 H 
ATOM    143  H46 UNL A   1      45.105  14.776  53.522  1.00  0.00    +0.000 H 
ATOM     90  C66 UNL A   1      46.812  16.138  49.733  1.00  0.00    +0.000 C 
ATOM     91  C67 UNL A   1      46.170  15.416  50.724  1.00  0.00    +0.000 C 
ATOM     92  C68 UNL A   1      44.892  14.934  50.531  1.00  0.00    +0.000 C 
ATOM     93  O3  UNL A   1      44.375  14.334  51.648  1.00  0.00    +0.000 O 
ATOM     94  C69 UNL A   1      45.441  14.306  52.621  1.00  0.00    +0.000 C 
ATOM     95  C70 UNL A   1      46.670  15.064  52.083  1.00  0.00    +0.000 C 
ATOM     98  H1  UNL A   1      41.485  12.928  49.526  1.00  0.00    +0.000 H 
ATOM     99  H2  UNL A   1      42.769  13.112  50.698  1.00  0.00    +0.000 H 
ATOM    100  H3  UNL A   1      43.128  12.517  49.094  1.00  0.00    +0.000 H 
ATOM    101  H4  UNL A   1      41.249  14.343  47.661  1.00  0.00    +0.000 H 
ATOM    102  H5  UNL A   1      42.879  14.031  47.114  1.00  0.00    +0.000 H 
ATOM    103  H6  UNL A   1      42.333  15.676  47.340  1.00  0.00    +0.000 H 
ATOM    104  H7  UNL A   1      40.856  15.294  49.949  1.00  0.00    +0.000 H 
ATOM    105  H8  UNL A   1      42.000  16.585  49.676  1.00  0.00    +0.000 H 
ATOM    106  H9  UNL A   1      42.192  15.524  51.051  1.00  0.00    +0.000 H 
ATOM    107  H10 UNL A   1      44.441  15.908  47.388  1.00  0.00    +0.000 H 
BRANCH   95   96
ATOM    145  H48 UNL A   1      48.633  14.599  51.367  1.00  0.00    +0.000 H 
ATOM    146  H49 UNL A   1      47.604  13.204  51.582  1.00  0.00    +0.000 H 
ATOM    144  H47 UNL A   1      48.300  14.000  52.974  1.00  0.00    +0.000 H 
ATOM     96  C71 UNL A   1      47.894  14.148  51.995  1.00  0.00    +0.000 C 
ENDBRANCH   95   96
BRANCH   95   97
ATOM     97  C72 UNL A   1      46.981  16.300  52.931  1.00  0.00    +0.000 C 
ATOM    147  H50 UNL A   1      46.141  16.963  52.916  1.00  0.00    +0.000 H 
ATOM    148  H51 UNL A   1      47.837  16.801  52.532  1.00  0.00    +0.000 H 
ATOM    149  H52 UNL A   1      47.180  16.000  53.939  1.00  0.00    +0.000 H 
ENDBRANCH   95   97
ENDBRANCH    8    7
ENDBRANCH    9    8
ENDBRANCH   15   14
ENDBRANCH   17   15
ENDBRANCH   18   17
ENDBRANCH   19   18
ENDBRANCH   20   19
ENDBRANCH   21   20
ENDBRANCH   22   21
ENDBRANCH   23   22
ENDBRANCH   24   23
ENDBRANCH   25   24
ENDBRANCH   27   25
ENDBRANCH   31   30
BRANCH   35   36
ATOM     36  C30 UNL A   1      51.052  15.028  48.729  1.00  0.00    +0.000 C 
ATOM     37  C31 UNL A   1      51.940  15.039  47.644  1.00  0.00    +0.000 C 
ATOM     38  F1  UNL A   1      52.348  13.886  47.095  1.00  0.00    +0.000 F 
ATOM     39  C32 UNL A   1      52.430  16.239  47.133  1.00  0.00    +0.000 C 
ATOM     40  F2  UNL A   1      53.302  16.224  46.116  1.00  0.00    +0.000 F 
ATOM     41  C33 UNL A   1      52.019  17.448  47.675  1.00  0.00    +0.000 C 
ATOM     42  F3  UNL A   1      52.477  18.602  47.169  1.00  0.00    +0.000 F 
ATOM     43  C34 UNL A   1      51.134  17.462  48.742  1.00  0.00    +0.000 C 
ATOM     44  F4  UNL A   1      50.722  18.629  49.256  1.00  0.00    +0.000 F 
ATOM     45  C35 UNL A   1      50.665  16.263  49.274  1.00  0.00    +0.000 C 
ATOM     46  F5  UNL A   1      49.807  16.309  50.305  1.00  0.00    +0.000 F 
ENDBRANCH   35   36
BRANCH   52   53
ATOM     53  C41 UNL A   1      52.376  10.320  54.002  1.00  0.00    +0.000 C 
ATOM     54  C42 UNL A   1      52.166  10.803  55.302  1.00  0.00    +0.000 C 
ATOM     55  F6  UNL A   1      51.071  11.524  55.586  1.00  0.00    +0.000 F 
ATOM     56  C43 UNL A   1      53.095  10.566  56.314  1.00  0.00    +0.000 C 
ATOM     57  F7  UNL A   1      52.889  11.065  57.541  1.00  0.00    +0.000 F 
ATOM     58  C44 UNL A   1      54.236   9.822  56.052  1.00  0.00    +0.000 C 
ATOM     59  F8  UNL A   1      55.122   9.585  57.029  1.00  0.00    +0.000 F 
ATOM     60  C45 UNL A   1      54.460   9.327  54.777  1.00  0.00    +0.000 C 
ATOM     61  F9  UNL A   1      55.556   8.598  54.525  1.00  0.00    +0.000 F 
ATOM     62  C46 UNL A   1      53.545   9.583  53.757  1.00  0.00    +0.000 C 
ATOM     63  F10 UNL A   1      53.792   9.093  52.533  1.00  0.00    +0.000 F 
ENDBRANCH   52   53
BRANCH   67   68
ATOM     68  C50 UNL A   1      46.671   6.799  52.102  1.00  0.00    +0.000 C 
ATOM     69  C51 UNL A   1      47.149   5.518  51.793  1.00  0.00    +0.000 C 
ATOM     70  F11 UNL A   1      48.199   5.375  50.972  1.00  0.00    +0.000 F 
ATOM     71  C52 UNL A   1      46.528   4.377  52.297  1.00  0.00    +0.000 C 
ATOM     72  F12 UNL A   1      46.983   3.164  51.956  1.00  0.00    +0.000 F 
ATOM     73  C53 UNL A   1      45.433   4.496  53.140  1.00  0.00    +0.000 C 
ATOM     74  F13 UNL A   1      44.844   3.399  53.635  1.00  0.00    +0.000 F 
ATOM     75  C54 UNL A   1      44.945   5.753  53.463  1.00  0.00    +0.000 C 
ATOM     76  F14 UNL A   1      43.896   5.872  54.288  1.00  0.00    +0.000 F 
ATOM     77  C55 UNL A   1      45.548   6.893  52.937  1.00  0.00    +0.000 C 
ATOM     78  F15 UNL A   1      45.046   8.095  53.255  1.00  0.00    +0.000 F 
ENDBRANCH   67   68
TORSDOF 19
ENDMDL
MODEL 6
REMARK VINA RESULT:     -11.0     37.948     45.865
ROOT
ATOM    129  H32 UNL A   1       2.963  -3.003  34.866  1.00  0.00    +0.000 H 
ATOM    130  H33 UNL A   1       3.961  -5.408  34.974  1.00  0.00    +0.000 H 
ATOM    131  H34 UNL A   1       4.441  -3.965  31.120  1.00  0.00    +0.000 H 
ATOM    132  H35 UNL A   1       6.240  -4.784  25.079  1.00  0.00    +0.000 H 
ATOM    133  H36 UNL A   1       5.632  -2.320  25.058  1.00  0.00    +0.000 H 
ATOM    134  H37 UNL A   1       4.871  -3.790  28.871  1.00  0.00    +0.000 H 
ATOM    135  H38 UNL A   1       6.814  -8.482  28.856  1.00  0.00    +0.000 H 
ATOM    136  H39 UNL A   1       6.157  -8.667  31.322  1.00  0.00    +0.000 H 
ATOM    137  H40 UNL A   1       2.551   0.705  31.049  1.00  0.00    +0.000 H 
ATOM    138  H41 UNL A   1       3.006   0.832  28.534  1.00  0.00    +0.000 H 
ATOM     31  C26 UNL A   1       4.527  -1.362  27.511  1.00  0.00    +0.000 C 
ATOM     32  C27 UNL A   1       3.980  -1.179  28.914  1.00  0.00    +0.000 C 
ATOM     33  N4  UNL A   1       4.056  -1.979  29.952  1.00  0.00    +0.000 N 
ATOM     34  C28 UNL A   1       3.433  -1.311  31.002  1.00  0.00    +0.000 C 
ATOM     35  C29 UNL A   1       3.225  -1.723  32.278  1.00  0.00    +0.000 C 
ATOM     47  C36 UNL A   1       3.592  -3.014  32.802  1.00  0.00    +0.000 C 
ATOM     48  C37 UNL A   1       3.409  -3.507  34.084  1.00  0.00    +0.000 C 
ATOM     49  C38 UNL A   1       3.931  -4.802  34.139  1.00  0.00    +0.000 C 
ATOM     50  C39 UNL A   1       4.399  -5.133  32.879  1.00  0.00    +0.000 C 
ATOM     51  N5  UNL A   1       4.195  -4.025  32.071  1.00  0.00    +0.000 N 
ATOM     52  C40 UNL A   1       4.996  -6.367  32.438  1.00  0.00    +0.000 C 
ATOM     64  C47 UNL A   1       5.396  -6.609  31.166  1.00  0.00    +0.000 C 
ATOM     65  N6  UNL A   1       5.323  -5.769  30.061  1.00  0.00    +0.000 N 
ATOM     66  C48 UNL A   1       5.853  -6.438  29.067  1.00  0.00    +0.000 C 
ATOM     67  C49 UNL A   1       6.038  -6.023  27.633  1.00  0.00    +0.000 C 
ATOM     79  C56 UNL A   1       5.697  -4.780  27.235  1.00  0.00    +0.000 C 
ATOM     80  C57 UNL A   1       5.891  -4.247  25.889  1.00  0.00    +0.000 C 
ATOM     81  C58 UNL A   1       5.543  -2.952  25.870  1.00  0.00    +0.000 C 
ATOM     82  C59 UNL A   1       5.020  -2.575  27.181  1.00  0.00    +0.000 C 
ATOM     83  N7  UNL A   1       5.148  -3.727  27.928  1.00  0.00    +0.000 N 
ATOM     84  C60 UNL A   1       6.338  -7.777  29.440  1.00  0.00    +0.000 C 
ATOM     85  C61 UNL A   1       6.003  -7.842  30.721  1.00  0.00    +0.000 C 
ATOM     86  C62 UNL A   1       3.000  -0.032  30.483  1.00  0.00    +0.000 C 
ATOM     87  C63 UNL A   1       3.254   0.071  29.185  1.00  0.00    +0.000 C 
ENDROOT
BRANCH   31   30
ATOM    139  H42 UNL A   1       2.978  -1.079  25.290  1.00  0.00    +0.000 H 
ATOM    140  H43 UNL A   1       3.195   0.537  23.493  1.00  0.00    +0.000 H 
ATOM     88  C64 UNL A   1       3.663  -0.312  25.375  1.00  0.00    +0.000 C 
ATOM     89  C65 UNL A   1       3.773   0.636  24.343  1.00  0.00    +0.000 C 
ATOM     27  C22 UNL A   1       4.658   1.709  24.461  1.00  0.00    +0.000 C 
ATOM     28  C23 UNL A   1       5.337   1.894  25.663  1.00  0.00    +0.000 C 
ATOM     29  C24 UNL A   1       5.282   0.908  26.660  1.00  0.00    +0.000 C 
ATOM     30  C25 UNL A   1       4.474  -0.233  26.520  1.00  0.00    +0.000 C 
ATOM    127  H30 UNL A   1       5.880   2.756  25.820  1.00  0.00    +0.000 H 
ATOM    128  H31 UNL A   1       5.849   1.024  27.515  1.00  0.00    +0.000 H 
BRANCH   27   25
ATOM     25  C21 UNL A   1       4.832   2.634  23.313  1.00  0.00    +0.000 C 
ATOM     26  O2  UNL A   1       4.033   3.557  23.169  1.00  0.00    +0.000 O 
BRANCH   25   24
ATOM    126  H29 UNL A   1       5.585   2.652  21.452  1.00  0.00    +0.000 H 
ATOM     24  N3  UNL A   1       5.833   2.441  22.381  1.00  0.00    +0.000 N 
BRANCH   24   23
ATOM    124  H27 UNL A   1       7.823   2.505  21.881  1.00  0.00    +0.000 H 
ATOM    125  H28 UNL A   1       7.434   2.148  23.592  1.00  0.00    +0.000 H 
ATOM     23  C20 UNL A   1       7.195   1.971  22.564  1.00  0.00    +0.000 C 
BRANCH   23   22
ATOM    122  H25 UNL A   1       6.568   0.117  21.772  1.00  0.00    +0.000 H 
ATOM    123  H26 UNL A   1       8.354   0.413  21.835  1.00  0.00    +0.000 H 
ATOM     22  C19 UNL A   1       7.408   0.474  22.330  1.00  0.00    +0.000 C 
BRANCH   22   21
ATOM    121  H24 UNL A   1       8.047  -1.302  23.179  1.00  0.00    +0.000 H 
ATOM     21  C18 UNL A   1       7.558  -0.429  23.557  1.00  0.00    +0.000 C 
ATOM    120  H23 UNL A   1       6.578  -0.573  23.963  1.00  0.00    +0.000 H 
BRANCH   21   20
ATOM     20  C17 UNL A   1       8.458   0.036  24.706  1.00  0.00    +0.000 C 
ATOM    118  H21 UNL A   1       9.463   0.012  24.342  1.00  0.00    +0.000 H 
ATOM    119  H22 UNL A   1       8.056   0.992  24.967  1.00  0.00    +0.000 H 
BRANCH   20   19
ATOM     19  C16 UNL A   1       8.450  -0.728  26.033  1.00  0.00    +0.000 C 
ATOM    116  H19 UNL A   1       7.570  -0.424  26.561  1.00  0.00    +0.000 H 
ATOM    117  H20 UNL A   1       8.508  -1.754  25.730  1.00  0.00    +0.000 H 
BRANCH   19   18
ATOM     18  C15 UNL A   1       9.620  -0.579  27.001  1.00  0.00    +0.000 C 
ATOM    115  H18 UNL A   1      10.475  -0.927  26.460  1.00  0.00    +0.000 H 
ATOM    114  H17 UNL A   1       9.385  -1.138  27.882  1.00  0.00    +0.000 H 
BRANCH   18   17
ATOM     17  N2  UNL A   1       9.959   0.756  27.413  1.00  0.00    +0.000 N 
ATOM    113  H16 UNL A   1       9.449   1.082  28.190  1.00  0.00    +0.000 H 
BRANCH   17   15
ATOM     15  C14 UNL A   1      10.872   1.657  26.913  1.00  0.00    +0.000 C 
ATOM     16  O1  UNL A   1      10.387   2.592  26.266  1.00  0.00    +0.000 O 
BRANCH   15   14
ATOM      9  C8  UNL A   1      13.362   0.833  26.574  1.00  0.00    +0.000 C 
ATOM     10  C9  UNL A   1      14.726   1.178  26.770  1.00  0.00    +0.000 C 
ATOM     11  C10 UNL A   1      15.118   2.278  27.525  1.00  0.00    +0.000 C 
ATOM     12  C11 UNL A   1      14.146   3.075  28.101  1.00  0.00    +0.000 C 
ATOM    109  H12 UNL A   1      15.455   0.590  26.336  1.00  0.00    +0.000 H 
ATOM     14  C13 UNL A   1      12.363   1.667  27.120  1.00  0.00    +0.000 C 
ATOM     13  C12 UNL A   1      12.795   2.782  27.887  1.00  0.00    +0.000 C 
ATOM    110  H13 UNL A   1      16.119   2.495  27.654  1.00  0.00    +0.000 H 
ATOM    112  H15 UNL A   1      12.083   3.403  28.301  1.00  0.00    +0.000 H 
ATOM    111  H14 UNL A   1      14.416   3.881  28.687  1.00  0.00    +0.000 H 
BRANCH    9    8
ATOM    108  H11 UNL A   1      13.521  -1.228  26.387  1.00  0.00    +0.000 H 
ATOM      8  N1  UNL A   1      13.152  -0.425  25.953  1.00  0.00    +0.000 N 
BRANCH    8    7
ATOM      1  C1  UNL A   1       9.277  -3.461  22.158  1.00  0.00    +0.000 C 
ATOM      2  C2  UNL A   1      10.674  -3.482  22.817  1.00  0.00    +0.000 C 
ATOM      3  C3  UNL A   1      10.556  -4.427  24.033  1.00  0.00    +0.000 C 
ATOM      4  C4  UNL A   1      11.681  -4.066  21.807  1.00  0.00    +0.000 C 
ATOM      5  C5  UNL A   1      11.183  -2.087  23.201  1.00  0.00    +0.000 C 
ATOM      6  C6  UNL A   1      11.806  -1.820  24.447  1.00  0.00    +0.000 C 
ATOM      7  C7  UNL A   1      12.429  -0.586  24.732  1.00  0.00    +0.000 C 
ATOM    141  H44 UNL A   1      12.715   1.375  23.994  1.00  0.00    +0.000 H 
ATOM    142  H45 UNL A   1       9.770   0.593  20.278  1.00  0.00    +0.000 H 
ATOM    143  H46 UNL A   1      11.305   0.172  19.544  1.00  0.00    +0.000 H 
ATOM     90  C66 UNL A   1      12.322   0.444  23.789  1.00  0.00    +0.000 C 
ATOM     91  C67 UNL A   1      11.688   0.210  22.581  1.00  0.00    +0.000 C 
ATOM     92  C68 UNL A   1      11.158  -1.031  22.291  1.00  0.00    +0.000 C 
ATOM     93  O3  UNL A   1      10.661  -1.113  21.019  1.00  0.00    +0.000 O 
ATOM     94  C69 UNL A   1      10.755   0.215  20.461  1.00  0.00    +0.000 C 
ATOM     95  C70 UNL A   1      11.484   1.151  21.444  1.00  0.00    +0.000 C 
ATOM     98  H1  UNL A   1       8.982  -4.461  21.916  1.00  0.00    +0.000 H 
ATOM     99  H2  UNL A   1       9.312  -2.873  21.265  1.00  0.00    +0.000 H 
ATOM    100  H3  UNL A   1       8.569  -3.035  22.838  1.00  0.00    +0.000 H 
ATOM    101  H4  UNL A   1      10.198  -5.382  23.708  1.00  0.00    +0.000 H 
ATOM    102  H5  UNL A   1       9.872  -4.012  24.742  1.00  0.00    +0.000 H 
ATOM    103  H6  UNL A   1      11.518  -4.543  24.488  1.00  0.00    +0.000 H 
ATOM    104  H7  UNL A   1      11.363  -5.044  21.512  1.00  0.00    +0.000 H 
ATOM    105  H8  UNL A   1      12.647  -4.130  22.264  1.00  0.00    +0.000 H 
ATOM    106  H9  UNL A   1      11.733  -3.434  20.947  1.00  0.00    +0.000 H 
ATOM    107  H10 UNL A   1      11.803  -2.555  25.171  1.00  0.00    +0.000 H 
BRANCH   95   96
ATOM    145  H48 UNL A   1      10.681   3.112  21.140  1.00  0.00    +0.000 H 
ATOM    146  H49 UNL A   1      10.901   2.684  22.820  1.00  0.00    +0.000 H 
ATOM    144  H47 UNL A   1       9.575   2.000  21.910  1.00  0.00    +0.000 H 
ATOM     96  C71 UNL A   1      10.594   2.325  21.860  1.00  0.00    +0.000 C 
ENDBRANCH   95   96
BRANCH   95   97
ATOM     97  C72 UNL A   1      12.806   1.657  20.860  1.00  0.00    +0.000 C 
ATOM    147  H50 UNL A   1      13.311   2.257  21.588  1.00  0.00    +0.000 H 
ATOM    148  H51 UNL A   1      12.610   2.244  19.988  1.00  0.00    +0.000 H 
ATOM    149  H52 UNL A   1      13.423   0.822  20.597  1.00  0.00    +0.000 H 
ENDBRANCH   95   97
ENDBRANCH    8    7
ENDBRANCH    9    8
ENDBRANCH   15   14
ENDBRANCH   17   15
ENDBRANCH   18   17
ENDBRANCH   19   18
ENDBRANCH   20   19
ENDBRANCH   21   20
ENDBRANCH   22   21
ENDBRANCH   23   22
ENDBRANCH   24   23
ENDBRANCH   25   24
ENDBRANCH   27   25
ENDBRANCH   31   30
BRANCH   35   36
ATOM     36  C30 UNL A   1       2.564  -0.764  33.227  1.00  0.00    +0.000 C 
ATOM     37  C31 UNL A   1       1.170  -0.620  33.276  1.00  0.00    +0.000 C 
ATOM     38  F1  UNL A   1       0.393  -1.277  32.403  1.00  0.00    +0.000 F 
ATOM     39  C32 UNL A   1       0.570   0.219  34.212  1.00  0.00    +0.000 C 
ATOM     40  F2  UNL A   1      -0.762   0.366  34.220  1.00  0.00    +0.000 F 
ATOM     41  C33 UNL A   1       1.347   0.905  35.134  1.00  0.00    +0.000 C 
ATOM     42  F3  UNL A   1       0.766   1.698  36.046  1.00  0.00    +0.000 F 
ATOM     43  C34 UNL A   1       2.726   0.771  35.110  1.00  0.00    +0.000 C 
ATOM     44  F4  UNL A   1       3.479   1.419  36.011  1.00  0.00    +0.000 F 
ATOM     45  C35 UNL A   1       3.332  -0.045  34.158  1.00  0.00    +0.000 C 
ATOM     46  F5  UNL A   1       4.669  -0.157  34.161  1.00  0.00    +0.000 F 
ENDBRANCH   35   36
BRANCH   52   53
ATOM     53  C41 UNL A   1       5.174  -7.461  33.450  1.00  0.00    +0.000 C 
ATOM     54  C42 UNL A   1       6.294  -7.505  34.293  1.00  0.00    +0.000 C 
ATOM     55  F6  UNL A   1       7.274  -6.599  34.161  1.00  0.00    +0.000 F 
ATOM     56  C43 UNL A   1       6.424  -8.497  35.262  1.00  0.00    +0.000 C 
ATOM     57  F7  UNL A   1       7.519  -8.539  36.035  1.00  0.00    +0.000 F 
ATOM     58  C44 UNL A   1       5.426  -9.447  35.424  1.00  0.00    +0.000 C 
ATOM     59  F8  UNL A   1       5.546 -10.394  36.365  1.00  0.00    +0.000 F 
ATOM     60  C45 UNL A   1       4.306  -9.418  34.609  1.00  0.00    +0.000 C 
ATOM     61  F9  UNL A   1       3.335 -10.327  34.772  1.00  0.00    +0.000 F 
ATOM     62  C46 UNL A   1       4.185  -8.442  33.623  1.00  0.00    +0.000 C 
ATOM     63  F10 UNL A   1       3.090  -8.441  32.847  1.00  0.00    +0.000 F 
ENDBRANCH   52   53
BRANCH   67   68
ATOM     68  C50 UNL A   1       6.608  -6.980  26.647  1.00  0.00    +0.000 C 
ATOM     69  C51 UNL A   1       5.833  -8.031  26.138  1.00  0.00    +0.000 C 
ATOM     70  F11 UNL A   1       4.573  -8.202  26.565  1.00  0.00    +0.000 F 
ATOM     71  C52 UNL A   1       6.359  -8.932  25.215  1.00  0.00    +0.000 C 
ATOM     72  F12 UNL A   1       5.608  -9.950  24.772  1.00  0.00    +0.000 F 
ATOM     73  C53 UNL A   1       7.662  -8.785  24.765  1.00  0.00    +0.000 C 
ATOM     74  F13 UNL A   1       8.164  -9.644  23.867  1.00  0.00    +0.000 F 
ATOM     75  C54 UNL A   1       8.447  -7.750  25.251  1.00  0.00    +0.000 C 
ATOM     76  F14 UNL A   1       9.702  -7.597  24.808  1.00  0.00    +0.000 F 
ATOM     77  C55 UNL A   1       7.931  -6.866  26.195  1.00  0.00    +0.000 C 
ATOM     78  F15 UNL A   1       8.717  -5.884  26.659  1.00  0.00    +0.000 F 
ENDBRANCH   67   68
TORSDOF 19
ENDMDL
MODEL 7
REMARK VINA RESULT:     -11.0     20.498     27.344
ROOT
ATOM    129  H32 UNL A   1      53.141  13.299  51.337  1.00  0.00    +0.000 H 
ATOM    130  H33 UNL A   1      53.470  11.449  53.142  1.00  0.00    +0.000 H 
ATOM    131  H34 UNL A   1      49.953  10.668  51.098  1.00  0.00    +0.000 H 
ATOM    132  H35 UNL A   1      44.663   7.241  50.278  1.00  0.00    +0.000 H 
ATOM    133  H36 UNL A   1      44.530   8.797  48.277  1.00  0.00    +0.000 H 
ATOM    134  H37 UNL A   1      47.927   9.802  50.451  1.00  0.00    +0.000 H 
ATOM    135  H38 UNL A   1      48.352   6.141  53.944  1.00  0.00    +0.000 H 
ATOM    136  H39 UNL A   1      50.522   7.255  54.720  1.00  0.00    +0.000 H 
ATOM    137  H40 UNL A   1      49.460  14.252  47.591  1.00  0.00    +0.000 H 
ATOM    138  H41 UNL A   1      47.184  13.278  46.941  1.00  0.00    +0.000 H 
ATOM     31  C26 UNL A   1      46.586  10.776  48.189  1.00  0.00    +0.000 C 
ATOM     32  C27 UNL A   1      47.777  11.683  48.437  1.00  0.00    +0.000 C 
ATOM     33  N4  UNL A   1      48.773  11.541  49.281  1.00  0.00    +0.000 N 
ATOM     34  C28 UNL A   1      49.617  12.628  49.068  1.00  0.00    +0.000 C 
ATOM     35  C29 UNL A   1      50.769  12.956  49.704  1.00  0.00    +0.000 C 
ATOM     47  C36 UNL A   1      51.344  12.228  50.806  1.00  0.00    +0.000 C 
ATOM     48  C37 UNL A   1      52.507  12.503  51.508  1.00  0.00    +0.000 C 
ATOM     49  C38 UNL A   1      52.677  11.519  52.486  1.00  0.00    +0.000 C 
ATOM     50  C39 UNL A   1      51.596  10.657  52.424  1.00  0.00    +0.000 C 
ATOM     51  N5  UNL A   1      50.791  11.096  51.384  1.00  0.00    +0.000 N 
ATOM     52  C40 UNL A   1      51.315   9.509  53.247  1.00  0.00    +0.000 C 
ATOM     64  C47 UNL A   1      50.205   8.741  53.129  1.00  0.00    +0.000 C 
ATOM     65  N6  UNL A   1      49.147   8.878  52.239  1.00  0.00    +0.000 N 
ATOM     66  C48 UNL A   1      48.330   7.887  52.497  1.00  0.00    +0.000 C 
ATOM     67  C49 UNL A   1      47.020   7.540  51.844  1.00  0.00    +0.000 C 
ATOM     79  C56 UNL A   1      46.572   8.258  50.793  1.00  0.00    +0.000 C 
ATOM     80  C57 UNL A   1      45.351   7.973  50.043  1.00  0.00    +0.000 C 
ATOM     81  C58 UNL A   1      45.266   8.814  49.000  1.00  0.00    +0.000 C 
ATOM     82  C59 UNL A   1      46.381   9.757  49.050  1.00  0.00    +0.000 C 
ATOM     83  N7  UNL A   1      47.105   9.351  50.151  1.00  0.00    +0.000 N 
ATOM     84  C60 UNL A   1      48.793   6.998  53.575  1.00  0.00    +0.000 C 
ATOM     85  C61 UNL A   1      49.922   7.583  53.947  1.00  0.00    +0.000 C 
ATOM     86  C62 UNL A   1      49.028  13.410  48.003  1.00  0.00    +0.000 C 
ATOM     87  C63 UNL A   1      47.860  12.906  47.627  1.00  0.00    +0.000 C 
ENDROOT
BRANCH   31   30
ATOM    139  H42 UNL A   1      44.448  12.457  48.061  1.00  0.00    +0.000 H 
ATOM    140  H43 UNL A   1      42.717  12.573  46.365  1.00  0.00    +0.000 H 
ATOM     88  C64 UNL A   1      44.537  11.891  47.203  1.00  0.00    +0.000 C 
ATOM     89  C65 UNL A   1      43.546  11.975  46.211  1.00  0.00    +0.000 C 
ATOM     27  C22 UNL A   1      43.674  11.256  45.021  1.00  0.00    +0.000 C 
ATOM     28  C23 UNL A   1      44.852  10.555  44.781  1.00  0.00    +0.000 C 
ATOM     29  C24 UNL A   1      45.806  10.412  45.801  1.00  0.00    +0.000 C 
ATOM     30  C25 UNL A   1      45.649  11.047  47.045  1.00  0.00    +0.000 C 
ATOM    127  H30 UNL A   1      45.024  10.140  43.852  1.00  0.00    +0.000 H 
ATOM    128  H31 UNL A   1      46.640   9.829  45.632  1.00  0.00    +0.000 H 
BRANCH   27   25
ATOM     25  C21 UNL A   1      42.562  11.279  44.038  1.00  0.00    +0.000 C 
ATOM     26  O2  UNL A   1      42.080  10.213  43.663  1.00  0.00    +0.000 O 
BRANCH   25   24
ATOM    126  H29 UNL A   1      41.129  12.600  43.552  1.00  0.00    +0.000 H 
ATOM     24  N3  UNL A   1      42.103  12.467  43.501  1.00  0.00    +0.000 N 
BRANCH   24   23
ATOM    124  H27 UNL A   1      43.809  13.179  42.607  1.00  0.00    +0.000 H 
ATOM    125  H28 UNL A   1      42.255  13.853  42.028  1.00  0.00    +0.000 H 
ATOM     23  C20 UNL A   1      42.840  13.549  42.871  1.00  0.00    +0.000 C 
BRANCH   23   22
ATOM    122  H25 UNL A   1      42.948  15.647  43.083  1.00  0.00    +0.000 H 
ATOM    123  H26 UNL A   1      42.273  14.720  44.486  1.00  0.00    +0.000 H 
ATOM     22  C19 UNL A   1      43.028  14.800  43.731  1.00  0.00    +0.000 C 
BRANCH   22   21
ATOM    121  H24 UNL A   1      44.098  14.583  45.489  1.00  0.00    +0.000 H 
ATOM     21  C18 UNL A   1      44.337  14.944  44.511  1.00  0.00    +0.000 C 
ATOM    120  H23 UNL A   1      44.631  15.971  44.444  1.00  0.00    +0.000 H 
BRANCH   21   20
ATOM     20  C17 UNL A   1      45.543  14.101  44.085  1.00  0.00    +0.000 C 
ATOM    118  H21 UNL A   1      45.320  13.087  44.344  1.00  0.00    +0.000 H 
ATOM    119  H22 UNL A   1      45.651  14.326  43.045  1.00  0.00    +0.000 H 
BRANCH   20   19
ATOM     19  C16 UNL A   1      46.928  14.411  44.662  1.00  0.00    +0.000 C 
ATOM    116  H19 UNL A   1      47.106  13.699  45.441  1.00  0.00    +0.000 H 
ATOM    117  H20 UNL A   1      47.569  14.369  43.806  1.00  0.00    +0.000 H 
BRANCH   19   18
ATOM     18  C15 UNL A   1      47.211  15.790  45.250  1.00  0.00    +0.000 C 
ATOM    115  H18 UNL A   1      47.876  15.612  46.070  1.00  0.00    +0.000 H 
ATOM    114  H17 UNL A   1      46.272  16.228  45.517  1.00  0.00    +0.000 H 
BRANCH   18   17
ATOM     17  N2  UNL A   1      47.902  16.728  44.408  1.00  0.00    +0.000 N 
ATOM    113  H16 UNL A   1      48.865  16.811  44.598  1.00  0.00    +0.000 H 
BRANCH   17   15
ATOM     15  C14 UNL A   1      47.454  17.531  43.384  1.00  0.00    +0.000 C 
ATOM     16  O1  UNL A   1      48.272  18.360  42.968  1.00  0.00    +0.000 O 
BRANCH   15   14
ATOM      9  C8  UNL A   1      45.005  18.324  42.773  1.00  0.00    +0.000 C 
ATOM     10  C9  UNL A   1      43.940  18.162  41.848  1.00  0.00    +0.000 C 
ATOM     11  C10 UNL A   1      43.930  17.157  40.886  1.00  0.00    +0.000 C 
ATOM     12  C11 UNL A   1      45.002  16.286  40.817  1.00  0.00    +0.000 C 
ATOM    109  H12 UNL A   1      43.141  18.814  41.890  1.00  0.00    +0.000 H 
ATOM     14  C13 UNL A   1      46.124  17.468  42.680  1.00  0.00    +0.000 C 
ATOM     13  C12 UNL A   1      46.085  16.452  41.688  1.00  0.00    +0.000 C 
ATOM    110  H13 UNL A   1      43.136  17.063  40.234  1.00  0.00    +0.000 H 
ATOM    112  H15 UNL A   1      46.889  15.811  41.605  1.00  0.00    +0.000 H 
ATOM    111  H14 UNL A   1      45.003  15.518  40.127  1.00  0.00    +0.000 H 
BRANCH    9    8
ATOM    108  H11 UNL A   1      44.263  20.086  43.581  1.00  0.00    +0.000 H 
ATOM      8  N1  UNL A   1      44.757  19.263  43.806  1.00  0.00    +0.000 N 
BRANCH    8    7
ATOM      1  C1  UNL A   1      48.015  20.832  48.861  1.00  0.00    +0.000 C 
ATOM      2  C2  UNL A   1      48.107  20.293  47.416  1.00  0.00    +0.000 C 
ATOM      3  C3  UNL A   1      48.495  21.501  46.536  1.00  0.00    +0.000 C 
ATOM      4  C4  UNL A   1      49.226  19.235  47.360  1.00  0.00    +0.000 C 
ATOM      5  C5  UNL A   1      46.819  19.608  46.943  1.00  0.00    +0.000 C 
ATOM      6  C6  UNL A   1      46.265  19.833  45.657  1.00  0.00    +0.000 C 
ATOM      7  C7  UNL A   1      45.184  19.077  45.156  1.00  0.00    +0.000 C 
ATOM    141  H44 UNL A   1      43.740  17.628  45.692  1.00  0.00    +0.000 H 
ATOM    142  H45 UNL A   1      45.138  17.687  50.290  1.00  0.00    +0.000 H 
ATOM    143  H46 UNL A   1      46.127  16.372  49.689  1.00  0.00    +0.000 H 
ATOM     90  C66 UNL A   1      44.570  18.152  46.010  1.00  0.00    +0.000 C 
ATOM     91  C67 UNL A   1      45.078  17.944  47.280  1.00  0.00    +0.000 C 
ATOM     92  C68 UNL A   1      46.188  18.637  47.719  1.00  0.00    +0.000 C 
ATOM     93  O3  UNL A   1      46.612  18.235  48.956  1.00  0.00    +0.000 O 
ATOM     94  C69 UNL A   1      45.633  17.286  49.430  1.00  0.00    +0.000 C 
ATOM     95  C70 UNL A   1      44.592  17.004  48.329  1.00  0.00    +0.000 C 
ATOM     98  H1  UNL A   1      48.942  21.296  49.128  1.00  0.00    +0.000 H 
ATOM     99  H2  UNL A   1      47.815  20.023  49.532  1.00  0.00    +0.000 H 
ATOM    100  H3  UNL A   1      47.225  21.552  48.924  1.00  0.00    +0.000 H 
ATOM    101  H4  UNL A   1      49.397  21.939  46.911  1.00  0.00    +0.000 H 
ATOM    102  H5  UNL A   1      47.710  22.227  46.560  1.00  0.00    +0.000 H 
ATOM    103  H6  UNL A   1      48.650  21.173  45.529  1.00  0.00    +0.000 H 
ATOM    104  H7  UNL A   1      50.148  19.673  47.684  1.00  0.00    +0.000 H 
ATOM    105  H8  UNL A   1      49.334  18.883  46.355  1.00  0.00    +0.000 H 
ATOM    106  H9  UNL A   1      48.977  18.417  48.001  1.00  0.00    +0.000 H 
ATOM    107  H10 UNL A   1      46.667  20.578  45.066  1.00  0.00    +0.000 H 
BRANCH   95   96
ATOM    145  H48 UNL A   1      42.762  16.571  49.351  1.00  0.00    +0.000 H 
ATOM    146  H49 UNL A   1      42.568  17.574  47.934  1.00  0.00    +0.000 H 
ATOM    144  H47 UNL A   1      43.226  18.254  49.402  1.00  0.00    +0.000 H 
ATOM     96  C71 UNL A   1      43.181  17.379  48.788  1.00  0.00    +0.000 C 
ENDBRANCH   95   96
BRANCH   95   97
ATOM     97  C72 UNL A   1      44.641  15.543  47.873  1.00  0.00    +0.000 C 
ATOM    147  H50 UNL A   1      43.646  15.191  47.698  1.00  0.00    +0.000 H 
ATOM    148  H51 UNL A   1      45.101  14.947  48.632  1.00  0.00    +0.000 H 
ATOM    149  H52 UNL A   1      45.209  15.471  46.968  1.00  0.00    +0.000 H 
ENDBRANCH   95   97
ENDBRANCH    8    7
ENDBRANCH    9    8
ENDBRANCH   15   14
ENDBRANCH   17   15
ENDBRANCH   18   17
ENDBRANCH   19   18
ENDBRANCH   20   19
ENDBRANCH   21   20
ENDBRANCH   22   21
ENDBRANCH   23   22
ENDBRANCH   24   23
ENDBRANCH   25   24
ENDBRANCH   27   25
ENDBRANCH   31   30
BRANCH   35   36
ATOM     36  C30 UNL A   1      51.512  14.173  49.228  1.00  0.00    +0.000 C 
ATOM     37  C31 UNL A   1      52.477  14.097  48.214  1.00  0.00    +0.000 C 
ATOM     38  F1  UNL A   1      52.826  12.907  47.703  1.00  0.00    +0.000 F 
ATOM     39  C32 UNL A   1      53.104  15.245  47.734  1.00  0.00    +0.000 C 
ATOM     40  F2  UNL A   1      54.045  15.145  46.787  1.00  0.00    +0.000 F 
ATOM     41  C33 UNL A   1      52.756  16.490  48.237  1.00  0.00    +0.000 C 
ATOM     42  F3  UNL A   1      53.347  17.596  47.760  1.00  0.00    +0.000 F 
ATOM     43  C34 UNL A   1      51.798  16.591  49.233  1.00  0.00    +0.000 C 
ATOM     44  F4  UNL A   1      51.448  17.795  49.707  1.00  0.00    +0.000 F 
ATOM     45  C35 UNL A   1      51.190  15.443  49.734  1.00  0.00    +0.000 C 
ATOM     46  F5  UNL A   1      50.264  15.572  50.698  1.00  0.00    +0.000 F 
ENDBRANCH   35   36
BRANCH   52   53
ATOM     53  C41 UNL A   1      52.308   9.150  54.313  1.00  0.00    +0.000 C 
ATOM     54  C42 UNL A   1      53.320   8.206  54.085  1.00  0.00    +0.000 C 
ATOM     55  F6  UNL A   1      53.377   7.547  52.918  1.00  0.00    +0.000 F 
ATOM     56  C43 UNL A   1      54.266   7.918  55.066  1.00  0.00    +0.000 C 
ATOM     57  F7  UNL A   1      55.204   6.988  54.838  1.00  0.00    +0.000 F 
ATOM     58  C44 UNL A   1      54.234   8.585  56.282  1.00  0.00    +0.000 C 
ATOM     59  F8  UNL A   1      55.152   8.315  57.221  1.00  0.00    +0.000 F 
ATOM     60  C45 UNL A   1      53.249   9.529  56.526  1.00  0.00    +0.000 C 
ATOM     61  F9  UNL A   1      53.224  10.183  57.696  1.00  0.00    +0.000 F 
ATOM     62  C46 UNL A   1      52.287   9.801  55.556  1.00  0.00    +0.000 C 
ATOM     63  F10 UNL A   1      51.345  10.717  55.824  1.00  0.00    +0.000 F 
ENDBRANCH   52   53
BRANCH   67   68
ATOM     68  C50 UNL A   1      46.216   6.395  52.349  1.00  0.00    +0.000 C 
ATOM     69  C51 UNL A   1      45.186   6.598  53.279  1.00  0.00    +0.000 C 
ATOM     70  F11 UNL A   1      44.940   7.830  53.748  1.00  0.00    +0.000 F 
ATOM     71  C52 UNL A   1      44.428   5.531  53.757  1.00  0.00    +0.000 C 
ATOM     72  F12 UNL A   1      43.474   5.747  54.673  1.00  0.00    +0.000 F 
ATOM     73  C53 UNL A   1      44.669   4.245  53.297  1.00  0.00    +0.000 C 
ATOM     74  F13 UNL A   1      43.931   3.221  53.747  1.00  0.00    +0.000 F 
ATOM     75  C54 UNL A   1      45.679   4.021  52.373  1.00  0.00    +0.000 C 
ATOM     76  F14 UNL A   1      45.905   2.782  51.916  1.00  0.00    +0.000 F 
ATOM     77  C55 UNL A   1      46.456   5.083  51.917  1.00  0.00    +0.000 C 
ATOM     78  F15 UNL A   1      47.436   4.835  51.036  1.00  0.00    +0.000 F 
ENDBRANCH   67   68
TORSDOF 19
ENDMDL
MODEL 8
REMARK VINA RESULT:     -10.9     20.512     28.225
ROOT
ATOM    129  H32 UNL A   1      25.900  32.876  44.411  1.00  0.00    +0.000 H 
ATOM    130  H33 UNL A   1      23.339  32.405  44.319  1.00  0.00    +0.000 H 
ATOM    131  H34 UNL A   1      23.999  35.531  46.956  1.00  0.00    +0.000 H 
ATOM    132  H35 UNL A   1      21.856  39.744  51.206  1.00  0.00    +0.000 H 
ATOM    133  H36 UNL A   1      24.282  40.465  51.012  1.00  0.00    +0.000 H 
ATOM    134  H37 UNL A   1      23.735  37.154  48.560  1.00  0.00    +0.000 H 
ATOM    135  H38 UNL A   1      18.720  36.357  48.570  1.00  0.00    +0.000 H 
ATOM    136  H39 UNL A   1      19.108  34.452  46.905  1.00  0.00    +0.000 H 
ATOM    137  H40 UNL A   1      28.962  36.403  46.995  1.00  0.00    +0.000 H 
ATOM    138  H41 UNL A   1      28.620  38.168  48.817  1.00  0.00    +0.000 H 
ATOM     31  C26 UNL A   1      25.878  38.783  49.346  1.00  0.00    +0.000 C 
ATOM     32  C27 UNL A   1      26.434  37.710  48.428  1.00  0.00    +0.000 C 
ATOM     33  N4  UNL A   1      25.799  36.822  47.699  1.00  0.00    +0.000 N 
ATOM     34  C28 UNL A   1      26.779  36.116  47.009  1.00  0.00    +0.000 C 
ATOM     35  C29 UNL A   1      26.642  35.077  46.147  1.00  0.00    +0.000 C 
ATOM     47  C36 UNL A   1      25.393  34.449  45.799  1.00  0.00    +0.000 C 
ATOM     48  C37 UNL A   1      25.174  33.386  44.936  1.00  0.00    +0.000 C 
ATOM     49  C38 UNL A   1      23.801  33.124  44.898  1.00  0.00    +0.000 C 
ATOM     50  C39 UNL A   1      23.170  33.993  45.771  1.00  0.00    +0.000 C 
ATOM     51  N5  UNL A   1      24.155  34.807  46.309  1.00  0.00    +0.000 N 
ATOM     52  C40 UNL A   1      21.770  34.085  46.090  1.00  0.00    +0.000 C 
ATOM     64  C47 UNL A   1      21.248  34.954  46.989  1.00  0.00    +0.000 C 
ATOM     65  N6  UNL A   1      21.909  35.900  47.763  1.00  0.00    +0.000 N 
ATOM     66  C48 UNL A   1      20.980  36.511  48.455  1.00  0.00    +0.000 C 
ATOM     67  C49 UNL A   1      21.118  37.623  49.459  1.00  0.00    +0.000 C 
ATOM     79  C56 UNL A   1      22.324  38.177  49.700  1.00  0.00    +0.000 C 
ATOM     80  C57 UNL A   1      22.566  39.301  50.601  1.00  0.00    +0.000 C 
ATOM     81  C58 UNL A   1      23.855  39.665  50.520  1.00  0.00    +0.000 C 
ATOM     82  C59 UNL A   1      24.557  38.749  49.624  1.00  0.00    +0.000 C 
ATOM     83  N7  UNL A   1      23.567  37.896  49.184  1.00  0.00    +0.000 N 
ATOM     84  C60 UNL A   1      19.617  36.026  48.182  1.00  0.00    +0.000 C 
ATOM     85  C61 UNL A   1      19.842  35.056  47.307  1.00  0.00    +0.000 C 
ATOM     86  C62 UNL A   1      28.052  36.690  47.389  1.00  0.00    +0.000 C 
ATOM     87  C63 UNL A   1      27.898  37.630  48.311  1.00  0.00    +0.000 C 
ENDROOT
BRANCH   31   30
ATOM    139  H42 UNL A   1      27.122  38.780  51.768  1.00  0.00    +0.000 H 
ATOM    140  H43 UNL A   1      28.242  40.615  52.892  1.00  0.00    +0.000 H 
ATOM     88  C64 UNL A   1      27.266  39.672  51.268  1.00  0.00    +0.000 C 
ATOM     89  C65 UNL A   1      27.935  40.726  51.912  1.00  0.00    +0.000 C 
ATOM     27  C22 UNL A   1      28.185  41.922  51.236  1.00  0.00    +0.000 C 
ATOM     28  C23 UNL A   1      27.872  42.008  49.882  1.00  0.00    +0.000 C 
ATOM     29  C24 UNL A   1      27.140  40.984  49.262  1.00  0.00    +0.000 C 
ATOM     30  C25 UNL A   1      26.790  39.812  49.954  1.00  0.00    +0.000 C 
ATOM    127  H30 UNL A   1      28.180  42.826  49.334  1.00  0.00    +0.000 H 
ATOM    128  H31 UNL A   1      26.852  41.095  48.277  1.00  0.00    +0.000 H 
BRANCH   27   25
ATOM     25  C21 UNL A   1      28.796  43.057  51.973  1.00  0.00    +0.000 C 
ATOM     26  O2  UNL A   1      28.069  43.963  52.373  1.00  0.00    +0.000 O 
BRANCH   25   24
ATOM    126  H29 UNL A   1      30.459  43.045  53.097  1.00  0.00    +0.000 H 
ATOM     24  N3  UNL A   1      30.162  43.136  52.163  1.00  0.00    +0.000 N 
BRANCH   24   23
ATOM    124  H27 UNL A   1      30.822  43.879  50.367  1.00  0.00    +0.000 H 
ATOM    125  H28 UNL A   1      32.003  43.859  51.712  1.00  0.00    +0.000 H 
ATOM     23  C20 UNL A   1      31.226  43.335  51.195  1.00  0.00    +0.000 C 
BRANCH   23   22
ATOM    122  H25 UNL A   1      31.459  41.884  49.679  1.00  0.00    +0.000 H 
ATOM    123  H26 UNL A   1      32.918  42.245  50.691  1.00  0.00    +0.000 H 
ATOM     22  C19 UNL A   1      31.865  42.055  50.654  1.00  0.00    +0.000 C 
BRANCH   22   21
ATOM    121  H24 UNL A   1      30.933  41.015  52.181  1.00  0.00    +0.000 H 
ATOM     21  C18 UNL A   1      31.680  40.766  51.457  1.00  0.00    +0.000 C 
ATOM    120  H23 UNL A   1      32.641  40.494  51.843  1.00  0.00    +0.000 H 
BRANCH   21   20
ATOM     20  C17 UNL A   1      31.116  39.531  50.747  1.00  0.00    +0.000 C 
ATOM    118  H21 UNL A   1      31.848  38.757  50.841  1.00  0.00    +0.000 H 
ATOM    119  H22 UNL A   1      30.175  39.373  51.231  1.00  0.00    +0.000 H 
BRANCH   20   19
ATOM     19  C16 UNL A   1      30.745  39.611  49.264  1.00  0.00    +0.000 C 
ATOM    116  H19 UNL A   1      29.844  39.047  49.138  1.00  0.00    +0.000 H 
ATOM    117  H20 UNL A   1      30.690  40.664  49.078  1.00  0.00    +0.000 H 
BRANCH   19   18
ATOM     18  C15 UNL A   1      31.729  39.116  48.208  1.00  0.00    +0.000 C 
ATOM    115  H18 UNL A   1      31.888  38.083  48.439  1.00  0.00    +0.000 H 
ATOM    114  H17 UNL A   1      32.602  39.732  48.267  1.00  0.00    +0.000 H 
BRANCH   18   17
ATOM     17  N2  UNL A   1      31.282  39.129  46.842  1.00  0.00    +0.000 N 
ATOM    113  H16 UNL A   1      31.176  38.236  46.442  1.00  0.00    +0.000 H 
BRANCH   17   15
ATOM     15  C14 UNL A   1      30.975  40.171  45.996  1.00  0.00    +0.000 C 
ATOM     16  O1  UNL A   1      31.559  40.152  44.906  1.00  0.00    +0.000 O 
BRANCH   15   14
ATOM      9  C8  UNL A   1      30.172  42.604  46.651  1.00  0.00    +0.000 C 
ATOM     10  C9  UNL A   1      29.083  43.513  46.588  1.00  0.00    +0.000 C 
ATOM     11  C10 UNL A   1      27.813  43.131  46.168  1.00  0.00    +0.000 C 
ATOM     12  C11 UNL A   1      27.601  41.819  45.786  1.00  0.00    +0.000 C 
ATOM    109  H12 UNL A   1      29.238  44.496  46.865  1.00  0.00    +0.000 H 
ATOM     14  C13 UNL A   1      29.976  41.275  46.220  1.00  0.00    +0.000 C 
ATOM     13  C12 UNL A   1      28.669  40.915  45.797  1.00  0.00    +0.000 C 
ATOM    110  H13 UNL A   1      27.042  43.816  46.141  1.00  0.00    +0.000 H 
ATOM    112  H15 UNL A   1      28.500  39.947  45.483  1.00  0.00    +0.000 H 
ATOM    111  H14 UNL A   1      26.661  41.509  45.495  1.00  0.00    +0.000 H 
BRANCH    9    8
ATOM    108  H11 UNL A   1      31.420  42.989  48.264  1.00  0.00    +0.000 H 
ATOM      8  N1  UNL A   1      31.332  43.112  47.291  1.00  0.00    +0.000 N 
BRANCH    8    7
ATOM      1  C1  UNL A   1      36.032  43.381  43.234  1.00  0.00    +0.000 C 
ATOM      2  C2  UNL A   1      35.572  42.821  44.598  1.00  0.00    +0.000 C 
ATOM      3  C3  UNL A   1      35.156  41.356  44.336  1.00  0.00    +0.000 C 
ATOM      4  C4  UNL A   1      36.770  42.849  45.567  1.00  0.00    +0.000 C 
ATOM      5  C5  UNL A   1      34.452  43.645  45.244  1.00  0.00    +0.000 C 
ATOM      6  C6  UNL A   1      33.319  43.047  45.851  1.00  0.00    +0.000 C 
ATOM      7  C7  UNL A   1      32.379  43.791  46.596  1.00  0.00    +0.000 C 
ATOM    141  H44 UNL A   1      31.811  45.759  47.120  1.00  0.00    +0.000 H 
ATOM    142  H45 UNL A   1      35.142  47.673  44.232  1.00  0.00    +0.000 H 
ATOM    143  H46 UNL A   1      36.041  47.611  45.733  1.00  0.00    +0.000 H 
ATOM     90  C66 UNL A   1      32.516  45.184  46.634  1.00  0.00    +0.000 C 
ATOM     91  C67 UNL A   1      33.599  45.787  46.018  1.00  0.00    +0.000 C 
ATOM     92  C68 UNL A   1      34.551  45.030  45.365  1.00  0.00    +0.000 C 
ATOM     93  O3  UNL A   1      35.600  45.778  44.904  1.00  0.00    +0.000 O 
ATOM     94  C69 UNL A   1      35.259  47.157  45.162  1.00  0.00    +0.000 C 
ATOM     95  C70 UNL A   1      33.941  47.236  45.957  1.00  0.00    +0.000 C 
ATOM     98  H1  UNL A   1      36.811  42.762  42.838  1.00  0.00    +0.000 H 
ATOM     99  H2  UNL A   1      36.400  44.377  43.363  1.00  0.00    +0.000 H 
ATOM    100  H3  UNL A   1      35.206  43.390  42.554  1.00  0.00    +0.000 H 
ATOM    101  H4  UNL A   1      35.972  40.829  43.886  1.00  0.00    +0.000 H 
ATOM    102  H5  UNL A   1      34.313  41.336  43.679  1.00  0.00    +0.000 H 
ATOM    103  H6  UNL A   1      34.898  40.888  45.264  1.00  0.00    +0.000 H 
ATOM    104  H7  UNL A   1      37.577  42.282  45.153  1.00  0.00    +0.000 H 
ATOM    105  H8  UNL A   1      36.480  42.422  46.504  1.00  0.00    +0.000 H 
ATOM    106  H9  UNL A   1      37.084  43.860  45.716  1.00  0.00    +0.000 H 
ATOM    107  H10 UNL A   1      33.176  42.031  45.743  1.00  0.00    +0.000 H 
BRANCH   95   96
ATOM    145  H48 UNL A   1      31.912  47.827  45.618  1.00  0.00    +0.000 H 
ATOM    146  H49 UNL A   1      32.872  47.707  44.163  1.00  0.00    +0.000 H 
ATOM    144  H47 UNL A   1      33.087  49.064  45.244  1.00  0.00    +0.000 H 
ATOM     96  C71 UNL A   1      32.873  48.017  45.188  1.00  0.00    +0.000 C 
ENDBRANCH   95   96
BRANCH   95   97
ATOM     97  C72 UNL A   1      34.160  47.844  47.345  1.00  0.00    +0.000 C 
ATOM    147  H50 UNL A   1      33.585  47.302  48.066  1.00  0.00    +0.000 H 
ATOM    148  H51 UNL A   1      33.850  48.867  47.339  1.00  0.00    +0.000 H 
ATOM    149  H52 UNL A   1      35.198  47.786  47.600  1.00  0.00    +0.000 H 
ENDBRANCH   95   97
ENDBRANCH    8    7
ENDBRANCH    9    8
ENDBRANCH   15   14
ENDBRANCH   17   15
ENDBRANCH   18   17
ENDBRANCH   19   18
ENDBRANCH   20   19
ENDBRANCH   21   20
ENDBRANCH   22   21
ENDBRANCH   23   22
ENDBRANCH   24   23
ENDBRANCH   25   24
ENDBRANCH   27   25
ENDBRANCH   31   30
BRANCH   35   36
ATOM     36  C30 UNL A   1      27.884  34.533  45.498  1.00  0.00    +0.000 C 
ATOM     37  C31 UNL A   1      28.332  35.004  44.255  1.00  0.00    +0.000 C 
ATOM     38  F1  UNL A   1      27.603  35.895  43.569  1.00  0.00    +0.000 F 
ATOM     39  C32 UNL A   1      29.524  34.541  43.702  1.00  0.00    +0.000 C 
ATOM     40  F2  UNL A   1      29.917  34.980  42.500  1.00  0.00    +0.000 F 
ATOM     41  C33 UNL A   1      30.304  33.625  44.394  1.00  0.00    +0.000 C 
ATOM     42  F3  UNL A   1      31.460  33.195  43.868  1.00  0.00    +0.000 F 
ATOM     43  C34 UNL A   1      29.886  33.154  45.628  1.00  0.00    +0.000 C 
ATOM     44  F4  UNL A   1      30.646  32.282  46.305  1.00  0.00    +0.000 F 
ATOM     45  C35 UNL A   1      28.681  33.593  46.170  1.00  0.00    +0.000 C 
ATOM     46  F5  UNL A   1      28.303  33.120  47.369  1.00  0.00    +0.000 F 
ENDBRANCH   35   36
BRANCH   52   53
ATOM     53  C41 UNL A   1      20.828  33.147  45.393  1.00  0.00    +0.000 C 
ATOM     54  C42 UNL A   1      20.044  33.566  44.309  1.00  0.00    +0.000 C 
ATOM     55  F6  UNL A   1      20.068  34.848  43.915  1.00  0.00    +0.000 F 
ATOM     56  C43 UNL A   1      19.210  32.673  43.638  1.00  0.00    +0.000 C 
ATOM     57  F7  UNL A   1      18.445  33.104  42.626  1.00  0.00    +0.000 F 
ATOM     58  C44 UNL A   1      19.165  31.341  44.022  1.00  0.00    +0.000 C 
ATOM     59  F8  UNL A   1      18.372  30.480  43.368  1.00  0.00    +0.000 F 
ATOM     60  C45 UNL A   1      19.939  30.902  45.084  1.00  0.00    +0.000 C 
ATOM     61  F9  UNL A   1      19.906  29.612  45.449  1.00  0.00    +0.000 F 
ATOM     62  C46 UNL A   1      20.754  31.797  45.772  1.00  0.00    +0.000 C 
ATOM     63  F10 UNL A   1      21.488  31.343  46.798  1.00  0.00    +0.000 F 
ENDBRANCH   52   53
BRANCH   67   68
ATOM     68  C50 UNL A   1      19.920  38.124  50.185  1.00  0.00    +0.000 C 
ATOM     69  C51 UNL A   1      19.459  37.476  51.340  1.00  0.00    +0.000 C 
ATOM     70  F11 UNL A   1      20.079  36.372  51.781  1.00  0.00    +0.000 F 
ATOM     71  C52 UNL A   1      18.338  37.939  52.026  1.00  0.00    +0.000 C 
ATOM     72  F12 UNL A   1      17.897  37.279  53.106  1.00  0.00    +0.000 F 
ATOM     73  C53 UNL A   1      17.672  39.072  51.585  1.00  0.00    +0.000 C 
ATOM     74  F13 UNL A   1      16.601  39.525  52.253  1.00  0.00    +0.000 F 
ATOM     75  C54 UNL A   1      18.112  39.732  50.448  1.00  0.00    +0.000 C 
ATOM     76  F14 UNL A   1      17.478  40.835  50.026  1.00  0.00    +0.000 F 
ATOM     77  C55 UNL A   1      19.215  39.254  49.745  1.00  0.00    +0.000 C 
ATOM     78  F15 UNL A   1      19.609  39.903  48.640  1.00  0.00    +0.000 F 
ENDBRANCH   67   68
TORSDOF 19
ENDMDL
MODEL 9
REMARK VINA RESULT:     -10.9     40.083     48.330
ROOT
ATOM    129  H32 UNL A   1      15.693  32.106 -13.576  1.00  0.00    +0.000 H 
ATOM    130  H33 UNL A   1      14.738  34.512 -13.879  1.00  0.00    +0.000 H 
ATOM    131  H34 UNL A   1      12.729  32.694 -10.745  1.00  0.00    +0.000 H 
ATOM    132  H35 UNL A   1       8.179  32.743  -6.307  1.00  0.00    +0.000 H 
ATOM    133  H36 UNL A   1       9.354  30.563  -5.751  1.00  0.00    +0.000 H 
ATOM    134  H37 UNL A   1      11.230  32.212  -9.073  1.00  0.00    +0.000 H 
ATOM    135  H38 UNL A   1       9.193  36.841  -9.538  1.00  0.00    +0.000 H 
ATOM    136  H39 UNL A   1      10.783  37.248 -11.501  1.00  0.00    +0.000 H 
ATOM    137  H40 UNL A   1      14.704  28.091 -10.201  1.00  0.00    +0.000 H 
ATOM    138  H41 UNL A   1      12.981  27.586  -8.378  1.00  0.00    +0.000 H 
ATOM     31  C26 UNL A   1      11.435  29.853  -7.572  1.00  0.00    +0.000 C 
ATOM     32  C27 UNL A   1      12.449  29.765  -8.699  1.00  0.00    +0.000 C 
ATOM     33  N4  UNL A   1      12.823  30.683  -9.559  1.00  0.00    +0.000 N 
ATOM     34  C28 UNL A   1      13.812  30.098 -10.344  1.00  0.00    +0.000 C 
ATOM     35  C29 UNL A   1      14.499  30.621 -11.390  1.00  0.00    +0.000 C 
ATOM     47  C36 UNL A   1      14.293  31.936 -11.942  1.00  0.00    +0.000 C 
ATOM     48  C37 UNL A   1      14.947  32.535 -13.007  1.00  0.00    +0.000 C 
ATOM     49  C38 UNL A   1      14.425  33.821 -13.179  1.00  0.00    +0.000 C 
ATOM     50  C39 UNL A   1      13.415  34.005 -12.251  1.00  0.00    +0.000 C 
ATOM     51  N5  UNL A   1      13.351  32.847 -11.492  1.00  0.00    +0.000 N 
ATOM     52  C40 UNL A   1      12.571  35.156 -12.060  1.00  0.00    +0.000 C 
ATOM     64  C47 UNL A   1      11.580  35.229 -11.139  1.00  0.00    +0.000 C 
ATOM     65  N6  UNL A   1      11.177  34.267 -10.221  1.00  0.00    +0.000 N 
ATOM     66  C48 UNL A   1      10.202  34.810  -9.536  1.00  0.00    +0.000 C 
ATOM     67  C49 UNL A   1       9.388  34.225  -8.413  1.00  0.00    +0.000 C 
ATOM     79  C56 UNL A   1       9.673  32.997  -7.935  1.00  0.00    +0.000 C 
ATOM     80  C57 UNL A   1       8.994  32.358  -6.809  1.00  0.00    +0.000 C 
ATOM     81  C58 UNL A   1       9.597  31.191  -6.533  1.00  0.00    +0.000 C 
ATOM     82  C59 UNL A   1      10.655  30.953  -7.512  1.00  0.00    +0.000 C 
ATOM     83  N7  UNL A   1      10.625  32.079  -8.308  1.00  0.00    +0.000 N 
ATOM     84  C60 UNL A   1       9.889  36.191  -9.935  1.00  0.00    +0.000 C 
ATOM     85  C61 UNL A   1      10.735  36.385 -10.938  1.00  0.00    +0.000 C 
ATOM     86  C62 UNL A   1      13.995  28.751  -9.846  1.00  0.00    +0.000 C 
ATOM     87  C63 UNL A   1      13.132  28.476  -8.878  1.00  0.00    +0.000 C 
ENDROOT
BRANCH   31   30
ATOM    139  H42 UNL A   1       9.380  28.097  -7.250  1.00  0.00    +0.000 H 
ATOM    140  H43 UNL A   1       8.980  26.561  -5.414  1.00  0.00    +0.000 H 
ATOM     88  C64 UNL A   1      10.100  27.977  -6.520  1.00  0.00    +0.000 C 
ATOM     89  C65 UNL A   1       9.876  27.071  -5.470  1.00  0.00    +0.000 C 
ATOM     27  C22 UNL A   1      10.859  26.856  -4.500  1.00  0.00    +0.000 C 
ATOM     28  C23 UNL A   1      12.104  27.459  -4.659  1.00  0.00    +0.000 C 
ATOM     29  C24 UNL A   1      12.299  28.418  -5.665  1.00  0.00    +0.000 C 
ATOM     30  C25 UNL A   1      11.288  28.723  -6.592  1.00  0.00    +0.000 C 
ATOM    127  H30 UNL A   1      12.884  27.199  -4.036  1.00  0.00    +0.000 H 
ATOM    128  H31 UNL A   1      13.205  28.909  -5.724  1.00  0.00    +0.000 H 
BRANCH   27   25
ATOM     25  C21 UNL A   1      10.555  25.977  -3.344  1.00  0.00    +0.000 C 
ATOM     26  O2  UNL A   1      10.446  24.767  -3.532  1.00  0.00    +0.000 O 
BRANCH   25   24
ATOM    126  H29 UNL A   1      10.648  25.933  -1.339  1.00  0.00    +0.000 H 
ATOM     24  N3  UNL A   1      10.339  26.498  -2.083  1.00  0.00    +0.000 N 
BRANCH   24   23
ATOM    124  H27 UNL A   1       8.813  27.863  -2.243  1.00  0.00    +0.000 H 
ATOM    125  H28 UNL A   1       9.571  27.688  -0.631  1.00  0.00    +0.000 H 
ATOM     23  C20 UNL A   1       9.722  27.752  -1.689  1.00  0.00    +0.000 C 
BRANCH   23   22
ATOM    122  H25 UNL A   1      10.608  29.540  -0.997  1.00  0.00    +0.000 H 
ATOM    123  H26 UNL A   1      11.511  28.623  -2.273  1.00  0.00    +0.000 H 
ATOM     22  C19 UNL A   1      10.573  29.002  -1.921  1.00  0.00    +0.000 C 
BRANCH   22   21
ATOM    121  H24 UNL A   1       9.111  30.209  -2.749  1.00  0.00    +0.000 H 
ATOM     21  C18 UNL A   1      10.125  29.984  -3.005  1.00  0.00    +0.000 C 
ATOM    120  H23 UNL A   1      10.281  29.504  -3.949  1.00  0.00    +0.000 H 
BRANCH   21   20
ATOM     20  C17 UNL A   1      10.804  31.356  -3.081  1.00  0.00    +0.000 C 
ATOM    118  H21 UNL A   1      10.141  32.001  -3.617  1.00  0.00    +0.000 H 
ATOM    119  H22 UNL A   1      10.996  31.596  -2.056  1.00  0.00    +0.000 H 
BRANCH   20   19
ATOM     19  C16 UNL A   1      12.180  31.487  -3.740  1.00  0.00    +0.000 C 
ATOM    116  H19 UNL A   1      12.366  30.567  -4.255  1.00  0.00    +0.000 H 
ATOM    117  H20 UNL A   1      12.086  32.370  -4.337  1.00  0.00    +0.000 H 
BRANCH   19   18
ATOM     18  C15 UNL A   1      13.408  31.769  -2.881  1.00  0.00    +0.000 C 
ATOM    115  H18 UNL A   1      13.209  32.709  -2.409  1.00  0.00    +0.000 H 
ATOM    114  H17 UNL A   1      14.263  31.760  -3.525  1.00  0.00    +0.000 H 
BRANCH   18   17
ATOM     17  N2  UNL A   1      13.671  30.859  -1.800  1.00  0.00    +0.000 N 
ATOM    113  H16 UNL A   1      12.983  30.166  -1.676  1.00  0.00    +0.000 H 
BRANCH   17   15
ATOM     15  C14 UNL A   1      14.718  30.785  -0.908  1.00  0.00    +0.000 C 
ATOM     16  O1  UNL A   1      15.437  29.786  -1.023  1.00  0.00    +0.000 O 
BRANCH   15   14
ATOM      9  C8  UNL A   1      14.331  32.747   0.823  1.00  0.00    +0.000 C 
ATOM     10  C9  UNL A   1      14.913  33.459   1.906  1.00  0.00    +0.000 C 
ATOM     11  C10 UNL A   1      16.244  33.301   2.276  1.00  0.00    +0.000 C 
ATOM     12  C11 UNL A   1      17.033  32.409   1.572  1.00  0.00    +0.000 C 
ATOM    109  H12 UNL A   1      14.326  34.121   2.439  1.00  0.00    +0.000 H 
ATOM     14  C13 UNL A   1      15.116  31.802   0.129  1.00  0.00    +0.000 C 
ATOM     13  C12 UNL A   1      16.471  31.663   0.530  1.00  0.00    +0.000 C 
ATOM    110  H13 UNL A   1      16.637  33.840   3.063  1.00  0.00    +0.000 H 
ATOM    112  H15 UNL A   1      17.067  30.982   0.033  1.00  0.00    +0.000 H 
ATOM    111  H14 UNL A   1      18.030  32.295   1.814  1.00  0.00    +0.000 H 
BRANCH    9    8
ATOM    108  H11 UNL A   1      12.923  34.092   0.103  1.00  0.00    +0.000 H 
ATOM      8  N1  UNL A   1      13.030  33.180   0.460  1.00  0.00    +0.000 N 
BRANCH    8    7
ATOM      1  C1  UNL A   1       7.272  31.444  -1.110  1.00  0.00    +0.000 C 
ATOM      2  C2  UNL A   1       8.120  32.550  -0.444  1.00  0.00    +0.000 C 
ATOM      3  C3  UNL A   1       8.306  33.647  -1.517  1.00  0.00    +0.000 C 
ATOM      4  C4  UNL A   1       7.327  33.125   0.745  1.00  0.00    +0.000 C 
ATOM      5  C5  UNL A   1       9.454  32.038   0.113  1.00  0.00    +0.000 C 
ATOM      6  C6  UNL A   1      10.675  32.736  -0.071  1.00  0.00    +0.000 C 
ATOM      7  C7  UNL A   1      11.867  32.360   0.584  1.00  0.00    +0.000 C 
ATOM    141  H44 UNL A   1      12.732  30.855   1.792  1.00  0.00    +0.000 H 
ATOM    142  H45 UNL A   1       8.784  28.128   1.521  1.00  0.00    +0.000 H 
ATOM    143  H46 UNL A   1       8.443  29.012   2.995  1.00  0.00    +0.000 H 
ATOM     90  C66 UNL A   1      11.861  31.188   1.350  1.00  0.00    +0.000 C 
ATOM     91  C67 UNL A   1      10.685  30.476   1.512  1.00  0.00    +0.000 C 
ATOM     92  C68 UNL A   1       9.512  30.909   0.928  1.00  0.00    +0.000 C 
ATOM     93  O3  UNL A   1       8.431  30.144   1.275  1.00  0.00    +0.000 O 
ATOM     94  C69 UNL A   1       8.948  29.043   2.052  1.00  0.00    +0.000 C 
ATOM     95  C70 UNL A   1      10.458  29.228   2.294  1.00  0.00    +0.000 C 
ATOM     98  H1  UNL A   1       6.359  31.867  -1.476  1.00  0.00    +0.000 H 
ATOM     99  H2  UNL A   1       7.050  30.684  -0.391  1.00  0.00    +0.000 H 
ATOM    100  H3  UNL A   1       7.818  31.018  -1.925  1.00  0.00    +0.000 H 
ATOM    101  H4  UNL A   1       7.347  33.966  -1.869  1.00  0.00    +0.000 H 
ATOM    102  H5  UNL A   1       8.873  33.253  -2.334  1.00  0.00    +0.000 H 
ATOM    103  H6  UNL A   1       8.824  34.479  -1.089  1.00  0.00    +0.000 H 
ATOM    104  H7  UNL A   1       6.384  33.496   0.400  1.00  0.00    +0.000 H 
ATOM    105  H8  UNL A   1       7.881  33.924   1.191  1.00  0.00    +0.000 H 
ATOM    106  H9  UNL A   1       7.163  32.356   1.470  1.00  0.00    +0.000 H 
ATOM    107  H10 UNL A   1      10.692  33.547  -0.708  1.00  0.00    +0.000 H 
BRANCH   95   96
ATOM    145  H48 UNL A   1      10.741  27.146   1.883  1.00  0.00    +0.000 H 
ATOM    146  H49 UNL A   1      12.223  28.022   2.178  1.00  0.00    +0.000 H 
ATOM    144  H47 UNL A   1      11.385  28.209   0.655  1.00  0.00    +0.000 H 
ATOM     96  C71 UNL A   1      11.262  28.064   1.709  1.00  0.00    +0.000 C 
ENDBRANCH   95   96
BRANCH   95   97
ATOM     97  C72 UNL A   1      10.770  29.405   3.782  1.00  0.00    +0.000 C 
ATOM    147  H50 UNL A   1       9.998  28.949   4.365  1.00  0.00    +0.000 H 
ATOM    148  H51 UNL A   1      10.823  30.447   4.015  1.00  0.00    +0.000 H 
ATOM    149  H52 UNL A   1      11.708  28.941   4.008  1.00  0.00    +0.000 H 
ENDBRANCH   95   97
ENDBRANCH    8    7
ENDBRANCH    9    8
ENDBRANCH   15   14
ENDBRANCH   17   15
ENDBRANCH   18   17
ENDBRANCH   19   18
ENDBRANCH   20   19
ENDBRANCH   21   20
ENDBRANCH   22   21
ENDBRANCH   23   22
ENDBRANCH   24   23
ENDBRANCH   25   24
ENDBRANCH   27   25
ENDBRANCH   31   30
BRANCH   35   36
ATOM     36  C30 UNL A   1      15.562  29.771 -12.029  1.00  0.00    +0.000 C 
ATOM     37  C31 UNL A   1      15.300  28.997 -13.168  1.00  0.00    +0.000 C 
ATOM     38  F1  UNL A   1      14.056  28.927 -13.664  1.00  0.00    +0.000 F 
ATOM     39  C32 UNL A   1      16.314  28.273 -13.790  1.00  0.00    +0.000 C 
ATOM     40  F2  UNL A   1      16.035  27.515 -14.858  1.00  0.00    +0.000 F 
ATOM     41  C33 UNL A   1      17.612  28.333 -13.304  1.00  0.00    +0.000 C 
ATOM     42  F3  UNL A   1      18.591  27.650 -13.915  1.00  0.00    +0.000 F 
ATOM     43  C34 UNL A   1      17.897  29.100 -12.185  1.00  0.00    +0.000 C 
ATOM     44  F4  UNL A   1      19.154  29.174 -11.725  1.00  0.00    +0.000 F 
ATOM     45  C35 UNL A   1      16.879  29.803 -11.544  1.00  0.00    +0.000 C 
ATOM     46  F5  UNL A   1      17.186  30.538 -10.464  1.00  0.00    +0.000 F 
ENDBRANCH   35   36
BRANCH   52   53
ATOM     53  C41 UNL A   1      12.792  36.344 -12.950  1.00  0.00    +0.000 C 
ATOM     54  C42 UNL A   1      13.716  37.346 -12.619  1.00  0.00    +0.000 C 
ATOM     55  F6  UNL A   1      14.376  37.296 -11.452  1.00  0.00    +0.000 F 
ATOM     56  C43 UNL A   1      13.949  38.419 -13.477  1.00  0.00    +0.000 C 
ATOM     57  F7  UNL A   1      14.812  39.381 -13.124  1.00  0.00    +0.000 F 
ATOM     58  C44 UNL A   1      13.283  38.497 -14.691  1.00  0.00    +0.000 C 
ATOM     59  F8  UNL A   1      13.516  39.523 -15.521  1.00  0.00    +0.000 F 
ATOM     60  C45 UNL A   1      12.372  37.513 -15.043  1.00  0.00    +0.000 C 
ATOM     61  F9  UNL A   1      11.736  37.581 -16.222  1.00  0.00    +0.000 F 
ATOM     62  C46 UNL A   1      12.119  36.452 -14.177  1.00  0.00    +0.000 C 
ATOM     63  F10 UNL A   1      11.230  35.518 -14.545  1.00  0.00    +0.000 F 
ENDBRANCH   52   53
BRANCH   67   68
ATOM     68  C50 UNL A   1       8.270  35.007  -7.818  1.00  0.00    +0.000 C 
ATOM     69  C51 UNL A   1       7.049  35.136  -8.493  1.00  0.00    +0.000 C 
ATOM     70  F11 UNL A   1       6.890  34.581  -9.704  1.00  0.00    +0.000 F 
ATOM     71  C52 UNL A   1       5.996  35.866  -7.943  1.00  0.00    +0.000 C 
ATOM     72  F12 UNL A   1       4.852  36.004  -8.626  1.00  0.00    +0.000 F 
ATOM     73  C53 UNL A   1       6.138  36.459  -6.698  1.00  0.00    +0.000 C 
ATOM     74  F13 UNL A   1       5.121  37.149  -6.163  1.00  0.00    +0.000 F 
ATOM     75  C54 UNL A   1       7.336  36.340  -6.009  1.00  0.00    +0.000 C 
ATOM     76  F14 UNL A   1       7.472  36.901  -4.800  1.00  0.00    +0.000 F 
ATOM     77  C55 UNL A   1       8.398  35.635  -6.571  1.00  0.00    +0.000 C 
ATOM     78  F15 UNL A   1       9.549  35.550  -5.890  1.00  0.00    +0.000 F 
ENDBRANCH   67   68
TORSDOF 19
ENDMDL
MODEL 10
REMARK VINA RESULT:     -10.9     20.516     27.233
ROOT
ATOM    129  H32 UNL A   1      19.065  42.530  50.280  1.00  0.00    +0.000 H 
ATOM    130  H33 UNL A   1      17.417  40.514  50.398  1.00  0.00    +0.000 H 
ATOM    131  H34 UNL A   1      20.892  39.254  48.528  1.00  0.00    +0.000 H 
ATOM    132  H35 UNL A   1      24.247  34.788  45.494  1.00  0.00    +0.000 H 
ATOM    133  H36 UNL A   1      25.993  36.615  45.720  1.00  0.00    +0.000 H 
ATOM    134  H37 UNL A   1      22.447  38.031  47.362  1.00  0.00    +0.000 H 
ATOM    135  H38 UNL A   1      19.362  33.998  47.437  1.00  0.00    +0.000 H 
ATOM    136  H39 UNL A   1      17.613  35.467  48.590  1.00  0.00    +0.000 H 
ATOM    137  H40 UNL A   1      24.025  43.198  48.425  1.00  0.00    +0.000 H 
ATOM    138  H41 UNL A   1      25.704  41.809  47.084  1.00  0.00    +0.000 H 
ATOM     31  C26 UNL A   1      25.013  39.042  46.860  1.00  0.00    +0.000 C 
ATOM     32  C27 UNL A   1      24.194  40.163  47.473  1.00  0.00    +0.000 C 
ATOM     33  N4  UNL A   1      22.996  40.126  48.009  1.00  0.00    +0.000 N 
ATOM     34  C28 UNL A   1      22.735  41.415  48.462  1.00  0.00    +0.000 C 
ATOM     35  C29 UNL A   1      21.623  41.904  49.066  1.00  0.00    +0.000 C 
ATOM     47  C36 UNL A   1      20.422  41.150  49.325  1.00  0.00    +0.000 C 
ATOM     48  C37 UNL A   1      19.250  41.578  49.928  1.00  0.00    +0.000 C 
ATOM     49  C38 UNL A   1      18.360  40.501  49.979  1.00  0.00    +0.000 C 
ATOM     50  C39 UNL A   1      18.961  39.415  49.367  1.00  0.00    +0.000 C 
ATOM     51  N5  UNL A   1      20.229  39.822  48.980  1.00  0.00    +0.000 N 
ATOM     52  C40 UNL A   1      18.426  38.095  49.153  1.00  0.00    +0.000 C 
ATOM     64  C47 UNL A   1      19.085  37.101  48.511  1.00  0.00    +0.000 C 
ATOM     65  N6  UNL A   1      20.353  37.127  47.943  1.00  0.00    +0.000 N 
ATOM     66  C48 UNL A   1      20.556  35.926  47.463  1.00  0.00    +0.000 C 
ATOM     67  C49 UNL A   1      21.758  35.382  46.738  1.00  0.00    +0.000 C 
ATOM     79  C56 UNL A   1      22.854  36.149  46.568  1.00  0.00    +0.000 C 
ATOM     80  C57 UNL A   1      24.097  35.706  45.941  1.00  0.00    +0.000 C 
ATOM     81  C58 UNL A   1      25.013  36.682  46.034  1.00  0.00    +0.000 C 
ATOM     82  C59 UNL A   1      24.402  37.857  46.654  1.00  0.00    +0.000 C 
ATOM     83  N7  UNL A   1      23.116  37.447  46.936  1.00  0.00    +0.000 N 
ATOM     84  C60 UNL A   1      19.438  34.995  47.689  1.00  0.00    +0.000 C 
ATOM     85  C61 UNL A   1      18.555  35.772  48.301  1.00  0.00    +0.000 C 
ATOM     86  C62 UNL A   1      23.906  42.209  48.157  1.00  0.00    +0.000 C 
ATOM     87  C63 UNL A   1      24.805  41.500  47.489  1.00  0.00    +0.000 C 
ENDROOT
BRANCH   31   30
ATOM    139  H42 UNL A   1      26.035  40.765  45.016  1.00  0.00    +0.000 H 
ATOM    140  H43 UNL A   1      28.279  40.835  44.096  1.00  0.00    +0.000 H 
ATOM     88  C64 UNL A   1      26.767  40.154  45.411  1.00  0.00    +0.000 C 
ATOM     89  C65 UNL A   1      28.072  40.212  44.892  1.00  0.00    +0.000 C 
ATOM     27  C22 UNL A   1      29.088  39.430  45.447  1.00  0.00    +0.000 C 
ATOM     28  C23 UNL A   1      28.818  38.690  46.595  1.00  0.00    +0.000 C 
ATOM     29  C24 UNL A   1      27.501  38.576  47.065  1.00  0.00    +0.000 C 
ATOM     30  C25 UNL A   1      26.443  39.277  46.460  1.00  0.00    +0.000 C 
ATOM    127  H30 UNL A   1      29.588  38.224  47.099  1.00  0.00    +0.000 H 
ATOM    128  H31 UNL A   1      27.305  37.965  47.873  1.00  0.00    +0.000 H 
BRANCH   27   25
ATOM     25  C21 UNL A   1      30.429  39.430  44.811  1.00  0.00    +0.000 C 
ATOM     26  O2  UNL A   1      31.397  39.806  45.469  1.00  0.00    +0.000 O 
BRANCH   25   24
ATOM    126  H29 UNL A   1      30.189  39.686  42.834  1.00  0.00    +0.000 H 
ATOM     24  N3  UNL A   1      30.596  39.072  43.487  1.00  0.00    +0.000 N 
BRANCH   24   23
ATOM    124  H27 UNL A   1      31.634  38.204  41.943  1.00  0.00    +0.000 H 
ATOM    125  H28 UNL A   1      32.060  37.673  43.598  1.00  0.00    +0.000 H 
ATOM     23  C20 UNL A   1      31.278  37.925  42.913  1.00  0.00    +0.000 C 
BRANCH   23   22
ATOM    122  H25 UNL A   1      29.640  36.894  42.069  1.00  0.00    +0.000 H 
ATOM    123  H26 UNL A   1      31.116  35.911  42.445  1.00  0.00    +0.000 H 
ATOM     22  C19 UNL A   1      30.424  36.665  42.760  1.00  0.00    +0.000 C 
BRANCH   22   21
ATOM    121  H24 UNL A   1      29.773  36.899  44.710  1.00  0.00    +0.000 H 
ATOM     21  C18 UNL A   1      29.771  36.085  44.016  1.00  0.00    +0.000 C 
ATOM    120  H23 UNL A   1      30.338  35.222  44.296  1.00  0.00    +0.000 H 
BRANCH   21   20
ATOM     20  C17 UNL A   1      28.301  35.655  43.949  1.00  0.00    +0.000 C 
ATOM    118  H21 UNL A   1      27.879  35.842  44.913  1.00  0.00    +0.000 H 
ATOM    119  H22 UNL A   1      27.913  36.221  43.128  1.00  0.00    +0.000 H 
BRANCH   20   19
ATOM     19  C16 UNL A   1      27.949  34.210  43.583  1.00  0.00    +0.000 C 
ATOM    116  H19 UNL A   1      27.002  34.238  43.086  1.00  0.00    +0.000 H 
ATOM    117  H20 UNL A   1      28.792  33.887  43.008  1.00  0.00    +0.000 H 
BRANCH   19   18
ATOM     18  C15 UNL A   1      27.843  33.155  44.680  1.00  0.00    +0.000 C 
ATOM    115  H18 UNL A   1      28.842  33.030  45.043  1.00  0.00    +0.000 H 
ATOM    114  H17 UNL A   1      27.408  32.280  44.245  1.00  0.00    +0.000 H 
BRANCH   18   17
ATOM     17  N2  UNL A   1      27.064  33.496  45.839  1.00  0.00    +0.000 N 
ATOM    113  H16 UNL A   1      26.845  34.452  45.913  1.00  0.00    +0.000 H 
BRANCH   17   15
ATOM     15  C14 UNL A   1      26.572  32.718  46.863  1.00  0.00    +0.000 C 
ATOM     16  O1  UNL A   1      26.143  33.345  47.839  1.00  0.00    +0.000 O 
BRANCH   15   14
ATOM      9  C8  UNL A   1      27.136  30.262  47.666  1.00  0.00    +0.000 C 
ATOM     10  C9  UNL A   1      26.680  28.916  47.662  1.00  0.00    +0.000 C 
ATOM     11  C10 UNL A   1      25.606  28.492  46.888  1.00  0.00    +0.000 C 
ATOM     12  C11 UNL A   1      24.945  29.415  46.098  1.00  0.00    +0.000 C 
ATOM    109  H12 UNL A   1      27.166  28.226  48.256  1.00  0.00    +0.000 H 
ATOM     14  C13 UNL A   1      26.438  31.219  46.897  1.00  0.00    +0.000 C 
ATOM     13  C12 UNL A   1      25.346  30.755  46.117  1.00  0.00    +0.000 C 
ATOM    110  H13 UNL A   1      25.306  27.505  46.904  1.00  0.00    +0.000 H 
ATOM    112  H15 UNL A   1      24.824  31.435  45.543  1.00  0.00    +0.000 H 
ATOM    111  H14 UNL A   1      24.161  29.116  45.497  1.00  0.00    +0.000 H 
BRANCH    9    8
ATOM    108  H11 UNL A   1      28.609  31.395  48.589  1.00  0.00    +0.000 H 
ATOM      8  N1  UNL A   1      28.360  30.472  48.350  1.00  0.00    +0.000 N 
BRANCH    8    7
ATOM      1  C1  UNL A   1      30.974  26.570  52.421  1.00  0.00    +0.000 C 
ATOM      2  C2  UNL A   1      30.874  28.044  51.969  1.00  0.00    +0.000 C 
ATOM      3  C3  UNL A   1      29.879  28.719  52.939  1.00  0.00    +0.000 C 
ATOM      4  C4  UNL A   1      32.262  28.696  52.122  1.00  0.00    +0.000 C 
ATOM      5  C5  UNL A   1      30.465  28.201  50.500  1.00  0.00    +0.000 C 
ATOM      6  C6  UNL A   1      29.499  29.149  50.075  1.00  0.00    +0.000 C 
ATOM      7  C7  UNL A   1      29.249  29.415  48.712  1.00  0.00    +0.000 C 
ATOM    141  H44 UNL A   1      29.691  28.758  46.751  1.00  0.00    +0.000 H 
ATOM    142  H45 UNL A   1      32.178  24.986  48.389  1.00  0.00    +0.000 H 
ATOM    143  H46 UNL A   1      33.474  26.152  48.212  1.00  0.00    +0.000 H 
ATOM     90  C66 UNL A   1      29.898  28.628  47.753  1.00  0.00    +0.000 C 
ATOM     91  C67 UNL A   1      30.819  27.674  48.152  1.00  0.00    +0.000 C 
ATOM     92  C68 UNL A   1      31.109  27.489  49.489  1.00  0.00    +0.000 C 
ATOM     93  O3  UNL A   1      32.111  26.581  49.695  1.00  0.00    +0.000 O 
ATOM     94  C69 UNL A   1      32.428  26.027  48.400  1.00  0.00    +0.000 C 
ATOM     95  C70 UNL A   1      31.627  26.754  47.303  1.00  0.00    +0.000 C 
ATOM     98  H1  UNL A   1      31.262  26.531  53.451  1.00  0.00    +0.000 H 
ATOM     99  H2  UNL A   1      31.705  26.063  51.827  1.00  0.00    +0.000 H 
ATOM    100  H3  UNL A   1      30.023  26.095  52.299  1.00  0.00    +0.000 H 
ATOM    101  H4  UNL A   1      30.213  28.579  53.946  1.00  0.00    +0.000 H 
ATOM    102  H5  UNL A   1      28.911  28.279  52.819  1.00  0.00    +0.000 H 
ATOM    103  H6  UNL A   1      29.826  29.766  52.723  1.00  0.00    +0.000 H 
ATOM    104  H7  UNL A   1      32.588  28.609  53.138  1.00  0.00    +0.000 H 
ATOM    105  H8  UNL A   1      32.201  29.731  51.856  1.00  0.00    +0.000 H 
ATOM    106  H9  UNL A   1      32.961  28.203  51.481  1.00  0.00    +0.000 H 
ATOM    107  H10 UNL A   1      28.960  29.663  50.789  1.00  0.00    +0.000 H 
BRANCH   95   96
ATOM    145  H48 UNL A   1      31.284  25.320  45.752  1.00  0.00    +0.000 H 
ATOM    146  H49 UNL A   1      29.899  26.320  46.118  1.00  0.00    +0.000 H 
ATOM    144  H47 UNL A   1      30.359  25.032  47.207  1.00  0.00    +0.000 H 
ATOM     96  C71 UNL A   1      30.724  25.784  46.537  1.00  0.00    +0.000 C 
ENDBRANCH   95   96
BRANCH   95   97
ATOM     97  C72 UNL A   1      32.550  27.507  46.341  1.00  0.00    +0.000 C 
ATOM    147  H50 UNL A   1      32.157  28.485  46.161  1.00  0.00    +0.000 H 
ATOM    148  H51 UNL A   1      32.613  26.973  45.416  1.00  0.00    +0.000 H 
ATOM    149  H52 UNL A   1      33.526  27.589  46.773  1.00  0.00    +0.000 H 
ENDBRANCH   95   97
ENDBRANCH    8    7
ENDBRANCH    9    8
ENDBRANCH   15   14
ENDBRANCH   17   15
ENDBRANCH   18   17
ENDBRANCH   19   18
ENDBRANCH   20   19
ENDBRANCH   21   20
ENDBRANCH   22   21
ENDBRANCH   23   22
ENDBRANCH   24   23
ENDBRANCH   25   24
ENDBRANCH   27   25
ENDBRANCH   31   30
BRANCH   35   36
ATOM     36  C30 UNL A   1      21.634  43.342  49.503  1.00  0.00    +0.000 C 
ATOM     37  C31 UNL A   1      21.200  44.372  48.657  1.00  0.00    +0.000 C 
ATOM     38  F1  UNL A   1      20.848  44.102  47.392  1.00  0.00    +0.000 F 
ATOM     39  C32 UNL A   1      21.148  45.691  49.103  1.00  0.00    +0.000 C 
ATOM     40  F2  UNL A   1      20.761  46.663  48.268  1.00  0.00    +0.000 F 
ATOM     41  C33 UNL A   1      21.499  45.999  50.410  1.00  0.00    +0.000 C 
ATOM     42  F3  UNL A   1      21.430  47.266  50.843  1.00  0.00    +0.000 F 
ATOM     43  C34 UNL A   1      21.921  44.995  51.267  1.00  0.00    +0.000 C 
ATOM     44  F4  UNL A   1      22.243  45.288  52.535  1.00  0.00    +0.000 F 
ATOM     45  C35 UNL A   1      22.001  43.680  50.815  1.00  0.00    +0.000 C 
ATOM     46  F5  UNL A   1      22.411  42.729  51.670  1.00  0.00    +0.000 F 
ENDBRANCH   35   36
BRANCH   52   53
ATOM     53  C41 UNL A   1      17.044  37.807  49.663  1.00  0.00    +0.000 C 
ATOM     54  C42 UNL A   1      15.976  37.564  48.788  1.00  0.00    +0.000 C 
ATOM     55  F6  UNL A   1      16.156  37.656  47.462  1.00  0.00    +0.000 F 
ATOM     56  C43 UNL A   1      14.709  37.249  49.273  1.00  0.00    +0.000 C 
ATOM     57  F7  UNL A   1      13.695  37.053  48.419  1.00  0.00    +0.000 F 
ATOM     58  C44 UNL A   1      14.492  37.145  50.639  1.00  0.00    +0.000 C 
ATOM     59  F8  UNL A   1      13.275  36.829  51.105  1.00  0.00    +0.000 F 
ATOM     60  C45 UNL A   1      15.535  37.371  51.523  1.00  0.00    +0.000 C 
ATOM     61  F9  UNL A   1      15.331  37.259  52.843  1.00  0.00    +0.000 F 
ATOM     62  C46 UNL A   1      16.798  37.711  51.042  1.00  0.00    +0.000 C 
ATOM     63  F10 UNL A   1      17.786  37.927  51.922  1.00  0.00    +0.000 F 
ENDBRANCH   52   53
BRANCH   67   68
ATOM     68  C50 UNL A   1      21.744  33.989  46.214  1.00  0.00    +0.000 C 
ATOM     69  C51 UNL A   1      22.102  32.912  47.036  1.00  0.00    +0.000 C 
ATOM     70  F11 UNL A   1      22.496  33.133  48.298  1.00  0.00    +0.000 F 
ATOM     71  C52 UNL A   1      22.092  31.604  46.553  1.00  0.00    +0.000 C 
ATOM     72  F12 UNL A   1      22.474  30.596  47.348  1.00  0.00    +0.000 F 
ATOM     73  C53 UNL A   1      21.700  31.348  45.248  1.00  0.00    +0.000 C 
ATOM     74  F13 UNL A   1      21.677  30.089  44.787  1.00  0.00    +0.000 F 
ATOM     75  C54 UNL A   1      21.337  32.398  44.418  1.00  0.00    +0.000 C 
ATOM     76  F14 UNL A   1      20.945  32.153  43.160  1.00  0.00    +0.000 F 
ATOM     77  C55 UNL A   1      21.375  33.708  44.891  1.00  0.00    +0.000 C 
ATOM     78  F15 UNL A   1      21.034  34.704  44.062  1.00  0.00    +0.000 F 
ENDBRANCH   67   68
TORSDOF 19
ENDMDL
