MODEL 1
REMARK VINA RESULT:      -9.0      0.000      0.000
ROOT
ATOM    140  H42 UNL A   1      12.976  27.089  -9.187  1.00  0.00    +0.000 H 
ATOM    141  H43 UNL A   1      14.883  27.690 -10.860  1.00  0.00    +0.000 H 
ATOM    142  H44 UNL A   1      12.742  31.137 -10.036  1.00  0.00    +0.000 H 
ATOM    143  H45 UNL A   1      11.610  37.324 -11.143  1.00  0.00    +0.000 H 
ATOM    144  H46 UNL A   1       9.820  36.756  -9.431  1.00  0.00    +0.000 H 
ATOM    145  H47 UNL A   1      12.008  33.301 -10.174  1.00  0.00    +0.000 H 
ATOM    146  H48 UNL A   1      15.616  34.615 -13.416  1.00  0.00    +0.000 H 
ATOM    147  H49 UNL A   1      16.314  32.153 -13.440  1.00  0.00    +0.000 H 
ATOM    148  H50 UNL A   1       9.287  30.006  -6.592  1.00  0.00    +0.000 H 
ATOM    149  H51 UNL A   1       8.265  32.331  -6.918  1.00  0.00    +0.000 H 
ATOM     40  C31 UNL A   1       9.792  34.021  -8.627  1.00  0.00    +0.000 C 
ATOM     41  C32 UNL A   1      10.023  32.566  -8.330  1.00  0.00    +0.000 C 
ATOM     42  N5  UNL A   1      10.954  31.763  -8.784  1.00  0.00    +0.000 N 
ATOM     43  C33 UNL A   1      10.736  30.543  -8.161  1.00  0.00    +0.000 C 
ATOM     44  C34 UNL A   1      11.385  29.368  -8.348  1.00  0.00    +0.000 C 
ATOM     56  C41 UNL A   1      12.479  29.186  -9.267  1.00  0.00    +0.000 C 
ATOM     57  C42 UNL A   1      13.172  28.027  -9.569  1.00  0.00    +0.000 C 
ATOM     58  C43 UNL A   1      14.184  28.348 -10.480  1.00  0.00    +0.000 C 
ATOM     59  C44 UNL A   1      14.089  29.695 -10.787  1.00  0.00    +0.000 C 
ATOM     60  N6  UNL A   1      13.042  30.199 -10.031  1.00  0.00    +0.000 N 
ATOM     61  C45 UNL A   1      14.894  30.468 -11.699  1.00  0.00    +0.000 C 
ATOM     73  C52 UNL A   1      14.728  31.789 -11.957  1.00  0.00    +0.000 C 
ATOM     74  N7  UNL A   1      13.790  32.668 -11.435  1.00  0.00    +0.000 N 
ATOM     75  C53 UNL A   1      14.042  33.833 -11.982  1.00  0.00    +0.000 C 
ATOM     76  C54 UNL A   1      13.323  35.141 -11.808  1.00  0.00    +0.000 C 
ATOM     88  C61 UNL A   1      12.264  35.204 -10.978  1.00  0.00    +0.000 C 
ATOM     89  C62 UNL A   1      11.464  36.397 -10.712  1.00  0.00    +0.000 C 
ATOM     90  C63 UNL A   1      10.511  36.094  -9.817  1.00  0.00    +0.000 C 
ATOM     91  C64 UNL A   1      10.608  34.674  -9.476  1.00  0.00    +0.000 C 
ATOM     92  N8  UNL A   1      11.684  34.230 -10.204  1.00  0.00    +0.000 N 
ATOM     93  C65 UNL A   1      15.195  33.829 -12.894  1.00  0.00    +0.000 C 
ATOM     94  C66 UNL A   1      15.549  32.552 -12.874  1.00  0.00    +0.000 C 
ATOM     95  C67 UNL A   1       9.626  30.724  -7.251  1.00  0.00    +0.000 C 
ATOM     96  C68 UNL A   1       9.101  31.935  -7.374  1.00  0.00    +0.000 C 
ENDROOT
BRANCH   40   39
ATOM     97  C69 UNL A   1       7.443  34.866  -8.550  1.00  0.00    +0.000 C 
ATOM     98  C70 UNL A   1       6.421  35.584  -7.935  1.00  0.00    +0.000 C 
ATOM     36  C27 UNL A   1       6.608  36.106  -6.653  1.00  0.00    +0.000 C 
ATOM     37  C28 UNL A   1       7.863  36.021  -6.043  1.00  0.00    +0.000 C 
ATOM     38  C29 UNL A   1       8.912  35.369  -6.694  1.00  0.00    +0.000 C 
ATOM     39  C30 UNL A   1       8.702  34.759  -7.940  1.00  0.00    +0.000 C 
ATOM    138  H40 UNL A   1       8.014  36.440  -5.111  1.00  0.00    +0.000 H 
ATOM    139  H41 UNL A   1       9.845  35.334  -6.255  1.00  0.00    +0.000 H 
ATOM    150  H52 UNL A   1       7.274  34.409  -9.460  1.00  0.00    +0.000 H 
ATOM    151  H53 UNL A   1       5.525  35.731  -8.427  1.00  0.00    +0.000 H 
BRANCH   36   34
ATOM     34  C26 UNL A   1       5.509  36.782  -5.925  1.00  0.00    +0.000 C 
ATOM     35  O5  UNL A   1       5.769  37.701  -5.155  1.00  0.00    +0.000 O 
BRANCH   34   33
ATOM     33  N4  UNL A   1       4.210  36.377  -6.092  1.00  0.00    +0.000 N 
ATOM    137  H39 UNL A   1       3.732  36.804  -6.839  1.00  0.00    +0.000 H 
BRANCH   33   32
ATOM    136  H38 UNL A   1       2.429  35.440  -5.706  1.00  0.00    +0.000 H 
ATOM    135  H37 UNL A   1       3.474  35.675  -4.297  1.00  0.00    +0.000 H 
ATOM     32  C25 UNL A   1       3.431  35.412  -5.334  1.00  0.00    +0.000 C 
BRANCH   32   31
ATOM    133  H35 UNL A   1       3.103  33.329  -5.484  1.00  0.00    +0.000 H 
ATOM    134  H36 UNL A   1       4.487  33.973  -6.421  1.00  0.00    +0.000 H 
ATOM     31  C24 UNL A   1       3.946  33.988  -5.498  1.00  0.00    +0.000 C 
BRANCH   31   30
ATOM    131  H33 UNL A   1       5.283  34.384  -3.902  1.00  0.00    +0.000 H 
ATOM    132  H34 UNL A   1       4.385  32.831  -3.814  1.00  0.00    +0.000 H 
ATOM     30  C23 UNL A   1       4.931  33.519  -4.423  1.00  0.00    +0.000 C 
BRANCH   30   29
ATOM    129  H31 UNL A   1       5.918  31.699  -4.891  1.00  0.00    +0.000 H 
ATOM    130  H32 UNL A   1       6.351  33.117  -5.909  1.00  0.00    +0.000 H 
ATOM     29  C22 UNL A   1       6.156  32.742  -4.925  1.00  0.00    +0.000 C 
BRANCH   29   28
ATOM     28  C21 UNL A   1       7.458  32.950  -4.141  1.00  0.00    +0.000 C 
ATOM    127  H29 UNL A   1       8.135  33.503  -4.758  1.00  0.00    +0.000 H 
ATOM    128  H30 UNL A   1       7.193  33.468  -3.243  1.00  0.00    +0.000 H 
BRANCH   28   27
ATOM     27  C20 UNL A   1       8.149  31.664  -3.711  1.00  0.00    +0.000 C 
ATOM    125  H27 UNL A   1       7.478  31.108  -3.091  1.00  0.00    +0.000 H 
ATOM    126  H28 UNL A   1       8.411  31.132  -4.603  1.00  0.00    +0.000 H 
BRANCH   27   26
ATOM     26  N3  UNL A   1       9.375  31.889  -2.973  1.00  0.00    +0.000 N 
ATOM    124  H26 UNL A   1      10.198  31.435  -3.265  1.00  0.00    +0.000 H 
BRANCH   26   24
ATOM     25  O4  UNL A   1       9.910  33.843  -2.029  1.00  0.00    +0.000 O 
ATOM     24  C19 UNL A   1       9.422  32.717  -1.875  1.00  0.00    +0.000 C 
BRANCH   24   16
ATOM    116  H18 UNL A   1       8.429  31.316  -0.665  1.00  0.00    +0.000 H 
ATOM     16  C11 UNL A   1       8.930  32.241  -0.475  1.00  0.00    +0.000 C 
BRANCH   16   15
ATOM    115  H17 UNL A   1       9.846  30.942   0.899  1.00  0.00    +0.000 H 
ATOM     15  N2  UNL A   1       9.966  31.830   0.492  1.00  0.00    +0.000 N 
BRANCH   15   13
ATOM     13  C10 UNL A   1      11.074  32.529   0.892  1.00  0.00    +0.000 C 
ATOM     14  O3  UNL A   1      10.892  33.628   1.424  1.00  0.00    +0.000 O 
BRANCH   13   12
ATOM      8  N1  UNL A   1      13.401  32.732  -0.069  1.00  0.00    +0.000 N 
ATOM      9  C6  UNL A   1      14.589  33.114   0.661  1.00  0.00    +0.000 C 
ATOM     10  C7  UNL A   1      14.647  32.133   1.817  1.00  0.00    +0.000 C 
ATOM     11  C8  UNL A   1      13.179  31.836   2.106  1.00  0.00    +0.000 C 
ATOM     12  C9  UNL A   1      12.486  31.921   0.733  1.00  0.00    +0.000 C 
ATOM    108  H10 UNL A   1      14.508  34.119   1.020  1.00  0.00    +0.000 H 
ATOM    109  H11 UNL A   1      15.471  33.086   0.055  1.00  0.00    +0.000 H 
ATOM    110  H12 UNL A   1      15.124  32.571   2.668  1.00  0.00    +0.000 H 
ATOM    111  H13 UNL A   1      15.212  31.253   1.588  1.00  0.00    +0.000 H 
ATOM    112  H14 UNL A   1      12.773  32.562   2.780  1.00  0.00    +0.000 H 
ATOM    114  H16 UNL A   1      12.315  30.976   0.262  1.00  0.00    +0.000 H 
ATOM    113  H15 UNL A   1      13.042  30.882   2.572  1.00  0.00    +0.000 H 
BRANCH    8    6
ATOM      6  C5  UNL A   1      13.192  32.874  -1.413  1.00  0.00    +0.000 C 
ATOM      7  O2  UNL A   1      13.371  33.935  -1.984  1.00  0.00    +0.000 O 
BRANCH    6    5
ATOM      1  C1  UNL A   1      12.521  30.131  -3.732  1.00  0.00    +0.000 C 
ATOM      2  C2  UNL A   1      13.476  31.132  -3.067  1.00  0.00    +0.000 C 
ATOM     99  H1  UNL A   1      13.031  29.625  -4.524  1.00  0.00    +0.000 H 
ATOM    100  H2  UNL A   1      11.675  30.654  -4.128  1.00  0.00    +0.000 H 
ATOM    101  H3  UNL A   1      12.191  29.417  -3.007  1.00  0.00    +0.000 H 
ATOM      3  C3  UNL A   1      14.655  30.374  -2.450  1.00  0.00    +0.000 C 
ATOM      4  C4  UNL A   1      13.945  32.112  -4.159  1.00  0.00    +0.000 C 
ATOM      5  O1  UNL A   1      12.696  31.763  -2.013  1.00  0.00    +0.000 O 
ATOM    102  H4  UNL A   1      15.228  29.911  -3.227  1.00  0.00    +0.000 H 
ATOM    103  H5  UNL A   1      14.287  29.622  -1.783  1.00  0.00    +0.000 H 
ATOM    104  H6  UNL A   1      15.276  31.057  -1.909  1.00  0.00    +0.000 H 
ATOM    105  H7  UNL A   1      14.510  31.581  -4.897  1.00  0.00    +0.000 H 
ATOM    106  H8  UNL A   1      14.558  32.871  -3.719  1.00  0.00    +0.000 H 
ATOM    107  H9  UNL A   1      13.092  32.566  -4.621  1.00  0.00    +0.000 H 
ENDBRANCH    6    5
ENDBRANCH    8    6
ENDBRANCH   13   12
ENDBRANCH   15   13
ENDBRANCH   16   15
BRANCH   16   17
ATOM     17  C12 UNL A   1       7.927  33.257   0.117  1.00  0.00    +0.000 C 
ATOM    117  H19 UNL A   1       7.974  34.146  -0.477  1.00  0.00    +0.000 H 
ATOM    118  H20 UNL A   1       8.223  33.396   1.135  1.00  0.00    +0.000 H 
BRANCH   17   18
ATOM     18  C13 UNL A   1       6.485  32.808   0.168  1.00  0.00    +0.000 C 
ATOM     19  C14 UNL A   1       5.948  32.032  -0.869  1.00  0.00    +0.000 C 
ATOM     20  C15 UNL A   1       4.597  31.680  -0.868  1.00  0.00    +0.000 C 
ATOM     21  C16 UNL A   1       3.778  32.072   0.189  1.00  0.00    +0.000 C 
ATOM     22  C17 UNL A   1       4.314  32.804   1.248  1.00  0.00    +0.000 C 
ATOM     23  C18 UNL A   1       5.660  33.174   1.238  1.00  0.00    +0.000 C 
ATOM    119  H21 UNL A   1       6.556  31.719  -1.642  1.00  0.00    +0.000 H 
ATOM    120  H22 UNL A   1       4.205  31.131  -1.648  1.00  0.00    +0.000 H 
ATOM    122  H24 UNL A   1       3.712  33.074   2.042  1.00  0.00    +0.000 H 
ATOM    123  H25 UNL A   1       6.048  33.721   2.021  1.00  0.00    +0.000 H 
ATOM    121  H23 UNL A   1       2.778  31.821   0.188  1.00  0.00    +0.000 H 
ENDBRANCH   17   18
ENDBRANCH   16   17
ENDBRANCH   24   16
ENDBRANCH   26   24
ENDBRANCH   27   26
ENDBRANCH   28   27
ENDBRANCH   29   28
ENDBRANCH   30   29
ENDBRANCH   31   30
ENDBRANCH   32   31
ENDBRANCH   33   32
ENDBRANCH   34   33
ENDBRANCH   36   34
ENDBRANCH   40   39
BRANCH   44   45
ATOM     45  C35 UNL A   1      10.925  28.189  -7.537  1.00  0.00    +0.000 C 
ATOM     46  C36 UNL A   1       9.757  27.481  -7.865  1.00  0.00    +0.000 C 
ATOM     47  F1  UNL A   1       9.012  27.858  -8.915  1.00  0.00    +0.000 F 
ATOM     48  C37 UNL A   1       9.320  26.414  -7.084  1.00  0.00    +0.000 C 
ATOM     49  F2  UNL A   1       8.170  25.796  -7.381  1.00  0.00    +0.000 F 
ATOM     50  C38 UNL A   1      10.063  26.007  -5.987  1.00  0.00    +0.000 C 
ATOM     51  F3  UNL A   1       9.641  24.980  -5.235  1.00  0.00    +0.000 F 
ATOM     52  C39 UNL A   1      11.237  26.670  -5.663  1.00  0.00    +0.000 C 
ATOM     53  F4  UNL A   1      11.962  26.267  -4.610  1.00  0.00    +0.000 F 
ATOM     54  C40 UNL A   1      11.658  27.759  -6.421  1.00  0.00    +0.000 C 
ATOM     55  F5  UNL A   1      12.786  28.393  -6.066  1.00  0.00    +0.000 F 
ENDBRANCH   44   45
BRANCH   61   62
ATOM     65  C48 UNL A   1      18.285  28.992 -12.641  1.00  0.00    +0.000 C 
ATOM     66  F7  UNL A   1      19.536  28.964 -12.163  1.00  0.00    +0.000 F 
ATOM     67  C49 UNL A   1      17.987  28.361 -13.840  1.00  0.00    +0.000 C 
ATOM     68  F8  UNL A   1      18.944  27.705 -14.509  1.00  0.00    +0.000 F 
ATOM     69  C50 UNL A   1      16.698  28.417 -14.348  1.00  0.00    +0.000 C 
ATOM     70  F9  UNL A   1      16.405  27.796 -15.499  1.00  0.00    +0.000 F 
ATOM     71  C51 UNL A   1      15.708  29.118 -13.666  1.00  0.00    +0.000 C 
ATOM     72  F10 UNL A   1      14.474  29.167 -14.190  1.00  0.00    +0.000 F 
ATOM     62  C46 UNL A   1      15.984  29.755 -12.445  1.00  0.00    +0.000 C 
ATOM     63  C47 UNL A   1      17.290  29.669 -11.940  1.00  0.00    +0.000 C 
ATOM     64  F6  UNL A   1      17.608  30.274 -10.786  1.00  0.00    +0.000 F 
ENDBRANCH   61   62
BRANCH   76   77
ATOM     77  C55 UNL A   1      13.737  36.349 -12.567  1.00  0.00    +0.000 C 
ATOM     78  C56 UNL A   1      13.186  36.626 -13.825  1.00  0.00    +0.000 C 
ATOM     79  F11 UNL A   1      12.297  35.780 -14.367  1.00  0.00    +0.000 F 
ATOM     80  C57 UNL A   1      13.569  37.754 -14.548  1.00  0.00    +0.000 C 
ATOM     81  F12 UNL A   1      13.053  37.975 -15.764  1.00  0.00    +0.000 F 
ATOM     82  C58 UNL A   1      14.492  38.641 -14.013  1.00  0.00    +0.000 C 
ATOM     83  F13 UNL A   1      14.854  39.731 -14.704  1.00  0.00    +0.000 F 
ATOM     84  C59 UNL A   1      15.042  38.395 -12.765  1.00  0.00    +0.000 C 
ATOM     85  F14 UNL A   1      15.923  39.257 -12.240  1.00  0.00    +0.000 F 
ATOM     86  C60 UNL A   1      14.680  37.253 -12.054  1.00  0.00    +0.000 C 
ATOM     87  F15 UNL A   1      15.234  37.035 -10.852  1.00  0.00    +0.000 F 
ENDBRANCH   76   77
TORSDOF 22
ENDMDL
MODEL 2
REMARK VINA RESULT:      -8.4     20.465     24.926
ROOT
ATOM    140  H42 UNL A   1      18.839  53.168  -2.232  1.00  0.00    +0.000 H 
ATOM    141  H43 UNL A   1      18.299  50.619  -2.303  1.00  0.00    +0.000 H 
ATOM    142  H44 UNL A   1      16.431  52.252   1.012  1.00  0.00    +0.000 H 
ATOM    143  H45 UNL A   1      13.033  51.484   6.364  1.00  0.00    +0.000 H 
ATOM    144  H46 UNL A   1      13.472  53.987   6.371  1.00  0.00    +0.000 H 
ATOM    145  H47 UNL A   1      15.284  52.388   2.989  1.00  0.00    +0.000 H 
ATOM    146  H48 UNL A   1      14.173  47.487   3.007  1.00  0.00    +0.000 H 
ATOM    147  H49 UNL A   1      15.633  47.279   0.915  1.00  0.00    +0.000 H 
ATOM    148  H50 UNL A   1      17.236  57.193   0.944  1.00  0.00    +0.000 H 
ATOM    149  H51 UNL A   1      16.204  57.350   3.282  1.00  0.00    +0.000 H 
ATOM     40  C31 UNL A   1      15.076  54.901   4.199  1.00  0.00    +0.000 C 
ATOM     41  C32 UNL A   1      15.874  55.132   2.946  1.00  0.00    +0.000 C 
ATOM     42  N5  UNL A   1      16.229  54.278   2.018  1.00  0.00    +0.000 N 
ATOM     43  C33 UNL A   1      16.914  55.019   1.066  1.00  0.00    +0.000 C 
ATOM     44  C34 UNL A   1      17.544  54.585  -0.053  1.00  0.00    +0.000 C 
ATOM     56  C41 UNL A   1      17.597  53.207  -0.469  1.00  0.00    +0.000 C 
ATOM     57  C42 UNL A   1      18.250  52.656  -1.557  1.00  0.00    +0.000 C 
ATOM     58  C43 UNL A   1      17.974  51.285  -1.584  1.00  0.00    +0.000 C 
ATOM     59  C44 UNL A   1      17.193  50.972  -0.483  1.00  0.00    +0.000 C 
ATOM     60  N6  UNL A   1      16.964  52.162   0.189  1.00  0.00    +0.000 N 
ATOM     61  C45 UNL A   1      16.689  49.684  -0.077  1.00  0.00    +0.000 C 
ATOM     73  C52 UNL A   1      15.938  49.456   1.029  1.00  0.00    +0.000 C 
ATOM     74  N7  UNL A   1      15.498  50.360   1.987  1.00  0.00    +0.000 N 
ATOM     75  C53 UNL A   1      14.799  49.661   2.849  1.00  0.00    +0.000 C 
ATOM     76  C54 UNL A   1      14.113  50.115   4.107  1.00  0.00    +0.000 C 
ATOM     88  C61 UNL A   1      14.173  51.415   4.456  1.00  0.00    +0.000 C 
ATOM     89  C62 UNL A   1      13.564  52.001   5.647  1.00  0.00    +0.000 C 
ATOM     90  C63 UNL A   1      13.807  53.322   5.656  1.00  0.00    +0.000 C 
ATOM     91  C64 UNL A   1      14.623  53.667   4.492  1.00  0.00    +0.000 C 
ATOM     92  N8  UNL A   1      14.781  52.474   3.831  1.00  0.00    +0.000 N 
ATOM     93  C65 UNL A   1      14.691  48.234   2.516  1.00  0.00    +0.000 C 
ATOM     94  C66 UNL A   1      15.436  48.155   1.423  1.00  0.00    +0.000 C 
ATOM     95  C67 UNL A   1      16.874  56.400   1.494  1.00  0.00    +0.000 C 
ATOM     96  C68 UNL A   1      16.310  56.512   2.688  1.00  0.00    +0.000 C 
ENDROOT
BRANCH   40   39
ATOM     97  C69 UNL A   1      13.523  56.728   4.895  1.00  0.00    +0.000 C 
ATOM     98  C70 UNL A   1      13.201  57.822   5.695  1.00  0.00    +0.000 C 
ATOM     36  C27 UNL A   1      14.026  58.169   6.767  1.00  0.00    +0.000 C 
ATOM     37  C28 UNL A   1      15.241  57.504   6.956  1.00  0.00    +0.000 C 
ATOM     38  C29 UNL A   1      15.602  56.457   6.104  1.00  0.00    +0.000 C 
ATOM     39  C30 UNL A   1      14.732  56.041   5.085  1.00  0.00    +0.000 C 
ATOM    138  H40 UNL A   1      15.871  57.785   7.724  1.00  0.00    +0.000 H 
ATOM    139  H41 UNL A   1      16.513  55.987   6.226  1.00  0.00    +0.000 H 
ATOM    150  H52 UNL A   1      12.869  56.422   4.158  1.00  0.00    +0.000 H 
ATOM    151  H53 UNL A   1      12.352  58.375   5.496  1.00  0.00    +0.000 H 
BRANCH   36   34
ATOM     34  C26 UNL A   1      13.661  59.258   7.703  1.00  0.00    +0.000 C 
ATOM     35  O5  UNL A   1      14.134  60.379   7.542  1.00  0.00    +0.000 O 
BRANCH   34   33
ATOM     33  N4  UNL A   1      12.815  59.018   8.755  1.00  0.00    +0.000 N 
ATOM    137  H39 UNL A   1      13.105  59.393   9.618  1.00  0.00    +0.000 H 
BRANCH   33   32
ATOM    136  H38 UNL A   1      11.286  58.062   7.782  1.00  0.00    +0.000 H 
ATOM    135  H37 UNL A   1      10.820  58.908   9.265  1.00  0.00    +0.000 H 
ATOM     32  C25 UNL A   1      11.557  58.294   8.791  1.00  0.00    +0.000 C 
BRANCH   32   31
ATOM    133  H35 UNL A   1      12.205  57.163  10.456  1.00  0.00    +0.000 H 
ATOM    134  H36 UNL A   1      10.655  56.652   9.718  1.00  0.00    +0.000 H 
ATOM     31  C24 UNL A   1      11.660  56.979   9.554  1.00  0.00    +0.000 C 
BRANCH   31   30
ATOM    131  H33 UNL A   1      11.600  55.235   8.352  1.00  0.00    +0.000 H 
ATOM    132  H34 UNL A   1      13.016  56.314   8.109  1.00  0.00    +0.000 H 
ATOM     30  C23 UNL A   1      12.357  55.840   8.805  1.00  0.00    +0.000 C 
BRANCH   30   29
ATOM    129  H31 UNL A   1      13.464  55.431  10.569  1.00  0.00    +0.000 H 
ATOM    130  H32 UNL A   1      12.689  54.015   9.777  1.00  0.00    +0.000 H 
ATOM     29  C22 UNL A   1      13.246  54.920   9.654  1.00  0.00    +0.000 C 
BRANCH   29   28
ATOM     28  C21 UNL A   1      14.580  54.499   9.025  1.00  0.00    +0.000 C 
ATOM    127  H29 UNL A   1      14.584  54.818   8.004  1.00  0.00    +0.000 H 
ATOM    128  H30 UNL A   1      15.351  54.959   9.610  1.00  0.00    +0.000 H 
BRANCH   28   27
ATOM     27  C20 UNL A   1      14.849  53.001   9.056  1.00  0.00    +0.000 C 
ATOM    125  H27 UNL A   1      14.137  52.515   8.424  1.00  0.00    +0.000 H 
ATOM    126  H28 UNL A   1      15.855  52.853   8.721  1.00  0.00    +0.000 H 
BRANCH   27   26
ATOM     26  N3  UNL A   1      14.751  52.427  10.383  1.00  0.00    +0.000 N 
ATOM    124  H26 UNL A   1      14.182  52.870  11.053  1.00  0.00    +0.000 H 
BRANCH   26   24
ATOM     25  O4  UNL A   1      16.652  51.265  10.553  1.00  0.00    +0.000 O 
ATOM     24  C19 UNL A   1      15.429  51.283  10.733  1.00  0.00    +0.000 C 
BRANCH   24   16
ATOM    116  H18 UNL A   1      15.404  49.542  11.910  1.00  0.00    +0.000 H 
ATOM     16  C11 UNL A   1      14.684  50.032  11.290  1.00  0.00    +0.000 C 
BRANCH   16   15
ATOM    115  H17 UNL A   1      12.701  50.453  11.846  1.00  0.00    +0.000 H 
ATOM     15  N2  UNL A   1      13.586  50.281  12.243  1.00  0.00    +0.000 N 
BRANCH   15   13
ATOM     13  C10 UNL A   1      13.643  50.302  13.612  1.00  0.00    +0.000 C 
ATOM     14  O3  UNL A   1      14.636  50.818  14.132  1.00  0.00    +0.000 O 
BRANCH   13   12
ATOM      8  N1  UNL A   1      11.205  50.460  14.252  1.00  0.00    +0.000 N 
ATOM      9  C6  UNL A   1      10.149  49.586  13.791  1.00  0.00    +0.000 C 
ATOM     10  C7  UNL A   1      10.635  48.195  14.150  1.00  0.00    +0.000 C 
ATOM     11  C8  UNL A   1      12.152  48.306  14.036  1.00  0.00    +0.000 C 
ATOM     12  C9  UNL A   1      12.469  49.755  14.455  1.00  0.00    +0.000 C 
ATOM    108  H10 UNL A   1      10.013  49.680  12.734  1.00  0.00    +0.000 H 
ATOM    109  H11 UNL A   1       9.202  49.817  14.233  1.00  0.00    +0.000 H 
ATOM    110  H12 UNL A   1      10.252  47.467  13.466  1.00  0.00    +0.000 H 
ATOM    111  H13 UNL A   1      10.313  47.880  15.121  1.00  0.00    +0.000 H 
ATOM    112  H14 UNL A   1      12.469  48.126  13.030  1.00  0.00    +0.000 H 
ATOM    114  H16 UNL A   1      12.798  49.863  15.467  1.00  0.00    +0.000 H 
ATOM    113  H15 UNL A   1      12.659  47.587  14.645  1.00  0.00    +0.000 H 
BRANCH    8    6
ATOM      6  C5  UNL A   1      11.061  51.748  14.689  1.00  0.00    +0.000 C 
ATOM      7  O2  UNL A   1      11.936  52.581  14.539  1.00  0.00    +0.000 O 
BRANCH    6    5
ATOM      1  C1  UNL A   1       8.509  52.057  17.286  1.00  0.00    +0.000 C 
ATOM      2  C2  UNL A   1       9.965  52.142  16.810  1.00  0.00    +0.000 C 
ATOM     99  H1  UNL A   1       8.473  52.174  18.349  1.00  0.00    +0.000 H 
ATOM    100  H2  UNL A   1       8.101  51.104  17.018  1.00  0.00    +0.000 H 
ATOM    101  H3  UNL A   1       7.935  52.832  16.823  1.00  0.00    +0.000 H 
ATOM      3  C3  UNL A   1      10.526  53.528  17.142  1.00  0.00    +0.000 C 
ATOM      4  C4  UNL A   1      10.749  51.028  17.530  1.00  0.00    +0.000 C 
ATOM      5  O1  UNL A   1       9.905  51.973  15.365  1.00  0.00    +0.000 O 
ATOM    102  H4  UNL A   1      10.569  53.650  18.205  1.00  0.00    +0.000 H 
ATOM    103  H5  UNL A   1       9.891  54.280  16.722  1.00  0.00    +0.000 H 
ATOM    104  H6  UNL A   1      11.509  53.623  16.732  1.00  0.00    +0.000 H 
ATOM    105  H7  UNL A   1      10.751  51.218  18.584  1.00  0.00    +0.000 H 
ATOM    106  H8  UNL A   1      11.756  51.010  17.169  1.00  0.00    +0.000 H 
ATOM    107  H9  UNL A   1      10.283  50.084  17.339  1.00  0.00    +0.000 H 
ENDBRANCH    6    5
ENDBRANCH    8    6
ENDBRANCH   13   12
ENDBRANCH   15   13
ENDBRANCH   16   15
BRANCH   16   17
ATOM     17  C12 UNL A   1      14.274  49.092  10.135  1.00  0.00    +0.000 C 
ATOM    117  H19 UNL A   1      15.090  48.425   9.951  1.00  0.00    +0.000 H 
ATOM    118  H20 UNL A   1      14.038  49.731   9.311  1.00  0.00    +0.000 H 
BRANCH   17   18
ATOM     18  C13 UNL A   1      13.037  48.257  10.372  1.00  0.00    +0.000 C 
ATOM     19  C14 UNL A   1      13.151  46.921  10.783  1.00  0.00    +0.000 C 
ATOM     20  C15 UNL A   1      12.017  46.122  10.928  1.00  0.00    +0.000 C 
ATOM     21  C16 UNL A   1      10.753  46.660  10.696  1.00  0.00    +0.000 C 
ATOM     22  C17 UNL A   1      10.625  48.000  10.331  1.00  0.00    +0.000 C 
ATOM     23  C18 UNL A   1      11.760  48.795  10.167  1.00  0.00    +0.000 C 
ATOM    119  H21 UNL A   1      14.084  46.525  10.980  1.00  0.00    +0.000 H 
ATOM    120  H22 UNL A   1      12.113  45.133  11.206  1.00  0.00    +0.000 H 
ATOM    122  H24 UNL A   1       9.687  48.404  10.182  1.00  0.00    +0.000 H 
ATOM    123  H25 UNL A   1      11.659  49.784   9.890  1.00  0.00    +0.000 H 
ATOM    121  H23 UNL A   1       9.913  46.068  10.793  1.00  0.00    +0.000 H 
ENDBRANCH   17   18
ENDBRANCH   16   17
ENDBRANCH   24   16
ENDBRANCH   26   24
ENDBRANCH   27   26
ENDBRANCH   28   27
ENDBRANCH   29   28
ENDBRANCH   30   29
ENDBRANCH   31   30
ENDBRANCH   32   31
ENDBRANCH   33   32
ENDBRANCH   34   33
ENDBRANCH   36   34
ENDBRANCH   40   39
BRANCH   44   45
ATOM     45  C35 UNL A   1      18.225  55.619  -0.905  1.00  0.00    +0.000 C 
ATOM     46  C36 UNL A   1      19.550  56.017  -0.663  1.00  0.00    +0.000 C 
ATOM     47  F1  UNL A   1      20.238  55.484   0.358  1.00  0.00    +0.000 F 
ATOM     48  C37 UNL A   1      20.157  57.003  -1.436  1.00  0.00    +0.000 C 
ATOM     49  F2  UNL A   1      21.399  57.410  -1.144  1.00  0.00    +0.000 F 
ATOM     50  C38 UNL A   1      19.469  57.580  -2.492  1.00  0.00    +0.000 C 
ATOM     51  F3  UNL A   1      20.054  58.530  -3.235  1.00  0.00    +0.000 F 
ATOM     52  C39 UNL A   1      18.171  57.179  -2.772  1.00  0.00    +0.000 C 
ATOM     53  F4  UNL A   1      17.511  57.727  -3.801  1.00  0.00    +0.000 F 
ATOM     54  C40 UNL A   1      17.549  56.218  -1.979  1.00  0.00    +0.000 C 
ATOM     55  F5  UNL A   1      16.284  55.871  -2.261  1.00  0.00    +0.000 F 
ENDBRANCH   44   45
BRANCH   61   62
ATOM     65  C48 UNL A   1      16.645  47.043  -2.830  1.00  0.00    +0.000 C 
ATOM     66  F7  UNL A   1      15.884  46.694  -3.877  1.00  0.00    +0.000 F 
ATOM     67  C49 UNL A   1      17.773  46.299  -2.517  1.00  0.00    +0.000 C 
ATOM     68  F8  UNL A   1      18.114  45.246  -3.272  1.00  0.00    +0.000 F 
ATOM     69  C50 UNL A   1      18.542  46.643  -1.416  1.00  0.00    +0.000 C 
ATOM     70  F9  UNL A   1      19.640  45.934  -1.120  1.00  0.00    +0.000 F 
ATOM     71  C51 UNL A   1      18.176  47.722  -0.617  1.00  0.00    +0.000 C 
ATOM     72  F10 UNL A   1      18.932  48.021   0.450  1.00  0.00    +0.000 F 
ATOM     62  C46 UNL A   1      17.045  48.496  -0.921  1.00  0.00    +0.000 C 
ATOM     63  C47 UNL A   1      16.292  48.142  -2.051  1.00  0.00    +0.000 C 
ATOM     64  F6  UNL A   1      15.193  48.840  -2.375  1.00  0.00    +0.000 F 
ENDBRANCH   61   62
BRANCH   76   77
ATOM     77  C55 UNL A   1      13.408  49.147   4.985  1.00  0.00    +0.000 C 
ATOM     78  C56 UNL A   1      12.021  48.975   4.891  1.00  0.00    +0.000 C 
ATOM     79  F11 UNL A   1      11.313  49.713   4.023  1.00  0.00    +0.000 F 
ATOM     80  C57 UNL A   1      11.348  48.072   5.712  1.00  0.00    +0.000 C 
ATOM     81  F12 UNL A   1      10.017  47.956   5.627  1.00  0.00    +0.000 F 
ATOM     82  C58 UNL A   1      12.056  47.303   6.624  1.00  0.00    +0.000 C 
ATOM     83  F13 UNL A   1      11.410  46.428   7.407  1.00  0.00    +0.000 F 
ATOM     84  C59 UNL A   1      13.431  47.446   6.726  1.00  0.00    +0.000 C 
ATOM     85  F14 UNL A   1      14.118  46.694   7.597  1.00  0.00    +0.000 F 
ATOM     86  C60 UNL A   1      14.100  48.368   5.925  1.00  0.00    +0.000 C 
ATOM     87  F15 UNL A   1      15.430  48.492   6.051  1.00  0.00    +0.000 F 
ENDBRANCH   76   77
TORSDOF 22
ENDMDL
MODEL 3
REMARK VINA RESULT:      -8.4     20.020     23.658
ROOT
ATOM    140  H42 UNL A   1      13.315  46.603   2.584  1.00  0.00    +0.000 H 
ATOM    141  H43 UNL A   1      15.032  46.705   0.625  1.00  0.00    +0.000 H 
ATOM    142  H44 UNL A   1      14.911  50.423   2.443  1.00  0.00    +0.000 H 
ATOM    143  H45 UNL A   1      16.701  56.552   2.590  1.00  0.00    +0.000 H 
ATOM    144  H46 UNL A   1      15.107  56.419   4.565  1.00  0.00    +0.000 H 
ATOM    145  H47 UNL A   1      15.276  52.653   2.812  1.00  0.00    +0.000 H 
ATOM    146  H48 UNL A   1      18.597  53.018  -0.941  1.00  0.00    +0.000 H 
ATOM    147  H49 UNL A   1      18.037  50.585  -1.504  1.00  0.00    +0.000 H 
ATOM    148  H50 UNL A   1      11.837  50.102   6.383  1.00  0.00    +0.000 H 
ATOM    149  H51 UNL A   1      12.002  52.641   6.663  1.00  0.00    +0.000 H 
ATOM     40  C31 UNL A   1      13.898  53.862   4.924  1.00  0.00    +0.000 C 
ATOM     41  C32 UNL A   1      13.452  52.427   4.934  1.00  0.00    +0.000 C 
ATOM     42  N5  UNL A   1      13.821  51.438   4.158  1.00  0.00    +0.000 N 
ATOM     43  C33 UNL A   1      13.139  50.321   4.621  1.00  0.00    +0.000 C 
ATOM     44  C34 UNL A   1      13.122  49.066   4.110  1.00  0.00    +0.000 C 
ATOM     56  C41 UNL A   1      13.864  48.658   2.945  1.00  0.00    +0.000 C 
ATOM     57  C42 UNL A   1      13.877  47.425   2.316  1.00  0.00    +0.000 C 
ATOM     58  C43 UNL A   1      14.787  47.486   1.254  1.00  0.00    +0.000 C 
ATOM     59  C44 UNL A   1      15.299  48.772   1.187  1.00  0.00    +0.000 C 
ATOM     60  N6  UNL A   1      14.729  49.479   2.235  1.00  0.00    +0.000 N 
ATOM     61  C45 UNL A   1      16.242  49.315   0.242  1.00  0.00    +0.000 C 
ATOM     73  C52 UNL A   1      16.687  50.596   0.235  1.00  0.00    +0.000 C 
ATOM     74  N7  UNL A   1      16.357  51.639   1.089  1.00  0.00    +0.000 N 
ATOM     75  C53 UNL A   1      17.053  52.673   0.683  1.00  0.00    +0.000 C 
ATOM     76  C54 UNL A   1      17.069  54.078   1.218  1.00  0.00    +0.000 C 
ATOM     88  C61 UNL A   1      16.290  54.389   2.272  1.00  0.00    +0.000 C 
ATOM     89  C62 UNL A   1      16.194  55.706   2.896  1.00  0.00    +0.000 C 
ATOM     90  C63 UNL A   1      15.343  55.638   3.931  1.00  0.00    +0.000 C 
ATOM     91  C64 UNL A   1      14.802  54.282   4.019  1.00  0.00    +0.000 C 
ATOM     92  N8  UNL A   1      15.430  53.607   3.001  1.00  0.00    +0.000 N 
ATOM     93  C65 UNL A   1      17.930  52.393  -0.462  1.00  0.00    +0.000 C 
ATOM     94  C66 UNL A   1      17.638  51.126  -0.721  1.00  0.00    +0.000 C 
ATOM     95  C67 UNL A   1      12.382  50.738   5.781  1.00  0.00    +0.000 C 
ATOM     96  C68 UNL A   1      12.481  52.046   5.970  1.00  0.00    +0.000 C 
ENDROOT
BRANCH   40   39
ATOM     97  C69 UNL A   1      12.272  55.604   5.670  1.00  0.00    +0.000 C 
ATOM     98  C70 UNL A   1      11.805  56.520   6.609  1.00  0.00    +0.000 C 
ATOM     36  C27 UNL A   1      12.381  56.571   7.881  1.00  0.00    +0.000 C 
ATOM     37  C28 UNL A   1      13.509  55.795   8.167  1.00  0.00    +0.000 C 
ATOM     38  C29 UNL A   1      14.025  54.933   7.198  1.00  0.00    +0.000 C 
ATOM     39  C30 UNL A   1      13.392  54.808   5.951  1.00  0.00    +0.000 C 
ATOM    138  H40 UNL A   1      13.959  55.860   9.093  1.00  0.00    +0.000 H 
ATOM    139  H41 UNL A   1      14.875  54.384   7.399  1.00  0.00    +0.000 H 
ATOM    150  H52 UNL A   1      11.790  55.509   4.763  1.00  0.00    +0.000 H 
ATOM    151  H53 UNL A   1      11.035  57.162   6.366  1.00  0.00    +0.000 H 
BRANCH   36   34
ATOM     34  C26 UNL A   1      11.843  57.457   8.939  1.00  0.00    +0.000 C 
ATOM     35  O5  UNL A   1      12.304  58.586   9.076  1.00  0.00    +0.000 O 
BRANCH   34   33
ATOM     33  N4  UNL A   1      10.849  57.018   9.776  1.00  0.00    +0.000 N 
ATOM    137  H39 UNL A   1      10.012  56.755   9.329  1.00  0.00    +0.000 H 
BRANCH   33   32
ATOM    136  H38 UNL A   1      10.491  57.807  11.633  1.00  0.00    +0.000 H 
ATOM    135  H37 UNL A   1      11.836  56.659  11.551  1.00  0.00    +0.000 H 
ATOM     32  C25 UNL A   1      10.843  56.884  11.223  1.00  0.00    +0.000 C 
BRANCH   32   31
ATOM    133  H35 UNL A   1       8.975  56.230  11.968  1.00  0.00    +0.000 H 
ATOM    134  H36 UNL A   1       9.835  55.082  10.894  1.00  0.00    +0.000 H 
ATOM     31  C24 UNL A   1       9.909  55.780  11.703  1.00  0.00    +0.000 C 
BRANCH   31   30
ATOM    131  H33 UNL A   1       9.639  54.996  13.652  1.00  0.00    +0.000 H 
ATOM    132  H34 UNL A   1      10.631  54.002  12.531  1.00  0.00    +0.000 H 
ATOM     30  C23 UNL A   1      10.407  54.978  12.908  1.00  0.00    +0.000 C 
BRANCH   30   29
ATOM    129  H31 UNL A   1      12.118  56.233  12.925  1.00  0.00    +0.000 H 
ATOM    130  H32 UNL A   1      11.423  55.823  14.532  1.00  0.00    +0.000 H 
ATOM     29  C22 UNL A   1      11.705  55.476  13.559  1.00  0.00    +0.000 C 
BRANCH   29   28
ATOM     28  C21 UNL A   1      12.791  54.421  13.797  1.00  0.00    +0.000 C 
ATOM    127  H29 UNL A   1      13.277  54.643  14.725  1.00  0.00    +0.000 H 
ATOM    128  H30 UNL A   1      12.298  53.471  13.801  1.00  0.00    +0.000 H 
BRANCH   28   27
ATOM     27  C20 UNL A   1      13.855  54.351  12.710  1.00  0.00    +0.000 C 
ATOM    125  H27 UNL A   1      13.553  54.980  11.899  1.00  0.00    +0.000 H 
ATOM    126  H28 UNL A   1      14.777  54.672  13.148  1.00  0.00    +0.000 H 
BRANCH   27   26
ATOM     26  N3  UNL A   1      14.067  53.013  12.198  1.00  0.00    +0.000 N 
ATOM    124  H26 UNL A   1      13.465  52.668  11.499  1.00  0.00    +0.000 H 
BRANCH   26   24
ATOM     25  O4  UNL A   1      15.791  52.650  13.572  1.00  0.00    +0.000 O 
ATOM     24  C19 UNL A   1      15.083  52.210  12.659  1.00  0.00    +0.000 C 
BRANCH   24   16
ATOM    116  H18 UNL A   1      15.568  50.174  12.859  1.00  0.00    +0.000 H 
ATOM     16  C11 UNL A   1      15.370  50.815  12.025  1.00  0.00    +0.000 C 
BRANCH   16   15
ATOM    115  H17 UNL A   1      14.274  50.055  10.401  1.00  0.00    +0.000 H 
ATOM     15  N2  UNL A   1      14.233  50.129  11.382  1.00  0.00    +0.000 N 
BRANCH   15   13
ATOM     13  C10 UNL A   1      13.129  49.580  11.979  1.00  0.00    +0.000 C 
ATOM     14  O3  UNL A   1      13.182  49.378  13.196  1.00  0.00    +0.000 O 
BRANCH   13   12
ATOM      8  N1  UNL A   1      11.176  50.490  10.661  1.00  0.00    +0.000 N 
ATOM      9  C6  UNL A   1      11.060  50.507   9.220  1.00  0.00    +0.000 C 
ATOM     10  C7  UNL A   1      11.261  49.059   8.815  1.00  0.00    +0.000 C 
ATOM     11  C8  UNL A   1      12.218  48.521   9.874  1.00  0.00    +0.000 C 
ATOM     12  C9  UNL A   1      11.853  49.292  11.157  1.00  0.00    +0.000 C 
ATOM    108  H10 UNL A   1      11.813  51.131   8.786  1.00  0.00    +0.000 H 
ATOM    109  H11 UNL A   1      10.122  50.900   8.888  1.00  0.00    +0.000 H 
ATOM    110  H12 UNL A   1      11.693  48.991   7.838  1.00  0.00    +0.000 H 
ATOM    111  H13 UNL A   1      10.344  48.510   8.766  1.00  0.00    +0.000 H 
ATOM    112  H14 UNL A   1      13.234  48.710   9.595  1.00  0.00    +0.000 H 
ATOM    114  H16 UNL A   1      11.218  48.758  11.832  1.00  0.00    +0.000 H 
ATOM    113  H15 UNL A   1      12.131  47.462   9.998  1.00  0.00    +0.000 H 
BRANCH    8    6
ATOM      6  C5  UNL A   1      10.552  51.336  11.537  1.00  0.00    +0.000 C 
ATOM      7  O2  UNL A   1      11.014  51.579  12.637  1.00  0.00    +0.000 O 
BRANCH    6    5
ATOM      1  C1  UNL A   1       6.994  51.762  10.823  1.00  0.00    +0.000 C 
ATOM      2  C2  UNL A   1       8.142  51.313  11.737  1.00  0.00    +0.000 C 
ATOM     99  H1  UNL A   1       6.062  51.438  11.235  1.00  0.00    +0.000 H 
ATOM    100  H2  UNL A   1       7.124  51.332   9.851  1.00  0.00    +0.000 H 
ATOM    101  H3  UNL A   1       6.997  52.829  10.743  1.00  0.00    +0.000 H 
ATOM      3  C3  UNL A   1       7.986  51.977  13.109  1.00  0.00    +0.000 C 
ATOM      4  C4  UNL A   1       8.070  49.777  11.842  1.00  0.00    +0.000 C 
ATOM      5  O1  UNL A   1       9.355  51.798  11.095  1.00  0.00    +0.000 O 
ATOM    102  H4  UNL A   1       7.093  51.619  13.579  1.00  0.00    +0.000 H 
ATOM    103  H5  UNL A   1       7.923  53.038  12.986  1.00  0.00    +0.000 H 
ATOM    104  H6  UNL A   1       8.831  51.738  13.719  1.00  0.00    +0.000 H 
ATOM    105  H7  UNL A   1       7.156  49.495  12.322  1.00  0.00    +0.000 H 
ATOM    106  H8  UNL A   1       8.899  49.419  12.415  1.00  0.00    +0.000 H 
ATOM    107  H9  UNL A   1       8.103  49.351  10.860  1.00  0.00    +0.000 H 
ENDBRANCH    6    5
ENDBRANCH    8    6
ENDBRANCH   13   12
ENDBRANCH   15   13
ENDBRANCH   16   15
BRANCH   16   17
ATOM     17  C12 UNL A   1      16.620  50.881  11.120  1.00  0.00    +0.000 C 
ATOM    117  H19 UNL A   1      17.343  50.196  11.510  1.00  0.00    +0.000 H 
ATOM    118  H20 UNL A   1      16.934  51.904  11.136  1.00  0.00    +0.000 H 
BRANCH   17   18
ATOM     18  C13 UNL A   1      16.399  50.544   9.664  1.00  0.00    +0.000 C 
ATOM     19  C14 UNL A   1      16.653  49.248   9.190  1.00  0.00    +0.000 C 
ATOM     20  C15 UNL A   1      16.527  48.950   7.833  1.00  0.00    +0.000 C 
ATOM     21  C16 UNL A   1      16.111  49.935   6.941  1.00  0.00    +0.000 C 
ATOM     22  C17 UNL A   1      15.812  51.215   7.408  1.00  0.00    +0.000 C 
ATOM     23  C18 UNL A   1      15.957  51.520   8.763  1.00  0.00    +0.000 C 
ATOM    119  H21 UNL A   1      16.937  48.508   9.852  1.00  0.00    +0.000 H 
ATOM    120  H22 UNL A   1      16.741  48.000   7.491  1.00  0.00    +0.000 H 
ATOM    122  H24 UNL A   1      15.481  51.937   6.750  1.00  0.00    +0.000 H 
ATOM    123  H25 UNL A   1      15.740  52.470   9.100  1.00  0.00    +0.000 H 
ATOM    121  H23 UNL A   1      16.026  49.719   5.935  1.00  0.00    +0.000 H 
ENDBRANCH   17   18
ENDBRANCH   16   17
ENDBRANCH   24   16
ENDBRANCH   26   24
ENDBRANCH   27   26
ENDBRANCH   28   27
ENDBRANCH   29   28
ENDBRANCH   30   29
ENDBRANCH   31   30
ENDBRANCH   32   31
ENDBRANCH   33   32
ENDBRANCH   34   33
ENDBRANCH   36   34
ENDBRANCH   40   39
BRANCH   44   45
ATOM     45  C35 UNL A   1      12.275  48.046   4.815  1.00  0.00    +0.000 C 
ATOM     46  C36 UNL A   1      10.931  47.836   4.466  1.00  0.00    +0.000 C 
ATOM     47  F1  UNL A   1      10.366  48.564   3.490  1.00  0.00    +0.000 F 
ATOM     48  C37 UNL A   1      10.145  46.914   5.152  1.00  0.00    +0.000 C 
ATOM     49  F2  UNL A   1       8.848  46.779   4.842  1.00  0.00    +0.000 F 
ATOM     50  C38 UNL A   1      10.696  46.154   6.172  1.00  0.00    +0.000 C 
ATOM     51  F3  UNL A   1       9.938  45.267   6.833  1.00  0.00    +0.000 F 
ATOM     52  C39 UNL A   1      12.030  46.319   6.513  1.00  0.00    +0.000 C 
ATOM     53  F4  UNL A   1      12.567  45.574   7.489  1.00  0.00    +0.000 F 
ATOM     54  C40 UNL A   1      12.810  47.264   5.851  1.00  0.00    +0.000 C 
ATOM     55  F5  UNL A   1      14.090  47.417   6.222  1.00  0.00    +0.000 F 
ENDBRANCH   44   45
BRANCH   61   62
ATOM     65  C48 UNL A   1      18.446  46.916  -1.744  1.00  0.00    +0.000 C 
ATOM     66  F7  UNL A   1      19.659  46.354  -1.650  1.00  0.00    +0.000 F 
ATOM     67  C49 UNL A   1      17.650  46.662  -2.851  1.00  0.00    +0.000 C 
ATOM     68  F8  UNL A   1      18.083  45.838  -3.815  1.00  0.00    +0.000 F 
ATOM     69  C50 UNL A   1      16.409  47.269  -2.962  1.00  0.00    +0.000 C 
ATOM     70  F9  UNL A   1      15.632  47.014  -4.023  1.00  0.00    +0.000 F 
ATOM     71  C51 UNL A   1      15.967  48.142  -1.973  1.00  0.00    +0.000 C 
ATOM     72  F10 UNL A   1      14.767  48.725  -2.114  1.00  0.00    +0.000 F 
ATOM     62  C46 UNL A   1      16.751  48.406  -0.838  1.00  0.00    +0.000 C 
ATOM     63  C47 UNL A   1      17.996  47.766  -0.738  1.00  0.00    +0.000 C 
ATOM     64  F6  UNL A   1      18.790  47.997   0.319  1.00  0.00    +0.000 F 
ENDBRANCH   61   62
BRANCH   76   77
ATOM     77  C55 UNL A   1      17.898  55.131   0.577  1.00  0.00    +0.000 C 
ATOM     78  C56 UNL A   1      19.127  55.510   1.132  1.00  0.00    +0.000 C 
ATOM     79  F11 UNL A   1      19.550  54.941   2.271  1.00  0.00    +0.000 F 
ATOM     80  C57 UNL A   1      19.912  56.498   0.541  1.00  0.00    +0.000 C 
ATOM     81  F12 UNL A   1      21.065  56.866   1.114  1.00  0.00    +0.000 F 
ATOM     82  C58 UNL A   1      19.494  57.107  -0.633  1.00  0.00    +0.000 C 
ATOM     83  F13 UNL A   1      20.253  58.051  -1.206  1.00  0.00    +0.000 F 
ATOM     84  C59 UNL A   1      18.287  56.739  -1.208  1.00  0.00    +0.000 C 
ATOM     85  F14 UNL A   1      17.888  57.316  -2.350  1.00  0.00    +0.000 F 
ATOM     86  C60 UNL A   1      17.489  55.771  -0.603  1.00  0.00    +0.000 C 
ATOM     87  F15 UNL A   1      16.323  55.441  -1.177  1.00  0.00    +0.000 F 
ENDBRANCH   76   77
TORSDOF 22
ENDMDL
MODEL 4
REMARK VINA RESULT:      -8.4     53.309     60.532
ROOT
ATOM    140  H42 UNL A   1      26.512  34.103  44.651  1.00  0.00    +0.000 H 
ATOM    141  H43 UNL A   1      28.429  35.128  43.213  1.00  0.00    +0.000 H 
ATOM    142  H44 UNL A   1      30.119  32.583  46.007  1.00  0.00    +0.000 H 
ATOM    143  H45 UNL A   1      35.307  30.115  48.795  1.00  0.00    +0.000 H 
ATOM    144  H46 UNL A   1      33.430  29.036  50.124  1.00  0.00    +0.000 H 
ATOM    145  H47 UNL A   1      31.703  31.519  47.271  1.00  0.00    +0.000 H 
ATOM    146  H48 UNL A   1      35.513  33.425  44.605  1.00  0.00    +0.000 H 
ATOM    147  H49 UNL A   1      33.767  34.789  43.325  1.00  0.00    +0.000 H 
ATOM    148  H50 UNL A   1      26.391  30.403  48.544  1.00  0.00    +0.000 H 
ATOM    149  H51 UNL A   1      28.122  29.414  50.150  1.00  0.00    +0.000 H 
ATOM     40  C31 UNL A   1      30.816  29.876  49.353  1.00  0.00    +0.000 C 
ATOM     41  C32 UNL A   1      29.566  30.426  48.726  1.00  0.00    +0.000 C 
ATOM     42  N5  UNL A   1      29.437  31.229  47.699  1.00  0.00    +0.000 N 
ATOM     43  C33 UNL A   1      28.070  31.387  47.514  1.00  0.00    +0.000 C 
ATOM     44  C34 UNL A   1      27.422  32.178  46.625  1.00  0.00    +0.000 C 
ATOM     56  C41 UNL A   1      28.081  33.022  45.663  1.00  0.00    +0.000 C 
ATOM     57  C42 UNL A   1      27.518  33.900  44.753  1.00  0.00    +0.000 C 
ATOM     58  C43 UNL A   1      28.550  34.462  43.992  1.00  0.00    +0.000 C 
ATOM     59  C44 UNL A   1      29.758  33.977  44.464  1.00  0.00    +0.000 C 
ATOM     60  N6  UNL A   1      29.456  33.089  45.485  1.00  0.00    +0.000 N 
ATOM     61  C45 UNL A   1      31.090  34.295  44.016  1.00  0.00    +0.000 C 
ATOM     73  C52 UNL A   1      32.232  33.785  44.541  1.00  0.00    +0.000 C 
ATOM     74  N7  UNL A   1      32.384  32.883  45.586  1.00  0.00    +0.000 N 
ATOM     75  C53 UNL A   1      33.675  32.692  45.713  1.00  0.00    +0.000 C 
ATOM     76  C54 UNL A   1      34.417  31.839  46.704  1.00  0.00    +0.000 C 
ATOM     88  C61 UNL A   1      33.721  31.133  47.616  1.00  0.00    +0.000 C 
ATOM     89  C62 UNL A   1      34.299  30.270  48.642  1.00  0.00    +0.000 C 
ATOM     90  C63 UNL A   1      33.307  29.710  49.351  1.00  0.00    +0.000 C 
ATOM     91  C64 UNL A   1      32.023  30.207  48.856  1.00  0.00    +0.000 C 
ATOM     92  N8  UNL A   1      32.366  31.037  47.817  1.00  0.00    +0.000 N 
ATOM     93  C65 UNL A   1      34.489  33.432  44.738  1.00  0.00    +0.000 C 
ATOM     94  C66 UNL A   1      33.564  34.112  44.076  1.00  0.00    +0.000 C 
ATOM     95  C67 UNL A   1      27.411  30.550  48.492  1.00  0.00    +0.000 C 
ATOM     96  C68 UNL A   1      28.290  29.996  49.315  1.00  0.00    +0.000 C 
ENDROOT
BRANCH   40   39
ATOM     97  C69 UNL A   1      30.645  27.542  50.223  1.00  0.00    +0.000 C 
ATOM     98  C70 UNL A   1      30.524  26.632  51.270  1.00  0.00    +0.000 C 
ATOM     36  C27 UNL A   1      30.596  27.076  52.593  1.00  0.00    +0.000 C 
ATOM     37  C28 UNL A   1      30.657  28.446  52.865  1.00  0.00    +0.000 C 
ATOM     38  C29 UNL A   1      30.700  29.364  51.814  1.00  0.00    +0.000 C 
ATOM     39  C30 UNL A   1      30.725  28.918  50.484  1.00  0.00    +0.000 C 
ATOM    138  H40 UNL A   1      30.672  28.778  53.842  1.00  0.00    +0.000 H 
ATOM    139  H41 UNL A   1      30.714  30.376  52.016  1.00  0.00    +0.000 H 
ATOM    150  H52 UNL A   1      30.678  27.201  49.249  1.00  0.00    +0.000 H 
ATOM    151  H53 UNL A   1      30.381  25.629  51.070  1.00  0.00    +0.000 H 
BRANCH   36   34
ATOM     34  C26 UNL A   1      30.578  26.127  53.730  1.00  0.00    +0.000 C 
ATOM     35  O5  UNL A   1      31.097  25.021  53.604  1.00  0.00    +0.000 O 
BRANCH   34   33
ATOM     33  N4  UNL A   1      29.971  26.467  54.912  1.00  0.00    +0.000 N 
ATOM    137  H39 UNL A   1      28.988  26.411  54.907  1.00  0.00    +0.000 H 
BRANCH   33   32
ATOM    136  H38 UNL A   1      31.599  27.072  55.998  1.00  0.00    +0.000 H 
ATOM    135  H37 UNL A   1      30.402  26.130  56.900  1.00  0.00    +0.000 H 
ATOM     32  C25 UNL A   1      30.558  26.896  56.169  1.00  0.00    +0.000 C 
BRANCH   32   31
ATOM    133  H35 UNL A   1      29.813  28.097  57.743  1.00  0.00    +0.000 H 
ATOM    134  H36 UNL A   1      30.629  28.971  56.409  1.00  0.00    +0.000 H 
ATOM     31  C24 UNL A   1      29.948  28.193  56.685  1.00  0.00    +0.000 C 
BRANCH   31   30
ATOM    131  H33 UNL A   1      28.613  29.626  55.876  1.00  0.00    +0.000 H 
ATOM    132  H34 UNL A   1      28.502  27.968  55.194  1.00  0.00    +0.000 H 
ATOM     30  C23 UNL A   1      28.599  28.575  56.070  1.00  0.00    +0.000 C 
BRANCH   30   29
ATOM    129  H31 UNL A   1      26.906  29.204  57.183  1.00  0.00    +0.000 H 
ATOM    130  H32 UNL A   1      26.745  27.636  56.318  1.00  0.00    +0.000 H 
ATOM     29  C22 UNL A   1      27.359  28.271  56.922  1.00  0.00    +0.000 C 
BRANCH   29   28
ATOM     28  C21 UNL A   1      27.605  27.491  58.220  1.00  0.00    +0.000 C 
ATOM    127  H29 UNL A   1      28.617  27.658  58.525  1.00  0.00    +0.000 H 
ATOM    128  H30 UNL A   1      26.889  27.851  58.931  1.00  0.00    +0.000 H 
BRANCH   28   27
ATOM     27  C20 UNL A   1      27.384  25.989  58.107  1.00  0.00    +0.000 C 
ATOM    125  H27 UNL A   1      27.665  25.678  57.123  1.00  0.00    +0.000 H 
ATOM    126  H28 UNL A   1      27.981  25.524  58.864  1.00  0.00    +0.000 H 
BRANCH   27   26
ATOM     26  N3  UNL A   1      26.011  25.590  58.340  1.00  0.00    +0.000 N 
ATOM    124  H26 UNL A   1      25.618  25.732  59.231  1.00  0.00    +0.000 H 
BRANCH   26   24
ATOM     25  O4  UNL A   1      24.248  24.373  57.706  1.00  0.00    +0.000 O 
ATOM     24  C19 UNL A   1      25.242  25.019  57.354  1.00  0.00    +0.000 C 
BRANCH   24   16
ATOM    116  H18 UNL A   1      26.626  25.523  55.855  1.00  0.00    +0.000 H 
ATOM     16  C11 UNL A   1      25.630  25.133  55.848  1.00  0.00    +0.000 C 
BRANCH   16   15
ATOM    115  H17 UNL A   1      25.055  23.598  54.534  1.00  0.00    +0.000 H 
ATOM     15  N2  UNL A   1      25.807  23.869  55.108  1.00  0.00    +0.000 N 
BRANCH   15   13
ATOM     13  C10 UNL A   1      26.887  23.027  55.120  1.00  0.00    +0.000 C 
ATOM     14  O3  UNL A   1      27.863  23.344  54.433  1.00  0.00    +0.000 O 
BRANCH   13   12
ATOM      8  N1  UNL A   1      27.451  21.978  57.347  1.00  0.00    +0.000 N 
ATOM      9  C6  UNL A   1      26.511  21.669  58.401  1.00  0.00    +0.000 C 
ATOM     10  C7  UNL A   1      25.470  20.795  57.726  1.00  0.00    +0.000 C 
ATOM     11  C8  UNL A   1      25.443  21.316  56.292  1.00  0.00    +0.000 C 
ATOM     12  C9  UNL A   1      26.890  21.766  56.013  1.00  0.00    +0.000 C 
ATOM    108  H10 UNL A   1      26.065  22.562  58.786  1.00  0.00    +0.000 H 
ATOM    109  H11 UNL A   1      26.974  21.185  59.235  1.00  0.00    +0.000 H 
ATOM    110  H12 UNL A   1      24.514  20.909  58.192  1.00  0.00    +0.000 H 
ATOM    111  H13 UNL A   1      25.702  19.752  57.785  1.00  0.00    +0.000 H 
ATOM    112  H14 UNL A   1      24.767  22.141  56.203  1.00  0.00    +0.000 H 
ATOM    114  H16 UNL A   1      27.479  21.058  55.469  1.00  0.00    +0.000 H 
ATOM    113  H15 UNL A   1      25.108  20.574  55.598  1.00  0.00    +0.000 H 
BRANCH    8    6
ATOM      6  C5  UNL A   1      28.789  22.221  57.497  1.00  0.00    +0.000 C 
ATOM      7  O2  UNL A   1      29.209  23.048  58.287  1.00  0.00    +0.000 O 
BRANCH    6    5
ATOM      1  C1  UNL A   1      31.328  20.042  56.030  1.00  0.00    +0.000 C 
ATOM      2  C2  UNL A   1      30.334  20.393  57.145  1.00  0.00    +0.000 C 
ATOM     99  H1  UNL A   1      31.927  19.210  56.336  1.00  0.00    +0.000 H 
ATOM    100  H2  UNL A   1      31.959  20.884  55.836  1.00  0.00    +0.000 H 
ATOM    101  H3  UNL A   1      30.792  19.786  55.140  1.00  0.00    +0.000 H 
ATOM      3  C3  UNL A   1      29.394  19.206  57.378  1.00  0.00    +0.000 C 
ATOM      4  C4  UNL A   1      31.156  20.719  58.406  1.00  0.00    +0.000 C 
ATOM      5  O1  UNL A   1      29.574  21.525  56.635  1.00  0.00    +0.000 O 
ATOM    102  H4  UNL A   1      29.955  18.375  57.753  1.00  0.00    +0.000 H 
ATOM    103  H5  UNL A   1      28.927  18.934  56.455  1.00  0.00    +0.000 H 
ATOM    104  H6  UNL A   1      28.644  19.480  58.090  1.00  0.00    +0.000 H 
ATOM    105  H7  UNL A   1      31.686  19.845  58.722  1.00  0.00    +0.000 H 
ATOM    106  H8  UNL A   1      30.500  21.040  59.187  1.00  0.00    +0.000 H 
ATOM    107  H9  UNL A   1      31.855  21.499  58.184  1.00  0.00    +0.000 H 
ENDBRANCH    6    5
ENDBRANCH    8    6
ENDBRANCH   13   12
ENDBRANCH   15   13
ENDBRANCH   16   15
BRANCH   16   17
ATOM     17  C12 UNL A   1      24.693  26.125  55.125  1.00  0.00    +0.000 C 
ATOM    117  H19 UNL A   1      24.137  26.654  55.871  1.00  0.00    +0.000 H 
ATOM    118  H20 UNL A   1      24.091  25.531  54.471  1.00  0.00    +0.000 H 
BRANCH   17   18
ATOM     18  C13 UNL A   1      25.370  27.148  54.241  1.00  0.00    +0.000 C 
ATOM     19  C14 UNL A   1      24.841  28.441  54.120  1.00  0.00    +0.000 C 
ATOM     20  C15 UNL A   1      25.414  29.365  53.246  1.00  0.00    +0.000 C 
ATOM     21  C16 UNL A   1      26.545  29.017  52.510  1.00  0.00    +0.000 C 
ATOM     22  C17 UNL A   1      27.107  27.749  52.658  1.00  0.00    +0.000 C 
ATOM     23  C18 UNL A   1      26.521  26.816  53.517  1.00  0.00    +0.000 C 
ATOM    119  H21 UNL A   1      24.018  28.712  54.681  1.00  0.00    +0.000 H 
ATOM    120  H22 UNL A   1      25.002  30.305  53.145  1.00  0.00    +0.000 H 
ATOM    122  H24 UNL A   1      27.958  27.499  52.131  1.00  0.00    +0.000 H 
ATOM    123  H25 UNL A   1      26.938  25.878  53.617  1.00  0.00    +0.000 H 
ATOM    121  H23 UNL A   1      26.966  29.695  51.857  1.00  0.00    +0.000 H 
ENDBRANCH   17   18
ENDBRANCH   16   17
ENDBRANCH   24   16
ENDBRANCH   26   24
ENDBRANCH   27   26
ENDBRANCH   28   27
ENDBRANCH   29   28
ENDBRANCH   30   29
ENDBRANCH   31   30
ENDBRANCH   32   31
ENDBRANCH   33   32
ENDBRANCH   34   33
ENDBRANCH   36   34
ENDBRANCH   40   39
BRANCH   44   45
ATOM     45  C35 UNL A   1      25.919  32.161  46.656  1.00  0.00    +0.000 C 
ATOM     46  C36 UNL A   1      25.183  33.199  47.251  1.00  0.00    +0.000 C 
ATOM     47  F1  UNL A   1      25.818  34.233  47.825  1.00  0.00    +0.000 F 
ATOM     48  C37 UNL A   1      23.793  33.154  47.308  1.00  0.00    +0.000 C 
ATOM     49  F2  UNL A   1      23.117  34.124  47.938  1.00  0.00    +0.000 F 
ATOM     50  C38 UNL A   1      23.109  32.094  46.733  1.00  0.00    +0.000 C 
ATOM     51  F3  UNL A   1      21.770  32.051  46.788  1.00  0.00    +0.000 F 
ATOM     52  C39 UNL A   1      23.812  31.074  46.110  1.00  0.00    +0.000 C 
ATOM     53  F4  UNL A   1      23.150  30.057  45.542  1.00  0.00    +0.000 F 
ATOM     54  C40 UNL A   1      25.204  31.099  46.082  1.00  0.00    +0.000 C 
ATOM     55  F5  UNL A   1      25.855  30.084  45.494  1.00  0.00    +0.000 F 
ENDBRANCH   44   45
BRANCH   61   62
ATOM     65  C48 UNL A   1      31.301  37.578  42.082  1.00  0.00    +0.000 C 
ATOM     66  F7  UNL A   1      31.172  38.892  42.315  1.00  0.00    +0.000 F 
ATOM     67  C49 UNL A   1      31.566  37.125  40.799  1.00  0.00    +0.000 C 
ATOM     68  F8  UNL A   1      31.715  38.001  39.795  1.00  0.00    +0.000 F 
ATOM     69  C50 UNL A   1      31.669  35.765  40.554  1.00  0.00    +0.000 C 
ATOM     70  F9  UNL A   1      31.939  35.326  39.317  1.00  0.00    +0.000 F 
ATOM     71  C51 UNL A   1      31.492  34.853  41.591  1.00  0.00    +0.000 C 
ATOM     72  F10 UNL A   1      31.583  33.542  41.321  1.00  0.00    +0.000 F 
ATOM     62  C46 UNL A   1      31.234  35.289  42.900  1.00  0.00    +0.000 C 
ATOM     63  C47 UNL A   1      31.153  36.671  43.128  1.00  0.00    +0.000 C 
ATOM     64  F6  UNL A   1      30.892  37.137  44.359  1.00  0.00    +0.000 F 
ENDBRANCH   61   62
BRANCH   76   77
ATOM     77  C55 UNL A   1      35.902  31.798  46.717  1.00  0.00    +0.000 C 
ATOM     78  C56 UNL A   1      36.595  30.807  46.010  1.00  0.00    +0.000 C 
ATOM     79  F11 UNL A   1      35.916  29.864  45.339  1.00  0.00    +0.000 F 
ATOM     80  C57 UNL A   1      37.988  30.756  46.016  1.00  0.00    +0.000 C 
ATOM     81  F12 UNL A   1      38.623  29.775  45.362  1.00  0.00    +0.000 F 
ATOM     82  C58 UNL A   1      38.714  31.714  46.708  1.00  0.00    +0.000 C 
ATOM     83  F13 UNL A   1      40.053  31.671  46.707  1.00  0.00    +0.000 F 
ATOM     84  C59 UNL A   1      38.050  32.713  47.404  1.00  0.00    +0.000 C 
ATOM     85  F14 UNL A   1      38.750  33.647  48.062  1.00  0.00    +0.000 F 
ATOM     86  C60 UNL A   1      36.658  32.747  47.421  1.00  0.00    +0.000 C 
ATOM     87  F15 UNL A   1      36.042  33.719  48.110  1.00  0.00    +0.000 F 
ENDBRANCH   76   77
TORSDOF 22
ENDMDL
MODEL 5
REMARK VINA RESULT:      -8.4     24.690     29.354
ROOT
ATOM    140  H42 UNL A   1      15.229  46.880   0.609  1.00  0.00    +0.000 H 
ATOM    141  H43 UNL A   1      13.523  46.534   2.550  1.00  0.00    +0.000 H 
ATOM    142  H44 UNL A   1      14.843  50.457   2.661  1.00  0.00    +0.000 H 
ATOM    143  H45 UNL A   1      14.975  56.153   5.546  1.00  0.00    +0.000 H 
ATOM    144  H46 UNL A   1      16.555  56.515   3.589  1.00  0.00    +0.000 H 
ATOM    145  H47 UNL A   1      15.179  52.596   3.404  1.00  0.00    +0.000 H 
ATOM    146  H48 UNL A   1      11.931  52.087   7.204  1.00  0.00    +0.000 H 
ATOM    147  H49 UNL A   1      11.709  49.631   6.517  1.00  0.00    +0.000 H 
ATOM    148  H50 UNL A   1      17.877  51.163  -1.260  1.00  0.00    +0.000 H 
ATOM    149  H51 UNL A   1      18.493  53.461  -0.314  1.00  0.00    +0.000 H 
ATOM     40  C31 UNL A   1      16.962  54.204   1.969  1.00  0.00    +0.000 C 
ATOM     41  C32 UNL A   1      16.959  52.884   1.253  1.00  0.00    +0.000 C 
ATOM     42  N5  UNL A   1      16.272  51.798   1.514  1.00  0.00    +0.000 N 
ATOM     43  C33 UNL A   1      16.612  50.889   0.521  1.00  0.00    +0.000 C 
ATOM     44  C34 UNL A   1      16.227  49.597   0.388  1.00  0.00    +0.000 C 
ATOM     56  C41 UNL A   1      15.338  48.921   1.298  1.00  0.00    +0.000 C 
ATOM     57  C42 UNL A   1      14.925  47.600   1.282  1.00  0.00    +0.000 C 
ATOM     58  C43 UNL A   1      14.022  47.412   2.334  1.00  0.00    +0.000 C 
ATOM     59  C44 UNL A   1      13.914  48.600   3.039  1.00  0.00    +0.000 C 
ATOM     60  N6  UNL A   1      14.723  49.519   2.388  1.00  0.00    +0.000 N 
ATOM     61  C45 UNL A   1      13.130  48.878   4.216  1.00  0.00    +0.000 C 
ATOM     73  C52 UNL A   1      13.088  50.071   4.859  1.00  0.00    +0.000 C 
ATOM     74  N7  UNL A   1      13.758  51.249   4.557  1.00  0.00    +0.000 N 
ATOM     75  C53 UNL A   1      13.383  52.120   5.463  1.00  0.00    +0.000 C 
ATOM     76  C54 UNL A   1      13.814  53.549   5.644  1.00  0.00    +0.000 C 
ATOM     88  C61 UNL A   1      14.704  54.081   4.784  1.00  0.00    +0.000 C 
ATOM     89  C62 UNL A   1      15.220  55.446   4.836  1.00  0.00    +0.000 C 
ATOM     90  C63 UNL A   1      16.064  55.633   3.808  1.00  0.00    +0.000 C 
ATOM     91  C64 UNL A   1      16.179  54.387   3.050  1.00  0.00    +0.000 C 
ATOM     92  N8  UNL A   1      15.327  53.525   3.695  1.00  0.00    +0.000 N 
ATOM     93  C65 UNL A   1      12.404  51.598   6.427  1.00  0.00    +0.000 C 
ATOM     94  C66 UNL A   1      12.291  50.336   6.039  1.00  0.00    +0.000 C 
ATOM     95  C67 UNL A   1      17.517  51.567  -0.381  1.00  0.00    +0.000 C 
ATOM     96  C68 UNL A   1      17.823  52.775   0.068  1.00  0.00    +0.000 C 
ENDROOT
BRANCH   40   39
ATOM     97  C69 UNL A   1      19.083  55.521   1.934  1.00  0.00    +0.000 C 
ATOM     98  C70 UNL A   1      19.851  56.593   1.487  1.00  0.00    +0.000 C 
ATOM     36  C27 UNL A   1      19.368  57.421   0.470  1.00  0.00    +0.000 C 
ATOM     37  C28 UNL A   1      18.063  57.253  -0.004  1.00  0.00    +0.000 C 
ATOM     38  C29 UNL A   1      17.265  56.225   0.502  1.00  0.00    +0.000 C 
ATOM     39  C30 UNL A   1      17.779  55.332   1.454  1.00  0.00    +0.000 C 
ATOM    138  H40 UNL A   1      17.691  57.888  -0.727  1.00  0.00    +0.000 H 
ATOM    139  H41 UNL A   1      16.292  56.122   0.173  1.00  0.00    +0.000 H 
ATOM    150  H52 UNL A   1      19.477  54.861   2.623  1.00  0.00    +0.000 H 
ATOM    151  H53 UNL A   1      20.776  56.777   1.906  1.00  0.00    +0.000 H 
BRANCH   36   34
ATOM     34  C26 UNL A   1      20.197  58.505  -0.104  1.00  0.00    +0.000 C 
ATOM     35  O5  UNL A   1      19.708  59.618  -0.273  1.00  0.00    +0.000 O 
BRANCH   34   33
ATOM     33  N4  UNL A   1      21.499  58.269  -0.466  1.00  0.00    +0.000 N 
ATOM    137  H39 UNL A   1      21.615  57.715  -1.272  1.00  0.00    +0.000 H 
BRANCH   33   32
ATOM    136  H38 UNL A   1      23.108  57.900   0.748  1.00  0.00    +0.000 H 
ATOM    135  H37 UNL A   1      22.525  59.571   0.760  1.00  0.00    +0.000 H 
ATOM     32  C25 UNL A   1      22.733  58.711   0.159  1.00  0.00    +0.000 C 
BRANCH   32   31
ATOM    133  H35 UNL A   1      24.161  58.168  -1.304  1.00  0.00    +0.000 H 
ATOM    134  H36 UNL A   1      23.340  59.740  -1.556  1.00  0.00    +0.000 H 
ATOM     31  C24 UNL A   1      23.806  59.075  -0.860  1.00  0.00    +0.000 C 
BRANCH   31   30
ATOM    131  H33 UNL A   1      24.819  60.038   0.732  1.00  0.00    +0.000 H 
ATOM    132  H34 UNL A   1      25.856  59.193  -0.467  1.00  0.00    +0.000 H 
ATOM     30  C23 UNL A   1      25.014  59.831  -0.298  1.00  0.00    +0.000 C 
BRANCH   30   29
ATOM    129  H31 UNL A   1      24.762  61.230  -1.874  1.00  0.00    +0.000 H 
ATOM    130  H32 UNL A   1      25.160  61.919  -0.262  1.00  0.00    +0.000 H 
ATOM     29  C22 UNL A   1      25.358  61.159  -0.988  1.00  0.00    +0.000 C 
BRANCH   29   28
ATOM     28  C21 UNL A   1      26.824  61.350  -1.394  1.00  0.00    +0.000 C 
ATOM    127  H29 UNL A   1      27.215  60.401  -1.695  1.00  0.00    +0.000 H 
ATOM    128  H30 UNL A   1      26.829  62.074  -2.184  1.00  0.00    +0.000 H 
BRANCH   28   27
ATOM     27  C20 UNL A   1      27.718  61.905  -0.293  1.00  0.00    +0.000 C 
ATOM    125  H27 UNL A   1      27.308  61.622   0.652  1.00  0.00    +0.000 H 
ATOM    126  H28 UNL A   1      28.697  61.500  -0.447  1.00  0.00    +0.000 H 
BRANCH   27   26
ATOM     26  N3  UNL A   1      27.842  63.348  -0.326  1.00  0.00    +0.000 N 
ATOM    124  H26 UNL A   1      27.971  63.796  -1.193  1.00  0.00    +0.000 H 
BRANCH   26   24
ATOM     25  O4  UNL A   1      27.819  65.339   0.688  1.00  0.00    +0.000 O 
ATOM     24  C19 UNL A   1      27.786  64.110   0.817  1.00  0.00    +0.000 C 
BRANCH   24   16
ATOM    116  H18 UNL A   1      27.713  62.402   2.040  1.00  0.00    +0.000 H 
ATOM     16  C11 UNL A   1      27.737  63.454   2.231  1.00  0.00    +0.000 C 
BRANCH   16   15
ATOM    115  H17 UNL A   1      28.833  63.369   4.022  1.00  0.00    +0.000 H 
ATOM     15  N2  UNL A   1      28.945  63.582   3.067  1.00  0.00    +0.000 N 
BRANCH   15   13
ATOM     13  C10 UNL A   1      30.205  63.958   2.681  1.00  0.00    +0.000 C 
ATOM     14  O3  UNL A   1      30.541  65.126   2.900  1.00  0.00    +0.000 O 
BRANCH   13   12
ATOM      8  N1  UNL A   1      32.563  63.383   1.984  1.00  0.00    +0.000 N 
ATOM      9  C6  UNL A   1      33.471  62.514   2.699  1.00  0.00    +0.000 C 
ATOM     10  C7  UNL A   1      32.700  61.215   2.848  1.00  0.00    +0.000 C 
ATOM     11  C8  UNL A   1      31.247  61.671   2.944  1.00  0.00    +0.000 C 
ATOM     12  C9  UNL A   1      31.175  62.930   2.057  1.00  0.00    +0.000 C 
ATOM    108  H10 UNL A   1      33.713  62.924   3.657  1.00  0.00    +0.000 H 
ATOM    109  H11 UNL A   1      34.401  62.382   2.189  1.00  0.00    +0.000 H 
ATOM    110  H12 UNL A   1      32.996  60.694   3.734  1.00  0.00    +0.000 H 
ATOM    111  H13 UNL A   1      32.870  60.536   2.040  1.00  0.00    +0.000 H 
ATOM    112  H14 UNL A   1      30.992  61.906   3.956  1.00  0.00    +0.000 H 
ATOM    114  H16 UNL A   1      30.786  62.761   1.076  1.00  0.00    +0.000 H 
ATOM    113  H15 UNL A   1      30.563  60.912   2.628  1.00  0.00    +0.000 H 
BRANCH    8    6
ATOM      6  C5  UNL A   1      32.910  64.393   1.129  1.00  0.00    +0.000 C 
ATOM      7  O2  UNL A   1      32.732  64.309  -0.073  1.00  0.00    +0.000 O 
BRANCH    6    5
ATOM      1  C1  UNL A   1      35.387  66.819   2.283  1.00  0.00    +0.000 C 
ATOM      2  C2  UNL A   1      34.822  65.872   1.215  1.00  0.00    +0.000 C 
ATOM     99  H1  UNL A   1      36.342  67.184   1.967  1.00  0.00    +0.000 H 
ATOM    100  H2  UNL A   1      35.494  66.290   3.207  1.00  0.00    +0.000 H 
ATOM    101  H3  UNL A   1      34.718  67.643   2.419  1.00  0.00    +0.000 H 
ATOM      3  C3  UNL A   1      34.614  66.647  -0.090  1.00  0.00    +0.000 C 
ATOM      4  C4  UNL A   1      35.837  64.727   1.035  1.00  0.00    +0.000 C 
ATOM      5  O1  UNL A   1      33.535  65.435   1.734  1.00  0.00    +0.000 O 
ATOM    102  H4  UNL A   1      35.562  66.968  -0.470  1.00  0.00    +0.000 H 
ATOM    103  H5  UNL A   1      33.998  67.502   0.097  1.00  0.00    +0.000 H 
ATOM    104  H6  UNL A   1      34.137  66.015  -0.809  1.00  0.00    +0.000 H 
ATOM    105  H7  UNL A   1      36.756  65.121   0.653  1.00  0.00    +0.000 H 
ATOM    106  H8  UNL A   1      35.444  64.006   0.349  1.00  0.00    +0.000 H 
ATOM    107  H9  UNL A   1      36.017  64.258   1.981  1.00  0.00    +0.000 H 
ENDBRANCH    6    5
ENDBRANCH    8    6
ENDBRANCH   13   12
ENDBRANCH   15   13
ENDBRANCH   16   15
BRANCH   16   17
ATOM     17  C12 UNL A   1      26.448  63.872   2.973  1.00  0.00    +0.000 C 
ATOM    117  H19 UNL A   1      26.316  64.924   2.832  1.00  0.00    +0.000 H 
ATOM    118  H20 UNL A   1      26.593  63.582   3.992  1.00  0.00    +0.000 H 
BRANCH   17   18
ATOM     18  C13 UNL A   1      25.178  63.182   2.530  1.00  0.00    +0.000 C 
ATOM     19  C14 UNL A   1      24.382  63.743   1.521  1.00  0.00    +0.000 C 
ATOM     20  C15 UNL A   1      23.169  63.154   1.161  1.00  0.00    +0.000 C 
ATOM     21  C16 UNL A   1      22.757  61.977   1.782  1.00  0.00    +0.000 C 
ATOM     22  C17 UNL A   1      23.564  61.385   2.754  1.00  0.00    +0.000 C 
ATOM     23  C18 UNL A   1      24.768  61.985   3.129  1.00  0.00    +0.000 C 
ATOM    119  H21 UNL A   1      24.695  64.602   1.040  1.00  0.00    +0.000 H 
ATOM    120  H22 UNL A   1      22.578  63.589   0.436  1.00  0.00    +0.000 H 
ATOM    122  H24 UNL A   1      23.270  60.501   3.197  1.00  0.00    +0.000 H 
ATOM    123  H25 UNL A   1      25.356  61.545   3.853  1.00  0.00    +0.000 H 
ATOM    121  H23 UNL A   1      21.857  61.544   1.525  1.00  0.00    +0.000 H 
ENDBRANCH   17   18
ENDBRANCH   16   17
ENDBRANCH   24   16
ENDBRANCH   26   24
ENDBRANCH   27   26
ENDBRANCH   28   27
ENDBRANCH   29   28
ENDBRANCH   30   29
ENDBRANCH   31   30
ENDBRANCH   32   31
ENDBRANCH   33   32
ENDBRANCH   34   33
ENDBRANCH   36   34
ENDBRANCH   40   39
BRANCH   44   45
ATOM     45  C35 UNL A   1      16.766  48.835  -0.789  1.00  0.00    +0.000 C 
ATOM     46  C36 UNL A   1      16.050  48.735  -1.993  1.00  0.00    +0.000 C 
ATOM     47  F1  UNL A   1      14.845  49.316  -2.111  1.00  0.00    +0.000 F 
ATOM     48  C37 UNL A   1      16.542  47.995  -3.064  1.00  0.00    +0.000 C 
ATOM     49  F2  UNL A   1      15.811  47.862  -4.178  1.00  0.00    +0.000 F 
ATOM     50  C38 UNL A   1      17.779  47.375  -2.969  1.00  0.00    +0.000 C 
ATOM     51  F3  UNL A   1      18.252  46.661  -4.001  1.00  0.00    +0.000 F 
ATOM     52  C39 UNL A   1      18.520  47.487  -1.803  1.00  0.00    +0.000 C 
ATOM     53  F4  UNL A   1      19.722  46.900  -1.717  1.00  0.00    +0.000 F 
ATOM     54  C40 UNL A   1      18.015  48.198  -0.718  1.00  0.00    +0.000 C 
ATOM     55  F5  UNL A   1      18.746  48.266   0.405  1.00  0.00    +0.000 F 
ENDBRANCH   44   45
BRANCH   61   62
ATOM     65  C48 UNL A   1      11.990  45.988   6.431  1.00  0.00    +0.000 C 
ATOM     66  F7  UNL A   1      12.458  45.261   7.455  1.00  0.00    +0.000 F 
ATOM     67  C49 UNL A   1      10.744  45.704   5.893  1.00  0.00    +0.000 C 
ATOM     68  F8  UNL A   1       9.998  44.718   6.411  1.00  0.00    +0.000 F 
ATOM     69  C50 UNL A   1      10.274  46.436   4.814  1.00  0.00    +0.000 C 
ATOM     70  F9  UNL A   1       9.064  46.173   4.302  1.00  0.00    +0.000 F 
ATOM     71  C51 UNL A   1      11.057  47.445   4.261  1.00  0.00    +0.000 C 
ATOM     72  F10 UNL A   1      10.582  48.127   3.208  1.00  0.00    +0.000 F 
ATOM     62  C46 UNL A   1      12.317  47.757   4.795  1.00  0.00    +0.000 C 
ATOM     63  C47 UNL A   1      12.764  47.016   5.899  1.00  0.00    +0.000 C 
ATOM     64  F6  UNL A   1      13.968  47.265   6.436  1.00  0.00    +0.000 F 
ENDBRANCH   61   62
BRANCH   76   77
ATOM     77  C55 UNL A   1      13.306  54.363   6.778  1.00  0.00    +0.000 C 
ATOM     78  C56 UNL A   1      13.888  54.260   8.048  1.00  0.00    +0.000 C 
ATOM     79  F11 UNL A   1      14.894  53.397   8.256  1.00  0.00    +0.000 F 
ATOM     80  C57 UNL A   1      13.418  55.016   9.120  1.00  0.00    +0.000 C 
ATOM     81  F12 UNL A   1      13.969  54.871  10.332  1.00  0.00    +0.000 F 
ATOM     82  C58 UNL A   1      12.375  55.911   8.934  1.00  0.00    +0.000 C 
ATOM     83  F13 UNL A   1      11.928  56.645   9.963  1.00  0.00    +0.000 F 
ATOM     84  C59 UNL A   1      11.791  56.039   7.683  1.00  0.00    +0.000 C 
ATOM     85  F14 UNL A   1      10.792  56.912   7.497  1.00  0.00    +0.000 F 
ATOM     86  C60 UNL A   1      12.242  55.263   6.618  1.00  0.00    +0.000 C 
ATOM     87  F15 UNL A   1      11.654  55.402   5.420  1.00  0.00    +0.000 F 
ENDBRANCH   76   77
TORSDOF 22
ENDMDL
MODEL 6
REMARK VINA RESULT:      -8.2     12.692     19.612
ROOT
ATOM    140  H42 UNL A   1      21.296  19.891   3.362  1.00  0.00    +0.000 H 
ATOM    141  H43 UNL A   1      21.708  17.601   4.538  1.00  0.00    +0.000 H 
ATOM    142  H44 UNL A   1      18.141  19.163   5.947  1.00  0.00    +0.000 H 
ATOM    143  H45 UNL A   1      13.173  18.833   9.945  1.00  0.00    +0.000 H 
ATOM    144  H46 UNL A   1      12.720  21.012   8.718  1.00  0.00    +0.000 H 
ATOM    145  H47 UNL A   1      16.260  19.424   7.224  1.00  0.00    +0.000 H 
ATOM    146  H48 UNL A   1      16.922  15.043   9.595  1.00  0.00    +0.000 H 
ATOM    147  H49 UNL A   1      19.140  14.841   8.333  1.00  0.00    +0.000 H 
ATOM    148  H50 UNL A   1      17.232  23.403   3.443  1.00  0.00    +0.000 H 
ATOM    149  H51 UNL A   1      15.280  23.871   5.031  1.00  0.00    +0.000 H 
ATOM     40  C31 UNL A   1      14.728  21.730   6.825  1.00  0.00    +0.000 C 
ATOM     41  C32 UNL A   1      15.876  21.848   5.863  1.00  0.00    +0.000 C 
ATOM     42  N5  UNL A   1      16.864  21.016   5.642  1.00  0.00    +0.000 N 
ATOM     43  C33 UNL A   1      17.619  21.588   4.627  1.00  0.00    +0.000 C 
ATOM     44  C34 UNL A   1      18.784  21.152   4.089  1.00  0.00    +0.000 C 
ATOM     56  C41 UNL A   1      19.462  19.949   4.496  1.00  0.00    +0.000 C 
ATOM     57  C42 UNL A   1      20.671  19.445   4.051  1.00  0.00    +0.000 C 
ATOM     58  C43 UNL A   1      20.900  18.224   4.696  1.00  0.00    +0.000 C 
ATOM     59  C44 UNL A   1      19.860  17.993   5.582  1.00  0.00    +0.000 C 
ATOM     60  N6  UNL A   1      18.981  19.057   5.444  1.00  0.00    +0.000 N 
ATOM     61  C45 UNL A   1      19.679  16.885   6.485  1.00  0.00    +0.000 C 
ATOM     73  C52 UNL A   1      18.633  16.737   7.336  1.00  0.00    +0.000 C 
ATOM     74  N7  UNL A   1      17.546  17.576   7.536  1.00  0.00    +0.000 N 
ATOM     75  C53 UNL A   1      16.807  16.998   8.451  1.00  0.00    +0.000 C 
ATOM     76  C54 UNL A   1      15.526  17.473   9.079  1.00  0.00    +0.000 C 
ATOM     88  C61 UNL A   1      14.996  18.647   8.686  1.00  0.00    +0.000 C 
ATOM     89  C62 UNL A   1      13.767  19.240   9.206  1.00  0.00    +0.000 C 
ATOM     90  C63 UNL A   1      13.535  20.396   8.565  1.00  0.00    +0.000 C 
ATOM     91  C64 UNL A   1      14.622  20.647   7.618  1.00  0.00    +0.000 C 
ATOM     92  N8  UNL A   1      15.437  19.550   7.750  1.00  0.00    +0.000 N 
ATOM     93  C65 UNL A   1      17.330  15.705   8.916  1.00  0.00    +0.000 C 
ATOM     94  C66 UNL A   1      18.464  15.614   8.236  1.00  0.00    +0.000 C 
ATOM     95  C67 UNL A   1      16.944  22.805   4.232  1.00  0.00    +0.000 C 
ATOM     96  C68 UNL A   1      15.905  23.051   5.017  1.00  0.00    +0.000 C 
ENDROOT
BRANCH   40   39
ATOM     97  C69 UNL A   1      12.674  22.788   5.879  1.00  0.00    +0.000 C 
ATOM     98  C70 UNL A   1      11.698  23.782   5.879  1.00  0.00    +0.000 C 
ATOM     36  C27 UNL A   1      11.643  24.705   6.926  1.00  0.00    +0.000 C 
ATOM     37  C28 UNL A   1      12.644  24.713   7.902  1.00  0.00    +0.000 C 
ATOM     38  C29 UNL A   1      13.668  23.765   7.857  1.00  0.00    +0.000 C 
ATOM     39  C30 UNL A   1      13.674  22.775   6.862  1.00  0.00    +0.000 C 
ATOM    138  H40 UNL A   1      12.626  25.419   8.654  1.00  0.00    +0.000 H 
ATOM    139  H41 UNL A   1      14.423  23.791   8.560  1.00  0.00    +0.000 H 
ATOM    150  H52 UNL A   1      12.661  22.056   5.151  1.00  0.00    +0.000 H 
ATOM    151  H53 UNL A   1      11.017  23.836   5.106  1.00  0.00    +0.000 H 
BRANCH   36   34
ATOM     34  C26 UNL A   1      10.557  25.708   7.015  1.00  0.00    +0.000 C 
ATOM     35  O5  UNL A   1      10.044  25.950   8.104  1.00  0.00    +0.000 O 
BRANCH   34   33
ATOM     33  N4  UNL A   1      10.109  26.352   5.891  1.00  0.00    +0.000 N 
ATOM    137  H39 UNL A   1      10.786  26.890   5.420  1.00  0.00    +0.000 H 
BRANCH   33   32
ATOM    136  H38 UNL A   1       8.786  27.106   4.520  1.00  0.00    +0.000 H 
ATOM    135  H37 UNL A   1       8.065  26.579   6.048  1.00  0.00    +0.000 H 
ATOM     32  C25 UNL A   1       8.787  26.362   5.288  1.00  0.00    +0.000 C 
BRANCH   32   31
ATOM    133  H35 UNL A   1       9.293  24.676   4.116  1.00  0.00    +0.000 H 
ATOM    134  H36 UNL A   1       8.119  24.387   5.438  1.00  0.00    +0.000 H 
ATOM     31  C24 UNL A   1       8.430  25.030   4.641  1.00  0.00    +0.000 C 
BRANCH   31   30
ATOM    131  H33 UNL A   1       6.649  24.216   3.833  1.00  0.00    +0.000 H 
ATOM    132  H34 UNL A   1       6.772  26.008   3.828  1.00  0.00    +0.000 H 
ATOM     30  C23 UNL A   1       7.261  25.073   3.653  1.00  0.00    +0.000 C 
BRANCH   30   29
ATOM    129  H31 UNL A   1       8.631  25.467   2.080  1.00  0.00    +0.000 H 
ATOM    130  H32 UNL A   1       7.532  24.064   1.839  1.00  0.00    +0.000 H 
ATOM     29  C22 UNL A   1       7.637  25.078   2.165  1.00  0.00    +0.000 C 
BRANCH   29   28
ATOM     28  C21 UNL A   1       6.732  25.902   1.240  1.00  0.00    +0.000 C 
ATOM    127  H29 UNL A   1       7.016  25.701   0.228  1.00  0.00    +0.000 H 
ATOM    128  H30 UNL A   1       5.726  25.607   1.458  1.00  0.00    +0.000 H 
BRANCH   28   27
ATOM     27  C20 UNL A   1       6.801  27.406   1.465  1.00  0.00    +0.000 C 
ATOM    125  H27 UNL A   1       6.044  27.873   0.872  1.00  0.00    +0.000 H 
ATOM    126  H28 UNL A   1       6.658  27.576   2.512  1.00  0.00    +0.000 H 
BRANCH   27   26
ATOM     26  N3  UNL A   1       8.082  27.982   1.109  1.00  0.00    +0.000 N 
ATOM    124  H26 UNL A   1       8.594  27.586   0.367  1.00  0.00    +0.000 H 
BRANCH   26   24
ATOM     25  O4  UNL A   1       7.809  29.863   2.284  1.00  0.00    +0.000 O 
ATOM     24  C19 UNL A   1       8.605  29.063   1.778  1.00  0.00    +0.000 C 
BRANCH   24   16
ATOM    116  H18 UNL A   1      10.487  29.183   0.851  1.00  0.00    +0.000 H 
ATOM     16  C11 UNL A   1      10.143  29.307   1.856  1.00  0.00    +0.000 C 
BRANCH   16   15
ATOM    115  H17 UNL A   1      10.499  30.964   3.098  1.00  0.00    +0.000 H 
ATOM     15  N2  UNL A   1      10.585  30.681   2.159  1.00  0.00    +0.000 N 
BRANCH   15   13
ATOM     13  C10 UNL A   1      11.102  31.613   1.297  1.00  0.00    +0.000 C 
ATOM     14  O3  UNL A   1      10.342  32.500   0.898  1.00  0.00    +0.000 O 
BRANCH   13   12
ATOM      8  N1  UNL A   1      12.959  32.509  -0.161  1.00  0.00    +0.000 N 
ATOM      9  C6  UNL A   1      13.979  33.449   0.248  1.00  0.00    +0.000 C 
ATOM     10  C7  UNL A   1      14.614  32.801   1.464  1.00  0.00    +0.000 C 
ATOM     11  C8  UNL A   1      13.464  32.024   2.096  1.00  0.00    +0.000 C 
ATOM     12  C9  UNL A   1      12.596  31.575   0.904  1.00  0.00    +0.000 C 
ATOM    108  H10 UNL A   1      13.545  34.393   0.503  1.00  0.00    +0.000 H 
ATOM    109  H11 UNL A   1      14.688  33.648  -0.528  1.00  0.00    +0.000 H 
ATOM    110  H12 UNL A   1      14.991  33.541   2.138  1.00  0.00    +0.000 H 
ATOM    111  H13 UNL A   1      15.449  32.180   1.216  1.00  0.00    +0.000 H 
ATOM    112  H14 UNL A   1      12.903  32.650   2.757  1.00  0.00    +0.000 H 
ATOM    114  H16 UNL A   1      12.760  30.567   0.588  1.00  0.00    +0.000 H 
ATOM    113  H15 UNL A   1      13.807  31.197   2.682  1.00  0.00    +0.000 H 
BRANCH    8    6
ATOM      6  C5  UNL A   1      12.505  32.305  -1.435  1.00  0.00    +0.000 C 
ATOM      7  O2  UNL A   1      11.986  33.195  -2.084  1.00  0.00    +0.000 O 
BRANCH    6    5
ATOM      1  C1  UNL A   1      13.425  29.261  -3.234  1.00  0.00    +0.000 C 
ATOM      2  C2  UNL A   1      13.760  30.651  -2.677  1.00  0.00    +0.000 C 
ATOM     99  H1  UNL A   1      14.229  28.920  -3.852  1.00  0.00    +0.000 H 
ATOM    100  H2  UNL A   1      12.527  29.316  -3.815  1.00  0.00    +0.000 H 
ATOM    101  H3  UNL A   1      13.283  28.576  -2.425  1.00  0.00    +0.000 H 
ATOM      3  C3  UNL A   1      15.011  30.555  -1.798  1.00  0.00    +0.000 C 
ATOM      4  C4  UNL A   1      13.985  31.585  -3.881  1.00  0.00    +0.000 C 
ATOM      5  O1  UNL A   1      12.614  31.020  -1.858  1.00  0.00    +0.000 O 
ATOM    102  H4  UNL A   1      15.852  30.284  -2.402  1.00  0.00    +0.000 H 
ATOM    103  H5  UNL A   1      14.860  29.813  -1.042  1.00  0.00    +0.000 H 
ATOM    104  H6  UNL A   1      15.195  31.502  -1.335  1.00  0.00    +0.000 H 
ATOM    105  H7  UNL A   1      14.839  31.254  -4.434  1.00  0.00    +0.000 H 
ATOM    106  H8  UNL A   1      14.151  32.583  -3.532  1.00  0.00    +0.000 H 
ATOM    107  H9  UNL A   1      13.121  31.566  -4.513  1.00  0.00    +0.000 H 
ENDBRANCH    6    5
ENDBRANCH    8    6
ENDBRANCH   13   12
ENDBRANCH   15   13
ENDBRANCH   16   15
BRANCH   16   17
ATOM     17  C12 UNL A   1      10.810  28.249   2.762  1.00  0.00    +0.000 C 
ATOM    117  H19 UNL A   1      10.064  27.874   3.432  1.00  0.00    +0.000 H 
ATOM    118  H20 UNL A   1      11.619  28.753   3.249  1.00  0.00    +0.000 H 
BRANCH   17   18
ATOM     18  C13 UNL A   1      11.431  27.069   2.052  1.00  0.00    +0.000 C 
ATOM     19  C14 UNL A   1      12.106  27.248   0.836  1.00  0.00    +0.000 C 
ATOM     20  C15 UNL A   1      12.614  26.153   0.136  1.00  0.00    +0.000 C 
ATOM     21  C16 UNL A   1      12.483  24.870   0.663  1.00  0.00    +0.000 C 
ATOM     22  C17 UNL A   1      11.855  24.685   1.894  1.00  0.00    +0.000 C 
ATOM     23  C18 UNL A   1      11.329  25.778   2.586  1.00  0.00    +0.000 C 
ATOM    119  H21 UNL A   1      12.227  28.200   0.454  1.00  0.00    +0.000 H 
ATOM    120  H22 UNL A   1      13.086  26.293  -0.770  1.00  0.00    +0.000 H 
ATOM    122  H24 UNL A   1      11.780  23.738   2.295  1.00  0.00    +0.000 H 
ATOM    123  H25 UNL A   1      10.860  25.633   3.493  1.00  0.00    +0.000 H 
ATOM    121  H23 UNL A   1      12.850  24.058   0.143  1.00  0.00    +0.000 H 
ENDBRANCH   17   18
ENDBRANCH   16   17
ENDBRANCH   24   16
ENDBRANCH   26   24
ENDBRANCH   27   26
ENDBRANCH   28   27
ENDBRANCH   29   28
ENDBRANCH   30   29
ENDBRANCH   31   30
ENDBRANCH   32   31
ENDBRANCH   33   32
ENDBRANCH   34   33
ENDBRANCH   36   34
ENDBRANCH   40   39
BRANCH   44   45
ATOM     45  C35 UNL A   1      19.394  21.987   2.999  1.00  0.00    +0.000 C 
ATOM     46  C36 UNL A   1      20.197  23.103   3.287  1.00  0.00    +0.000 C 
ATOM     47  F1  UNL A   1      20.426  23.458   4.561  1.00  0.00    +0.000 F 
ATOM     48  C37 UNL A   1      20.726  23.891   2.269  1.00  0.00    +0.000 C 
ATOM     49  F2  UNL A   1      21.435  24.986   2.571  1.00  0.00    +0.000 F 
ATOM     50  C38 UNL A   1      20.500  23.556   0.943  1.00  0.00    +0.000 C 
ATOM     51  F3  UNL A   1      21.009  24.316  -0.038  1.00  0.00    +0.000 F 
ATOM     52  C39 UNL A   1      19.738  22.439   0.632  1.00  0.00    +0.000 C 
ATOM     53  F4  UNL A   1      19.531  22.108  -0.649  1.00  0.00    +0.000 F 
ATOM     54  C40 UNL A   1      19.179  21.669   1.649  1.00  0.00    +0.000 C 
ATOM     55  F5  UNL A   1      18.426  20.610   1.315  1.00  0.00    +0.000 F 
ENDBRANCH   44   45
BRANCH   61   62
ATOM     65  C48 UNL A   1      22.781  14.872   7.427  1.00  0.00    +0.000 C 
ATOM     66  F7  UNL A   1      23.825  14.967   8.262  1.00  0.00    +0.000 F 
ATOM     67  C49 UNL A   1      22.675  13.787   6.571  1.00  0.00    +0.000 C 
ATOM     68  F8  UNL A   1      23.604  12.821   6.593  1.00  0.00    +0.000 F 
ATOM     69  C50 UNL A   1      21.611  13.706   5.686  1.00  0.00    +0.000 C 
ATOM     70  F9  UNL A   1      21.499  12.651   4.867  1.00  0.00    +0.000 F 
ATOM     71  C51 UNL A   1      20.658  14.719   5.645  1.00  0.00    +0.000 C 
ATOM     72  F10 UNL A   1      19.648  14.621   4.768  1.00  0.00    +0.000 F 
ATOM     62  C46 UNL A   1      20.739  15.823   6.510  1.00  0.00    +0.000 C 
ATOM     63  C47 UNL A   1      21.813  15.874   7.410  1.00  0.00    +0.000 C 
ATOM     64  F6  UNL A   1      21.944  16.915   8.246  1.00  0.00    +0.000 F 
ENDBRANCH   61   62
BRANCH   76   77
ATOM     77  C55 UNL A   1      14.862  16.687  10.151  1.00  0.00    +0.000 C 
ATOM     78  C56 UNL A   1      15.049  17.017  11.499  1.00  0.00    +0.000 C 
ATOM     79  F11 UNL A   1      15.859  18.033  11.833  1.00  0.00    +0.000 F 
ATOM     80  C57 UNL A   1      14.434  16.285  12.513  1.00  0.00    +0.000 C 
ATOM     81  F12 UNL A   1      14.660  16.600  13.795  1.00  0.00    +0.000 F 
ATOM     82  C58 UNL A   1      13.597  15.226  12.196  1.00  0.00    +0.000 C 
ATOM     83  F13 UNL A   1      12.999  14.528  13.170  1.00  0.00    +0.000 F 
ATOM     84  C59 UNL A   1      13.387  14.888  10.868  1.00  0.00    +0.000 C 
ATOM     85  F14 UNL A   1      12.568  13.874  10.557  1.00  0.00    +0.000 F 
ATOM     86  C60 UNL A   1      14.023  15.602   9.854  1.00  0.00    +0.000 C 
ATOM     87  F15 UNL A   1      13.808  15.248   8.579  1.00  0.00    +0.000 F 
ENDBRANCH   76   77
TORSDOF 22
ENDMDL
MODEL 7
REMARK VINA RESULT:      -8.1     52.857     57.591
ROOT
ATOM    140  H42 UNL A   1      18.780  33.965  47.791  1.00  0.00    +0.000 H 
ATOM    141  H43 UNL A   1      16.961  35.360  49.033  1.00  0.00    +0.000 H 
ATOM    142  H44 UNL A   1      20.285  37.764  48.473  1.00  0.00    +0.000 H 
ATOM    143  H45 UNL A   1      23.330  43.287  49.477  1.00  0.00    +0.000 H 
ATOM    144  H46 UNL A   1      25.060  41.959  48.172  1.00  0.00    +0.000 H 
ATOM    145  H47 UNL A   1      21.703  39.553  48.645  1.00  0.00    +0.000 H 
ATOM    146  H48 UNL A   1      18.311  42.365  51.062  1.00  0.00    +0.000 H 
ATOM    147  H49 UNL A   1      16.795  40.304  51.070  1.00  0.00    +0.000 H 
ATOM    148  H50 UNL A   1      23.633  35.152  45.819  1.00  0.00    +0.000 H 
ATOM    149  H51 UNL A   1      25.342  37.015  46.224  1.00  0.00    +0.000 H 
ATOM     40  C31 UNL A   1      24.252  39.303  47.522  1.00  0.00    +0.000 C 
ATOM     41  C32 UNL A   1      23.574  37.988  47.257  1.00  0.00    +0.000 C 
ATOM     42  N5  UNL A   1      22.359  37.604  47.561  1.00  0.00    +0.000 N 
ATOM     43  C33 UNL A   1      22.231  36.319  47.051  1.00  0.00    +0.000 C 
ATOM     44  C34 UNL A   1      21.188  35.462  47.166  1.00  0.00    +0.000 C 
ATOM     56  C41 UNL A   1      19.965  35.766  47.864  1.00  0.00    +0.000 C 
ATOM     57  C42 UNL A   1      18.868  34.951  48.082  1.00  0.00    +0.000 C 
ATOM     58  C43 UNL A   1      17.899  35.695  48.764  1.00  0.00    +0.000 C 
ATOM     59  C44 UNL A   1      18.412  36.957  49.018  1.00  0.00    +0.000 C 
ATOM     60  N6  UNL A   1      19.679  36.988  48.455  1.00  0.00    +0.000 N 
ATOM     61  C45 UNL A   1      17.793  38.054  49.719  1.00  0.00    +0.000 C 
ATOM     73  C52 UNL A   1      18.370  39.261  49.940  1.00  0.00    +0.000 C 
ATOM     74  N7  UNL A   1      19.631  39.707  49.567  1.00  0.00    +0.000 N 
ATOM     75  C53 UNL A   1      19.720  40.941  49.999  1.00  0.00    +0.000 C 
ATOM     76  C54 UNL A   1      20.873  41.901  49.904  1.00  0.00    +0.000 C 
ATOM     88  C61 UNL A   1      22.007  41.509  49.291  1.00  0.00    +0.000 C 
ATOM     89  C62 UNL A   1      23.208  42.323  49.128  1.00  0.00    +0.000 C 
ATOM     90  C63 UNL A   1      24.125  41.617  48.449  1.00  0.00    +0.000 C 
ATOM     91  C64 UNL A   1      23.591  40.285  48.165  1.00  0.00    +0.000 C 
ATOM     92  N8  UNL A   1      22.324  40.316  48.692  1.00  0.00    +0.000 N 
ATOM     93  C65 UNL A   1      18.507  41.430  50.670  1.00  0.00    +0.000 C 
ATOM     94  C66 UNL A   1      17.733  40.355  50.644  1.00  0.00    +0.000 C 
ATOM     95  C67 UNL A   1      23.466  36.011  46.364  1.00  0.00    +0.000 C 
ATOM     96  C68 UNL A   1      24.357  36.979  46.528  1.00  0.00    +0.000 C 
ENDROOT
BRANCH   40   39
ATOM     97  C69 UNL A   1      25.819  40.257  45.829  1.00  0.00    +0.000 C 
ATOM     98  C70 UNL A   1      27.103  40.464  45.329  1.00  0.00    +0.000 C 
ATOM     36  C27 UNL A   1      28.215  40.066  46.075  1.00  0.00    +0.000 C 
ATOM     37  C28 UNL A   1      28.037  39.342  47.258  1.00  0.00    +0.000 C 
ATOM     38  C29 UNL A   1      26.749  39.066  47.719  1.00  0.00    +0.000 C 
ATOM     39  C30 UNL A   1      25.629  39.547  47.024  1.00  0.00    +0.000 C 
ATOM    138  H40 UNL A   1      28.858  39.013  47.791  1.00  0.00    +0.000 H 
ATOM    139  H41 UNL A   1      26.619  38.505  48.576  1.00  0.00    +0.000 H 
ATOM    150  H52 UNL A   1      25.004  40.628  45.317  1.00  0.00    +0.000 H 
ATOM    151  H53 UNL A   1      27.232  40.912  44.408  1.00  0.00    +0.000 H 
BRANCH   36   34
ATOM     34  C26 UNL A   1      29.594  40.365  45.626  1.00  0.00    +0.000 C 
ATOM     35  O5  UNL A   1      29.899  40.195  44.450  1.00  0.00    +0.000 O 
BRANCH   34   33
ATOM     33  N4  UNL A   1      30.536  40.811  46.518  1.00  0.00    +0.000 N 
ATOM    137  H39 UNL A   1      30.209  41.461  47.180  1.00  0.00    +0.000 H 
BRANCH   33   32
ATOM    136  H38 UNL A   1      32.503  41.378  46.583  1.00  0.00    +0.000 H 
ATOM    135  H37 UNL A   1      32.201  39.801  45.839  1.00  0.00    +0.000 H 
ATOM     32  C25 UNL A   1      31.943  40.469  46.634  1.00  0.00    +0.000 C 
BRANCH   32   31
ATOM    133  H35 UNL A   1      33.169  40.242  48.342  1.00  0.00    +0.000 H 
ATOM    134  H36 UNL A   1      31.420  39.947  48.590  1.00  0.00    +0.000 H 
ATOM     31  C24 UNL A   1      32.273  39.798  47.962  1.00  0.00    +0.000 C 
BRANCH   31   30
ATOM    131  H33 UNL A   1      33.069  38.073  47.022  1.00  0.00    +0.000 H 
ATOM    132  H34 UNL A   1      32.967  38.021  48.815  1.00  0.00    +0.000 H 
ATOM     30  C23 UNL A   1      32.489  38.283  47.895  1.00  0.00    +0.000 C 
BRANCH   30   29
ATOM    129  H31 UNL A   1      30.628  37.650  48.696  1.00  0.00    +0.000 H 
ATOM    130  H32 UNL A   1      30.749  37.673  46.903  1.00  0.00    +0.000 H 
ATOM     29  C22 UNL A   1      31.218  37.424  47.832  1.00  0.00    +0.000 C 
BRANCH   29   28
ATOM     28  C21 UNL A   1      31.428  35.905  47.793  1.00  0.00    +0.000 C 
ATOM    127  H29 UNL A   1      32.437  35.700  48.085  1.00  0.00    +0.000 H 
ATOM    128  H30 UNL A   1      30.706  35.481  48.459  1.00  0.00    +0.000 H 
BRANCH   28   27
ATOM     27  C20 UNL A   1      31.189  35.269  46.431  1.00  0.00    +0.000 C 
ATOM    125  H27 UNL A   1      31.062  34.216  46.565  1.00  0.00    +0.000 H 
ATOM    126  H28 UNL A   1      30.317  35.731  46.015  1.00  0.00    +0.000 H 
BRANCH   27   26
ATOM     26  N3  UNL A   1      32.274  35.485  45.497  1.00  0.00    +0.000 N 
ATOM    124  H26 UNL A   1      33.140  35.045  45.661  1.00  0.00    +0.000 H 
BRANCH   26   24
ATOM     25  O4  UNL A   1      32.240  37.507  44.546  1.00  0.00    +0.000 O 
ATOM     24  C19 UNL A   1      32.132  36.285  44.388  1.00  0.00    +0.000 C 
BRANCH   24   16
ATOM    116  H18 UNL A   1      32.583  36.033  42.350  1.00  0.00    +0.000 H 
ATOM     16  C11 UNL A   1      31.797  35.686  42.988  1.00  0.00    +0.000 C 
BRANCH   16   15
ATOM    115  H17 UNL A   1      31.077  33.736  42.679  1.00  0.00    +0.000 H 
ATOM     15  N2  UNL A   1      31.917  34.223  42.844  1.00  0.00    +0.000 N 
BRANCH   15   13
ATOM     13  C10 UNL A   1      33.051  33.456  42.909  1.00  0.00    +0.000 C 
ATOM     14  O3  UNL A   1      33.099  32.586  43.784  1.00  0.00    +0.000 O 
BRANCH   13   12
ATOM      8  N1  UNL A   1      35.224  32.617  41.935  1.00  0.00    +0.000 N 
ATOM      9  C6  UNL A   1      35.375  31.911  40.682  1.00  0.00    +0.000 C 
ATOM     10  C7  UNL A   1      34.730  32.828  39.659  1.00  0.00    +0.000 C 
ATOM     11  C8  UNL A   1      33.625  33.522  40.449  1.00  0.00    +0.000 C 
ATOM     12  C9  UNL A   1      34.187  33.646  41.879  1.00  0.00    +0.000 C 
ATOM    108  H10 UNL A   1      34.873  30.967  40.715  1.00  0.00    +0.000 H 
ATOM    109  H11 UNL A   1      36.397  31.695  40.452  1.00  0.00    +0.000 H 
ATOM    110  H12 UNL A   1      34.323  32.266  38.845  1.00  0.00    +0.000 H 
ATOM    111  H13 UNL A   1      35.424  33.515  39.222  1.00  0.00    +0.000 H 
ATOM    112  H14 UNL A   1      32.731  32.934  40.444  1.00  0.00    +0.000 H 
ATOM    114  H16 UNL A   1      34.599  34.604  42.114  1.00  0.00    +0.000 H 
ATOM    113  H15 UNL A   1      33.364  34.472  40.032  1.00  0.00    +0.000 H 
BRANCH    8    6
ATOM      6  C5  UNL A   1      36.065  32.548  43.012  1.00  0.00    +0.000 C 
ATOM      7  O2  UNL A   1      36.281  33.513  43.722  1.00  0.00    +0.000 O 
BRANCH    6    5
ATOM      1  C1  UNL A   1      38.490  29.816  42.978  1.00  0.00    +0.000 C 
ATOM      2  C2  UNL A   1      38.136  31.303  43.113  1.00  0.00    +0.000 C 
ATOM     99  H1  UNL A   1      39.553  29.703  42.943  1.00  0.00    +0.000 H 
ATOM    100  H2  UNL A   1      38.060  29.427  42.078  1.00  0.00    +0.000 H 
ATOM    101  H3  UNL A   1      38.102  29.278  43.818  1.00  0.00    +0.000 H 
ATOM      3  C3  UNL A   1      38.702  31.840  44.431  1.00  0.00    +0.000 C 
ATOM      4  C4  UNL A   1      38.744  32.031  41.899  1.00  0.00    +0.000 C 
ATOM      5  O1  UNL A   1      36.682  31.347  43.152  1.00  0.00    +0.000 O 
ATOM    102  H4  UNL A   1      39.771  31.806  44.401  1.00  0.00    +0.000 H 
ATOM    103  H5  UNL A   1      38.349  31.238  45.242  1.00  0.00    +0.000 H 
ATOM    104  H6  UNL A   1      38.381  32.851  44.572  1.00  0.00    +0.000 H 
ATOM    105  H7  UNL A   1      39.811  31.956  41.937  1.00  0.00    +0.000 H 
ATOM    106  H8  UNL A   1      38.457  33.061  41.920  1.00  0.00    +0.000 H 
ATOM    107  H9  UNL A   1      38.387  31.578  40.997  1.00  0.00    +0.000 H 
ENDBRANCH    6    5
ENDBRANCH    8    6
ENDBRANCH   13   12
ENDBRANCH   15   13
ENDBRANCH   16   15
BRANCH   16   17
ATOM     17  C12 UNL A   1      30.444  36.230  42.480  1.00  0.00    +0.000 C 
ATOM    117  H19 UNL A   1      30.280  35.834  41.499  1.00  0.00    +0.000 H 
ATOM    118  H20 UNL A   1      30.530  37.296  42.511  1.00  0.00    +0.000 H 
BRANCH   17   18
ATOM     18  C13 UNL A   1      29.237  35.892  43.324  1.00  0.00    +0.000 C 
ATOM     19  C14 UNL A   1      28.547  34.688  43.125  1.00  0.00    +0.000 C 
ATOM     20  C15 UNL A   1      27.387  34.405  43.847  1.00  0.00    +0.000 C 
ATOM     21  C16 UNL A   1      26.925  35.308  44.801  1.00  0.00    +0.000 C 
ATOM     22  C17 UNL A   1      27.629  36.488  45.040  1.00  0.00    +0.000 C 
ATOM     23  C18 UNL A   1      28.779  36.782  44.304  1.00  0.00    +0.000 C 
ATOM    119  H21 UNL A   1      28.900  34.004  42.437  1.00  0.00    +0.000 H 
ATOM    120  H22 UNL A   1      26.873  33.527  43.675  1.00  0.00    +0.000 H 
ATOM    122  H24 UNL A   1      27.299  37.146  45.763  1.00  0.00    +0.000 H 
ATOM    123  H25 UNL A   1      29.291  37.659  44.481  1.00  0.00    +0.000 H 
ATOM    121  H23 UNL A   1      26.062  35.106  45.330  1.00  0.00    +0.000 H 
ENDBRANCH   17   18
ENDBRANCH   16   17
ENDBRANCH   24   16
ENDBRANCH   26   24
ENDBRANCH   27   26
ENDBRANCH   28   27
ENDBRANCH   29   28
ENDBRANCH   30   29
ENDBRANCH   31   30
ENDBRANCH   32   31
ENDBRANCH   33   32
ENDBRANCH   34   33
ENDBRANCH   36   34
ENDBRANCH   40   39
BRANCH   44   45
ATOM     45  C35 UNL A   1      21.328  34.114  46.517  1.00  0.00    +0.000 C 
ATOM     46  C36 UNL A   1      20.869  33.873  45.212  1.00  0.00    +0.000 C 
ATOM     47  F1  UNL A   1      20.274  34.853  44.515  1.00  0.00    +0.000 F 
ATOM     48  C37 UNL A   1      20.971  32.610  44.636  1.00  0.00    +0.000 C 
ATOM     49  F2  UNL A   1      20.468  32.390  43.414  1.00  0.00    +0.000 F 
ATOM     50  C38 UNL A   1      21.572  31.574  45.334  1.00  0.00    +0.000 C 
ATOM     51  F3  UNL A   1      21.669  30.358  44.779  1.00  0.00    +0.000 F 
ATOM     52  C39 UNL A   1      22.064  31.796  46.612  1.00  0.00    +0.000 C 
ATOM     53  F4  UNL A   1      22.657  30.799  47.281  1.00  0.00    +0.000 F 
ATOM     54  C40 UNL A   1      21.932  33.050  47.204  1.00  0.00    +0.000 C 
ATOM     55  F5  UNL A   1      22.396  33.225  48.451  1.00  0.00    +0.000 F 
ENDBRANCH   44   45
BRANCH   61   62
ATOM     65  C48 UNL A   1      14.018  37.567  49.977  1.00  0.00    +0.000 C 
ATOM     66  F7  UNL A   1      12.947  37.562  49.170  1.00  0.00    +0.000 F 
ATOM     67  C49 UNL A   1      13.857  37.379  51.341  1.00  0.00    +0.000 C 
ATOM     68  F8  UNL A   1      12.635  37.168  51.851  1.00  0.00    +0.000 F 
ATOM     69  C50 UNL A   1      14.961  37.415  52.178  1.00  0.00    +0.000 C 
ATOM     70  F9  UNL A   1      14.810  37.219  53.495  1.00  0.00    +0.000 F 
ATOM     71  C51 UNL A   1      16.227  37.656  51.654  1.00  0.00    +0.000 C 
ATOM     72  F10 UNL A   1      17.275  37.701  52.490  1.00  0.00    +0.000 F 
ATOM     62  C46 UNL A   1      16.416  37.840  50.275  1.00  0.00    +0.000 C 
ATOM     63  C47 UNL A   1      15.286  37.779  49.444  1.00  0.00    +0.000 C 
ATOM     64  F6  UNL A   1      15.411  37.964  48.121  1.00  0.00    +0.000 F 
ENDBRANCH   61   62
BRANCH   76   77
ATOM     77  C55 UNL A   1      20.793  43.255  50.509  1.00  0.00    +0.000 C 
ATOM     78  C56 UNL A   1      20.344  44.349  49.757  1.00  0.00    +0.000 C 
ATOM     79  F11 UNL A   1      20.013  44.184  48.468  1.00  0.00    +0.000 F 
ATOM     80  C57 UNL A   1      20.267  45.625  50.313  1.00  0.00    +0.000 C 
ATOM     81  F12 UNL A   1      19.871  46.659  49.561  1.00  0.00    +0.000 F 
ATOM     82  C58 UNL A   1      20.611  45.824  51.643  1.00  0.00    +0.000 C 
ATOM     83  F13 UNL A   1      20.529  47.049  52.180  1.00  0.00    +0.000 F 
ATOM     84  C59 UNL A   1      21.046  44.755  52.410  1.00  0.00    +0.000 C 
ATOM     85  F14 UNL A   1      21.365  44.942  53.698  1.00  0.00    +0.000 F 
ATOM     86  C60 UNL A   1      21.149  43.485  51.847  1.00  0.00    +0.000 C 
ATOM     87  F15 UNL A   1      21.580  42.470  52.610  1.00  0.00    +0.000 F 
ENDBRANCH   76   77
TORSDOF 22
ENDMDL
MODEL 8
REMARK VINA RESULT:      -8.1     54.937     63.764
ROOT
ATOM    140  H42 UNL A   1      23.874  24.252  59.952  1.00  0.00    +0.000 H 
ATOM    141  H43 UNL A   1      25.464  22.414  60.895  1.00  0.00    +0.000 H 
ATOM    142  H44 UNL A   1      27.350  24.250  57.700  1.00  0.00    +0.000 H 
ATOM    143  H45 UNL A   1      32.270  24.569  53.641  1.00  0.00    +0.000 H 
ATOM    144  H46 UNL A   1      30.764  26.431  52.793  1.00  0.00    +0.000 H 
ATOM    145  H47 UNL A   1      28.886  24.663  56.052  1.00  0.00    +0.000 H 
ATOM    146  H48 UNL A   1      32.054  21.144  57.736  1.00  0.00    +0.000 H 
ATOM    147  H49 UNL A   1      30.255  20.524  59.448  1.00  0.00    +0.000 H 
ATOM    148  H50 UNL A   1      24.400  27.972  56.114  1.00  0.00    +0.000 H 
ATOM    149  H51 UNL A   1      25.950  28.285  54.100  1.00  0.00    +0.000 H 
ATOM     40  C31 UNL A   1      28.305  26.687  54.213  1.00  0.00    +0.000 C 
ATOM     41  C32 UNL A   1      27.128  26.654  55.147  1.00  0.00    +0.000 C 
ATOM     42  N5  UNL A   1      26.921  25.897  56.195  1.00  0.00    +0.000 N 
ATOM     43  C33 UNL A   1      25.701  26.303  56.719  1.00  0.00    +0.000 C 
ATOM     44  C34 UNL A   1      25.011  25.782  57.763  1.00  0.00    +0.000 C 
ATOM     56  C41 UNL A   1      25.462  24.666  58.553  1.00  0.00    +0.000 C 
ATOM     57  C42 UNL A   1      24.817  24.029  59.598  1.00  0.00    +0.000 C 
ATOM     58  C43 UNL A   1      25.664  23.031  60.092  1.00  0.00    +0.000 C 
ATOM     59  C44 UNL A   1      26.815  23.010  59.321  1.00  0.00    +0.000 C 
ATOM     60  N6  UNL A   1      26.680  24.022  58.384  1.00  0.00    +0.000 N 
ATOM     61  C45 UNL A   1      27.954  22.134  59.432  1.00  0.00    +0.000 C 
ATOM     73  C52 UNL A   1      29.044  22.168  58.625  1.00  0.00    +0.000 C 
ATOM     74  N7  UNL A   1      29.308  23.008  57.551  1.00  0.00    +0.000 N 
ATOM     75  C53 UNL A   1      30.489  22.657  57.102  1.00  0.00    +0.000 C 
ATOM     76  C54 UNL A   1      31.262  23.204  55.934  1.00  0.00    +0.000 C 
ATOM     88  C61 UNL A   1      30.732  24.206  55.206  1.00  0.00    +0.000 C 
ATOM     89  C62 UNL A   1      31.358  24.833  54.045  1.00  0.00    +0.000 C 
ATOM     90  C63 UNL A   1      30.557  25.809  53.590  1.00  0.00    +0.000 C 
ATOM     91  C64 UNL A   1      29.341  25.848  54.403  1.00  0.00    +0.000 C 
ATOM     92  N8  UNL A   1      29.539  24.869  55.345  1.00  0.00    +0.000 N 
ATOM     93  C65 UNL A   1      31.122  21.571  57.863  1.00  0.00    +0.000 C 
ATOM     94  C66 UNL A   1      30.183  21.283  58.752  1.00  0.00    +0.000 C 
ATOM     95  C67 UNL A   1      25.243  27.414  55.913  1.00  0.00    +0.000 C 
ATOM     96  C68 UNL A   1      26.051  27.620  54.883  1.00  0.00    +0.000 C 
ENDROOT
BRANCH   40   39
ATOM     97  C69 UNL A   1      28.927  28.947  53.351  1.00  0.00    +0.000 C 
ATOM     98  C70 UNL A   1      28.955  29.907  52.343  1.00  0.00    +0.000 C 
ATOM     36  C27 UNL A   1      28.520  29.580  51.056  1.00  0.00    +0.000 C 
ATOM     37  C28 UNL A   1      27.936  28.333  50.813  1.00  0.00    +0.000 C 
ATOM     38  C29 UNL A   1      27.837  27.398  51.845  1.00  0.00    +0.000 C 
ATOM     39  C30 UNL A   1      28.359  27.686  53.115  1.00  0.00    +0.000 C 
ATOM    138  H40 UNL A   1      27.579  28.104  49.872  1.00  0.00    +0.000 H 
ATOM    139  H41 UNL A   1      27.378  26.490  51.673  1.00  0.00    +0.000 H 
ATOM    150  H52 UNL A   1      29.328  29.164  54.277  1.00  0.00    +0.000 H 
ATOM    151  H53 UNL A   1      29.296  30.860  52.545  1.00  0.00    +0.000 H 
BRANCH   36   34
ATOM     34  C26 UNL A   1      28.634  30.540  49.934  1.00  0.00    +0.000 C 
ATOM     35  O5  UNL A   1      28.696  31.743  50.170  1.00  0.00    +0.000 O 
BRANCH   34   33
ATOM     33  N4  UNL A   1      28.650  30.097  48.636  1.00  0.00    +0.000 N 
ATOM    137  H39 UNL A   1      29.334  29.419  48.435  1.00  0.00    +0.000 H 
BRANCH   33   32
ATOM    136  H38 UNL A   1      28.447  30.605  46.661  1.00  0.00    +0.000 H 
ATOM    135  H37 UNL A   1      27.296  31.382  47.759  1.00  0.00    +0.000 H 
ATOM     32  C25 UNL A   1      27.811  30.477  47.512  1.00  0.00    +0.000 C 
BRANCH   32   31
ATOM    133  H35 UNL A   1      27.239  28.722  46.481  1.00  0.00    +0.000 H 
ATOM    134  H36 UNL A   1      26.493  28.963  48.092  1.00  0.00    +0.000 H 
ATOM     31  C24 UNL A   1      26.783  29.409  47.164  1.00  0.00    +0.000 C 
BRANCH   31   30
ATOM    131  H33 UNL A   1      25.182  30.794  47.065  1.00  0.00    +0.000 H 
ATOM    132  H34 UNL A   1      25.735  30.111  45.497  1.00  0.00    +0.000 H 
ATOM     30  C23 UNL A   1      25.492  29.926  46.523  1.00  0.00    +0.000 C 
BRANCH   30   29
ATOM    129  H31 UNL A   1      24.272  28.510  45.517  1.00  0.00    +0.000 H 
ATOM    130  H32 UNL A   1      24.505  28.242  47.280  1.00  0.00    +0.000 H 
ATOM     29  C22 UNL A   1      24.313  28.943  46.495  1.00  0.00    +0.000 C 
BRANCH   29   28
ATOM     28  C21 UNL A   1      22.931  29.535  46.803  1.00  0.00    +0.000 C 
ATOM    127  H29 UNL A   1      22.204  29.007  46.222  1.00  0.00    +0.000 H 
ATOM    128  H30 UNL A   1      22.782  29.427  47.857  1.00  0.00    +0.000 H 
BRANCH   28   27
ATOM     27  C20 UNL A   1      22.797  31.020  46.496  1.00  0.00    +0.000 C 
ATOM    125  H27 UNL A   1      21.950  31.401  47.025  1.00  0.00    +0.000 H 
ATOM    126  H28 UNL A   1      23.709  31.490  46.802  1.00  0.00    +0.000 H 
BRANCH   27   26
ATOM     26  N3  UNL A   1      22.623  31.302  45.086  1.00  0.00    +0.000 N 
ATOM    124  H26 UNL A   1      23.392  31.198  44.480  1.00  0.00    +0.000 H 
BRANCH   26   24
ATOM     25  O4  UNL A   1      21.429  32.288  43.474  1.00  0.00    +0.000 O 
ATOM     24  C19 UNL A   1      21.416  31.712  44.569  1.00  0.00    +0.000 C 
BRANCH   24   16
ATOM    116  H18 UNL A   1      20.382  31.086  46.288  1.00  0.00    +0.000 H 
ATOM     16  C11 UNL A   1      20.084  31.510  45.352  1.00  0.00    +0.000 C 
BRANCH   16   15
ATOM    115  H17 UNL A   1      18.390  32.676  45.787  1.00  0.00    +0.000 H 
ATOM     15  N2  UNL A   1      19.374  32.728  45.785  1.00  0.00    +0.000 N 
BRANCH   15   13
ATOM     13  C10 UNL A   1      19.911  33.923  46.186  1.00  0.00    +0.000 C 
ATOM     14  O3  UNL A   1      20.526  33.938  47.257  1.00  0.00    +0.000 O 
BRANCH   13   12
ATOM      8  N1  UNL A   1      19.472  36.404  46.013  1.00  0.00    +0.000 N 
ATOM      9  C6  UNL A   1      20.474  37.432  45.842  1.00  0.00    +0.000 C 
ATOM     10  C7  UNL A   1      21.235  37.006  44.600  1.00  0.00    +0.000 C 
ATOM     11  C8  UNL A   1      21.162  35.483  44.642  1.00  0.00    +0.000 C 
ATOM     12  C9  UNL A   1      19.798  35.176  45.289  1.00  0.00    +0.000 C 
ATOM    108  H10 UNL A   1      21.125  37.473  46.691  1.00  0.00    +0.000 H 
ATOM    109  H11 UNL A   1      20.048  38.409  45.747  1.00  0.00    +0.000 H 
ATOM    110  H12 UNL A   1      22.250  37.342  44.640  1.00  0.00    +0.000 H 
ATOM    111  H13 UNL A   1      20.827  37.418  43.701  1.00  0.00    +0.000 H 
ATOM    112  H14 UNL A   1      21.960  35.084  45.233  1.00  0.00    +0.000 H 
ATOM    114  H16 UNL A   1      19.021  34.934  44.595  1.00  0.00    +0.000 H 
ATOM    113  H15 UNL A   1      21.258  35.046  43.670  1.00  0.00    +0.000 H 
BRANCH    8    6
ATOM      6  C5  UNL A   1      18.235  36.560  46.575  1.00  0.00    +0.000 C 
ATOM      7  O2  UNL A   1      17.247  36.014  46.119  1.00  0.00    +0.000 O 
BRANCH    6    5
ATOM      1  C1  UNL A   1      17.648  38.170  49.802  1.00  0.00    +0.000 C 
ATOM      2  C2  UNL A   1      17.907  36.924  48.943  1.00  0.00    +0.000 C 
ATOM     99  H1  UNL A   1      17.416  37.872  50.803  1.00  0.00    +0.000 H 
ATOM    100  H2  UNL A   1      16.825  38.720  49.394  1.00  0.00    +0.000 H 
ATOM    101  H3  UNL A   1      18.521  38.788  49.807  1.00  0.00    +0.000 H 
ATOM      3  C3  UNL A   1      19.121  36.172  49.496  1.00  0.00    +0.000 C 
ATOM      4  C4  UNL A   1      16.634  36.058  48.998  1.00  0.00    +0.000 C 
ATOM      5  O1  UNL A   1      18.210  37.433  47.614  1.00  0.00    +0.000 O 
ATOM    102  H4  UNL A   1      18.896  35.799  50.474  1.00  0.00    +0.000 H 
ATOM    103  H5  UNL A   1      19.957  36.837  49.552  1.00  0.00    +0.000 H 
ATOM    104  H6  UNL A   1      19.360  35.355  48.849  1.00  0.00    +0.000 H 
ATOM    105  H7  UNL A   1      16.474  35.721  50.001  1.00  0.00    +0.000 H 
ATOM    106  H8  UNL A   1      16.749  35.213  48.352  1.00  0.00    +0.000 H 
ATOM    107  H9  UNL A   1      15.793  36.640  48.679  1.00  0.00    +0.000 H 
ENDBRANCH    6    5
ENDBRANCH    8    6
ENDBRANCH   13   12
ENDBRANCH   15   13
ENDBRANCH   16   15
BRANCH   16   17
ATOM     17  C12 UNL A   1      19.167  30.515  44.606  1.00  0.00    +0.000 C 
ATOM    117  H19 UNL A   1      18.809  29.802  45.320  1.00  0.00    +0.000 H 
ATOM    118  H20 UNL A   1      19.770  30.091  43.831  1.00  0.00    +0.000 H 
BRANCH   17   18
ATOM     18  C13 UNL A   1      17.969  31.116  43.909  1.00  0.00    +0.000 C 
ATOM     19  C14 UNL A   1      18.093  31.644  42.615  1.00  0.00    +0.000 C 
ATOM     20  C15 UNL A   1      17.011  32.270  41.996  1.00  0.00    +0.000 C 
ATOM     21  C16 UNL A   1      15.783  32.345  42.651  1.00  0.00    +0.000 C 
ATOM     22  C17 UNL A   1      15.636  31.782  43.919  1.00  0.00    +0.000 C 
ATOM     23  C18 UNL A   1      16.724  31.173  44.547  1.00  0.00    +0.000 C 
ATOM    119  H21 UNL A   1      18.994  31.569  42.116  1.00  0.00    +0.000 H 
ATOM    120  H22 UNL A   1      17.119  32.678  41.055  1.00  0.00    +0.000 H 
ATOM    122  H24 UNL A   1      14.721  31.816  44.393  1.00  0.00    +0.000 H 
ATOM    123  H25 UNL A   1      16.610  30.764  45.487  1.00  0.00    +0.000 H 
ATOM    121  H23 UNL A   1      14.984  32.815  42.199  1.00  0.00    +0.000 H 
ENDBRANCH   17   18
ENDBRANCH   16   17
ENDBRANCH   24   16
ENDBRANCH   26   24
ENDBRANCH   27   26
ENDBRANCH   28   27
ENDBRANCH   29   28
ENDBRANCH   30   29
ENDBRANCH   31   30
ENDBRANCH   32   31
ENDBRANCH   33   32
ENDBRANCH   34   33
ENDBRANCH   36   34
ENDBRANCH   40   39
BRANCH   44   45
ATOM     45  C35 UNL A   1      23.695  26.420  58.106  1.00  0.00    +0.000 C 
ATOM     46  C36 UNL A   1      23.572  27.326  59.172  1.00  0.00    +0.000 C 
ATOM     47  F1  UNL A   1      24.641  27.633  59.924  1.00  0.00    +0.000 F 
ATOM     48  C37 UNL A   1      22.340  27.883  59.505  1.00  0.00    +0.000 C 
ATOM     49  F2  UNL A   1      22.237  28.694  60.566  1.00  0.00    +0.000 F 
ATOM     50  C38 UNL A   1      21.215  27.578  58.753  1.00  0.00    +0.000 C 
ATOM     51  F3  UNL A   1      20.029  28.114  59.075  1.00  0.00    +0.000 F 
ATOM     52  C39 UNL A   1      21.318  26.712  57.675  1.00  0.00    +0.000 C 
ATOM     53  F4  UNL A   1      20.234  26.429  56.941  1.00  0.00    +0.000 F 
ATOM     54  C40 UNL A   1      22.542  26.128  57.361  1.00  0.00    +0.000 C 
ATOM     55  F5  UNL A   1      22.602  25.275  56.328  1.00  0.00    +0.000 F 
ENDBRANCH   44   45
BRANCH   61   62
ATOM     65  C48 UNL A   1      28.196  20.396  62.821  1.00  0.00    +0.000 C 
ATOM     66  F7  UNL A   1      28.545  20.693  64.080  1.00  0.00    +0.000 F 
ATOM     67  C49 UNL A   1      27.807  19.105  62.496  1.00  0.00    +0.000 C 
ATOM     68  F8  UNL A   1      27.760  18.159  63.445  1.00  0.00    +0.000 F 
ATOM     69  C50 UNL A   1      27.476  18.792  61.187  1.00  0.00    +0.000 C 
ATOM     70  F9  UNL A   1      27.087  17.549  60.874  1.00  0.00    +0.000 F 
ATOM     71  C51 UNL A   1      27.547  19.767  60.196  1.00  0.00    +0.000 C 
ATOM     72  F10 UNL A   1      27.234  19.431  58.936  1.00  0.00    +0.000 F 
ATOM     62  C46 UNL A   1      27.927  21.083  60.504  1.00  0.00    +0.000 C 
ATOM     63  C47 UNL A   1      28.239  21.382  61.838  1.00  0.00    +0.000 C 
ATOM     64  F6  UNL A   1      28.623  22.621  62.180  1.00  0.00    +0.000 F 
ENDBRANCH   61   62
BRANCH   76   77
ATOM     77  C55 UNL A   1      32.577  22.629  55.551  1.00  0.00    +0.000 C 
ATOM     78  C56 UNL A   1      32.648  21.455  54.789  1.00  0.00    +0.000 C 
ATOM     79  F11 UNL A   1      31.522  20.824  54.425  1.00  0.00    +0.000 F 
ATOM     80  C57 UNL A   1      33.876  20.905  54.425  1.00  0.00    +0.000 C 
ATOM     81  F12 UNL A   1      33.915  19.762  53.728  1.00  0.00    +0.000 F 
ATOM     82  C58 UNL A   1      35.056  21.534  54.795  1.00  0.00    +0.000 C 
ATOM     83  F13 UNL A   1      36.236  21.009  54.438  1.00  0.00    +0.000 F 
ATOM     84  C59 UNL A   1      35.010  22.703  55.538  1.00  0.00    +0.000 C 
ATOM     85  F14 UNL A   1      36.147  23.320  55.884  1.00  0.00    +0.000 F 
ATOM     86  C60 UNL A   1      33.783  23.239  55.925  1.00  0.00    +0.000 C 
ATOM     87  F15 UNL A   1      33.769  24.367  56.651  1.00  0.00    +0.000 F 
ENDBRANCH   76   77
TORSDOF 22
ENDMDL
MODEL 9
REMARK VINA RESULT:      -8.1     45.211     52.132
ROOT
ATOM    140  H42 UNL A   1       3.307  -3.001  35.351  1.00  0.00    +0.000 H 
ATOM    141  H43 UNL A   1       4.518  -5.254  35.852  1.00  0.00    +0.000 H 
ATOM    142  H44 UNL A   1       4.576  -4.628  31.759  1.00  0.00    +0.000 H 
ATOM    143  H45 UNL A   1       5.949  -6.707  25.879  1.00  0.00    +0.000 H 
ATOM    144  H46 UNL A   1       4.864  -4.459  25.405  1.00  0.00    +0.000 H 
ATOM    145  H47 UNL A   1       4.870  -5.023  29.524  1.00  0.00    +0.000 H 
ATOM    146  H48 UNL A   1       7.210  -9.398  30.320  1.00  0.00    +0.000 H 
ATOM    147  H49 UNL A   1       6.696  -9.076  32.806  1.00  0.00    +0.000 H 
ATOM    148  H50 UNL A   1       2.517  -0.151  30.867  1.00  0.00    +0.000 H 
ATOM    149  H51 UNL A   1       2.576  -0.672  28.361  1.00  0.00    +0.000 H 
ATOM     40  C31 UNL A   1       3.939  -3.091  27.729  1.00  0.00    +0.000 C 
ATOM     41  C32 UNL A   1       3.601  -2.557  29.093  1.00  0.00    +0.000 C 
ATOM     42  N5  UNL A   1       3.845  -3.075  30.271  1.00  0.00    +0.000 N 
ATOM     43  C33 UNL A   1       3.361  -2.158  31.194  1.00  0.00    +0.000 C 
ATOM     44  C34 UNL A   1       3.310  -2.261  32.544  1.00  0.00    +0.000 C 
ATOM     56  C41 UNL A   1       3.789  -3.398  33.287  1.00  0.00    +0.000 C 
ATOM     57  C42 UNL A   1       3.738  -3.624  34.651  1.00  0.00    +0.000 C 
ATOM     58  C43 UNL A   1       4.373  -4.842  34.917  1.00  0.00    +0.000 C 
ATOM     59  C44 UNL A   1       4.772  -5.401  33.713  1.00  0.00    +0.000 C 
ATOM     60  N6  UNL A   1       4.413  -4.501  32.722  1.00  0.00    +0.000 N 
ATOM     61  C45 UNL A   1       5.435  -6.660  33.484  1.00  0.00    +0.000 C 
ATOM     73  C52 UNL A   1       5.783  -7.147  32.267  1.00  0.00    +0.000 C 
ATOM     74  N7  UNL A   1       5.590  -6.581  31.014  1.00  0.00    +0.000 N 
ATOM     75  C53 UNL A   1       6.106  -7.425  30.153  1.00  0.00    +0.000 C 
ATOM     76  C54 UNL A   1       6.153  -7.343  28.653  1.00  0.00    +0.000 C 
ATOM     88  C61 UNL A   1       5.618  -6.272  28.035  1.00  0.00    +0.000 C 
ATOM     89  C62 UNL A   1       5.583  -6.056  26.591  1.00  0.00    +0.000 C 
ATOM     90  C63 UNL A   1       4.999  -4.874  26.341  1.00  0.00    +0.000 C 
ATOM     91  C64 UNL A   1       4.581  -4.268  27.606  1.00  0.00    +0.000 C 
ATOM     92  N8  UNL A   1       5.001  -5.163  28.558  1.00  0.00    +0.000 N 
ATOM     93  C65 UNL A   1       6.713  -8.613  30.769  1.00  0.00    +0.000 C 
ATOM     94  C66 UNL A   1       6.452  -8.414  32.053  1.00  0.00    +0.000 C 
ATOM     95  C67 UNL A   1       2.866  -1.024  30.444  1.00  0.00    +0.000 C 
ATOM     96  C68 UNL A   1       2.921  -1.255  29.140  1.00  0.00    +0.000 C 
ENDROOT
BRANCH   40   39
ATOM     97  C69 UNL A   1       4.581  -1.417  25.991  1.00  0.00    +0.000 C 
ATOM     98  C70 UNL A   1       4.288  -0.638  24.875  1.00  0.00    +0.000 C 
ATOM     36  C27 UNL A   1       3.075  -0.811  24.203  1.00  0.00    +0.000 C 
ATOM     37  C28 UNL A   1       2.104  -1.670  24.727  1.00  0.00    +0.000 C 
ATOM     38  C29 UNL A   1       2.369  -2.393  25.891  1.00  0.00    +0.000 C 
ATOM     39  C30 UNL A   1       3.622  -2.295  26.516  1.00  0.00    +0.000 C 
ATOM    138  H40 UNL A   1       1.193  -1.769  24.253  1.00  0.00    +0.000 H 
ATOM    139  H41 UNL A   1       1.640  -3.003  26.294  1.00  0.00    +0.000 H 
ATOM    150  H52 UNL A   1       5.511  -1.348  26.434  1.00  0.00    +0.000 H 
ATOM    151  H53 UNL A   1       4.965   0.067  24.544  1.00  0.00    +0.000 H 
BRANCH   36   34
ATOM     34  C26 UNL A   1       2.773  -0.077  22.952  1.00  0.00    +0.000 C 
ATOM     35  O5  UNL A   1       2.389  -0.696  21.964  1.00  0.00    +0.000 O 
BRANCH   34   33
ATOM     33  N4  UNL A   1       2.937   1.283  22.885  1.00  0.00    +0.000 N 
ATOM    137  H39 UNL A   1       3.841   1.582  22.635  1.00  0.00    +0.000 H 
BRANCH   33   32
ATOM    136  H38 UNL A   1       1.048   2.051  22.695  1.00  0.00    +0.000 H 
ATOM    135  H37 UNL A   1       2.350   3.250  22.683  1.00  0.00    +0.000 H 
ATOM     32  C25 UNL A   1       1.980   2.349  23.126  1.00  0.00    +0.000 C 
BRANCH   32   31
ATOM    133  H35 UNL A   1       1.184   3.503  24.709  1.00  0.00    +0.000 H 
ATOM    134  H36 UNL A   1       1.230   1.732  24.977  1.00  0.00    +0.000 H 
ATOM     31  C24 UNL A   1       1.744   2.596  24.611  1.00  0.00    +0.000 C 
BRANCH   31   30
ATOM    131  H33 UNL A   1       2.708   2.821  26.484  1.00  0.00    +0.000 H 
ATOM    132  H34 UNL A   1       3.589   1.853  25.254  1.00  0.00    +0.000 H 
ATOM     30  C23 UNL A   1       3.009   2.728  25.463  1.00  0.00    +0.000 C 
BRANCH   30   29
ATOM    129  H31 UNL A   1       4.064   3.936  24.072  1.00  0.00    +0.000 H 
ATOM    130  H32 UNL A   1       3.427   4.779  25.527  1.00  0.00    +0.000 H 
ATOM     29  C22 UNL A   1       3.923   3.917  25.133  1.00  0.00    +0.000 C 
BRANCH   29   28
ATOM     28  C21 UNL A   1       5.310   3.906  25.788  1.00  0.00    +0.000 C 
ATOM    127  H29 UNL A   1       5.865   4.739  25.408  1.00  0.00    +0.000 H 
ATOM    128  H30 UNL A   1       5.148   3.958  26.845  1.00  0.00    +0.000 H 
BRANCH   28   27
ATOM     27  C20 UNL A   1       6.119   2.641  25.535  1.00  0.00    +0.000 C 
ATOM    125  H27 UNL A   1       6.053   2.017  26.401  1.00  0.00    +0.000 H 
ATOM    126  H28 UNL A   1       5.708   2.171  24.666  1.00  0.00    +0.000 H 
BRANCH   27   26
ATOM     26  N3  UNL A   1       7.518   2.899  25.261  1.00  0.00    +0.000 N 
ATOM    124  H26 UNL A   1       7.761   3.396  24.447  1.00  0.00    +0.000 H 
BRANCH   26   24
ATOM     25  O4  UNL A   1       8.430   2.777  27.297  1.00  0.00    +0.000 O 
ATOM     24  C19 UNL A   1       8.516   2.469  26.103  1.00  0.00    +0.000 C 
BRANCH   24   16
ATOM    116  H18 UNL A   1       9.340   0.716  25.287  1.00  0.00    +0.000 H 
ATOM     16  C11 UNL A   1       9.742   1.666  25.570  1.00  0.00    +0.000 C 
BRANCH   16   15
ATOM    115  H17 UNL A   1      10.460   3.101  24.213  1.00  0.00    +0.000 H 
ATOM     15  N2  UNL A   1      10.340   2.128  24.303  1.00  0.00    +0.000 N 
BRANCH   15   13
ATOM     13  C10 UNL A   1      10.752   1.372  23.237  1.00  0.00    +0.000 C 
ATOM     14  O3  UNL A   1      11.963   1.338  22.999  1.00  0.00    +0.000 O 
BRANCH   13   12
ATOM      8  N1  UNL A   1       9.137  -0.568  23.147  1.00  0.00    +0.000 N 
ATOM      9  C6  UNL A   1       7.697  -0.476  23.226  1.00  0.00    +0.000 C 
ATOM     10  C7  UNL A   1       7.325   0.491  22.117  1.00  0.00    +0.000 C 
ATOM     11  C8  UNL A   1       8.524   1.432  22.047  1.00  0.00    +0.000 C 
ATOM     12  C9  UNL A   1       9.733   0.550  22.416  1.00  0.00    +0.000 C 
ATOM    108  H10 UNL A   1       7.392  -0.096  24.179  1.00  0.00    +0.000 H 
ATOM    109  H11 UNL A   1       7.218  -1.427  23.119  1.00  0.00    +0.000 H 
ATOM    110  H12 UNL A   1       6.432   1.027  22.361  1.00  0.00    +0.000 H 
ATOM    111  H13 UNL A   1       7.126   0.000  21.187  1.00  0.00    +0.000 H 
ATOM    112  H14 UNL A   1       8.414   2.235  22.746  1.00  0.00    +0.000 H 
ATOM    114  H16 UNL A   1      10.294   0.193  21.580  1.00  0.00    +0.000 H 
ATOM    113  H15 UNL A   1       8.629   1.883  21.083  1.00  0.00    +0.000 H 
BRANCH    8    6
ATOM      6  C5  UNL A   1       9.903  -1.650  23.485  1.00  0.00    +0.000 C 
ATOM      7  O2  UNL A   1      10.779  -2.073  22.753  1.00  0.00    +0.000 O 
BRANCH    6    5
ATOM      1  C1  UNL A   1       8.527  -3.916  25.999  1.00  0.00    +0.000 C 
ATOM      2  C2  UNL A   1       9.183  -3.651  24.637  1.00  0.00    +0.000 C 
ATOM     99  H1  UNL A   1       8.238  -4.944  26.063  1.00  0.00    +0.000 H 
ATOM    100  H2  UNL A   1       7.661  -3.295  26.105  1.00  0.00    +0.000 H 
ATOM    101  H3  UNL A   1       9.223  -3.693  26.780  1.00  0.00    +0.000 H 
ATOM      3  C3  UNL A   1      10.454  -4.497  24.514  1.00  0.00    +0.000 C 
ATOM      4  C4  UNL A   1       8.152  -4.020  23.553  1.00  0.00    +0.000 C 
ATOM      5  O1  UNL A   1       9.535  -2.239  24.651  1.00  0.00    +0.000 O 
ATOM    102  H4  UNL A   1      10.192  -5.536  24.505  1.00  0.00    +0.000 H 
ATOM    103  H5  UNL A   1      11.096  -4.300  25.347  1.00  0.00    +0.000 H 
ATOM    104  H6  UNL A   1      10.961  -4.249  23.606  1.00  0.00    +0.000 H 
ATOM    105  H7  UNL A   1       7.942  -5.069  23.603  1.00  0.00    +0.000 H 
ATOM    106  H8  UNL A   1       8.547  -3.781  22.589  1.00  0.00    +0.000 H 
ATOM    107  H9  UNL A   1       7.249  -3.468  23.717  1.00  0.00    +0.000 H 
ENDBRANCH    6    5
ENDBRANCH    8    6
ENDBRANCH   13   12
ENDBRANCH   15   13
ENDBRANCH   16   15
BRANCH   16   17
ATOM     17  C12 UNL A   1      10.786   1.471  26.690  1.00  0.00    +0.000 C 
ATOM    117  H19 UNL A   1      10.350   1.810  27.607  1.00  0.00    +0.000 H 
ATOM    118  H20 UNL A   1      11.647   2.027  26.384  1.00  0.00    +0.000 H 
BRANCH   17   18
ATOM     18  C13 UNL A   1      11.269   0.055  26.903  1.00  0.00    +0.000 C 
ATOM     19  C14 UNL A   1      12.414  -0.411  26.240  1.00  0.00    +0.000 C 
ATOM     20  C15 UNL A   1      12.821  -1.739  26.371  1.00  0.00    +0.000 C 
ATOM     21  C16 UNL A   1      12.107  -2.607  27.194  1.00  0.00    +0.000 C 
ATOM     22  C17 UNL A   1      10.994  -2.142  27.895  1.00  0.00    +0.000 C 
ATOM     23  C18 UNL A   1      10.574  -0.819  27.749  1.00  0.00    +0.000 C 
ATOM    119  H21 UNL A   1      12.961   0.235  25.649  1.00  0.00    +0.000 H 
ATOM    120  H22 UNL A   1      13.650  -2.079  25.859  1.00  0.00    +0.000 H 
ATOM    122  H24 UNL A   1      10.480  -2.779  28.522  1.00  0.00    +0.000 H 
ATOM    123  H25 UNL A   1       9.746  -0.483  28.265  1.00  0.00    +0.000 H 
ATOM    121  H23 UNL A   1      12.400  -3.592  27.286  1.00  0.00    +0.000 H 
ENDBRANCH   17   18
ENDBRANCH   16   17
ENDBRANCH   24   16
ENDBRANCH   26   24
ENDBRANCH   27   26
ENDBRANCH   28   27
ENDBRANCH   29   28
ENDBRANCH   30   29
ENDBRANCH   31   30
ENDBRANCH   32   31
ENDBRANCH   33   32
ENDBRANCH   34   33
ENDBRANCH   36   34
ENDBRANCH   40   39
BRANCH   44   45
ATOM     45  C35 UNL A   1       2.715  -1.107  33.301  1.00  0.00    +0.000 C 
ATOM     46  C36 UNL A   1       1.326  -0.917  33.382  1.00  0.00    +0.000 C 
ATOM     47  F1  UNL A   1       0.492  -1.767  32.764  1.00  0.00    +0.000 F 
ATOM     48  C37 UNL A   1       0.788   0.176  34.054  1.00  0.00    +0.000 C 
ATOM     49  F2  UNL A   1      -0.538   0.370  34.063  1.00  0.00    +0.000 F 
ATOM     50  C38 UNL A   1       1.624   1.078  34.695  1.00  0.00    +0.000 C 
ATOM     51  F3  UNL A   1       1.104   2.132  35.342  1.00  0.00    +0.000 F 
ATOM     52  C39 UNL A   1       2.998   0.894  34.657  1.00  0.00    +0.000 C 
ATOM     53  F4  UNL A   1       3.804   1.757  35.289  1.00  0.00    +0.000 F 
ATOM     54  C40 UNL A   1       3.540  -0.180  33.957  1.00  0.00    +0.000 C 
ATOM     55  F5  UNL A   1       4.874  -0.316  33.919  1.00  0.00    +0.000 F 
ENDBRANCH   44   45
BRANCH   61   62
ATOM     65  C48 UNL A   1       5.183  -9.332  36.197  1.00  0.00    +0.000 C 
ATOM     66  F7  UNL A   1       4.318 -10.270  36.606  1.00  0.00    +0.000 F 
ATOM     67  C49 UNL A   1       6.373  -9.141  36.882  1.00  0.00    +0.000 C 
ATOM     68  F8  UNL A   1       6.670  -9.910  37.939  1.00  0.00    +0.000 F 
ATOM     69  C50 UNL A   1       7.253  -8.149  36.477  1.00  0.00    +0.000 C 
ATOM     70  F9  UNL A   1       8.410  -7.973  37.129  1.00  0.00    +0.000 F 
ATOM     71  C51 UNL A   1       6.936  -7.335  35.393  1.00  0.00    +0.000 C 
ATOM     72  F10 UNL A   1       7.799  -6.374  35.033  1.00  0.00    +0.000 F 
ATOM     62  C46 UNL A   1       5.741  -7.517  34.678  1.00  0.00    +0.000 C 
ATOM     63  C47 UNL A   1       4.876  -8.539  35.094  1.00  0.00    +0.000 C 
ATOM     64  F6  UNL A   1       3.714  -8.742  34.453  1.00  0.00    +0.000 F 
ENDBRANCH   61   62
BRANCH   76   77
ATOM     77  C55 UNL A   1       6.742  -8.442  27.845  1.00  0.00    +0.000 C 
ATOM     78  C56 UNL A   1       6.051  -9.648  27.667  1.00  0.00    +0.000 C 
ATOM     79  F11 UNL A   1       4.858  -9.829  28.255  1.00  0.00    +0.000 F 
ATOM     80  C57 UNL A   1       6.594 -10.687  26.915  1.00  0.00    +0.000 C 
ATOM     81  F12 UNL A   1       5.928 -11.842  26.792  1.00  0.00    +0.000 F 
ATOM     82  C58 UNL A   1       7.829 -10.529  26.302  1.00  0.00    +0.000 C 
ATOM     83  F13 UNL A   1       8.348 -11.525  25.571  1.00  0.00    +0.000 F 
ATOM     84  C59 UNL A   1       8.526  -9.340  26.454  1.00  0.00    +0.000 C 
ATOM     85  F14 UNL A   1       9.712  -9.180  25.852  1.00  0.00    +0.000 F 
ATOM     86  C60 UNL A   1       7.995  -8.311  27.229  1.00  0.00    +0.000 C 
ATOM     87  F15 UNL A   1       8.695  -7.176  27.365  1.00  0.00    +0.000 F 
ENDBRANCH   76   77
TORSDOF 22
ENDMDL
MODEL 10
REMARK VINA RESULT:      -8.1     58.520     67.145
ROOT
ATOM    140  H42 UNL A   1      44.855  19.176  53.591  1.00  0.00    +0.000 H 
ATOM    141  H43 UNL A   1      42.528  18.131  53.051  1.00  0.00    +0.000 H 
ATOM    142  H44 UNL A   1      45.188  16.979  50.094  1.00  0.00    +0.000 H 
ATOM    143  H45 UNL A   1      46.323  14.064  44.527  1.00  0.00    +0.000 H 
ATOM    144  H46 UNL A   1      48.614  14.994  45.113  1.00  0.00    +0.000 H 
ATOM    145  H47 UNL A   1      45.984  16.092  48.139  1.00  0.00    +0.000 H 
ATOM    146  H48 UNL A   1      41.560  14.029  46.947  1.00  0.00    +0.000 H 
ATOM    147  H49 UNL A   1      40.603  15.194  49.015  1.00  0.00    +0.000 H 
ATOM    148  H50 UNL A   1      49.708  18.747  51.328  1.00  0.00    +0.000 H 
ATOM    149  H51 UNL A   1      50.573  18.013  49.033  1.00  0.00    +0.000 H 
ATOM     40  C31 UNL A   1      48.678  16.518  47.522  1.00  0.00    +0.000 C 
ATOM     41  C32 UNL A   1      48.461  17.213  48.837  1.00  0.00    +0.000 C 
ATOM     42  N5  UNL A   1      47.374  17.291  49.565  1.00  0.00    +0.000 N 
ATOM     43  C33 UNL A   1      47.731  18.010  50.698  1.00  0.00    +0.000 C 
ATOM     44  C34 UNL A   1      46.945  18.422  51.722  1.00  0.00    +0.000 C 
ATOM     56  C41 UNL A   1      45.534  18.154  51.816  1.00  0.00    +0.000 C 
ATOM     57  C42 UNL A   1      44.637  18.569  52.785  1.00  0.00    +0.000 C 
ATOM     58  C43 UNL A   1      43.384  18.022  52.485  1.00  0.00    +0.000 C 
ATOM     59  C44 UNL A   1      43.488  17.311  51.300  1.00  0.00    +0.000 C 
ATOM     60  N6  UNL A   1      44.814  17.396  50.904  1.00  0.00    +0.000 N 
ATOM     61  C45 UNL A   1      42.456  16.604  50.584  1.00  0.00    +0.000 C 
ATOM     73  C52 UNL A   1      42.635  15.939  49.416  1.00  0.00    +0.000 C 
ATOM     74  N7  UNL A   1      43.793  15.791  48.665  1.00  0.00    +0.000 N 
ATOM     75  C53 UNL A   1      43.461  15.059  47.629  1.00  0.00    +0.000 C 
ATOM     76  C54 UNL A   1      44.308  14.610  46.471  1.00  0.00    +0.000 C 
ATOM     88  C61 UNL A   1      45.607  14.965  46.430  1.00  0.00    +0.000 C 
ATOM     89  C62 UNL A   1      46.549  14.612  45.371  1.00  0.00    +0.000 C 
ATOM     90  C63 UNL A   1      47.756  15.114  45.676  1.00  0.00    +0.000 C 
ATOM     91  C64 UNL A   1      47.663  15.859  46.932  1.00  0.00    +0.000 C 
ATOM     92  N8  UNL A   1      46.353  15.706  47.312  1.00  0.00    +0.000 N 
ATOM     93  C65 UNL A   1      42.055  14.633  47.623  1.00  0.00    +0.000 C 
ATOM     94  C66 UNL A   1      41.587  15.230  48.709  1.00  0.00    +0.000 C 
ATOM     95  C67 UNL A   1      49.146  18.292  50.592  1.00  0.00    +0.000 C 
ATOM     96  C68 UNL A   1      49.627  17.888  49.425  1.00  0.00    +0.000 C 
ENDROOT
BRANCH   40   39
ATOM     97  C69 UNL A   1      50.391  17.520  46.007  1.00  0.00    +0.000 C 
ATOM     98  C70 UNL A   1      51.639  17.500  45.388  1.00  0.00    +0.000 C 
ATOM     36  C27 UNL A   1      52.578  16.529  45.742  1.00  0.00    +0.000 C 
ATOM     37  C28 UNL A   1      52.220  15.499  46.617  1.00  0.00    +0.000 C 
ATOM     38  C29 UNL A   1      50.941  15.474  47.177  1.00  0.00    +0.000 C 
ATOM     39  C30 UNL A   1      50.026  16.501  46.900  1.00  0.00    +0.000 C 
ATOM    138  H40 UNL A   1      52.900  14.758  46.849  1.00  0.00    +0.000 H 
ATOM    139  H41 UNL A   1      50.668  14.697  47.799  1.00  0.00    +0.000 H 
ATOM    150  H52 UNL A   1      49.732  18.288  45.807  1.00  0.00    +0.000 H 
ATOM    151  H53 UNL A   1      51.870  18.204  44.669  1.00  0.00    +0.000 H 
BRANCH   36   34
ATOM     34  C26 UNL A   1      53.950  16.541  45.184  1.00  0.00    +0.000 C 
ATOM     35  O5  UNL A   1      54.629  15.518  45.222  1.00  0.00    +0.000 O 
BRANCH   34   33
ATOM     33  N4  UNL A   1      54.474  17.688  44.646  1.00  0.00    +0.000 N 
ATOM    137  H39 UNL A   1      54.870  18.312  45.296  1.00  0.00    +0.000 H 
BRANCH   33   32
ATOM    136  H38 UNL A   1      53.740  17.634  42.733  1.00  0.00    +0.000 H 
ATOM    135  H37 UNL A   1      55.490  17.866  42.860  1.00  0.00    +0.000 H 
ATOM     32  C25 UNL A   1      54.532  18.123  43.261  1.00  0.00    +0.000 C 
BRANCH   32   31
ATOM    133  H35 UNL A   1      54.928  20.115  43.850  1.00  0.00    +0.000 H 
ATOM    134  H36 UNL A   1      54.605  19.863  42.106  1.00  0.00    +0.000 H 
ATOM     31  C24 UNL A   1      54.328  19.625  43.111  1.00  0.00    +0.000 C 
BRANCH   31   30
ATOM    131  H33 UNL A   1      52.426  19.516  44.039  1.00  0.00    +0.000 H 
ATOM    132  H34 UNL A   1      52.958  21.151  43.517  1.00  0.00    +0.000 H 
ATOM     30  C23 UNL A   1      52.885  20.111  43.278  1.00  0.00    +0.000 C 
BRANCH   30   29
ATOM    129  H31 UNL A   1      51.374  20.904  42.016  1.00  0.00    +0.000 H 
ATOM    130  H32 UNL A   1      52.677  19.973  41.199  1.00  0.00    +0.000 H 
ATOM     29  C22 UNL A   1      52.000  20.036  42.025  1.00  0.00    +0.000 C 
BRANCH   29   28
ATOM     28  C21 UNL A   1      51.093  18.805  41.909  1.00  0.00    +0.000 C 
ATOM    127  H29 UNL A   1      51.377  18.262  41.032  1.00  0.00    +0.000 H 
ATOM    128  H30 UNL A   1      51.226  18.243  42.811  1.00  0.00    +0.000 H 
BRANCH   28   27
ATOM     27  C20 UNL A   1      49.607  19.121  41.812  1.00  0.00    +0.000 C 
ATOM    125  H27 UNL A   1      49.495  20.113  41.427  1.00  0.00    +0.000 H 
ATOM    126  H28 UNL A   1      49.169  18.386  41.168  1.00  0.00    +0.000 H 
BRANCH   27   26
ATOM     26  N3  UNL A   1      48.918  19.042  43.083  1.00  0.00    +0.000 N 
ATOM    124  H26 UNL A   1      49.315  19.483  43.869  1.00  0.00    +0.000 H 
BRANCH   26   24
ATOM     25  O4  UNL A   1      47.674  17.207  42.806  1.00  0.00    +0.000 O 
ATOM     24  C19 UNL A   1      47.728  18.368  43.226  1.00  0.00    +0.000 C 
BRANCH   24   16
ATOM    116  H18 UNL A   1      46.783  20.059  44.041  1.00  0.00    +0.000 H 
ATOM     16  C11 UNL A   1      46.473  19.054  43.847  1.00  0.00    +0.000 C 
BRANCH   16   15
ATOM    115  H17 UNL A   1      44.431  19.109  43.354  1.00  0.00    +0.000 H 
ATOM     15  N2  UNL A   1      45.318  19.262  42.953  1.00  0.00    +0.000 N 
BRANCH   15   13
ATOM     13  C10 UNL A   1      45.324  19.643  41.637  1.00  0.00    +0.000 C 
ATOM     14  O3  UNL A   1      45.659  20.804  41.383  1.00  0.00    +0.000 O 
BRANCH   13   12
ATOM      8  N1  UNL A   1      46.151  18.090  39.825  1.00  0.00    +0.000 N 
ATOM      9  C6  UNL A   1      46.241  16.650  39.919  1.00  0.00    +0.000 C 
ATOM     10  C7  UNL A   1      44.839  16.214  40.301  1.00  0.00    +0.000 C 
ATOM     11  C8  UNL A   1      44.318  17.380  41.137  1.00  0.00    +0.000 C 
ATOM     12  C9  UNL A   1      44.984  18.627  40.524  1.00  0.00    +0.000 C 
ATOM    108  H10 UNL A   1      46.946  16.362  40.671  1.00  0.00    +0.000 H 
ATOM    109  H11 UNL A   1      46.578  16.200  39.009  1.00  0.00    +0.000 H 
ATOM    110  H12 UNL A   1      44.862  15.312  40.875  1.00  0.00    +0.000 H 
ATOM    111  H13 UNL A   1      44.223  16.004  39.452  1.00  0.00    +0.000 H 
ATOM    112  H14 UNL A   1      44.603  17.265  42.162  1.00  0.00    +0.000 H 
ATOM    114  H16 UNL A   1      44.363  19.175  39.847  1.00  0.00    +0.000 H 
ATOM    113  H15 UNL A   1      43.250  17.442  41.125  1.00  0.00    +0.000 H 
BRANCH    8    6
ATOM      6  C5  UNL A   1      46.894  18.900  39.011  1.00  0.00    +0.000 C 
ATOM      7  O2  UNL A   1      48.106  18.802  38.937  1.00  0.00    +0.000 O 
BRANCH    6    5
ATOM      1  C1  UNL A   1      45.656  21.360  36.609  1.00  0.00    +0.000 C 
ATOM      2  C2  UNL A   1      46.360  20.037  36.944  1.00  0.00    +0.000 C 
ATOM     99  H1  UNL A   1      45.756  21.562  35.564  1.00  0.00    +0.000 H 
ATOM    100  H2  UNL A   1      46.104  22.154  37.171  1.00  0.00    +0.000 H 
ATOM    101  H3  UNL A   1      44.619  21.286  36.861  1.00  0.00    +0.000 H 
ATOM      3  C3  UNL A   1      45.678  18.895  36.184  1.00  0.00    +0.000 C 
ATOM      4  C4  UNL A   1      47.837  20.187  36.532  1.00  0.00    +0.000 C 
ATOM      5  O1  UNL A   1      46.168  19.854  38.375  1.00  0.00    +0.000 O 
ATOM    102  H4  UNL A   1      45.820  19.032  35.132  1.00  0.00    +0.000 H 
ATOM    103  H5  UNL A   1      44.631  18.894  36.405  1.00  0.00    +0.000 H 
ATOM    104  H6  UNL A   1      46.106  17.962  36.483  1.00  0.00    +0.000 H 
ATOM    105  H7  UNL A   1      47.900  20.318  35.472  1.00  0.00    +0.000 H 
ATOM    106  H8  UNL A   1      48.377  19.309  36.817  1.00  0.00    +0.000 H 
ATOM    107  H9  UNL A   1      48.258  21.041  37.023  1.00  0.00    +0.000 H 
ENDBRANCH    6    5
ENDBRANCH    8    6
ENDBRANCH   13   12
ENDBRANCH   15   13
ENDBRANCH   16   15
BRANCH   16   17
ATOM     17  C12 UNL A   1      46.088  18.369  45.176  1.00  0.00    +0.000 C 
ATOM    117  H19 UNL A   1      46.729  17.522  45.306  1.00  0.00    +0.000 H 
ATOM    118  H20 UNL A   1      45.051  18.121  45.085  1.00  0.00    +0.000 H 
BRANCH   17   18
ATOM     18  C13 UNL A   1      46.195  19.227  46.416  1.00  0.00    +0.000 C 
ATOM     19  C14 UNL A   1      47.349  19.986  46.655  1.00  0.00    +0.000 C 
ATOM     20  C15 UNL A   1      47.488  20.718  47.835  1.00  0.00    +0.000 C 
ATOM     21  C16 UNL A   1      46.458  20.726  48.772  1.00  0.00    +0.000 C 
ATOM     22  C17 UNL A   1      45.286  20.012  48.524  1.00  0.00    +0.000 C 
ATOM     23  C18 UNL A   1      45.155  19.263  47.353  1.00  0.00    +0.000 C 
ATOM    119  H21 UNL A   1      48.105  20.003  45.952  1.00  0.00    +0.000 H 
ATOM    120  H22 UNL A   1      48.352  21.253  48.013  1.00  0.00    +0.000 H 
ATOM    122  H24 UNL A   1      44.514  20.037  49.207  1.00  0.00    +0.000 H 
ATOM    123  H25 UNL A   1      44.288  18.731  47.178  1.00  0.00    +0.000 H 
ATOM    121  H23 UNL A   1      46.561  21.259  49.650  1.00  0.00    +0.000 H 
ENDBRANCH   17   18
ENDBRANCH   16   17
ENDBRANCH   24   16
ENDBRANCH   26   24
ENDBRANCH   27   26
ENDBRANCH   28   27
ENDBRANCH   29   28
ENDBRANCH   30   29
ENDBRANCH   31   30
ENDBRANCH   32   31
ENDBRANCH   33   32
ENDBRANCH   34   33
ENDBRANCH   36   34
ENDBRANCH   40   39
BRANCH   44   45
ATOM     45  C35 UNL A   1      47.603  19.205  52.823  1.00  0.00    +0.000 C 
ATOM     46  C36 UNL A   1      48.191  18.569  53.929  1.00  0.00    +0.000 C 
ATOM     47  F1  UNL A   1      48.163  17.232  54.031  1.00  0.00    +0.000 F 
ATOM     48  C37 UNL A   1      48.764  19.307  54.961  1.00  0.00    +0.000 C 
ATOM     49  F2  UNL A   1      49.260  18.679  56.036  1.00  0.00    +0.000 F 
ATOM     50  C38 UNL A   1      48.799  20.691  54.890  1.00  0.00    +0.000 C 
ATOM     51  F3  UNL A   1      49.350  21.401  55.885  1.00  0.00    +0.000 F 
ATOM     52  C39 UNL A   1      48.254  21.340  53.792  1.00  0.00    +0.000 C 
ATOM     53  F4  UNL A   1      48.301  22.677  53.716  1.00  0.00    +0.000 F 
ATOM     54  C40 UNL A   1      47.651  20.607  52.774  1.00  0.00    +0.000 C 
ATOM     55  F5  UNL A   1      47.111  21.267  51.738  1.00  0.00    +0.000 F 
ENDBRANCH   44   45
BRANCH   61   62
ATOM     65  C48 UNL A   1      39.319  15.655  52.537  1.00  0.00    +0.000 C 
ATOM     66  F7  UNL A   1      38.880  14.650  53.309  1.00  0.00    +0.000 F 
ATOM     67  C49 UNL A   1      38.485  16.726  52.256  1.00  0.00    +0.000 C 
ATOM     68  F8  UNL A   1      37.249  16.769  52.774  1.00  0.00    +0.000 F 
ATOM     69  C50 UNL A   1      38.928  17.750  51.433  1.00  0.00    +0.000 C 
ATOM     70  F9  UNL A   1      38.129  18.793  51.172  1.00  0.00    +0.000 F 
ATOM     71  C51 UNL A   1      40.203  17.695  50.877  1.00  0.00    +0.000 C 
ATOM     72  F10 UNL A   1      40.599  18.693  50.072  1.00  0.00    +0.000 F 
ATOM     62  C46 UNL A   1      41.068  16.626  51.155  1.00  0.00    +0.000 C 
ATOM     63  C47 UNL A   1      40.605  15.611  52.007  1.00  0.00    +0.000 C 
ATOM     64  F6  UNL A   1      41.388  14.560  52.291  1.00  0.00    +0.000 F 
ENDBRANCH   61   62
BRANCH   76   77
ATOM     77  C55 UNL A   1      43.724  13.819  45.357  1.00  0.00    +0.000 C 
ATOM     78  C56 UNL A   1      43.539  12.436  45.484  1.00  0.00    +0.000 C 
ATOM     79  F11 UNL A   1      43.920  11.810  46.607  1.00  0.00    +0.000 F 
ATOM     80  C57 UNL A   1      42.994  11.684  44.445  1.00  0.00    +0.000 C 
ATOM     81  F12 UNL A   1      42.863  10.358  44.579  1.00  0.00    +0.000 F 
ATOM     82  C58 UNL A   1      42.599  12.306  43.270  1.00  0.00    +0.000 C 
ATOM     83  F13 UNL A   1      42.067  11.584  42.274  1.00  0.00    +0.000 F 
ATOM     84  C59 UNL A   1      42.760  13.675  43.127  1.00  0.00    +0.000 C 
ATOM     85  F14 UNL A   1      42.366  14.281  41.998  1.00  0.00    +0.000 F 
ATOM     86  C60 UNL A   1      43.330  14.424  44.154  1.00  0.00    +0.000 C 
ATOM     87  F15 UNL A   1      43.482  15.746  43.986  1.00  0.00    +0.000 F 
ENDBRANCH   76   77
TORSDOF 22
ENDMDL
