MODEL 1
REMARK VINA RESULT:      -9.9      0.000      0.000
ROOT
ATOM    129  H27 UNL A   1       8.586  28.414  -5.298  1.00  0.00    +0.000 H 
ATOM    130  H28 UNL A   1       9.061  32.429  -5.137  1.00  0.00    +0.000 H 
ATOM    131  H29 UNL A   1      12.991  29.400   1.387  1.00  0.00    +0.000 H 
ATOM    132  H30 UNL A   1      10.712  28.277   1.542  1.00  0.00    +0.000 H 
ATOM    133  H31 UNL A   1      10.503  30.999  -1.582  1.00  0.00    +0.000 H 
ATOM    134  H32 UNL A   1      11.875  33.876  -1.774  1.00  0.00    +0.000 H 
ATOM    135  H33 UNL A   1      10.242  33.076  -3.608  1.00  0.00    +0.000 H 
ATOM    136  H34 UNL A   1       5.488  32.809  -0.937  1.00  0.00    +0.000 H 
ATOM    137  H35 UNL A   1       6.944  31.863   0.971  1.00  0.00    +0.000 H 
ATOM     38  C28 UNL A   1       8.657  29.716   0.072  1.00  0.00    +0.000 C 
ATOM     39  C29 UNL A   1       7.797  30.624  -0.729  1.00  0.00    +0.000 C 
ATOM     40  N5  UNL A   1       7.573  30.561  -2.000  1.00  0.00    +0.000 N 
ATOM     41  C30 UNL A   1       6.761  31.648  -2.302  1.00  0.00    +0.000 C 
ATOM     42  C31 UNL A   1       6.777  32.199  -3.548  1.00  0.00    +0.000 C 
ATOM     54  C38 UNL A   1       7.393  31.303  -4.498  1.00  0.00    +0.000 C 
ATOM     55  C39 UNL A   1       7.127  30.014  -4.919  1.00  0.00    +0.000 C 
ATOM     56  C40 UNL A   1       8.408  29.401  -5.055  1.00  0.00    +0.000 C 
ATOM     57  C41 UNL A   1       9.378  30.371  -4.801  1.00  0.00    +0.000 C 
ATOM     58  N6  UNL A   1       8.691  31.557  -4.870  1.00  0.00    +0.000 N 
ATOM     59  C42 UNL A   1      10.778  30.285  -4.466  1.00  0.00    +0.000 C 
ATOM     71  C49 UNL A   1      11.468  31.245  -3.783  1.00  0.00    +0.000 C 
ATOM     72  N7  UNL A   1      12.647  30.941  -3.117  1.00  0.00    +0.000 N 
ATOM     73  C50 UNL A   1      12.693  31.794  -2.127  1.00  0.00    +0.000 C 
ATOM     74  C51 UNL A   1      13.102  31.408  -0.749  1.00  0.00    +0.000 C 
ATOM     86  C58 UNL A   1      12.139  30.571  -0.284  1.00  0.00    +0.000 C 
ATOM     87  C59 UNL A   1      12.170  29.619   0.800  1.00  0.00    +0.000 C 
ATOM     88  C60 UNL A   1      10.949  29.063   0.916  1.00  0.00    +0.000 C 
ATOM     89  C61 UNL A   1      10.008  29.742   0.021  1.00  0.00    +0.000 C 
ATOM     90  N8  UNL A   1      10.812  30.528  -0.775  1.00  0.00    +0.000 N 
ATOM     91  C62 UNL A   1      11.856  32.975  -2.277  1.00  0.00    +0.000 C 
ATOM     92  C63 UNL A   1      11.057  32.547  -3.259  1.00  0.00    +0.000 C 
ATOM     93  C64 UNL A   1       6.271  32.145  -1.043  1.00  0.00    +0.000 C 
ATOM     94  C65 UNL A   1       6.972  31.625  -0.033  1.00  0.00    +0.000 C 
ATOM    128  H26 UNL A   1       6.204  29.587  -5.097  1.00  0.00    +0.000 H 
ENDROOT
BRANCH   38   37
ATOM     34  C24 UNL A   1       6.473  27.780   3.091  1.00  0.00    +0.000 C 
ATOM     35  C25 UNL A   1       6.473  27.208   1.815  1.00  0.00    +0.000 C 
ATOM     36  C26 UNL A   1       7.251  27.791   0.818  1.00  0.00    +0.000 C 
ATOM     37  C27 UNL A   1       7.952  28.970   1.107  1.00  0.00    +0.000 C 
ATOM    138  H36 UNL A   1       8.339  30.463   2.546  1.00  0.00    +0.000 H 
ATOM    139  H37 UNL A   1       7.419  29.165   4.367  1.00  0.00    +0.000 H 
ATOM    127  H25 UNL A   1       7.311  27.361  -0.118  1.00  0.00    +0.000 H 
ATOM    126  H24 UNL A   1       5.907  26.368   1.615  1.00  0.00    +0.000 H 
ATOM     95  C66 UNL A   1       7.908  29.541   2.373  1.00  0.00    +0.000 C 
ATOM     96  C67 UNL A   1       7.287  28.868   3.388  1.00  0.00    +0.000 C 
BRANCH   34   32
ATOM     33  O4  UNL A   1       5.035  28.063   4.920  1.00  0.00    +0.000 O 
ATOM     32  C23 UNL A   1       5.586  27.282   4.154  1.00  0.00    +0.000 C 
BRANCH   32   31
ATOM    125  H23 UNL A   1       4.508  25.583   3.979  1.00  0.00    +0.000 H 
ATOM     31  N4  UNL A   1       5.389  25.920   4.261  1.00  0.00    +0.000 N 
BRANCH   31   30
ATOM    123  H21 UNL A   1       7.280  25.402   4.943  1.00  0.00    +0.000 H 
ATOM    124  H22 UNL A   1       5.949  24.482   5.637  1.00  0.00    +0.000 H 
ATOM     30  C22 UNL A   1       6.344  24.923   4.746  1.00  0.00    +0.000 C 
BRANCH   30   29
ATOM    121  H19 UNL A   1       6.661  22.888   4.241  1.00  0.00    +0.000 H 
ATOM    122  H20 UNL A   1       5.716  23.821   3.066  1.00  0.00    +0.000 H 
ATOM     29  C21 UNL A   1       6.560  23.819   3.723  1.00  0.00    +0.000 C 
BRANCH   29   28
ATOM     28  C20 UNL A   1       7.813  24.039   2.862  1.00  0.00    +0.000 C 
ATOM    119  H17 UNL A   1       8.188  25.019   3.072  1.00  0.00    +0.000 H 
ATOM    120  H18 UNL A   1       8.489  23.252   3.122  1.00  0.00    +0.000 H 
BRANCH   28   27
ATOM     27  C19 UNL A   1       7.604  23.929   1.342  1.00  0.00    +0.000 C 
ATOM    117  H15 UNL A   1       6.873  23.169   1.162  1.00  0.00    +0.000 H 
ATOM    118  H16 UNL A   1       7.298  24.900   1.010  1.00  0.00    +0.000 H 
BRANCH   27   26
ATOM     26  C18 UNL A   1       8.864  23.578   0.540  1.00  0.00    +0.000 C 
ATOM    115  H13 UNL A   1       9.690  23.501   1.217  1.00  0.00    +0.000 H 
ATOM    116  H14 UNL A   1       8.680  22.652   0.037  1.00  0.00    +0.000 H 
BRANCH   26   25
ATOM     25  C17 UNL A   1       9.196  24.626  -0.524  1.00  0.00    +0.000 C 
ATOM    114  H12 UNL A   1       8.301  25.140  -0.807  1.00  0.00    +0.000 H 
ATOM    113  H11 UNL A   1       9.621  24.143  -1.379  1.00  0.00    +0.000 H 
BRANCH   25   24
ATOM    112  H10 UNL A   1      10.016  26.498  -0.325  1.00  0.00    +0.000 H 
ATOM     24  N3  UNL A   1      10.145  25.581   0.010  1.00  0.00    +0.000 N 
BRANCH   24   22
ATOM     22  C16 UNL A   1      11.189  25.461   0.890  1.00  0.00    +0.000 C 
ATOM     23  O3  UNL A   1      12.283  25.134   0.430  1.00  0.00    +0.000 O 
BRANCH   22   21
ATOM     97  C68 UNL A   1      10.341  26.647   2.995  1.00  0.00    +0.000 C 
ATOM     98  C69 UNL A   1      10.066  26.598   4.362  1.00  0.00    +0.000 C 
ATOM    140  H38 UNL A   1      10.030  27.461   2.441  1.00  0.00    +0.000 H 
ATOM    141  H39 UNL A   1       9.459  27.311   4.797  1.00  0.00    +0.000 H 
ATOM    110  H8  UNL A   1      11.929  23.916   5.132  1.00  0.00    +0.000 H 
ATOM    111  H9  UNL A   1      12.186  23.874   2.720  1.00  0.00    +0.000 H 
ATOM     18  C12 UNL A   1      10.620  25.578   5.134  1.00  0.00    +0.000 C 
ATOM     19  C13 UNL A   1      11.448  24.618   4.546  1.00  0.00    +0.000 C 
ATOM     20  C14 UNL A   1      11.620  24.615   3.162  1.00  0.00    +0.000 C 
ATOM     21  C15 UNL A   1      11.033  25.608   2.364  1.00  0.00    +0.000 C 
BRANCH   18   17
ATOM     99  N9  UNL A   1      11.385  25.495   7.409  1.00  0.00    +0.000 N 
ATOM    100  N10 UNL A   1      10.862  25.526   8.621  1.00  0.00    +0.000 N 
ATOM    109  H7  UNL A   1       8.223  25.437   6.759  1.00  0.00    +0.000 H 
ATOM     15  C10 UNL A   1       9.495  25.514   8.515  1.00  0.00    +0.000 C 
ATOM     16  C11 UNL A   1       9.165  25.484   7.176  1.00  0.00    +0.000 C 
ATOM     17  N2  UNL A   1      10.376  25.531   6.520  1.00  0.00    +0.000 N 
BRANCH   15   14
ATOM    107  H5  UNL A   1       7.968  24.601   9.607  1.00  0.00    +0.000 H 
ATOM    108  H6  UNL A   1       9.321  25.298  10.557  1.00  0.00    +0.000 H 
ATOM     14  C9  UNL A   1       8.643  25.421   9.738  1.00  0.00    +0.000 C 
BRANCH   14   13
ATOM     13  O2  UNL A   1       7.863  26.590  10.046  1.00  0.00    +0.000 O 
BRANCH   13   12
ATOM    101  C70 UNL A   1       8.906  27.189  12.190  1.00  0.00    +0.000 C 
ATOM    102  C71 UNL A   1       8.757  27.836  13.418  1.00  0.00    +0.000 C 
ATOM      9  C5  UNL A   1       7.498  28.259  13.846  1.00  0.00    +0.000 C 
ATOM     10  C6  UNL A   1       6.379  27.963  13.064  1.00  0.00    +0.000 C 
ATOM    105  H3  UNL A   1       5.434  28.194  13.407  1.00  0.00    +0.000 H 
ATOM     11  C7  UNL A   1       6.541  27.352  11.815  1.00  0.00    +0.000 C 
ATOM    106  H4  UNL A   1       5.713  27.144  11.237  1.00  0.00    +0.000 H 
ATOM     12  C8  UNL A   1       7.814  27.021  11.344  1.00  0.00    +0.000 C 
ATOM    143  H41 UNL A   1       9.584  28.003  14.012  1.00  0.00    +0.000 H 
ATOM    142  H40 UNL A   1       9.834  26.833  11.908  1.00  0.00    +0.000 H 
BRANCH    9    8
ATOM    104  H2  UNL A   1       7.659  30.003  15.088  1.00  0.00    +0.000 H 
ATOM      8  C4  UNL A   1       7.372  29.012  15.095  1.00  0.00    +0.000 C 
BRANCH    8    7
ATOM      1  O1  UNL A   1       6.876  30.554  17.509  1.00  0.00    +0.000 O 
ATOM      2  C1  UNL A   1       6.672  29.363  17.443  1.00  0.00    +0.000 C 
ATOM      3  N1  UNL A   1       6.168  28.594  18.460  1.00  0.00    +0.000 N 
ATOM      4  C2  UNL A   1       5.989  27.265  18.235  1.00  0.00    +0.000 C 
ATOM      5  S1  UNL A   1       5.394  26.217  19.371  1.00  0.00    +0.000 S 
ATOM      6  S2  UNL A   1       6.478  26.870  16.604  1.00  0.00    +0.000 S 
ATOM      7  C3  UNL A   1       6.908  28.506  16.246  1.00  0.00    +0.000 C 
ATOM    103  H1  UNL A   1       5.943  28.994  19.331  1.00  0.00    +0.000 H 
ENDBRANCH    8    7
ENDBRANCH    9    8
ENDBRANCH   13   12
ENDBRANCH   14   13
ENDBRANCH   15   14
ENDBRANCH   18   17
ENDBRANCH   22   21
ENDBRANCH   24   22
ENDBRANCH   25   24
ENDBRANCH   26   25
ENDBRANCH   27   26
ENDBRANCH   28   27
ENDBRANCH   29   28
ENDBRANCH   30   29
ENDBRANCH   31   30
ENDBRANCH   32   31
ENDBRANCH   34   32
ENDBRANCH   38   37
BRANCH   42   43
ATOM     43  C32 UNL A   1       6.611  33.671  -3.841  1.00  0.00    +0.000 C 
ATOM     44  C33 UNL A   1       5.508  34.087  -4.615  1.00  0.00    +0.000 C 
ATOM     45  F1  UNL A   1       4.479  33.255  -4.842  1.00  0.00    +0.000 F 
ATOM     46  C34 UNL A   1       5.482  35.326  -5.259  1.00  0.00    +0.000 C 
ATOM     47  F2  UNL A   1       4.477  35.620  -6.096  1.00  0.00    +0.000 F 
ATOM     48  C35 UNL A   1       6.523  36.222  -5.097  1.00  0.00    +0.000 C 
ATOM     49  F3  UNL A   1       6.534  37.381  -5.767  1.00  0.00    +0.000 F 
ATOM     50  C36 UNL A   1       7.578  35.887  -4.276  1.00  0.00    +0.000 C 
ATOM     51  F4  UNL A   1       8.603  36.736  -4.118  1.00  0.00    +0.000 F 
ATOM     52  C37 UNL A   1       7.633  34.631  -3.677  1.00  0.00    +0.000 C 
ATOM     53  F5  UNL A   1       8.772  34.362  -3.030  1.00  0.00    +0.000 F 
ENDBRANCH   42   43
BRANCH   59   60
ATOM     65  C46 UNL A   1      12.494  26.422  -5.343  1.00  0.00    +0.000 C 
ATOM     66  F8  UNL A   1      12.978  25.215  -5.670  1.00  0.00    +0.000 F 
ATOM     67  C47 UNL A   1      12.639  27.489  -6.216  1.00  0.00    +0.000 C 
ATOM     68  F9  UNL A   1      13.242  27.308  -7.399  1.00  0.00    +0.000 F 
ATOM     69  C48 UNL A   1      12.132  28.741  -5.883  1.00  0.00    +0.000 C 
ATOM     70  F10 UNL A   1      12.267  29.745  -6.764  1.00  0.00    +0.000 F 
ATOM     60  C43 UNL A   1      11.441  28.952  -4.683  1.00  0.00    +0.000 C 
ATOM     61  C44 UNL A   1      11.278  27.846  -3.832  1.00  0.00    +0.000 C 
ATOM     62  F6  UNL A   1      10.538  27.937  -2.720  1.00  0.00    +0.000 F 
ATOM     63  C45 UNL A   1      11.821  26.601  -4.146  1.00  0.00    +0.000 C 
ATOM     64  F7  UNL A   1      11.658  25.565  -3.311  1.00  0.00    +0.000 F 
ENDBRANCH   59   60
BRANCH   74   75
ATOM     75  C52 UNL A   1      14.176  32.099   0.005  1.00  0.00    +0.000 C 
ATOM     76  C53 UNL A   1      13.884  33.172   0.864  1.00  0.00    +0.000 C 
ATOM     77  F11 UNL A   1      12.666  33.734   0.853  1.00  0.00    +0.000 F 
ATOM     78  C54 UNL A   1      14.812  33.639   1.802  1.00  0.00    +0.000 C 
ATOM     79  F12 UNL A   1      14.471  34.619   2.650  1.00  0.00    +0.000 F 
ATOM     80  C55 UNL A   1      16.064  33.054   1.901  1.00  0.00    +0.000 C 
ATOM     81  F13 UNL A   1      16.928  33.454   2.844  1.00  0.00    +0.000 F 
ATOM     82  C56 UNL A   1      16.397  32.021   1.047  1.00  0.00    +0.000 C 
ATOM     83  F14 UNL A   1      17.592  31.421   1.153  1.00  0.00    +0.000 F 
ATOM     84  C57 UNL A   1      15.469  31.549   0.117  1.00  0.00    +0.000 C 
ATOM     85  F15 UNL A   1      15.831  30.480  -0.606  1.00  0.00    +0.000 F 
ENDBRANCH   74   75
TORSDOF 21
ENDMDL
MODEL 2
REMARK VINA RESULT:      -8.8     39.209     45.637
ROOT
ATOM    129  H27 UNL A   1      45.023  31.460  31.028  1.00  0.00    +0.000 H 
ATOM    130  H28 UNL A   1      45.247  27.775  32.683  1.00  0.00    +0.000 H 
ATOM    131  H29 UNL A   1      40.592  26.990  25.983  1.00  0.00    +0.000 H 
ATOM    132  H30 UNL A   1      39.522  28.969  27.172  1.00  0.00    +0.000 H 
ATOM    133  H31 UNL A   1      42.452  27.484  29.705  1.00  0.00    +0.000 H 
ATOM    134  H32 UNL A   1      43.293  24.437  30.161  1.00  0.00    +0.000 H 
ATOM    135  H33 UNL A   1      44.320  26.312  31.609  1.00  0.00    +0.000 H 
ATOM    136  H34 UNL A   1      40.021  28.115  34.452  1.00  0.00    +0.000 H 
ATOM    137  H35 UNL A   1      38.775  27.794  32.216  1.00  0.00    +0.000 H 
ATOM     38  C28 UNL A   1      40.159  29.044  30.009  1.00  0.00    +0.000 C 
ATOM     39  C29 UNL A   1      40.611  28.858  31.410  1.00  0.00    +0.000 C 
ATOM     40  N5  UNL A   1      41.694  29.317  31.944  1.00  0.00    +0.000 N 
ATOM     41  C30 UNL A   1      41.714  28.837  33.249  1.00  0.00    +0.000 C 
ATOM     42  C31 UNL A   1      42.895  28.655  33.902  1.00  0.00    +0.000 C 
ATOM     54  C38 UNL A   1      43.964  29.359  33.235  1.00  0.00    +0.000 C 
ATOM     55  C39 UNL A   1      44.190  30.682  32.907  1.00  0.00    +0.000 C 
ATOM     56  C40 UNL A   1      44.777  30.642  31.608  1.00  0.00    +0.000 C 
ATOM     57  C41 UNL A   1      44.961  29.304  31.259  1.00  0.00    +0.000 C 
ATOM     58  N6  UNL A   1      44.817  28.628  32.444  1.00  0.00    +0.000 N 
ATOM     59  C42 UNL A   1      45.185  28.648  29.995  1.00  0.00    +0.000 C 
ATOM     71  C49 UNL A   1      44.864  27.347  29.734  1.00  0.00    +0.000 C 
ATOM     72  N7  UNL A   1      44.687  26.901  28.432  1.00  0.00    +0.000 N 
ATOM     73  C50 UNL A   1      43.832  25.918  28.535  1.00  0.00    +0.000 C 
ATOM     74  C51 UNL A   1      42.700  25.730  27.588  1.00  0.00    +0.000 C 
ATOM     86  C58 UNL A   1      41.862  26.781  27.780  1.00  0.00    +0.000 C 
ATOM     87  C59 UNL A   1      40.829  27.323  26.930  1.00  0.00    +0.000 C 
ATOM     88  C60 UNL A   1      40.227  28.337  27.582  1.00  0.00    +0.000 C 
ATOM     89  C61 UNL A   1      40.724  28.406  28.959  1.00  0.00    +0.000 C 
ATOM     90  N8  UNL A   1      41.804  27.551  28.968  1.00  0.00    +0.000 N 
ATOM     91  C62 UNL A   1      43.706  25.334  29.862  1.00  0.00    +0.000 C 
ATOM     92  C63 UNL A   1      44.285  26.303  30.578  1.00  0.00    +0.000 C 
ATOM     93  C64 UNL A   1      40.388  28.343  33.514  1.00  0.00    +0.000 C 
ATOM     94  C65 UNL A   1      39.700  28.222  32.376  1.00  0.00    +0.000 C 
ATOM    128  H26 UNL A   1      43.980  31.517  33.476  1.00  0.00    +0.000 H 
ENDROOT
BRANCH   38   37
ATOM     34  C24 UNL A   1      36.617  31.207  29.367  1.00  0.00    +0.000 C 
ATOM     35  C25 UNL A   1      36.517  29.821  29.526  1.00  0.00    +0.000 C 
ATOM     36  C26 UNL A   1      37.668  29.094  29.815  1.00  0.00    +0.000 C 
ATOM     37  C27 UNL A   1      38.898  29.763  29.868  1.00  0.00    +0.000 C 
ATOM    138  H36 UNL A   1      39.897  31.603  29.607  1.00  0.00    +0.000 H 
ATOM    139  H37 UNL A   1      37.853  32.894  29.627  1.00  0.00    +0.000 H 
ATOM    127  H25 UNL A   1      37.617  28.078  29.987  1.00  0.00    +0.000 H 
ATOM    126  H24 UNL A   1      35.606  29.345  29.430  1.00  0.00    +0.000 H 
ATOM     95  C66 UNL A   1      38.979  31.137  29.671  1.00  0.00    +0.000 C 
ATOM     96  C67 UNL A   1      37.826  31.865  29.564  1.00  0.00    +0.000 C 
BRANCH   34   32
ATOM     33  O4  UNL A   1      35.300  32.307  27.771  1.00  0.00    +0.000 O 
ATOM     32  C23 UNL A   1      35.461  32.016  28.950  1.00  0.00    +0.000 C 
BRANCH   32   31
ATOM    125  H23 UNL A   1      33.852  31.793  30.150  1.00  0.00    +0.000 H 
ATOM     31  N4  UNL A   1      34.566  32.429  29.915  1.00  0.00    +0.000 N 
BRANCH   31   30
ATOM    123  H21 UNL A   1      34.541  34.505  29.914  1.00  0.00    +0.000 H 
ATOM    124  H22 UNL A   1      33.693  33.740  31.255  1.00  0.00    +0.000 H 
ATOM     30  C22 UNL A   1      34.559  33.708  30.628  1.00  0.00    +0.000 C 
BRANCH   30   29
ATOM    121  H19 UNL A   1      36.638  33.479  30.974  1.00  0.00    +0.000 H 
ATOM    122  H20 UNL A   1      35.897  34.899  31.733  1.00  0.00    +0.000 H 
ATOM     29  C21 UNL A   1      35.791  33.859  31.506  1.00  0.00    +0.000 C 
BRANCH   29   28
ATOM     28  C20 UNL A   1      35.671  33.106  32.839  1.00  0.00    +0.000 C 
ATOM    119  H17 UNL A   1      36.202  33.666  33.581  1.00  0.00    +0.000 H 
ATOM    120  H18 UNL A   1      34.622  33.019  33.031  1.00  0.00    +0.000 H 
BRANCH   28   27
ATOM     27  C19 UNL A   1      36.222  31.671  32.846  1.00  0.00    +0.000 C 
ATOM    117  H15 UNL A   1      35.612  31.084  33.501  1.00  0.00    +0.000 H 
ATOM    118  H16 UNL A   1      36.197  31.335  31.830  1.00  0.00    +0.000 H 
BRANCH   27   26
ATOM     26  C18 UNL A   1      37.679  31.540  33.307  1.00  0.00    +0.000 C 
ATOM    115  H13 UNL A   1      37.699  30.998  34.230  1.00  0.00    +0.000 H 
ATOM    116  H14 UNL A   1      38.218  31.028  32.537  1.00  0.00    +0.000 H 
BRANCH   26   25
ATOM     25  C17 UNL A   1      38.353  32.898  33.520  1.00  0.00    +0.000 C 
ATOM    114  H12 UNL A   1      38.730  32.953  34.520  1.00  0.00    +0.000 H 
ATOM    113  H11 UNL A   1      37.638  33.678  33.360  1.00  0.00    +0.000 H 
BRANCH   25   24
ATOM    112  H10 UNL A   1      39.162  33.163  31.652  1.00  0.00    +0.000 H 
ATOM     24  N3  UNL A   1      39.450  33.052  32.587  1.00  0.00    +0.000 N 
BRANCH   24   22
ATOM     22  C16 UNL A   1      40.811  33.073  32.749  1.00  0.00    +0.000 C 
ATOM     23  O3  UNL A   1      41.259  32.687  33.828  1.00  0.00    +0.000 O 
BRANCH   22   21
ATOM     97  C68 UNL A   1      43.048  34.061  31.991  1.00  0.00    +0.000 C 
ATOM     98  C69 UNL A   1      43.924  34.369  30.949  1.00  0.00    +0.000 C 
ATOM    140  H38 UNL A   1      43.366  34.154  32.969  1.00  0.00    +0.000 H 
ATOM    141  H39 UNL A   1      44.915  34.579  31.146  1.00  0.00    +0.000 H 
ATOM    110  H8  UNL A   1      41.728  34.220  28.417  1.00  0.00    +0.000 H 
ATOM    111  H9  UNL A   1      40.290  33.441  30.209  1.00  0.00    +0.000 H 
ATOM     18  C12 UNL A   1      43.446  34.393  29.640  1.00  0.00    +0.000 C 
ATOM     19  C13 UNL A   1      42.102  34.116  29.374  1.00  0.00    +0.000 C 
ATOM     20  C14 UNL A   1      41.268  33.699  30.412  1.00  0.00    +0.000 C 
ATOM     21  C15 UNL A   1      41.745  33.627  31.729  1.00  0.00    +0.000 C 
BRANCH   18   17
ATOM     99  N9  UNL A   1      43.832  35.162  27.398  1.00  0.00    +0.000 N 
ATOM    100  N10 UNL A   1      44.862  35.466  26.629  1.00  0.00    +0.000 N 
ATOM    109  H7  UNL A   1      46.320  34.308  29.270  1.00  0.00    +0.000 H 
ATOM     15  C10 UNL A   1      46.019  35.163  27.299  1.00  0.00    +0.000 C 
ATOM     16  C11 UNL A   1      45.684  34.659  28.538  1.00  0.00    +0.000 C 
ATOM     17  N2  UNL A   1      44.309  34.729  28.580  1.00  0.00    +0.000 N 
BRANCH   15   14
ATOM    107  H5  UNL A   1      47.515  34.393  26.062  1.00  0.00    +0.000 H 
ATOM    108  H6  UNL A   1      47.273  36.170  26.010  1.00  0.00    +0.000 H 
ATOM     14  C9  UNL A   1      47.342  35.291  26.617  1.00  0.00    +0.000 C 
BRANCH   14   13
ATOM     13  O2  UNL A   1      48.472  35.501  27.483  1.00  0.00    +0.000 O 
BRANCH   13   12
ATOM    101  C70 UNL A   1      50.345  34.250  28.468  1.00  0.00    +0.000 C 
ATOM    102  C71 UNL A   1      51.244  33.192  28.323  1.00  0.00    +0.000 C 
ATOM      9  C5  UNL A   1      51.384  32.546  27.094  1.00  0.00    +0.000 C 
ATOM     10  C6  UNL A   1      50.665  33.017  25.993  1.00  0.00    +0.000 C 
ATOM    105  H3  UNL A   1      50.819  32.603  25.060  1.00  0.00    +0.000 H 
ATOM     11  C7  UNL A   1      49.733  34.049  26.156  1.00  0.00    +0.000 C 
ATOM    106  H4  UNL A   1      49.197  34.387  25.342  1.00  0.00    +0.000 H 
ATOM     12  C8  UNL A   1      49.523  34.627  27.410  1.00  0.00    +0.000 C 
ATOM    143  H41 UNL A   1      51.810  32.886  29.130  1.00  0.00    +0.000 H 
ATOM    142  H40 UNL A   1      50.289  34.755  29.367  1.00  0.00    +0.000 H 
BRANCH    9    8
ATOM    104  H2  UNL A   1      53.277  31.533  27.133  1.00  0.00    +0.000 H 
ATOM      8  C4  UNL A   1      52.267  31.384  26.982  1.00  0.00    +0.000 C 
BRANCH    8    7
ATOM      1  O1  UNL A   1      51.276  29.471  28.934  1.00  0.00    +0.000 O 
ATOM      2  C1  UNL A   1      51.355  29.217  27.753  1.00  0.00    +0.000 C 
ATOM      3  N1  UNL A   1      50.976  28.031  27.178  1.00  0.00    +0.000 N 
ATOM      4  C2  UNL A   1      51.120  27.893  25.832  1.00  0.00    +0.000 C 
ATOM      5  S1  UNL A   1      50.709  26.519  25.005  1.00  0.00    +0.000 S 
ATOM      6  S2  UNL A   1      51.791  29.358  25.155  1.00  0.00    +0.000 S 
ATOM      7  C3  UNL A   1      51.858  30.140  26.697  1.00  0.00    +0.000 C 
ATOM    103  H1  UNL A   1      50.610  27.300  27.724  1.00  0.00    +0.000 H 
ENDBRANCH    8    7
ENDBRANCH    9    8
ENDBRANCH   13   12
ENDBRANCH   14   13
ENDBRANCH   15   14
ENDBRANCH   18   17
ENDBRANCH   22   21
ENDBRANCH   24   22
ENDBRANCH   25   24
ENDBRANCH   26   25
ENDBRANCH   27   26
ENDBRANCH   28   27
ENDBRANCH   29   28
ENDBRANCH   30   29
ENDBRANCH   31   30
ENDBRANCH   32   31
ENDBRANCH   34   32
ENDBRANCH   38   37
BRANCH   42   43
ATOM     43  C32 UNL A   1      43.171  27.546  34.889  1.00  0.00    +0.000 C 
ATOM     44  C33 UNL A   1      43.525  27.887  36.210  1.00  0.00    +0.000 C 
ATOM     45  F1  UNL A   1      43.341  29.136  36.666  1.00  0.00    +0.000 F 
ATOM     46  C34 UNL A   1      44.169  26.984  37.060  1.00  0.00    +0.000 C 
ATOM     47  F2  UNL A   1      44.611  27.397  38.256  1.00  0.00    +0.000 F 
ATOM     48  C35 UNL A   1      44.421  25.690  36.646  1.00  0.00    +0.000 C 
ATOM     49  F3  UNL A   1      45.098  24.843  37.430  1.00  0.00    +0.000 F 
ATOM     50  C36 UNL A   1      44.009  25.292  35.392  1.00  0.00    +0.000 C 
ATOM     51  F4  UNL A   1      44.257  24.045  34.967  1.00  0.00    +0.000 F 
ATOM     52  C37 UNL A   1      43.416  26.205  34.523  1.00  0.00    +0.000 C 
ATOM     53  F5  UNL A   1      43.201  25.748  33.284  1.00  0.00    +0.000 F 
ENDBRANCH   42   43
BRANCH   59   60
ATOM     65  C46 UNL A   1      46.463  31.359  26.888  1.00  0.00    +0.000 C 
ATOM     66  F8  UNL A   1      46.890  32.244  25.975  1.00  0.00    +0.000 F 
ATOM     67  C47 UNL A   1      47.377  30.604  27.605  1.00  0.00    +0.000 C 
ATOM     68  F9  UNL A   1      48.691  30.775  27.404  1.00  0.00    +0.000 F 
ATOM     69  C48 UNL A   1      46.938  29.690  28.558  1.00  0.00    +0.000 C 
ATOM     70  F10 UNL A   1      47.852  28.995  29.253  1.00  0.00    +0.000 F 
ATOM     60  C43 UNL A   1      45.575  29.529  28.839  1.00  0.00    +0.000 C 
ATOM     61  C44 UNL A   1      44.671  30.332  28.123  1.00  0.00    +0.000 C 
ATOM     62  F6  UNL A   1      43.364  30.318  28.408  1.00  0.00    +0.000 F 
ATOM     63  C45 UNL A   1      45.109  31.218  27.139  1.00  0.00    +0.000 C 
ATOM     64  F7  UNL A   1      44.223  31.964  26.464  1.00  0.00    +0.000 F 
ENDBRANCH   59   60
BRANCH   74   75
ATOM     75  C52 UNL A   1      42.449  24.463  26.859  1.00  0.00    +0.000 C 
ATOM     76  C53 UNL A   1      43.335  24.010  25.867  1.00  0.00    +0.000 C 
ATOM     77  F11 UNL A   1      44.301  24.817  25.406  1.00  0.00    +0.000 F 
ATOM     78  C54 UNL A   1      43.290  22.697  25.384  1.00  0.00    +0.000 C 
ATOM     79  F12 UNL A   1      44.196  22.283  24.487  1.00  0.00    +0.000 F 
ATOM     80  C55 UNL A   1      42.352  21.802  25.871  1.00  0.00    +0.000 C 
ATOM     81  F13 UNL A   1      42.353  20.526  25.460  1.00  0.00    +0.000 F 
ATOM     82  C56 UNL A   1      41.443  22.225  26.821  1.00  0.00    +0.000 C 
ATOM     83  F14 UNL A   1      40.551  21.361  27.327  1.00  0.00    +0.000 F 
ATOM     84  C57 UNL A   1      41.491  23.531  27.309  1.00  0.00    +0.000 C 
ATOM     85  F15 UNL A   1      40.642  23.836  28.300  1.00  0.00    +0.000 F 
ENDBRANCH   74   75
TORSDOF 21
ENDMDL
MODEL 3
REMARK VINA RESULT:      -8.6     38.088     45.195
ROOT
ATOM    129  H27 UNL A   1      42.266  29.008  32.188  1.00  0.00    +0.000 H 
ATOM    130  H28 UNL A   1      40.031  30.618  35.151  1.00  0.00    +0.000 H 
ATOM    131  H29 UNL A   1      37.473  34.125  28.199  1.00  0.00    +0.000 H 
ATOM    132  H30 UNL A   1      39.999  34.413  28.068  1.00  0.00    +0.000 H 
ATOM    133  H31 UNL A   1      39.162  32.800  31.797  1.00  0.00    +0.000 H 
ATOM    134  H32 UNL A   1      36.661  33.413  33.685  1.00  0.00    +0.000 H 
ATOM    135  H33 UNL A   1      38.591  31.910  34.512  1.00  0.00    +0.000 H 
ATOM    136  H34 UNL A   1      42.781  35.400  34.796  1.00  0.00    +0.000 H 
ATOM    137  H35 UNL A   1      41.786  36.321  32.601  1.00  0.00    +0.000 H 
ATOM     38  C28 UNL A   1      41.279  34.229  30.673  1.00  0.00    +0.000 C 
ATOM     39  C29 UNL A   1      41.689  34.110  32.095  1.00  0.00    +0.000 C 
ATOM     40  N5  UNL A   1      41.997  33.026  32.726  1.00  0.00    +0.000 N 
ATOM     41  C30 UNL A   1      42.252  33.405  34.039  1.00  0.00    +0.000 C 
ATOM     42  C31 UNL A   1      42.070  32.524  35.061  1.00  0.00    +0.000 C 
ATOM     54  C38 UNL A   1      41.983  31.171  34.564  1.00  0.00    +0.000 C 
ATOM     55  C39 UNL A   1      42.825  30.358  33.829  1.00  0.00    +0.000 C 
ATOM     56  C40 UNL A   1      41.966  29.660  32.929  1.00  0.00    +0.000 C 
ATOM     57  C41 UNL A   1      40.650  30.014  33.228  1.00  0.00    +0.000 C 
ATOM     58  N6  UNL A   1      40.736  30.604  34.464  1.00  0.00    +0.000 N 
ATOM     59  C42 UNL A   1      39.420  29.907  32.484  1.00  0.00    +0.000 C 
ATOM     71  C49 UNL A   1      38.331  30.709  32.676  1.00  0.00    +0.000 C 
ATOM     72  N7  UNL A   1      37.374  30.865  31.683  1.00  0.00    +0.000 N 
ATOM     73  C50 UNL A   1      36.888  32.062  31.882  1.00  0.00    +0.000 C 
ATOM     74  C51 UNL A   1      36.609  33.014  30.772  1.00  0.00    +0.000 C 
ATOM     86  C58 UNL A   1      37.813  33.343  30.239  1.00  0.00    +0.000 C 
ATOM     87  C59 UNL A   1      38.144  33.911  28.953  1.00  0.00    +0.000 C 
ATOM     88  C60 UNL A   1      39.474  34.112  28.905  1.00  0.00    +0.000 C 
ATOM     89  C61 UNL A   1      40.066  33.841  30.219  1.00  0.00    +0.000 C 
ATOM     90  N8  UNL A   1      39.047  33.242  30.926  1.00  0.00    +0.000 N 
ATOM     91  C62 UNL A   1      37.114  32.618  33.208  1.00  0.00    +0.000 C 
ATOM     92  C63 UNL A   1      38.081  31.794  33.623  1.00  0.00    +0.000 C 
ATOM     93  C64 UNL A   1      42.387  34.838  34.025  1.00  0.00    +0.000 C 
ATOM     94  C65 UNL A   1      41.931  35.336  32.873  1.00  0.00    +0.000 C 
ATOM    128  H26 UNL A   1      43.850  30.275  33.911  1.00  0.00    +0.000 H 
ENDROOT
BRANCH   38   37
ATOM     34  C24 UNL A   1      43.843  36.726  28.476  1.00  0.00    +0.000 C 
ATOM     35  C25 UNL A   1      44.345  35.496  28.914  1.00  0.00    +0.000 C 
ATOM     36  C26 UNL A   1      43.490  34.621  29.578  1.00  0.00    +0.000 C 
ATOM     37  C27 UNL A   1      42.176  35.028  29.847  1.00  0.00    +0.000 C 
ATOM    138  H36 UNL A   1      40.778  36.603  29.728  1.00  0.00    +0.000 H 
ATOM    139  H37 UNL A   1      42.101  37.866  28.147  1.00  0.00    +0.000 H 
ATOM    127  H25 UNL A   1      43.819  33.686  29.867  1.00  0.00    +0.000 H 
ATOM    126  H24 UNL A   1      45.331  35.241  28.748  1.00  0.00    +0.000 H 
ATOM     95  C66 UNL A   1      41.710  36.271  29.433  1.00  0.00    +0.000 C 
ATOM     96  C67 UNL A   1      42.499  37.047  28.632  1.00  0.00    +0.000 C 
BRANCH   34   32
ATOM     33  O4  UNL A   1      45.498  37.433  26.975  1.00  0.00    +0.000 O 
ATOM     32  C23 UNL A   1      44.720  37.740  27.871  1.00  0.00    +0.000 C 
BRANCH   32   31
ATOM    125  H23 UNL A   1      45.054  39.217  29.206  1.00  0.00    +0.000 H 
ATOM     31  N4  UNL A   1      44.639  39.038  28.332  1.00  0.00    +0.000 N 
BRANCH   31   30
ATOM    123  H21 UNL A   1      44.661  40.544  26.903  1.00  0.00    +0.000 H 
ATOM    124  H22 UNL A   1      43.079  39.848  27.243  1.00  0.00    +0.000 H 
ATOM     30  C22 UNL A   1      44.005  40.177  27.665  1.00  0.00    +0.000 C 
BRANCH   30   29
ATOM    121  H19 UNL A   1      44.561  41.428  29.283  1.00  0.00    +0.000 H 
ATOM    122  H20 UNL A   1      43.504  42.179  28.074  1.00  0.00    +0.000 H 
ATOM     29  C21 UNL A   1      43.711  41.299  28.647  1.00  0.00    +0.000 C 
BRANCH   29   28
ATOM     28  C20 UNL A   1      42.480  41.020  29.522  1.00  0.00    +0.000 C 
ATOM    119  H17 UNL A   1      41.888  41.911  29.551  1.00  0.00    +0.000 H 
ATOM    120  H18 UNL A   1      41.985  40.186  29.072  1.00  0.00    +0.000 H 
BRANCH   28   27
ATOM     27  C19 UNL A   1      42.775  40.603  30.973  1.00  0.00    +0.000 C 
ATOM    117  H15 UNL A   1      41.841  40.474  31.478  1.00  0.00    +0.000 H 
ATOM    118  H16 UNL A   1      43.353  39.704  30.914  1.00  0.00    +0.000 H 
BRANCH   27   26
ATOM     26  C18 UNL A   1      43.617  41.604  31.775  1.00  0.00    +0.000 C 
ATOM    115  H13 UNL A   1      44.650  41.345  31.669  1.00  0.00    +0.000 H 
ATOM    116  H14 UNL A   1      43.413  42.581  31.388  1.00  0.00    +0.000 H 
BRANCH   26   25
ATOM     25  C17 UNL A   1      43.261  41.612  33.263  1.00  0.00    +0.000 C 
ATOM    114  H12 UNL A   1      42.316  42.095  33.400  1.00  0.00    +0.000 H 
ATOM    113  H11 UNL A   1      44.017  42.141  33.806  1.00  0.00    +0.000 H 
BRANCH   25   24
ATOM    112  H10 UNL A   1      42.340  39.796  33.515  1.00  0.00    +0.000 H 
ATOM     24  N3  UNL A   1      43.179  40.252  33.754  1.00  0.00    +0.000 N 
BRANCH   24   22
ATOM     22  C16 UNL A   1      44.039  39.475  34.485  1.00  0.00    +0.000 C 
ATOM     23  O3  UNL A   1      44.328  39.861  35.617  1.00  0.00    +0.000 O 
BRANCH   22   21
ATOM     97  C68 UNL A   1      45.346  37.285  34.709  1.00  0.00    +0.000 C 
ATOM     98  C69 UNL A   1      45.757  36.078  34.142  1.00  0.00    +0.000 C 
ATOM    140  H38 UNL A   1      45.519  37.462  35.712  1.00  0.00    +0.000 H 
ATOM    141  H39 UNL A   1      46.128  35.321  34.738  1.00  0.00    +0.000 H 
ATOM    110  H8  UNL A   1      45.180  36.838  30.926  1.00  0.00    +0.000 H 
ATOM    111  H9  UNL A   1      44.239  38.822  31.956  1.00  0.00    +0.000 H 
ATOM     18  C12 UNL A   1      45.663  35.905  32.762  1.00  0.00    +0.000 C 
ATOM     19  C13 UNL A   1      45.167  36.932  31.954  1.00  0.00    +0.000 C 
ATOM     20  C14 UNL A   1      44.656  38.086  32.547  1.00  0.00    +0.000 C 
ATOM     21  C15 UNL A   1      44.702  38.258  33.939  1.00  0.00    +0.000 C 
BRANCH   18   17
ATOM     99  N9  UNL A   1      47.056  34.696  31.224  1.00  0.00    +0.000 N 
ATOM    100  N10 UNL A   1      47.307  33.439  30.908  1.00  0.00    +0.000 N 
ATOM    109  H7  UNL A   1      44.885  33.124  33.025  1.00  0.00    +0.000 H 
ATOM     15  C10 UNL A   1      46.455  32.627  31.612  1.00  0.00    +0.000 C 
ATOM     16  C11 UNL A   1      45.651  33.422  32.401  1.00  0.00    +0.000 C 
ATOM     17  N2  UNL A   1      46.099  34.704  32.171  1.00  0.00    +0.000 N 
BRANCH   15   14
ATOM    107  H5  UNL A   1      46.986  30.967  30.461  1.00  0.00    +0.000 H 
ATOM    108  H6  UNL A   1      46.858  30.703  32.231  1.00  0.00    +0.000 H 
ATOM     14  C9  UNL A   1      46.434  31.155  31.359  1.00  0.00    +0.000 C 
BRANCH   14   13
ATOM     13  O2  UNL A   1      45.130  30.566  31.207  1.00  0.00    +0.000 O 
BRANCH   13   12
ATOM    101  C70 UNL A   1      43.613  29.372  29.686  1.00  0.00    +0.000 C 
ATOM    102  C71 UNL A   1      43.419  28.853  28.404  1.00  0.00    +0.000 C 
ATOM      9  C5  UNL A   1      44.489  28.746  27.515  1.00  0.00    +0.000 C 
ATOM     10  C6  UNL A   1      45.770  29.098  27.947  1.00  0.00    +0.000 C 
ATOM    105  H3  UNL A   1      46.583  28.946  27.330  1.00  0.00    +0.000 H 
ATOM     11  C7  UNL A   1      45.950  29.658  29.217  1.00  0.00    +0.000 C 
ATOM    106  H4  UNL A   1      46.896  29.925  29.528  1.00  0.00    +0.000 H 
ATOM     12  C8  UNL A   1      44.860  29.857  30.068  1.00  0.00    +0.000 C 
ATOM    143  H41 UNL A   1      42.478  28.547  28.113  1.00  0.00    +0.000 H 
ATOM    142  H40 UNL A   1      42.825  29.397  30.353  1.00  0.00    +0.000 H 
BRANCH    9    8
ATOM    104  H2  UNL A   1      44.322  28.973  25.386  1.00  0.00    +0.000 H 
ATOM      8  C4  UNL A   1      44.252  28.280  26.147  1.00  0.00    +0.000 C 
BRANCH    8    7
ATOM      1  O1  UNL A   1      41.567  27.285  25.643  1.00  0.00    +0.000 O 
ATOM      2  C1  UNL A   1      42.549  26.582  25.563  1.00  0.00    +0.000 C 
ATOM      3  N1  UNL A   1      42.541  25.257  25.210  1.00  0.00    +0.000 N 
ATOM      4  C2  UNL A   1      43.729  24.596  25.159  1.00  0.00    +0.000 C 
ATOM      5  S1  UNL A   1      43.869  22.997  24.752  1.00  0.00    +0.000 S 
ATOM      6  S2  UNL A   1      45.029  25.683  25.584  1.00  0.00    +0.000 S 
ATOM      7  C3  UNL A   1      43.953  27.017  25.814  1.00  0.00    +0.000 C 
ATOM    103  H1  UNL A   1      41.697  24.797  24.999  1.00  0.00    +0.000 H 
ENDBRANCH    8    7
ENDBRANCH    9    8
ENDBRANCH   13   12
ENDBRANCH   14   13
ENDBRANCH   15   14
ENDBRANCH   18   17
ENDBRANCH   22   21
ENDBRANCH   24   22
ENDBRANCH   25   24
ENDBRANCH   26   25
ENDBRANCH   27   26
ENDBRANCH   28   27
ENDBRANCH   29   28
ENDBRANCH   30   29
ENDBRANCH   31   30
ENDBRANCH   32   31
ENDBRANCH   34   32
ENDBRANCH   38   37
BRANCH   42   43
ATOM     43  C32 UNL A   1      41.577  32.893  36.440  1.00  0.00    +0.000 C 
ATOM     44  C33 UNL A   1      40.394  33.651  36.556  1.00  0.00    +0.000 C 
ATOM     45  F1  UNL A   1      39.569  33.796  35.507  1.00  0.00    +0.000 F 
ATOM     46  C34 UNL A   1      40.083  34.362  37.718  1.00  0.00    +0.000 C 
ATOM     47  F2  UNL A   1      39.021  35.180  37.732  1.00  0.00    +0.000 F 
ATOM     48  C35 UNL A   1      40.904  34.287  38.827  1.00  0.00    +0.000 C 
ATOM     49  F3  UNL A   1      40.646  35.020  39.917  1.00  0.00    +0.000 F 
ATOM     50  C36 UNL A   1      42.024  33.484  38.783  1.00  0.00    +0.000 C 
ATOM     51  F4  UNL A   1      42.840  33.409  39.843  1.00  0.00    +0.000 F 
ATOM     52  C37 UNL A   1      42.366  32.818  37.608  1.00  0.00    +0.000 C 
ATOM     53  F5  UNL A   1      43.550  32.196  37.635  1.00  0.00    +0.000 F 
ENDBRANCH   42   43
BRANCH   59   60
ATOM     65  C46 UNL A   1      39.274  27.547  28.872  1.00  0.00    +0.000 C 
ATOM     66  F8  UNL A   1      39.177  26.860  27.724  1.00  0.00    +0.000 F 
ATOM     67  C47 UNL A   1      39.793  28.832  28.872  1.00  0.00    +0.000 C 
ATOM     68  F9  UNL A   1      40.177  29.398  27.720  1.00  0.00    +0.000 F 
ATOM     69  C48 UNL A   1      39.888  29.551  30.060  1.00  0.00    +0.000 C 
ATOM     70  F10 UNL A   1      40.372  30.802  30.018  1.00  0.00    +0.000 F 
ATOM     60  C43 UNL A   1      39.440  29.014  31.273  1.00  0.00    +0.000 C 
ATOM     61  C44 UNL A   1      38.885  27.723  31.240  1.00  0.00    +0.000 C 
ATOM     62  F6  UNL A   1      38.335  27.183  32.335  1.00  0.00    +0.000 F 
ATOM     63  C45 UNL A   1      38.827  26.988  30.057  1.00  0.00    +0.000 C 
ATOM     64  F7  UNL A   1      38.302  25.754  30.057  1.00  0.00    +0.000 F 
ENDBRANCH   59   60
BRANCH   74   75
ATOM     75  C52 UNL A   1      35.293  33.670  30.574  1.00  0.00    +0.000 C 
ATOM     76  C53 UNL A   1      34.881  34.731  31.398  1.00  0.00    +0.000 C 
ATOM     77  F11 UNL A   1      35.565  35.026  32.512  1.00  0.00    +0.000 F 
ATOM     78  C54 UNL A   1      33.802  35.554  31.054  1.00  0.00    +0.000 C 
ATOM     79  F12 UNL A   1      33.483  36.598  31.831  1.00  0.00    +0.000 F 
ATOM     80  C55 UNL A   1      33.099  35.334  29.881  1.00  0.00    +0.000 C 
ATOM     81  F13 UNL A   1      32.110  36.163  29.516  1.00  0.00    +0.000 F 
ATOM     82  C56 UNL A   1      33.455  34.278  29.066  1.00  0.00    +0.000 C 
ATOM     83  F14 UNL A   1      32.805  34.072  27.911  1.00  0.00    +0.000 F 
ATOM     84  C57 UNL A   1      34.535  33.461  29.404  1.00  0.00    +0.000 C 
ATOM     85  F15 UNL A   1      34.881  32.521  28.514  1.00  0.00    +0.000 F 
ENDBRANCH   74   75
TORSDOF 21
ENDMDL
MODEL 4
REMARK VINA RESULT:      -8.5     29.710     36.514
ROOT
ATOM    129  H27 UNL A   1       5.597  -0.304  20.141  1.00  0.00    +0.000 H 
ATOM    130  H28 UNL A   1       5.559   3.728  19.797  1.00  0.00    +0.000 H 
ATOM    131  H29 UNL A   1      13.095   1.322  17.649  1.00  0.00    +0.000 H 
ATOM    132  H30 UNL A   1      12.743   0.127  19.868  1.00  0.00    +0.000 H 
ATOM    133  H31 UNL A   1       9.467   2.609  19.306  1.00  0.00    +0.000 H 
ATOM    134  H32 UNL A   1       9.410   5.516  17.983  1.00  0.00    +0.000 H 
ATOM    135  H33 UNL A   1       7.286   4.525  19.067  1.00  0.00    +0.000 H 
ATOM    136  H34 UNL A   1       8.650   4.270  24.347  1.00  0.00    +0.000 H 
ATOM    137  H35 UNL A   1      10.938   3.518  23.421  1.00  0.00    +0.000 H 
ATOM     38  C28 UNL A   1      10.683   1.379  21.495  1.00  0.00    +0.000 C 
ATOM     39  C29 UNL A   1       9.619   2.194  22.133  1.00  0.00    +0.000 C 
ATOM     40  N5  UNL A   1       8.342   2.032  22.016  1.00  0.00    +0.000 N 
ATOM     41  C30 UNL A   1       7.756   3.064  22.741  1.00  0.00    +0.000 C 
ATOM     42  C31 UNL A   1       6.518   3.525  22.411  1.00  0.00    +0.000 C 
ATOM     54  C38 UNL A   1       5.833   2.587  21.553  1.00  0.00    +0.000 C 
ATOM     55  C39 UNL A   1       5.459   1.262  21.677  1.00  0.00    +0.000 C 
ATOM     56  C40 UNL A   1       5.707   0.691  20.394  1.00  0.00    +0.000 C 
ATOM     57  C41 UNL A   1       6.127   1.713  19.541  1.00  0.00    +0.000 C 
ATOM     58  N6  UNL A   1       5.789   2.863  20.208  1.00  0.00    +0.000 N 
ATOM     59  C42 UNL A   1       6.817   1.703  18.276  1.00  0.00    +0.000 C 
ATOM     71  C49 UNL A   1       7.578   2.735  17.805  1.00  0.00    +0.000 C 
ATOM     72  N7  UNL A   1       8.548   2.524  16.835  1.00  0.00    +0.000 N 
ATOM     73  C50 UNL A   1       9.446   3.446  17.064  1.00  0.00    +0.000 C 
ATOM     74  C51 UNL A   1      10.909   3.175  17.021  1.00  0.00    +0.000 C 
ATOM     86  C58 UNL A   1      11.173   2.338  18.056  1.00  0.00    +0.000 C 
ATOM     87  C59 UNL A   1      12.301   1.467  18.292  1.00  0.00    +0.000 C 
ATOM     88  C60 UNL A   1      12.140   0.875  19.491  1.00  0.00    +0.000 C 
ATOM     89  C61 UNL A   1      10.982   1.453  20.178  1.00  0.00    +0.000 C 
ATOM     90  N8  UNL A   1      10.361   2.210  19.209  1.00  0.00    +0.000 N 
ATOM     91  C62 UNL A   1       8.992   4.581  17.854  1.00  0.00    +0.000 C 
ATOM     92  C63 UNL A   1       7.874   4.054  18.362  1.00  0.00    +0.000 C 
ATOM     93  C64 UNL A   1       8.802   3.630  23.551  1.00  0.00    +0.000 C 
ATOM     94  C65 UNL A   1       9.997   3.210  23.129  1.00  0.00    +0.000 C 
ATOM    128  H26 UNL A   1       5.084   0.789  22.514  1.00  0.00    +0.000 H 
ENDROOT
BRANCH   38   37
ATOM     34  C24 UNL A   1      13.126  -0.452  24.379  1.00  0.00    +0.000 C 
ATOM     35  C25 UNL A   1      12.112  -1.220  23.798  1.00  0.00    +0.000 C 
ATOM     36  C26 UNL A   1      11.339  -0.656  22.787  1.00  0.00    +0.000 C 
ATOM     37  C27 UNL A   1      11.556   0.682  22.432  1.00  0.00    +0.000 C 
ATOM    138  H36 UNL A   1      12.629   2.448  22.855  1.00  0.00    +0.000 H 
ATOM    139  H37 UNL A   1      14.273   1.309  24.215  1.00  0.00    +0.000 H 
ATOM    127  H25 UNL A   1      10.617  -1.216  22.306  1.00  0.00    +0.000 H 
ATOM    126  H24 UNL A   1      11.938  -2.187  24.115  1.00  0.00    +0.000 H 
ATOM     95  C66 UNL A   1      12.548   1.437  23.047  1.00  0.00    +0.000 C 
ATOM     96  C67 UNL A   1      13.413   0.826  23.911  1.00  0.00    +0.000 C 
BRANCH   34   32
ATOM     33  O4  UNL A   1      13.561  -1.968  26.112  1.00  0.00    +0.000 O 
ATOM     32  C23 UNL A   1      13.901  -0.947  25.527  1.00  0.00    +0.000 C 
BRANCH   32   31
ATOM    125  H23 UNL A   1      15.798  -0.285  25.322  1.00  0.00    +0.000 H 
ATOM     31  N4  UNL A   1      15.018  -0.238  25.921  1.00  0.00    +0.000 N 
BRANCH   31   30
ATOM    123  H21 UNL A   1      14.418   0.294  27.835  1.00  0.00    +0.000 H 
ATOM    124  H22 UNL A   1      16.148   0.403  27.529  1.00  0.00    +0.000 H 
ATOM     30  C22 UNL A   1      15.171   0.574  27.129  1.00  0.00    +0.000 C 
BRANCH   30   29
ATOM    121  H19 UNL A   1      16.012   2.477  26.723  1.00  0.00    +0.000 H 
ATOM    122  H20 UNL A   1      14.469   2.145  25.917  1.00  0.00    +0.000 H 
ATOM     29  C21 UNL A   1      15.033   2.056  26.822  1.00  0.00    +0.000 C 
BRANCH   29   28
ATOM     28  C20 UNL A   1      14.276   2.825  27.915  1.00  0.00    +0.000 C 
ATOM    119  H17 UNL A   1      14.572   2.426  28.862  1.00  0.00    +0.000 H 
ATOM    120  H18 UNL A   1      14.533   3.854  27.778  1.00  0.00    +0.000 H 
BRANCH   28   27
ATOM     27  C19 UNL A   1      12.742   2.760  27.833  1.00  0.00    +0.000 C 
ATOM    117  H15 UNL A   1      12.461   2.813  26.802  1.00  0.00    +0.000 H 
ATOM    118  H16 UNL A   1      12.456   1.842  28.304  1.00  0.00    +0.000 H 
BRANCH   27   26
ATOM     26  C18 UNL A   1      12.006   3.877  28.585  1.00  0.00    +0.000 C 
ATOM    115  H13 UNL A   1      12.115   3.711  29.637  1.00  0.00    +0.000 H 
ATOM    116  H14 UNL A   1      12.440   4.808  28.286  1.00  0.00    +0.000 H 
BRANCH   26   25
ATOM     25  C17 UNL A   1      10.514   3.930  28.248  1.00  0.00    +0.000 C 
ATOM    114  H12 UNL A   1      10.244   4.934  27.995  1.00  0.00    +0.000 H 
ATOM    113  H11 UNL A   1       9.947   3.606  29.096  1.00  0.00    +0.000 H 
BRANCH   25   24
ATOM    112  H10 UNL A   1      10.961   3.031  26.458  1.00  0.00    +0.000 H 
ATOM     24  N3  UNL A   1      10.236   3.062  27.123  1.00  0.00    +0.000 N 
BRANCH   24   22
ATOM     22  C16 UNL A   1       9.161   2.274  26.802  1.00  0.00    +0.000 C 
ATOM     23  O3  UNL A   1       8.041   2.773  26.907  1.00  0.00    +0.000 O 
BRANCH   22   21
ATOM     97  C68 UNL A   1      10.108  -0.088  27.086  1.00  0.00    +0.000 C 
ATOM     98  C69 UNL A   1      10.009  -1.453  26.813  1.00  0.00    +0.000 C 
ATOM    140  H38 UNL A   1      10.798   0.245  27.778  1.00  0.00    +0.000 H 
ATOM    141  H39 UNL A   1      10.537  -2.137  27.377  1.00  0.00    +0.000 H 
ATOM    110  H8  UNL A   1       7.946  -1.267  24.174  1.00  0.00    +0.000 H 
ATOM    111  H9  UNL A   1       7.935   1.070  24.826  1.00  0.00    +0.000 H 
ATOM     18  C12 UNL A   1       9.191  -1.883  25.770  1.00  0.00    +0.000 C 
ATOM     19  C13 UNL A   1       8.481  -0.957  25.000  1.00  0.00    +0.000 C 
ATOM     20  C14 UNL A   1       8.502   0.392  25.358  1.00  0.00    +0.000 C 
ATOM     21  C15 UNL A   1       9.286   0.836  26.433  1.00  0.00    +0.000 C 
BRANCH   18   17
ATOM     99  N9  UNL A   1       9.994  -3.851  24.650  1.00  0.00    +0.000 N 
ATOM    100  N10 UNL A   1       9.705  -5.139  24.602  1.00  0.00    +0.000 N 
ATOM    109  H7  UNL A   1       7.314  -3.987  26.447  1.00  0.00    +0.000 H 
ATOM     15  C10 UNL A   1       8.571  -5.366  25.340  1.00  0.00    +0.000 C 
ATOM     16  C11 UNL A   1       8.152  -4.165  25.872  1.00  0.00    +0.000 C 
ATOM     17  N2  UNL A   1       9.101  -3.254  25.463  1.00  0.00    +0.000 N 
BRANCH   15   14
ATOM    107  H5  UNL A   1       7.104  -6.685  26.024  1.00  0.00    +0.000 H 
ATOM    108  H6  UNL A   1       7.686  -6.939  24.346  1.00  0.00    +0.000 H 
ATOM     14  C9  UNL A   1       7.944  -6.721  25.361  1.00  0.00    +0.000 C 
BRANCH   14   13
ATOM     13  O2  UNL A   1       8.797  -7.798  25.789  1.00  0.00    +0.000 O 
BRANCH   13   12
ATOM    101  C70 UNL A   1       9.235 -10.207  25.570  1.00  0.00    +0.000 C 
ATOM    102  C71 UNL A   1       8.922 -11.392  24.902  1.00  0.00    +0.000 C 
ATOM      9  C5  UNL A   1       8.162 -11.365  23.732  1.00  0.00    +0.000 C 
ATOM     10  C6  UNL A   1       7.779 -10.132  23.198  1.00  0.00    +0.000 C 
ATOM    105  H3  UNL A   1       7.290 -10.092  22.291  1.00  0.00    +0.000 H 
ATOM     11  C7  UNL A   1       8.060  -8.951  23.896  1.00  0.00    +0.000 C 
ATOM    106  H4  UNL A   1       7.766  -8.044  23.503  1.00  0.00    +0.000 H 
ATOM     12  C8  UNL A   1       8.733  -8.989  25.119  1.00  0.00    +0.000 C 
ATOM    143  H41 UNL A   1       9.254 -12.294  25.277  1.00  0.00    +0.000 H 
ATOM    142  H40 UNL A   1       9.842 -10.234  26.405  1.00  0.00    +0.000 H 
BRANCH    9    8
ATOM    104  H2  UNL A   1       7.140 -13.249  23.614  1.00  0.00    +0.000 H 
ATOM      8  C4  UNL A   1       7.770 -12.622  23.092  1.00  0.00    +0.000 C 
BRANCH    8    7
ATOM      1  O1  UNL A   1      10.062 -14.332  22.567  1.00  0.00    +0.000 O 
ATOM      2  C1  UNL A   1       9.355 -13.900  21.685  1.00  0.00    +0.000 C 
ATOM      3  N1  UNL A   1       9.514 -14.166  20.349  1.00  0.00    +0.000 N 
ATOM      4  C2  UNL A   1       8.634 -13.611  19.473  1.00  0.00    +0.000 C 
ATOM      5  S1  UNL A   1       8.706 -13.842  17.835  1.00  0.00    +0.000 S 
ATOM      6  S2  UNL A   1       7.464 -12.646  20.340  1.00  0.00    +0.000 S 
ATOM      7  C3  UNL A   1       8.171 -13.015  21.875  1.00  0.00    +0.000 C 
ATOM    103  H1  UNL A   1      10.245 -14.744  20.034  1.00  0.00    +0.000 H 
ENDBRANCH    8    7
ENDBRANCH    9    8
ENDBRANCH   13   12
ENDBRANCH   14   13
ENDBRANCH   15   14
ENDBRANCH   18   17
ENDBRANCH   22   21
ENDBRANCH   24   22
ENDBRANCH   25   24
ENDBRANCH   26   25
ENDBRANCH   27   26
ENDBRANCH   28   27
ENDBRANCH   29   28
ENDBRANCH   30   29
ENDBRANCH   31   30
ENDBRANCH   32   31
ENDBRANCH   34   32
ENDBRANCH   38   37
BRANCH   42   43
ATOM     43  C32 UNL A   1       6.076   4.964  22.522  1.00  0.00    +0.000 C 
ATOM     44  C33 UNL A   1       4.859   5.252  23.174  1.00  0.00    +0.000 C 
ATOM     45  F1  UNL A   1       4.251   4.322  23.928  1.00  0.00    +0.000 F 
ATOM     46  C34 UNL A   1       4.187   6.462  22.985  1.00  0.00    +0.000 C 
ATOM     47  F2  UNL A   1       2.967   6.634  23.512  1.00  0.00    +0.000 F 
ATOM     48  C35 UNL A   1       4.738   7.454  22.195  1.00  0.00    +0.000 C 
ATOM     49  F3  UNL A   1       4.066   8.586  21.956  1.00  0.00    +0.000 F 
ATOM     50  C36 UNL A   1       5.970   7.245  21.613  1.00  0.00    +0.000 C 
ATOM     51  F4  UNL A   1       6.514   8.188  20.832  1.00  0.00    +0.000 F 
ATOM     52  C37 UNL A   1       6.617   6.019  21.755  1.00  0.00    +0.000 C 
ATOM     53  F5  UNL A   1       7.726   5.877  21.022  1.00  0.00    +0.000 F 
ENDBRANCH   42   43
BRANCH   59   60
ATOM     65  C46 UNL A   1       7.308  -2.003  16.117  1.00  0.00    +0.000 C 
ATOM     66  F8  UNL A   1       7.526  -3.130  15.424  1.00  0.00    +0.000 F 
ATOM     67  C47 UNL A   1       8.088  -1.706  17.224  1.00  0.00    +0.000 C 
ATOM     68  F9  UNL A   1       9.077  -2.533  17.587  1.00  0.00    +0.000 F 
ATOM     69  C48 UNL A   1       7.869  -0.534  17.942  1.00  0.00    +0.000 C 
ATOM     70  F10 UNL A   1       8.661  -0.265  18.992  1.00  0.00    +0.000 F 
ATOM     60  C43 UNL A   1       6.885   0.384  17.555  1.00  0.00    +0.000 C 
ATOM     61  C44 UNL A   1       6.132   0.076  16.409  1.00  0.00    +0.000 C 
ATOM     62  F6  UNL A   1       5.249   0.950  15.911  1.00  0.00    +0.000 F 
ATOM     63  C45 UNL A   1       6.324  -1.118  15.714  1.00  0.00    +0.000 C 
ATOM     64  F7  UNL A   1       5.584  -1.391  14.630  1.00  0.00    +0.000 F 
ENDBRANCH   59   60
BRANCH   74   75
ATOM     75  C52 UNL A   1      11.858   3.959  16.193  1.00  0.00    +0.000 C 
ATOM     76  C53 UNL A   1      12.832   4.778  16.787  1.00  0.00    +0.000 C 
ATOM     77  F11 UNL A   1      12.784   5.041  18.101  1.00  0.00    +0.000 F 
ATOM     78  C54 UNL A   1      13.915   5.283  16.057  1.00  0.00    +0.000 C 
ATOM     79  F12 UNL A   1      14.860   6.005  16.676  1.00  0.00    +0.000 F 
ATOM     80  C55 UNL A   1      14.050   4.991  14.710  1.00  0.00    +0.000 C 
ATOM     81  F13 UNL A   1      15.122   5.416  14.027  1.00  0.00    +0.000 F 
ATOM     82  C56 UNL A   1      13.090   4.218  14.087  1.00  0.00    +0.000 C 
ATOM     83  F14 UNL A   1      13.224   3.898  12.791  1.00  0.00    +0.000 F 
ATOM     84  C57 UNL A   1      12.014   3.708  14.815  1.00  0.00    +0.000 C 
ATOM     85  F15 UNL A   1      11.182   2.885  14.163  1.00  0.00    +0.000 F 
ENDBRANCH   74   75
TORSDOF 21
ENDMDL
MODEL 5
REMARK VINA RESULT:      -8.4      4.661      9.377
ROOT
ATOM    129  H27 UNL A   1       8.968  28.491  -4.865  1.00  0.00    +0.000 H 
ATOM    130  H28 UNL A   1       9.409  32.507  -4.653  1.00  0.00    +0.000 H 
ATOM    131  H29 UNL A   1      12.658  29.484   2.239  1.00  0.00    +0.000 H 
ATOM    132  H30 UNL A   1      10.379  28.353   2.157  1.00  0.00    +0.000 H 
ATOM    133  H31 UNL A   1      10.483  31.077  -0.969  1.00  0.00    +0.000 H 
ATOM    134  H32 UNL A   1      11.857  33.960  -1.017  1.00  0.00    +0.000 H 
ATOM    135  H33 UNL A   1      10.424  33.156  -3.010  1.00  0.00    +0.000 H 
ATOM    136  H34 UNL A   1       5.421  32.869  -0.843  1.00  0.00    +0.000 H 
ATOM    137  H35 UNL A   1       6.677  31.926   1.204  1.00  0.00    +0.000 H 
ATOM     38  C28 UNL A   1       8.481  29.787   0.484  1.00  0.00    +0.000 C 
ATOM     39  C29 UNL A   1       7.705  30.692  -0.400  1.00  0.00    +0.000 C 
ATOM     40  N5  UNL A   1       7.613  30.629  -1.687  1.00  0.00    +0.000 N 
ATOM     41  C30 UNL A   1       6.833  31.715  -2.070  1.00  0.00    +0.000 C 
ATOM     42  C31 UNL A   1       6.975  32.267  -3.307  1.00  0.00    +0.000 C 
ATOM     54  C38 UNL A   1       7.688  31.374  -4.189  1.00  0.00    +0.000 C 
ATOM     55  C39 UNL A   1       7.472  30.084  -4.637  1.00  0.00    +0.000 C 
ATOM     56  C40 UNL A   1       8.762  29.477  -4.641  1.00  0.00    +0.000 C 
ATOM     57  C41 UNL A   1       9.697  30.450  -4.287  1.00  0.00    +0.000 C 
ATOM     58  N6  UNL A   1       9.017  31.633  -4.426  1.00  0.00    +0.000 N 
ATOM     59  C42 UNL A   1      11.056  30.368  -3.811  1.00  0.00    +0.000 C 
ATOM     71  C49 UNL A   1      11.668  31.330  -3.059  1.00  0.00    +0.000 C 
ATOM     72  N7  UNL A   1      12.773  31.029  -2.275  1.00  0.00    +0.000 N 
ATOM     73  C50 UNL A   1      12.714  31.881  -1.285  1.00  0.00    +0.000 C 
ATOM     74  C51 UNL A   1      12.980  31.495   0.127  1.00  0.00    +0.000 C 
ATOM     86  C58 UNL A   1      11.978  30.654   0.490  1.00  0.00    +0.000 C 
ATOM     87  C59 UNL A   1      11.901  29.701   1.571  1.00  0.00    +0.000 C 
ATOM     88  C60 UNL A   1      10.677  29.141   1.560  1.00  0.00    +0.000 C 
ATOM     89  C61 UNL A   1       9.830  29.817   0.573  1.00  0.00    +0.000 C 
ATOM     90  N8  UNL A   1      10.709  30.607  -0.135  1.00  0.00    +0.000 N 
ATOM     91  C62 UNL A   1      11.893  33.059  -1.520  1.00  0.00    +0.000 C 
ATOM     92  C63 UNL A   1      11.200  32.629  -2.579  1.00  0.00    +0.000 C 
ATOM     93  C64 UNL A   1       6.214  32.208  -0.868  1.00  0.00    +0.000 C 
ATOM     94  C65 UNL A   1       6.809  31.689   0.208  1.00  0.00    +0.000 C 
ATOM    128  H26 UNL A   1       6.574  29.655  -4.909  1.00  0.00    +0.000 H 
ENDROOT
BRANCH   38   37
ATOM     34  C24 UNL A   1       6.009  27.841   3.266  1.00  0.00    +0.000 C 
ATOM     35  C25 UNL A   1       6.116  27.287   1.987  1.00  0.00    +0.000 C 
ATOM     36  C26 UNL A   1       6.988  27.872   1.073  1.00  0.00    +0.000 C 
ATOM     37  C27 UNL A   1       7.676  29.036   1.441  1.00  0.00    +0.000 C 
ATOM    138  H36 UNL A   1       7.953  30.503   2.931  1.00  0.00    +0.000 H 
ATOM    139  H37 UNL A   1       6.856  29.194   4.643  1.00  0.00    +0.000 H 
ATOM    127  H25 UNL A   1       7.125  27.455   0.139  1.00  0.00    +0.000 H 
ATOM    126  H24 UNL A   1       5.558  26.459   1.724  1.00  0.00    +0.000 H 
ATOM     95  C66 UNL A   1       7.527  29.590   2.707  1.00  0.00    +0.000 C 
ATOM     96  C67 UNL A   1       6.807  28.913   3.652  1.00  0.00    +0.000 C 
BRANCH   34   32
ATOM     33  O4  UNL A   1       3.857  27.712   4.187  1.00  0.00    +0.000 O 
ATOM     32  C23 UNL A   1       5.024  27.341   4.239  1.00  0.00    +0.000 C 
BRANCH   32   31
ATOM    125  H23 UNL A   1       5.147  26.619   6.121  1.00  0.00    +0.000 H 
ATOM     31  N4  UNL A   1       5.446  26.445   5.199  1.00  0.00    +0.000 N 
BRANCH   31   30
ATOM    123  H21 UNL A   1       5.972  24.755   4.114  1.00  0.00    +0.000 H 
ATOM    124  H22 UNL A   1       7.305  25.587   4.909  1.00  0.00    +0.000 H 
ATOM     30  C22 UNL A   1       6.289  25.265   5.000  1.00  0.00    +0.000 C 
BRANCH   30   29
ATOM    121  H19 UNL A   1       6.106  23.312   5.805  1.00  0.00    +0.000 H 
ATOM    122  H20 UNL A   1       7.079  24.439   6.767  1.00  0.00    +0.000 H 
ATOM     29  C21 UNL A   1       6.194  24.311   6.179  1.00  0.00    +0.000 C 
BRANCH   29   28
ATOM     28  C20 UNL A   1       4.991  24.602   7.088  1.00  0.00    +0.000 C 
ATOM    119  H17 UNL A   1       4.357  25.299   6.581  1.00  0.00    +0.000 H 
ATOM    120  H18 UNL A   1       4.530  23.654   7.275  1.00  0.00    +0.000 H 
BRANCH   28   27
ATOM     27  C19 UNL A   1       5.326  25.187   8.470  1.00  0.00    +0.000 C 
ATOM    117  H15 UNL A   1       4.682  26.024   8.642  1.00  0.00    +0.000 H 
ATOM    118  H16 UNL A   1       5.186  24.393   9.174  1.00  0.00    +0.000 H 
BRANCH   27   26
ATOM     26  C18 UNL A   1       6.776  25.660   8.637  1.00  0.00    +0.000 C 
ATOM    115  H13 UNL A   1       7.214  25.768   7.666  1.00  0.00    +0.000 H 
ATOM    116  H14 UNL A   1       6.755  26.589   9.166  1.00  0.00    +0.000 H 
BRANCH   26   25
ATOM     25  C17 UNL A   1       7.625  24.681   9.452  1.00  0.00    +0.000 C 
ATOM    114  H12 UNL A   1       7.089  23.762   9.571  1.00  0.00    +0.000 H 
ATOM    113  H11 UNL A   1       7.831  25.105  10.413  1.00  0.00    +0.000 H 
BRANCH   25   24
ATOM    112  H10 UNL A   1       9.155  23.479   8.800  1.00  0.00    +0.000 H 
ATOM     24  N3  UNL A   1       8.871  24.421   8.763  1.00  0.00    +0.000 N 
BRANCH   24   22
ATOM     22  C16 UNL A   1       9.733  25.228   8.067  1.00  0.00    +0.000 C 
ATOM     23  O3  UNL A   1      10.248  26.165   8.677  1.00  0.00    +0.000 O 
BRANCH   22   21
ATOM     97  C68 UNL A   1      10.492  23.926   5.997  1.00  0.00    +0.000 C 
ATOM     98  C69 UNL A   1      10.507  23.799   4.607  1.00  0.00    +0.000 C 
ATOM    140  H38 UNL A   1      10.858  23.159   6.583  1.00  0.00    +0.000 H 
ATOM    141  H39 UNL A   1      10.773  22.903   4.169  1.00  0.00    +0.000 H 
ATOM    110  H8  UNL A   1       9.637  26.944   3.828  1.00  0.00    +0.000 H 
ATOM    111  H9  UNL A   1       9.374  27.067   6.237  1.00  0.00    +0.000 H 
ATOM     18  C12 UNL A   1      10.160  24.894   3.818  1.00  0.00    +0.000 C 
ATOM     19  C13 UNL A   1       9.807  26.110   4.412  1.00  0.00    +0.000 C 
ATOM     20  C14 UNL A   1       9.688  26.187   5.800  1.00  0.00    +0.000 C 
ATOM     21  C15 UNL A   1       9.991  25.080   6.608  1.00  0.00    +0.000 C 
BRANCH   18   17
ATOM     99  N9  UNL A   1      10.544  25.839   1.643  1.00  0.00    +0.000 N 
ATOM    100  N10 UNL A   1      10.558  25.433   0.387  1.00  0.00    +0.000 N 
ATOM    109  H7  UNL A   1       9.527  22.787   1.929  1.00  0.00    +0.000 H 
ATOM     15  C10 UNL A   1      10.150  24.125   0.339  1.00  0.00    +0.000 C 
ATOM     16  C11 UNL A   1       9.883  23.707   1.625  1.00  0.00    +0.000 C 
ATOM     17  N2  UNL A   1      10.197  24.792   2.415  1.00  0.00    +0.000 N 
BRANCH   15   14
ATOM    107  H5  UNL A   1       9.341  22.581  -0.811  1.00  0.00    +0.000 H 
ATOM    108  H6  UNL A   1       9.512  24.174  -1.620  1.00  0.00    +0.000 H 
ATOM     14  C9  UNL A   1       9.954  23.443  -0.975  1.00  0.00    +0.000 C 
BRANCH   14   13
ATOM     13  O2  UNL A   1      11.155  23.010  -1.639  1.00  0.00    +0.000 O 
BRANCH   13   12
ATOM    101  C70 UNL A   1      12.052  22.276  -3.807  1.00  0.00    +0.000 C 
ATOM    102  C71 UNL A   1      11.848  22.195  -5.186  1.00  0.00    +0.000 C 
ATOM      9  C5  UNL A   1      10.815  22.913  -5.790  1.00  0.00    +0.000 C 
ATOM     10  C6  UNL A   1      10.033  23.768  -5.010  1.00  0.00    +0.000 C 
ATOM    105  H3  UNL A   1       9.322  24.368  -5.456  1.00  0.00    +0.000 H 
ATOM     11  C7  UNL A   1      10.216  23.811  -3.623  1.00  0.00    +0.000 C 
ATOM    106  H4  UNL A   1       9.630  24.437  -3.049  1.00  0.00    +0.000 H 
ATOM     12  C8  UNL A   1      11.185  23.015  -3.008  1.00  0.00    +0.000 C 
ATOM    143  H41 UNL A   1      12.464  21.601  -5.761  1.00  0.00    +0.000 H 
ATOM    142  H40 UNL A   1      12.852  21.783  -3.378  1.00  0.00    +0.000 H 
BRANCH    9    8
ATOM    104  H2  UNL A   1      10.545  21.791  -7.601  1.00  0.00    +0.000 H 
ATOM      8  C4  UNL A   1      10.561  22.751  -7.223  1.00  0.00    +0.000 C 
BRANCH    8    7
ATOM      1  O1  UNL A   1       8.141  23.113  -8.794  1.00  0.00    +0.000 O 
ATOM      2  C1  UNL A   1       9.073  23.883  -8.845  1.00  0.00    +0.000 C 
ATOM      3  N1  UNL A   1       9.113  25.019  -9.612  1.00  0.00    +0.000 N 
ATOM      4  C2  UNL A   1      10.232  25.792  -9.561  1.00  0.00    +0.000 C 
ATOM      5  S1  UNL A   1      10.420  27.186 -10.435  1.00  0.00    +0.000 S 
ATOM      6  S2  UNL A   1      11.391  25.083  -8.463  1.00  0.00    +0.000 S 
ATOM      7  C3  UNL A   1      10.345  23.760  -8.078  1.00  0.00    +0.000 C 
ATOM    103  H1  UNL A   1       8.352  25.269 -10.183  1.00  0.00    +0.000 H 
ENDBRANCH    8    7
ENDBRANCH    9    8
ENDBRANCH   13   12
ENDBRANCH   14   13
ENDBRANCH   15   14
ENDBRANCH   18   17
ENDBRANCH   22   21
ENDBRANCH   24   22
ENDBRANCH   25   24
ENDBRANCH   26   25
ENDBRANCH   27   26
ENDBRANCH   28   27
ENDBRANCH   29   28
ENDBRANCH   30   29
ENDBRANCH   31   30
ENDBRANCH   32   31
ENDBRANCH   34   32
ENDBRANCH   38   37
BRANCH   42   43
ATOM     43  C32 UNL A   1       6.834  33.738  -3.615  1.00  0.00    +0.000 C 
ATOM     44  C33 UNL A   1       5.805  34.153  -4.485  1.00  0.00    +0.000 C 
ATOM     45  F1  UNL A   1       4.801  33.320  -4.803  1.00  0.00    +0.000 F 
ATOM     46  C34 UNL A   1       5.836  35.392  -5.129  1.00  0.00    +0.000 C 
ATOM     47  F2  UNL A   1       4.910  35.684  -6.053  1.00  0.00    +0.000 F 
ATOM     48  C35 UNL A   1       6.856  36.289  -4.875  1.00  0.00    +0.000 C 
ATOM     49  F3  UNL A   1       6.927  37.447  -5.541  1.00  0.00    +0.000 F 
ATOM     50  C36 UNL A   1       7.834  35.956  -3.962  1.00  0.00    +0.000 C 
ATOM     51  F4  UNL A   1       8.840  36.805  -3.713  1.00  0.00    +0.000 F 
ATOM     52  C37 UNL A   1       7.836  34.699  -3.360  1.00  0.00    +0.000 C 
ATOM     53  F5  UNL A   1       8.913  34.432  -2.613  1.00  0.00    +0.000 F 
ENDBRANCH   42   43
BRANCH   59   60
ATOM     65  C46 UNL A   1      12.811  26.478  -4.459  1.00  0.00    +0.000 C 
ATOM     66  F8  UNL A   1      13.301  25.254  -4.707  1.00  0.00    +0.000 F 
ATOM     67  C47 UNL A   1      12.800  27.438  -5.458  1.00  0.00    +0.000 C 
ATOM     68  F9  UNL A   1      13.257  27.136  -6.681  1.00  0.00    +0.000 F 
ATOM     69  C48 UNL A   1      12.286  28.707  -5.207  1.00  0.00    +0.000 C 
ATOM     70  F10 UNL A   1      12.266  29.603  -6.206  1.00  0.00    +0.000 F 
ATOM     60  C43 UNL A   1      11.743  29.038  -3.959  1.00  0.00    +0.000 C 
ATOM     61  C44 UNL A   1      11.734  28.035  -2.974  1.00  0.00    +0.000 C 
ATOM     62  F6  UNL A   1      11.136  28.237  -1.793  1.00  0.00    +0.000 F 
ATOM     63  C45 UNL A   1      12.286  26.777  -3.213  1.00  0.00    +0.000 C 
ATOM     64  F7  UNL A   1      12.274  25.843  -2.252  1.00  0.00    +0.000 F 
ENDBRANCH   59   60
BRANCH   74   75
ATOM     75  C52 UNL A   1      13.969  32.189   0.988  1.00  0.00    +0.000 C 
ATOM     76  C53 UNL A   1      15.347  31.958   0.842  1.00  0.00    +0.000 C 
ATOM     77  F11 UNL A   1      15.784  30.947   0.077  1.00  0.00    +0.000 F 
ATOM     78  C54 UNL A   1      16.301  32.804   1.419  1.00  0.00    +0.000 C 
ATOM     79  F12 UNL A   1      17.606  32.588   1.199  1.00  0.00    +0.000 F 
ATOM     80  C55 UNL A   1      15.906  33.900   2.167  1.00  0.00    +0.000 C 
ATOM     81  F13 UNL A   1      16.818  34.750   2.662  1.00  0.00    +0.000 F 
ATOM     82  C56 UNL A   1      14.559  34.136   2.361  1.00  0.00    +0.000 C 
ATOM     83  F14 UNL A   1      14.160  35.213   3.054  1.00  0.00    +0.000 F 
ATOM     84  C57 UNL A   1      13.606  33.298   1.780  1.00  0.00    +0.000 C 
ATOM     85  F15 UNL A   1      12.322  33.650   1.930  1.00  0.00    +0.000 F 
ENDBRANCH   74   75
TORSDOF 21
ENDMDL
MODEL 6
REMARK VINA RESULT:      -8.4     39.238     46.264
ROOT
ATOM    129  H27 UNL A   1      45.127  31.020  31.186  1.00  0.00    +0.000 H 
ATOM    130  H28 UNL A   1      45.202  27.323  32.828  1.00  0.00    +0.000 H 
ATOM    131  H29 UNL A   1      40.709  26.700  26.001  1.00  0.00    +0.000 H 
ATOM    132  H30 UNL A   1      39.664  28.704  27.172  1.00  0.00    +0.000 H 
ATOM    133  H31 UNL A   1      42.482  27.125  29.775  1.00  0.00    +0.000 H 
ATOM    134  H32 UNL A   1      43.223  24.053  30.238  1.00  0.00    +0.000 H 
ATOM    135  H33 UNL A   1      44.264  25.893  31.722  1.00  0.00    +0.000 H 
ATOM    136  H34 UNL A   1      39.942  27.804  34.458  1.00  0.00    +0.000 H 
ATOM    137  H35 UNL A   1      38.748  27.528  32.188  1.00  0.00    +0.000 H 
ATOM     38  C28 UNL A   1      40.226  28.748  30.025  1.00  0.00    +0.000 C 
ATOM     39  C29 UNL A   1      40.635  28.544  31.437  1.00  0.00    +0.000 C 
ATOM     40  N5  UNL A   1      41.716  28.969  32.002  1.00  0.00    +0.000 N 
ATOM     41  C30 UNL A   1      41.686  28.484  33.305  1.00  0.00    +0.000 C 
ATOM     42  C31 UNL A   1      42.843  28.265  33.988  1.00  0.00    +0.000 C 
ATOM     54  C38 UNL A   1      43.950  28.941  33.354  1.00  0.00    +0.000 C 
ATOM     55  C39 UNL A   1      44.222  30.259  33.038  1.00  0.00    +0.000 C 
ATOM     56  C40 UNL A   1      44.843  30.208  31.755  1.00  0.00    +0.000 C 
ATOM     57  C41 UNL A   1      44.997  28.866  31.405  1.00  0.00    +0.000 C 
ATOM     58  N6  UNL A   1      44.803  28.189  32.582  1.00  0.00    +0.000 N 
ATOM     59  C42 UNL A   1      45.237  28.210  30.144  1.00  0.00    +0.000 C 
ATOM     71  C49 UNL A   1      44.887  26.919  29.868  1.00  0.00    +0.000 C 
ATOM     72  N7  UNL A   1      44.733  26.484  28.559  1.00  0.00    +0.000 N 
ATOM     73  C50 UNL A   1      43.848  25.525  28.635  1.00  0.00    +0.000 C 
ATOM     74  C51 UNL A   1      42.736  25.374  27.656  1.00  0.00    +0.000 C 
ATOM     86  C58 UNL A   1      41.924  26.448  27.832  1.00  0.00    +0.000 C 
ATOM     87  C59 UNL A   1      40.929  27.022  26.957  1.00  0.00    +0.000 C 
ATOM     88  C60 UNL A   1      40.340  28.050  27.597  1.00  0.00    +0.000 C 
ATOM     89  C61 UNL A   1      40.801  28.099  28.987  1.00  0.00    +0.000 C 
ATOM     90  N8  UNL A   1      41.856  27.214  29.021  1.00  0.00    +0.000 N 
ATOM     91  C62 UNL A   1      43.669  24.939  29.955  1.00  0.00    +0.000 C 
ATOM     92  C63 UNL A   1      44.256  25.889  30.691  1.00  0.00    +0.000 C 
ATOM     93  C64 UNL A   1      40.340  28.026  33.531  1.00  0.00    +0.000 C 
ATOM     94  C65 UNL A   1      39.680  27.929  32.375  1.00  0.00    +0.000 C 
ATOM    128  H26 UNL A   1      44.020  31.097  33.606  1.00  0.00    +0.000 H 
ENDROOT
BRANCH   38   37
ATOM     34  C24 UNL A   1      36.771  31.024  29.306  1.00  0.00    +0.000 C 
ATOM     35  C25 UNL A   1      36.632  29.635  29.391  1.00  0.00    +0.000 C 
ATOM     36  C26 UNL A   1      37.751  28.867  29.703  1.00  0.00    +0.000 C 
ATOM     37  C27 UNL A   1      38.990  29.504  29.854  1.00  0.00    +0.000 C 
ATOM    138  H36 UNL A   1      40.041  31.329  29.736  1.00  0.00    +0.000 H 
ATOM    139  H37 UNL A   1      38.027  32.667  29.713  1.00  0.00    +0.000 H 
ATOM    127  H25 UNL A   1      37.668  27.846  29.822  1.00  0.00    +0.000 H 
ATOM    126  H24 UNL A   1      35.718  29.186  29.224  1.00  0.00    +0.000 H 
ATOM     95  C66 UNL A   1      39.111  30.883  29.730  1.00  0.00    +0.000 C 
ATOM     96  C67 UNL A   1      37.982  31.642  29.598  1.00  0.00    +0.000 C 
BRANCH   34   32
ATOM     33  O4  UNL A   1      35.531  32.181  27.688  1.00  0.00    +0.000 O 
ATOM     32  C23 UNL A   1      35.657  31.880  28.869  1.00  0.00    +0.000 C 
BRANCH   32   31
ATOM    125  H23 UNL A   1      34.289  31.632  30.334  1.00  0.00    +0.000 H 
ATOM     31  N4  UNL A   1      34.759  32.326  29.818  1.00  0.00    +0.000 N 
BRANCH   31   30
ATOM    123  H21 UNL A   1      34.992  34.365  29.504  1.00  0.00    +0.000 H 
ATOM    124  H22 UNL A   1      33.379  33.855  29.993  1.00  0.00    +0.000 H 
ATOM     30  C22 UNL A   1      34.429  33.715  30.141  1.00  0.00    +0.000 C 
BRANCH   30   29
ATOM    121  H19 UNL A   1      35.676  34.583  31.619  1.00  0.00    +0.000 H 
ATOM    122  H20 UNL A   1      33.941  34.613  31.981  1.00  0.00    +0.000 H 
ATOM     29  C21 UNL A   1      34.755  34.039  31.590  1.00  0.00    +0.000 C 
BRANCH   29   28
ATOM     28  C20 UNL A   1      34.897  32.785  32.466  1.00  0.00    +0.000 C 
ATOM    119  H17 UNL A   1      33.986  32.663  33.014  1.00  0.00    +0.000 H 
ATOM    120  H18 UNL A   1      35.109  31.982  31.793  1.00  0.00    +0.000 H 
BRANCH   28   27
ATOM     27  C19 UNL A   1      36.056  32.807  33.476  1.00  0.00    +0.000 C 
ATOM    117  H15 UNL A   1      35.763  32.234  34.331  1.00  0.00    +0.000 H 
ATOM    118  H16 UNL A   1      36.906  32.402  32.966  1.00  0.00    +0.000 H 
BRANCH   27   26
ATOM     26  C18 UNL A   1      36.468  34.204  33.957  1.00  0.00    +0.000 C 
ATOM    115  H13 UNL A   1      36.233  34.913  33.190  1.00  0.00    +0.000 H 
ATOM    116  H14 UNL A   1      35.932  34.407  34.860  1.00  0.00    +0.000 H 
BRANCH   26   25
ATOM     25  C17 UNL A   1      37.963  34.301  34.273  1.00  0.00    +0.000 C 
ATOM    114  H12 UNL A   1      38.227  35.327  34.424  1.00  0.00    +0.000 H 
ATOM    113  H11 UNL A   1      38.525  33.900  33.456  1.00  0.00    +0.000 H 
BRANCH   25   24
ATOM    112  H10 UNL A   1      38.736  32.705  35.306  1.00  0.00    +0.000 H 
ATOM     24  N3  UNL A   1      38.258  33.549  35.475  1.00  0.00    +0.000 N 
BRANCH   24   22
ATOM     22  C16 UNL A   1      38.005  33.782  36.802  1.00  0.00    +0.000 C 
ATOM     23  O3  UNL A   1      36.948  33.349  37.261  1.00  0.00    +0.000 O 
BRANCH   22   21
ATOM     97  C68 UNL A   1      39.743  35.617  37.211  1.00  0.00    +0.000 C 
ATOM     98  C69 UNL A   1      40.381  36.477  38.105  1.00  0.00    +0.000 C 
ATOM    140  H38 UNL A   1      39.901  35.728  36.196  1.00  0.00    +0.000 H 
ATOM    141  H39 UNL A   1      40.915  37.289  37.757  1.00  0.00    +0.000 H 
ATOM    110  H8  UNL A   1      39.578  34.891  40.951  1.00  0.00    +0.000 H 
ATOM    111  H9  UNL A   1      38.272  33.562  39.398  1.00  0.00    +0.000 H 
ATOM     18  C12 UNL A   1      40.290  36.229  39.474  1.00  0.00    +0.000 C 
ATOM     19  C13 UNL A   1      39.572  35.126  39.946  1.00  0.00    +0.000 C 
ATOM     20  C14 UNL A   1      38.848  34.343  39.046  1.00  0.00    +0.000 C 
ATOM     21  C15 UNL A   1      38.892  34.606  37.669  1.00  0.00    +0.000 C 
BRANCH   18   17
ATOM     99  N9  UNL A   1      41.144  36.700  41.669  1.00  0.00    +0.000 N 
ATOM    100  N10 UNL A   1      41.844  37.647  42.266  1.00  0.00    +0.000 N 
ATOM    109  H7  UNL A   1      41.400  38.903  39.322  1.00  0.00    +0.000 H 
ATOM     15  C10 UNL A   1      42.049  38.673  41.379  1.00  0.00    +0.000 C 
ATOM     16  C11 UNL A   1      41.455  38.335  40.181  1.00  0.00    +0.000 C 
ATOM     17  N2  UNL A   1      40.950  37.070  40.389  1.00  0.00    +0.000 N 
BRANCH   15   14
ATOM    107  H5  UNL A   1      42.207  40.279  42.704  1.00  0.00    +0.000 H 
ATOM    108  H6  UNL A   1      43.740  39.685  41.983  1.00  0.00    +0.000 H 
ATOM     14  C9  UNL A   1      42.711  39.935  41.825  1.00  0.00    +0.000 C 
BRANCH   14   13
ATOM     13  O2  UNL A   1      42.712  41.010  40.868  1.00  0.00    +0.000 O 
BRANCH   13   12
ATOM    101  C70 UNL A   1      40.958  42.477  39.967  1.00  0.00    +0.000 C 
ATOM    102  C71 UNL A   1      39.888  43.328  40.255  1.00  0.00    +0.000 C 
ATOM      9  C5  UNL A   1      39.664  43.764  41.561  1.00  0.00    +0.000 C 
ATOM     10  C6  UNL A   1      40.563  43.397  42.565  1.00  0.00    +0.000 C 
ATOM    105  H3  UNL A   1      40.458  43.779  43.518  1.00  0.00    +0.000 H 
ATOM     11  C7  UNL A   1      41.607  42.510  42.278  1.00  0.00    +0.000 C 
ATOM    106  H4  UNL A   1      42.263  42.234  43.025  1.00  0.00    +0.000 H 
ATOM     12  C8  UNL A   1      41.770  41.996  40.989  1.00  0.00    +0.000 C 
ATOM    143  H41 UNL A   1      39.260  43.635  39.497  1.00  0.00    +0.000 H 
ATOM    142  H40 UNL A   1      41.146  42.205  38.989  1.00  0.00    +0.000 H 
BRANCH    9    8
ATOM    104  H2  UNL A   1      37.594  44.099  42.027  1.00  0.00    +0.000 H 
ATOM      8  C4  UNL A   1      38.489  44.585  41.860  1.00  0.00    +0.000 C 
BRANCH    8    7
ATOM      1  O1  UNL A   1      36.375  46.192  43.044  1.00  0.00    +0.000 O 
ATOM      2  C1  UNL A   1      37.373  46.679  42.564  1.00  0.00    +0.000 C 
ATOM      3  N1  UNL A   1      37.656  48.021  42.532  1.00  0.00    +0.000 N 
ATOM      4  C2  UNL A   1      38.824  48.419  41.961  1.00  0.00    +0.000 C 
ATOM      5  S1  UNL A   1      39.293  50.003  41.848  1.00  0.00    +0.000 S 
ATOM      6  S2  UNL A   1      39.708  47.025  41.387  1.00  0.00    +0.000 S 
ATOM      7  C3  UNL A   1      38.493  45.923  41.935  1.00  0.00    +0.000 C 
ATOM    103  H1  UNL A   1      37.029  48.677  42.911  1.00  0.00    +0.000 H 
ENDBRANCH    8    7
ENDBRANCH    9    8
ENDBRANCH   13   12
ENDBRANCH   14   13
ENDBRANCH   15   14
ENDBRANCH   18   17
ENDBRANCH   22   21
ENDBRANCH   24   22
ENDBRANCH   25   24
ENDBRANCH   26   25
ENDBRANCH   27   26
ENDBRANCH   28   27
ENDBRANCH   29   28
ENDBRANCH   30   29
ENDBRANCH   31   30
ENDBRANCH   32   31
ENDBRANCH   34   32
ENDBRANCH   38   37
BRANCH   42   43
ATOM     43  C32 UNL A   1      43.062  27.144  34.976  1.00  0.00    +0.000 C 
ATOM     44  C33 UNL A   1      43.331  27.470  36.321  1.00  0.00    +0.000 C 
ATOM     45  F1  UNL A   1      43.116  28.713  36.780  1.00  0.00    +0.000 F 
ATOM     46  C34 UNL A   1      43.924  26.558  37.198  1.00  0.00    +0.000 C 
ATOM     47  F2  UNL A   1      44.290  26.956  38.425  1.00  0.00    +0.000 F 
ATOM     48  C35 UNL A   1      44.205  25.269  36.785  1.00  0.00    +0.000 C 
ATOM     49  F3  UNL A   1      44.836  24.415  37.599  1.00  0.00    +0.000 F 
ATOM     50  C36 UNL A   1      43.874  24.886  35.503  1.00  0.00    +0.000 C 
ATOM     51  F4  UNL A   1      44.152  23.646  35.078  1.00  0.00    +0.000 F 
ATOM     52  C37 UNL A   1      43.333  25.808  34.609  1.00  0.00    +0.000 C 
ATOM     53  F5  UNL A   1      43.197  25.367  33.354  1.00  0.00    +0.000 F 
ENDBRANCH   42   43
BRANCH   59   60
ATOM     65  C46 UNL A   1      46.660  30.907  27.088  1.00  0.00    +0.000 C 
ATOM     66  F8  UNL A   1      47.129  31.788  26.192  1.00  0.00    +0.000 F 
ATOM     67  C47 UNL A   1      47.541  30.173  27.867  1.00  0.00    +0.000 C 
ATOM     68  F9  UNL A   1      48.861  30.361  27.742  1.00  0.00    +0.000 F 
ATOM     69  C48 UNL A   1      47.058  29.262  28.803  1.00  0.00    +0.000 C 
ATOM     70  F10 UNL A   1      47.939  28.588  29.558  1.00  0.00    +0.000 F 
ATOM     60  C43 UNL A   1      45.683  29.084  29.004  1.00  0.00    +0.000 C 
ATOM     61  C44 UNL A   1      44.812  29.866  28.225  1.00  0.00    +0.000 C 
ATOM     62  F6  UNL A   1      43.490  29.835  28.433  1.00  0.00    +0.000 F 
ATOM     63  C45 UNL A   1      45.296  30.748  27.259  1.00  0.00    +0.000 C 
ATOM     64  F7  UNL A   1      44.442  31.474  26.524  1.00  0.00    +0.000 F 
ENDBRANCH   59   60
BRANCH   74   75
ATOM     75  C52 UNL A   1      42.469  24.118  26.915  1.00  0.00    +0.000 C 
ATOM     76  C53 UNL A   1      43.417  23.587  26.023  1.00  0.00    +0.000 C 
ATOM     77  F11 UNL A   1      44.482  24.315  25.658  1.00  0.00    +0.000 F 
ATOM     78  C54 UNL A   1      43.326  22.274  25.547  1.00  0.00    +0.000 C 
ATOM     79  F12 UNL A   1      44.287  21.783  24.752  1.00  0.00    +0.000 F 
ATOM     80  C55 UNL A   1      42.280  21.456  25.942  1.00  0.00    +0.000 C 
ATOM     81  F13 UNL A   1      42.230  20.177  25.542  1.00  0.00    +0.000 F 
ATOM     82  C56 UNL A   1      41.312  21.958  26.789  1.00  0.00    +0.000 C 
ATOM     83  F14 UNL A   1      40.311  21.168  27.206  1.00  0.00    +0.000 F 
ATOM     84  C57 UNL A   1      41.405  23.264  27.270  1.00  0.00    +0.000 C 
ATOM     85  F15 UNL A   1      40.483  23.644  28.165  1.00  0.00    +0.000 F 
ENDBRANCH   74   75
TORSDOF 21
ENDMDL
MODEL 7
REMARK VINA RESULT:      -8.4     30.187     36.957
ROOT
ATOM    129  H27 UNL A   1       5.736  -0.518  20.156  1.00  0.00    +0.000 H 
ATOM    130  H28 UNL A   1       5.451   3.511  19.925  1.00  0.00    +0.000 H 
ATOM    131  H29 UNL A   1      13.257   1.673  18.232  1.00  0.00    +0.000 H 
ATOM    132  H30 UNL A   1      12.839   0.386  20.388  1.00  0.00    +0.000 H 
ATOM    133  H31 UNL A   1       9.449   2.667  19.672  1.00  0.00    +0.000 H 
ATOM    134  H32 UNL A   1       9.286   5.605  18.432  1.00  0.00    +0.000 H 
ATOM    135  H33 UNL A   1       7.165   4.444  19.339  1.00  0.00    +0.000 H 
ATOM    136  H34 UNL A   1       8.188   4.102  24.691  1.00  0.00    +0.000 H 
ATOM    137  H35 UNL A   1      10.577   3.532  23.904  1.00  0.00    +0.000 H 
ATOM     38  C28 UNL A   1      10.596   1.446  21.904  1.00  0.00    +0.000 C 
ATOM     39  C29 UNL A   1       9.439   2.168  22.490  1.00  0.00    +0.000 C 
ATOM     40  N5  UNL A   1       8.187   1.928  22.282  1.00  0.00    +0.000 N 
ATOM     41  C30 UNL A   1       7.486   2.895  22.994  1.00  0.00    +0.000 C 
ATOM     42  C31 UNL A   1       6.244   3.285  22.593  1.00  0.00    +0.000 C 
ATOM     54  C38 UNL A   1       5.682   2.333  21.663  1.00  0.00    +0.000 C 
ATOM     55  C39 UNL A   1       5.392   0.984  21.723  1.00  0.00    +0.000 C 
ATOM     56  C40 UNL A   1       5.762   0.472  20.444  1.00  0.00    +0.000 C 
ATOM     57  C41 UNL A   1       6.168   1.547  19.652  1.00  0.00    +0.000 C 
ATOM     58  N6  UNL A   1       5.710   2.650  20.326  1.00  0.00    +0.000 N 
ATOM     59  C42 UNL A   1       6.941   1.625  18.437  1.00  0.00    +0.000 C 
ATOM     71  C49 UNL A   1       7.660   2.719  18.050  1.00  0.00    +0.000 C 
ATOM     72  N7  UNL A   1       8.704   2.603  17.143  1.00  0.00    +0.000 N 
ATOM     73  C50 UNL A   1       9.521   3.574  17.460  1.00  0.00    +0.000 C 
ATOM     74  C51 UNL A   1      10.999   3.400  17.510  1.00  0.00    +0.000 C 
ATOM     86  C58 UNL A   1      11.249   2.548  18.536  1.00  0.00    +0.000 C 
ATOM     87  C59 UNL A   1      12.414   1.745  18.823  1.00  0.00    +0.000 C 
ATOM     88  C60 UNL A   1      12.214   1.105  19.991  1.00  0.00    +0.000 C 
ATOM     89  C61 UNL A   1      10.976   1.583  20.614  1.00  0.00    +0.000 C 
ATOM     90  N8  UNL A   1      10.372   2.329  19.626  1.00  0.00    +0.000 N 
ATOM     91  C62 UNL A   1       8.941   4.650  18.249  1.00  0.00    +0.000 C 
ATOM     92  C63 UNL A   1       7.829   4.035  18.663  1.00  0.00    +0.000 C 
ATOM     93  C64 UNL A   1       8.435   3.501  23.890  1.00  0.00    +0.000 C 
ATOM     94  C65 UNL A   1       9.681   3.174  23.538  1.00  0.00    +0.000 C 
ATOM    128  H26 UNL A   1       4.993   0.460  22.518  1.00  0.00    +0.000 H 
ENDROOT
BRANCH   38   37
ATOM     34  C24 UNL A   1      13.043  -0.262  24.859  1.00  0.00    +0.000 C 
ATOM     35  C25 UNL A   1      11.835  -0.901  24.561  1.00  0.00    +0.000 C 
ATOM     36  C26 UNL A   1      11.044  -0.395  23.533  1.00  0.00    +0.000 C 
ATOM     37  C27 UNL A   1      11.450   0.776  22.878  1.00  0.00    +0.000 C 
ATOM    138  H36 UNL A   1      12.873   2.331  22.804  1.00  0.00    +0.000 H 
ATOM    139  H37 UNL A   1      14.456   1.160  24.207  1.00  0.00    +0.000 H 
ATOM    127  H25 UNL A   1      10.173  -0.875  23.257  1.00  0.00    +0.000 H 
ATOM    126  H24 UNL A   1      11.534  -1.732  25.094  1.00  0.00    +0.000 H 
ATOM     95  C66 UNL A   1      12.638   1.415  23.216  1.00  0.00    +0.000 C 
ATOM     96  C67 UNL A   1      13.489   0.815  24.101  1.00  0.00    +0.000 C 
BRANCH   34   32
ATOM     33  O4  UNL A   1      13.549  -1.649  26.679  1.00  0.00    +0.000 O 
ATOM     32  C23 UNL A   1      13.867  -0.677  26.005  1.00  0.00    +0.000 C 
BRANCH   32   31
ATOM    125  H23 UNL A   1      15.765  -0.067  25.682  1.00  0.00    +0.000 H 
ATOM     31  N4  UNL A   1      15.003   0.051  26.294  1.00  0.00    +0.000 N 
BRANCH   31   30
ATOM    123  H21 UNL A   1      14.627   0.642  28.248  1.00  0.00    +0.000 H 
ATOM    124  H22 UNL A   1      16.244   0.998  27.650  1.00  0.00    +0.000 H 
ATOM     30  C22 UNL A   1      15.202   0.977  27.410  1.00  0.00    +0.000 C 
BRANCH   30   29
ATOM    121  H19 UNL A   1      15.625   3.026  27.068  1.00  0.00    +0.000 H 
ATOM    122  H20 UNL A   1      14.330   2.344  26.069  1.00  0.00    +0.000 H 
ATOM     29  C21 UNL A   1      14.767   2.386  27.044  1.00  0.00    +0.000 C 
BRANCH   29   28
ATOM     28  C20 UNL A   1      13.707   2.952  28.001  1.00  0.00    +0.000 C 
ATOM    119  H17 UNL A   1      13.906   2.565  28.978  1.00  0.00    +0.000 H 
ATOM    120  H18 UNL A   1      13.790   4.017  27.932  1.00  0.00    +0.000 H 
BRANCH   28   27
ATOM     27  C19 UNL A   1      12.248   2.619  27.649  1.00  0.00    +0.000 C 
ATOM    117  H15 UNL A   1      12.193   2.436  26.596  1.00  0.00    +0.000 H 
ATOM    118  H16 UNL A   1      11.983   1.768  28.241  1.00  0.00    +0.000 H 
BRANCH   27   26
ATOM     26  C18 UNL A   1      11.233   3.717  27.995  1.00  0.00    +0.000 C 
ATOM    115  H13 UNL A   1      11.498   4.143  28.940  1.00  0.00    +0.000 H 
ATOM    116  H14 UNL A   1      11.264   4.445  27.212  1.00  0.00    +0.000 H 
BRANCH   26   25
ATOM     25  C17 UNL A   1       9.799   3.187  28.080  1.00  0.00    +0.000 C 
ATOM    114  H12 UNL A   1       9.119   3.957  27.782  1.00  0.00    +0.000 H 
ATOM    113  H11 UNL A   1       9.589   2.891  29.087  1.00  0.00    +0.000 H 
BRANCH   25   24
ATOM    112  H10 UNL A   1      10.500   1.678  26.878  1.00  0.00    +0.000 H 
ATOM     24  N3  UNL A   1       9.646   2.047  27.201  1.00  0.00    +0.000 N 
BRANCH   24   22
ATOM     22  C16 UNL A   1       8.546   1.378  26.731  1.00  0.00    +0.000 C 
ATOM     23  O3  UNL A   1       7.466   1.969  26.764  1.00  0.00    +0.000 O 
BRANCH   22   21
ATOM     97  C68 UNL A   1       9.251  -1.073  26.951  1.00  0.00    +0.000 C 
ATOM     98  C69 UNL A   1       9.065  -2.406  26.580  1.00  0.00    +0.000 C 
ATOM    140  H38 UNL A   1       9.890  -0.845  27.730  1.00  0.00    +0.000 H 
ATOM    141  H39 UNL A   1       9.470  -3.166  27.148  1.00  0.00    +0.000 H 
ATOM    110  H8  UNL A   1       7.315  -1.880  23.766  1.00  0.00    +0.000 H 
ATOM    111  H9  UNL A   1       7.436   0.407  24.567  1.00  0.00    +0.000 H 
ATOM     18  C12 UNL A   1       8.327  -2.699  25.434  1.00  0.00    +0.000 C 
ATOM     19  C13 UNL A   1       7.784  -1.668  24.661  1.00  0.00    +0.000 C 
ATOM     20  C14 UNL A   1       7.883  -0.350  25.107  1.00  0.00    +0.000 C 
ATOM     21  C15 UNL A   1       8.585  -0.042  26.282  1.00  0.00    +0.000 C 
BRANCH   18   17
ATOM     99  N9  UNL A   1       9.025  -4.636  24.199  1.00  0.00    +0.000 N 
ATOM    100  N10 UNL A   1       8.651  -5.894  24.054  1.00  0.00    +0.000 N 
ATOM    109  H7  UNL A   1       6.293  -4.708  25.919  1.00  0.00    +0.000 H 
ATOM     15  C10 UNL A   1       7.484  -6.092  24.748  1.00  0.00    +0.000 C 
ATOM     16  C11 UNL A   1       7.133  -4.904  25.352  1.00  0.00    +0.000 C 
ATOM     17  N2  UNL A   1       8.153  -4.036  25.030  1.00  0.00    +0.000 N 
BRANCH   15   14
ATOM    107  H5  UNL A   1       6.948  -7.937  25.566  1.00  0.00    +0.000 H 
ATOM    108  H6  UNL A   1       5.736  -7.155  24.499  1.00  0.00    +0.000 H 
ATOM     14  C9  UNL A   1       6.765  -7.398  24.659  1.00  0.00    +0.000 C 
BRANCH   14   13
ATOM     13  O2  UNL A   1       7.144  -8.245  23.559  1.00  0.00    +0.000 O 
BRANCH   13   12
ATOM    101  C70 UNL A   1       8.735  -9.588  24.866  1.00  0.00    +0.000 C 
ATOM    102  C71 UNL A   1       9.206 -10.867  25.170  1.00  0.00    +0.000 C 
ATOM      9  C5  UNL A   1       8.830 -11.963  24.392  1.00  0.00    +0.000 C 
ATOM     10  C6  UNL A   1       8.035 -11.754  23.263  1.00  0.00    +0.000 C 
ATOM    105  H3  UNL A   1       7.819 -12.541  22.631  1.00  0.00    +0.000 H 
ATOM     11  C7  UNL A   1       7.532 -10.477  22.988  1.00  0.00    +0.000 C 
ATOM    106  H4  UNL A   1       6.937 -10.330  22.159  1.00  0.00    +0.000 H 
ATOM     12  C8  UNL A   1       7.828  -9.400  23.827  1.00  0.00    +0.000 C 
ATOM    143  H41 UNL A   1       9.835 -11.002  25.976  1.00  0.00    +0.000 H 
ATOM    142  H40 UNL A   1       9.062  -8.778  25.415  1.00  0.00    +0.000 H 
BRANCH    9    8
ATOM    104  H2  UNL A   1       9.666 -13.431  25.717  1.00  0.00    +0.000 H 
ATOM      8  C4  UNL A   1       9.263 -13.308  24.775  1.00  0.00    +0.000 C 
BRANCH    8    7
ATOM      1  O1  UNL A   1       7.220 -15.363  25.005  1.00  0.00    +0.000 O 
ATOM      2  C1  UNL A   1       8.091 -15.399  24.165  1.00  0.00    +0.000 C 
ATOM      3  N1  UNL A   1       8.221 -16.376  23.211  1.00  0.00    +0.000 N 
ATOM      4  C2  UNL A   1       9.251 -16.280  22.328  1.00  0.00    +0.000 C 
ATOM      5  S1  UNL A   1       9.534 -17.386  21.128  1.00  0.00    +0.000 S 
ATOM      6  S2  UNL A   1      10.191 -14.846  22.668  1.00  0.00    +0.000 S 
ATOM      7  C3  UNL A   1       9.173 -14.390  23.990  1.00  0.00    +0.000 C 
ATOM    103  H1  UNL A   1       7.587 -17.126  23.167  1.00  0.00    +0.000 H 
ENDBRANCH    8    7
ENDBRANCH    9    8
ENDBRANCH   13   12
ENDBRANCH   14   13
ENDBRANCH   15   14
ENDBRANCH   18   17
ENDBRANCH   22   21
ENDBRANCH   24   22
ENDBRANCH   25   24
ENDBRANCH   26   25
ENDBRANCH   27   26
ENDBRANCH   28   27
ENDBRANCH   29   28
ENDBRANCH   30   29
ENDBRANCH   31   30
ENDBRANCH   32   31
ENDBRANCH   34   32
ENDBRANCH   38   37
BRANCH   42   43
ATOM     43  C32 UNL A   1       5.701   4.688  22.714  1.00  0.00    +0.000 C 
ATOM     44  C33 UNL A   1       6.465   5.758  22.204  1.00  0.00    +0.000 C 
ATOM     45  F1  UNL A   1       7.499   5.527  21.380  1.00  0.00    +0.000 F 
ATOM     46  C34 UNL A   1       6.252   7.078  22.609  1.00  0.00    +0.000 C 
ATOM     47  F2  UNL A   1       7.093   8.041  22.206  1.00  0.00    +0.000 F 
ATOM     48  C35 UNL A   1       5.226   7.386  23.483  1.00  0.00    +0.000 C 
ATOM     49  F3  UNL A   1       5.062   8.638  23.926  1.00  0.00    +0.000 F 
ATOM     50  C36 UNL A   1       4.400   6.379  23.934  1.00  0.00    +0.000 C 
ATOM     51  F4  UNL A   1       3.409   6.655  24.793  1.00  0.00    +0.000 F 
ATOM     52  C37 UNL A   1       4.644   5.055  23.575  1.00  0.00    +0.000 C 
ATOM     53  F5  UNL A   1       3.876   4.151  24.194  1.00  0.00    +0.000 F 
ENDBRANCH   42   43
BRANCH   59   60
ATOM     65  C46 UNL A   1       7.245  -2.166  16.395  1.00  0.00    +0.000 C 
ATOM     66  F8  UNL A   1       7.277  -3.365  15.793  1.00  0.00    +0.000 F 
ATOM     67  C47 UNL A   1       6.247  -1.257  16.079  1.00  0.00    +0.000 C 
ATOM     68  F9  UNL A   1       5.300  -1.585  15.191  1.00  0.00    +0.000 F 
ATOM     69  C48 UNL A   1       6.207  -0.015  16.707  1.00  0.00    +0.000 C 
ATOM     70  F10 UNL A   1       5.211   0.829  16.396  1.00  0.00    +0.000 F 
ATOM     60  C43 UNL A   1       7.145   0.338  17.685  1.00  0.00    +0.000 C 
ATOM     61  C44 UNL A   1       8.125  -0.616  18.011  1.00  0.00    +0.000 C 
ATOM     62  F6  UNL A   1       8.989  -0.399  19.010  1.00  0.00    +0.000 F 
ATOM     63  C45 UNL A   1       8.190  -1.844  17.354  1.00  0.00    +0.000 C 
ATOM     64  F7  UNL A   1       9.142  -2.730  17.678  1.00  0.00    +0.000 F 
ENDBRANCH   59   60
BRANCH   74   75
ATOM     75  C52 UNL A   1      11.946   4.271  16.772  1.00  0.00    +0.000 C 
ATOM     76  C53 UNL A   1      12.819   5.135  17.455  1.00  0.00    +0.000 C 
ATOM     77  F11 UNL A   1      12.662   5.353  18.768  1.00  0.00    +0.000 F 
ATOM     78  C54 UNL A   1      13.912   5.734  16.816  1.00  0.00    +0.000 C 
ATOM     79  F12 UNL A   1      14.760   6.497  17.519  1.00  0.00    +0.000 F 
ATOM     80  C55 UNL A   1      14.158   5.493  15.475  1.00  0.00    +0.000 C 
ATOM     81  F13 UNL A   1      15.243   6.010  14.880  1.00  0.00    +0.000 F 
ATOM     82  C56 UNL A   1      13.299   4.677  14.765  1.00  0.00    +0.000 C 
ATOM     83  F14 UNL A   1      13.544   4.407  13.474  1.00  0.00    +0.000 F 
ATOM     84  C57 UNL A   1      12.214   4.074  15.401  1.00  0.00    +0.000 C 
ATOM     85  F15 UNL A   1      11.486   3.218  14.671  1.00  0.00    +0.000 F 
ENDBRANCH   74   75
TORSDOF 21
ENDMDL
MODEL 8
REMARK VINA RESULT:      -8.3     37.466     43.256
ROOT
ATOM    129  H27 UNL A   1       6.396  15.700  39.123  1.00  0.00    +0.000 H 
ATOM    130  H28 UNL A   1       6.887  12.707  41.801  1.00  0.00    +0.000 H 
ATOM    131  H29 UNL A   1       1.877   9.788  36.008  1.00  0.00    +0.000 H 
ATOM    132  H30 UNL A   1       0.792  12.010  36.612  1.00  0.00    +0.000 H 
ATOM    133  H31 UNL A   1       3.934  11.447  39.260  1.00  0.00    +0.000 H 
ATOM    134  H32 UNL A   1       4.938   8.709  40.562  1.00  0.00    +0.000 H 
ATOM    135  H33 UNL A   1       5.965  10.964  41.293  1.00  0.00    +0.000 H 
ATOM    136  H34 UNL A   1       1.767  13.444  43.750  1.00  0.00    +0.000 H 
ATOM    137  H35 UNL A   1       0.404  12.422  41.814  1.00  0.00    +0.000 H 
ATOM     38  C28 UNL A   1       1.594  12.968  39.237  1.00  0.00    +0.000 C 
ATOM     39  C29 UNL A   1       2.138  13.232  40.593  1.00  0.00    +0.000 C 
ATOM     40  N5  UNL A   1       3.230  13.860  40.883  1.00  0.00    +0.000 N 
ATOM     41  C30 UNL A   1       3.349  13.805  42.267  1.00  0.00    +0.000 C 
ATOM     42  C31 UNL A   1       4.574  13.861  42.859  1.00  0.00    +0.000 C 
ATOM     54  C38 UNL A   1       5.569  14.352  41.935  1.00  0.00    +0.000 C 
ATOM     55  C39 UNL A   1       5.714  15.516  41.204  1.00  0.00    +0.000 C 
ATOM     56  C40 UNL A   1       6.223  15.094  39.940  1.00  0.00    +0.000 C 
ATOM     57  C41 UNL A   1       6.446  13.718  40.004  1.00  0.00    +0.000 C 
ATOM     58  N6  UNL A   1       6.405  13.435  41.345  1.00  0.00    +0.000 N 
ATOM     59  C42 UNL A   1       6.623  12.712  38.986  1.00  0.00    +0.000 C 
ATOM     71  C49 UNL A   1       6.347  11.386  39.158  1.00  0.00    +0.000 C 
ATOM     72  N7  UNL A   1       6.112  10.558  38.069  1.00  0.00    +0.000 N 
ATOM     73  C50 UNL A   1       5.311   9.633  38.528  1.00  0.00    +0.000 C 
ATOM     74  C51 UNL A   1       4.133   9.135  37.766  1.00  0.00    +0.000 C 
ATOM     86  C58 UNL A   1       3.262  10.173  37.689  1.00  0.00    +0.000 C 
ATOM     87  C59 UNL A   1       2.155  10.402  36.790  1.00  0.00    +0.000 C 
ATOM     88  C60 UNL A   1       1.548  11.551  37.143  1.00  0.00    +0.000 C 
ATOM     89  C61 UNL A   1       2.124  12.053  38.394  1.00  0.00    +0.000 C 
ATOM     90  N8  UNL A   1       3.240  11.269  38.586  1.00  0.00    +0.000 N 
ATOM     91  C62 UNL A   1       5.291   9.481  39.976  1.00  0.00    +0.000 C 
ATOM     92  C63 UNL A   1       5.868  10.637  40.319  1.00  0.00    +0.000 C 
ATOM     93  C64 UNL A   1       2.066  13.382  42.764  1.00  0.00    +0.000 C 
ATOM     94  C65 UNL A   1       1.317  12.901  41.769  1.00  0.00    +0.000 C 
ATOM    128  H26 UNL A   1       5.501  16.480  41.505  1.00  0.00    +0.000 H 
ENDROOT
BRANCH   38   37
ATOM     34  C24 UNL A   1      -2.120  14.646  38.225  1.00  0.00    +0.000 C 
ATOM     35  C25 UNL A   1      -2.098  13.652  39.208  1.00  0.00    +0.000 C 
ATOM     36  C26 UNL A   1      -0.870  13.135  39.613  1.00  0.00    +0.000 C 
ATOM     37  C27 UNL A   1       0.296  13.578  38.974  1.00  0.00    +0.000 C 
ATOM    138  H36 UNL A   1       1.096  14.782  37.439  1.00  0.00    +0.000 H 
ATOM    139  H37 UNL A   1      -0.958  16.020  37.127  1.00  0.00    +0.000 H 
ATOM    127  H25 UNL A   1      -0.820  12.437  40.371  1.00  0.00    +0.000 H 
ATOM    126  H24 UNL A   1      -2.976  13.306  39.626  1.00  0.00    +0.000 H 
ATOM     95  C66 UNL A   1       0.247  14.542  37.974  1.00  0.00    +0.000 C 
ATOM     96  C67 UNL A   1      -0.939  15.168  37.708  1.00  0.00    +0.000 C 
BRANCH   34   32
ATOM     33  O4  UNL A   1      -4.008  16.035  38.252  1.00  0.00    +0.000 O 
ATOM     32  C23 UNL A   1      -3.387  15.151  37.673  1.00  0.00    +0.000 C 
BRANCH   32   31
ATOM    125  H23 UNL A   1      -4.122  15.251  35.795  1.00  0.00    +0.000 H 
ATOM     31  N4  UNL A   1      -3.850  14.610  36.491  1.00  0.00    +0.000 N 
BRANCH   31   30
ATOM    123  H21 UNL A   1      -3.718  12.606  37.015  1.00  0.00    +0.000 H 
ATOM    124  H22 UNL A   1      -4.994  13.005  35.868  1.00  0.00    +0.000 H 
ATOM     30  C22 UNL A   1      -3.982  13.191  36.158  1.00  0.00    +0.000 C 
BRANCH   30   29
ATOM    121  H19 UNL A   1      -3.550  12.032  34.436  1.00  0.00    +0.000 H 
ATOM    122  H20 UNL A   1      -2.916  13.687  34.412  1.00  0.00    +0.000 H 
ATOM     29  C21 UNL A   1      -3.075  12.807  35.000  1.00  0.00    +0.000 C 
BRANCH   29   28
ATOM     28  C20 UNL A   1      -1.698  12.305  35.460  1.00  0.00    +0.000 C 
ATOM    119  H17 UNL A   1      -1.197  11.894  34.608  1.00  0.00    +0.000 H 
ATOM    120  H18 UNL A   1      -1.205  13.154  35.884  1.00  0.00    +0.000 H 
BRANCH   28   27
ATOM     27  C19 UNL A   1      -1.714  11.233  36.562  1.00  0.00    +0.000 C 
ATOM    117  H15 UNL A   1      -0.853  11.379  37.180  1.00  0.00    +0.000 H 
ATOM    118  H16 UNL A   1      -2.638  11.357  37.087  1.00  0.00    +0.000 H 
BRANCH   27   26
ATOM     26  C18 UNL A   1      -1.697   9.785  36.055  1.00  0.00    +0.000 C 
ATOM    115  H13 UNL A   1      -1.590   9.797  34.990  1.00  0.00    +0.000 H 
ATOM    116  H14 UNL A   1      -0.878   9.286  36.529  1.00  0.00    +0.000 H 
BRANCH   26   25
ATOM     25  C17 UNL A   1      -2.975   9.022  36.412  1.00  0.00    +0.000 C 
ATOM    114  H12 UNL A   1      -3.820   9.666  36.285  1.00  0.00    +0.000 H 
ATOM    113  H11 UNL A   1      -2.921   8.695  37.430  1.00  0.00    +0.000 H 
BRANCH   25   24
ATOM    112  H10 UNL A   1      -3.095   8.094  34.585  1.00  0.00    +0.000 H 
ATOM     24  N3  UNL A   1      -3.116   7.871  35.544  1.00  0.00    +0.000 N 
BRANCH   24   22
ATOM     22  C16 UNL A   1      -3.274   6.533  35.794  1.00  0.00    +0.000 C 
ATOM     23  O3  UNL A   1      -4.316   6.179  36.346  1.00  0.00    +0.000 O 
BRANCH   22   21
ATOM     97  C68 UNL A   1      -2.423   4.141  35.467  1.00  0.00    +0.000 C 
ATOM     98  C69 UNL A   1      -1.425   3.283  35.002  1.00  0.00    +0.000 C 
ATOM    140  H38 UNL A   1      -3.328   3.751  35.776  1.00  0.00    +0.000 H 
ATOM    141  H39 UNL A   1      -1.624   2.281  34.859  1.00  0.00    +0.000 H 
ATOM    110  H8  UNL A   1       1.077   5.511  34.824  1.00  0.00    +0.000 H 
ATOM    111  H9  UNL A   1      -0.734   7.024  35.387  1.00  0.00    +0.000 H 
ATOM     18  C12 UNL A   1      -0.156   3.794  34.735  1.00  0.00    +0.000 C 
ATOM     19  C13 UNL A   1       0.117   5.150  34.937  1.00  0.00    +0.000 C 
ATOM     20  C14 UNL A   1      -0.920   6.013  35.292  1.00  0.00    +0.000 C 
ATOM     21  C15 UNL A   1      -2.214   5.523  35.522  1.00  0.00    +0.000 C 
BRANCH   18   17
ATOM     99  N9  UNL A   1       2.100   2.976  34.839  1.00  0.00    +0.000 N 
ATOM    100  N10 UNL A   1       2.824   2.024  34.280  1.00  0.00    +0.000 N 
ATOM    109  H7  UNL A   1       0.044   1.789  32.650  1.00  0.00    +0.000 H 
ATOM     15  C10 UNL A   1       2.073   1.405  33.314  1.00  0.00    +0.000 C 
ATOM     16  C11 UNL A   1       0.830   2.000  33.285  1.00  0.00    +0.000 C 
ATOM     17  N2  UNL A   1       0.870   2.938  34.293  1.00  0.00    +0.000 N 
BRANCH   15   14
ATOM    107  H5  UNL A   1       3.747   0.490  32.464  1.00  0.00    +0.000 H 
ATOM    108  H6  UNL A   1       2.347  -0.576  32.815  1.00  0.00    +0.000 H 
ATOM     14  C9  UNL A   1       2.685   0.365  32.433  1.00  0.00    +0.000 C 
BRANCH   14   13
ATOM     13  O2  UNL A   1       2.277   0.397  31.054  1.00  0.00    +0.000 O 
BRANCH   13   12
ATOM    101  C70 UNL A   1       2.947  -0.176  28.759  1.00  0.00    +0.000 C 
ATOM    102  C71 UNL A   1       3.880  -0.821  27.944  1.00  0.00    +0.000 C 
ATOM      9  C5  UNL A   1       4.826  -1.684  28.499  1.00  0.00    +0.000 C 
ATOM     10  C6  UNL A   1       4.784  -1.950  29.869  1.00  0.00    +0.000 C 
ATOM    105  H3  UNL A   1       5.422  -2.649  30.280  1.00  0.00    +0.000 H 
ATOM     11  C7  UNL A   1       3.874  -1.268  30.686  1.00  0.00    +0.000 C 
ATOM    106  H4  UNL A   1       3.853  -1.460  31.699  1.00  0.00    +0.000 H 
ATOM     12  C8  UNL A   1       2.995  -0.329  30.142  1.00  0.00    +0.000 C 
ATOM    143  H41 UNL A   1       3.869  -0.658  26.926  1.00  0.00    +0.000 H 
ATOM    142  H40 UNL A   1       2.218   0.417  28.332  1.00  0.00    +0.000 H 
BRANCH    9    8
ATOM    104  H2  UNL A   1       5.681  -3.239  27.290  1.00  0.00    +0.000 H 
ATOM      8  C4  UNL A   1       5.850  -2.285  27.642  1.00  0.00    +0.000 C 
BRANCH    8    7
ATOM      1  O1  UNL A   1       6.582  -1.603  24.912  1.00  0.00    +0.000 O 
ATOM      2  C1  UNL A   1       7.294  -1.358  25.859  1.00  0.00    +0.000 C 
ATOM      3  N1  UNL A   1       8.505  -0.719  25.786  1.00  0.00    +0.000 N 
ATOM      4  C2  UNL A   1       9.193  -0.508  26.940  1.00  0.00    +0.000 C 
ATOM      5  S1  UNL A   1      10.666   0.245  27.003  1.00  0.00    +0.000 S 
ATOM      6  S2  UNL A   1       8.290  -1.149  28.292  1.00  0.00    +0.000 S 
ATOM      7  C3  UNL A   1       6.992  -1.682  27.281  1.00  0.00    +0.000 C 
ATOM    103  H1  UNL A   1       8.867  -0.421  24.921  1.00  0.00    +0.000 H 
ENDBRANCH    8    7
ENDBRANCH    9    8
ENDBRANCH   13   12
ENDBRANCH   14   13
ENDBRANCH   15   14
ENDBRANCH   18   17
ENDBRANCH   22   21
ENDBRANCH   24   22
ENDBRANCH   25   24
ENDBRANCH   26   25
ENDBRANCH   27   26
ENDBRANCH   28   27
ENDBRANCH   29   28
ENDBRANCH   30   29
ENDBRANCH   31   30
ENDBRANCH   32   31
ENDBRANCH   34   32
ENDBRANCH   38   37
BRANCH   42   43
ATOM     43  C32 UNL A   1       4.960  13.116  44.114  1.00  0.00    +0.000 C 
ATOM     44  C33 UNL A   1       4.730  11.726  44.175  1.00  0.00    +0.000 C 
ATOM     45  F1  UNL A   1       4.451  11.030  43.062  1.00  0.00    +0.000 F 
ATOM     46  C34 UNL A   1       4.678  11.037  45.390  1.00  0.00    +0.000 C 
ATOM     47  F2  UNL A   1       4.317   9.747  45.407  1.00  0.00    +0.000 F 
ATOM     48  C35 UNL A   1       4.922  11.697  46.580  1.00  0.00    +0.000 C 
ATOM     49  F3  UNL A   1       4.806  11.057  47.749  1.00  0.00    +0.000 F 
ATOM     50  C36 UNL A   1       5.240  13.038  46.554  1.00  0.00    +0.000 C 
ATOM     51  F4  UNL A   1       5.465  13.698  47.698  1.00  0.00    +0.000 F 
ATOM     52  C37 UNL A   1       5.238  13.739  45.350  1.00  0.00    +0.000 C 
ATOM     53  F5  UNL A   1       5.407  15.060  45.465  1.00  0.00    +0.000 F 
ENDBRANCH   42   43
BRANCH   59   60
ATOM     65  C46 UNL A   1       7.496  14.411  35.115  1.00  0.00    +0.000 C 
ATOM     66  F8  UNL A   1       7.776  15.004  33.945  1.00  0.00    +0.000 F 
ATOM     67  C47 UNL A   1       8.480  14.281  36.082  1.00  0.00    +0.000 C 
ATOM     68  F9  UNL A   1       9.707  14.770  35.858  1.00  0.00    +0.000 F 
ATOM     69  C48 UNL A   1       8.190  13.673  37.300  1.00  0.00    +0.000 C 
ATOM     70  F10 UNL A   1       9.160  13.588  38.224  1.00  0.00    +0.000 F 
ATOM     60  C43 UNL A   1       6.903  13.205  37.593  1.00  0.00    +0.000 C 
ATOM     61  C44 UNL A   1       5.915  13.381  36.608  1.00  0.00    +0.000 C 
ATOM     62  F6  UNL A   1       4.638  13.061  36.851  1.00  0.00    +0.000 F 
ATOM     63  C45 UNL A   1       6.215  13.953  35.373  1.00  0.00    +0.000 C 
ATOM     64  F7  UNL A   1       5.255  14.099  34.448  1.00  0.00    +0.000 F 
ENDBRANCH   59   60
BRANCH   74   75
ATOM     75  C52 UNL A   1       3.896   7.700  37.478  1.00  0.00    +0.000 C 
ATOM     76  C53 UNL A   1       4.738   6.987  36.607  1.00  0.00    +0.000 C 
ATOM     77  F11 UNL A   1       5.634   7.638  35.852  1.00  0.00    +0.000 F 
ATOM     78  C54 UNL A   1       4.725   5.588  36.551  1.00  0.00    +0.000 C 
ATOM     79  F12 UNL A   1       5.591   4.943  35.757  1.00  0.00    +0.000 F 
ATOM     80  C55 UNL A   1       3.863   4.862  37.356  1.00  0.00    +0.000 C 
ATOM     81  F13 UNL A   1       3.898   3.522  37.353  1.00  0.00    +0.000 F 
ATOM     82  C56 UNL A   1       2.997   5.533  38.197  1.00  0.00    +0.000 C 
ATOM     83  F14 UNL A   1       2.180   4.843  39.007  1.00  0.00    +0.000 F 
ATOM     84  C57 UNL A   1       3.014   6.926  38.260  1.00  0.00    +0.000 C 
ATOM     85  F15 UNL A   1       2.216   7.499  39.171  1.00  0.00    +0.000 F 
ENDBRANCH   74   75
TORSDOF 21
ENDMDL
MODEL 9
REMARK VINA RESULT:      -8.2     44.795     51.544
ROOT
ATOM    129  H27 UNL A   1      17.011  36.127  54.262  1.00  0.00    +0.000 H 
ATOM    130  H28 UNL A   1      19.230  39.267  55.522  1.00  0.00    +0.000 H 
ATOM    131  H29 UNL A   1      19.224  39.615  47.333  1.00  0.00    +0.000 H 
ATOM    132  H30 UNL A   1      19.880  37.198  47.785  1.00  0.00    +0.000 H 
ATOM    133  H31 UNL A   1      19.734  39.112  51.462  1.00  0.00    +0.000 H 
ATOM    134  H32 UNL A   1      20.584  42.113  52.148  1.00  0.00    +0.000 H 
ATOM    135  H33 UNL A   1      19.892  40.483  54.028  1.00  0.00    +0.000 H 
ATOM    136  H34 UNL A   1      23.895  36.772  53.922  1.00  0.00    +0.000 H 
ATOM    137  H35 UNL A   1      23.693  37.051  51.365  1.00  0.00    +0.000 H 
ATOM     38  C28 UNL A   1      20.960  36.815  50.458  1.00  0.00    +0.000 C 
ATOM     39  C29 UNL A   1      21.481  36.878  51.846  1.00  0.00    +0.000 C 
ATOM     40  N5  UNL A   1      20.803  36.739  52.937  1.00  0.00    +0.000 N 
ATOM     41  C30 UNL A   1      21.704  36.937  53.978  1.00  0.00    +0.000 C 
ATOM     42  C31 UNL A   1      21.276  37.397  55.186  1.00  0.00    +0.000 C 
ATOM     54  C38 UNL A   1      19.844  37.257  55.311  1.00  0.00    +0.000 C 
ATOM     55  C39 UNL A   1      18.971  36.187  55.252  1.00  0.00    +0.000 C 
ATOM     56  C40 UNL A   1      17.837  36.679  54.541  1.00  0.00    +0.000 C 
ATOM     57  C41 UNL A   1      18.041  38.036  54.290  1.00  0.00    +0.000 C 
ATOM     58  N6  UNL A   1      19.072  38.379  55.127  1.00  0.00    +0.000 N 
ATOM     59  C42 UNL A   1      17.436  38.956  53.359  1.00  0.00    +0.000 C 
ATOM     71  C49 UNL A   1      18.042  40.084  52.886  1.00  0.00    +0.000 C 
ATOM     72  N7  UNL A   1      17.626  40.678  51.703  1.00  0.00    +0.000 N 
ATOM     73  C50 UNL A   1      18.699  41.256  51.231  1.00  0.00    +0.000 C 
ATOM     74  C51 UNL A   1      19.075  41.208  49.792  1.00  0.00    +0.000 C 
ATOM     86  C58 UNL A   1      19.376  39.913  49.519  1.00  0.00    +0.000 C 
ATOM     87  C59 UNL A   1      19.445  39.213  48.258  1.00  0.00    +0.000 C 
ATOM     88  C60 UNL A   1      19.843  37.949  48.492  1.00  0.00    +0.000 C 
ATOM     89  C61 UNL A   1      20.217  37.799  49.902  1.00  0.00    +0.000 C 
ATOM     90  N8  UNL A   1      19.772  38.962  50.490  1.00  0.00    +0.000 N 
ATOM     91  C62 UNL A   1      19.760  41.494  52.199  1.00  0.00    +0.000 C 
ATOM     92  C63 UNL A   1      19.349  40.675  53.172  1.00  0.00    +0.000 C 
ATOM     93  C64 UNL A   1      23.016  36.871  53.390  1.00  0.00    +0.000 C 
ATOM     94  C65 UNL A   1      22.935  36.955  52.060  1.00  0.00    +0.000 C 
ATOM    128  H26 UNL A   1      19.110  35.240  55.638  1.00  0.00    +0.000 H 
ENDROOT
BRANCH   38   37
ATOM     34  C24 UNL A   1      22.375  33.762  47.945  1.00  0.00    +0.000 C 
ATOM     35  C25 UNL A   1      23.253  34.801  48.270  1.00  0.00    +0.000 C 
ATOM     36  C26 UNL A   1      22.830  35.783  49.161  1.00  0.00    +0.000 C 
ATOM     37  C27 UNL A   1      21.517  35.737  49.649  1.00  0.00    +0.000 C 
ATOM    138  H36 UNL A   1      19.656  34.747  49.562  1.00  0.00    +0.000 H 
ATOM    139  H37 UNL A   1      20.566  32.804  48.448  1.00  0.00    +0.000 H 
ATOM    127  H25 UNL A   1      23.473  36.534  49.458  1.00  0.00    +0.000 H 
ATOM    126  H24 UNL A   1      24.198  34.840  47.856  1.00  0.00    +0.000 H 
ATOM     95  C66 UNL A   1      20.649  34.714  49.284  1.00  0.00    +0.000 C 
ATOM     96  C67 UNL A   1      21.127  33.663  48.551  1.00  0.00    +0.000 C 
BRANCH   34   32
ATOM     33  O4  UNL A   1      23.815  32.779  46.379  1.00  0.00    +0.000 O 
ATOM     32  C23 UNL A   1      22.719  32.759  46.925  1.00  0.00    +0.000 C 
BRANCH   32   31
ATOM    125  H23 UNL A   1      20.849  32.104  46.533  1.00  0.00    +0.000 H 
ATOM     31  N4  UNL A   1      21.781  31.797  46.608  1.00  0.00    +0.000 N 
BRANCH   31   30
ATOM    123  H21 UNL A   1      23.063  30.218  46.189  1.00  0.00    +0.000 H 
ATOM    124  H22 UNL A   1      21.703  29.829  47.238  1.00  0.00    +0.000 H 
ATOM     30  C22 UNL A   1      22.019  30.372  46.373  1.00  0.00    +0.000 C 
BRANCH   30   29
ATOM    121  H19 UNL A   1      21.718  30.192  44.282  1.00  0.00    +0.000 H 
ATOM    122  H20 UNL A   1      21.188  28.802  45.245  1.00  0.00    +0.000 H 
ATOM     29  C21 UNL A   1      21.228  29.869  45.177  1.00  0.00    +0.000 C 
BRANCH   29   28
ATOM     28  C20 UNL A   1      19.781  30.384  45.157  1.00  0.00    +0.000 C 
ATOM    119  H17 UNL A   1      19.243  29.880  45.933  1.00  0.00    +0.000 H 
ATOM    120  H18 UNL A   1      19.847  31.443  45.292  1.00  0.00    +0.000 H 
BRANCH   28   27
ATOM     27  C19 UNL A   1      19.017  30.174  43.839  1.00  0.00    +0.000 C 
ATOM    117  H15 UNL A   1      19.284  30.966  43.171  1.00  0.00    +0.000 H 
ATOM    118  H16 UNL A   1      19.299  29.205  43.481  1.00  0.00    +0.000 H 
BRANCH   27   26
ATOM     26  C18 UNL A   1      17.489  30.157  43.973  1.00  0.00    +0.000 C 
ATOM    115  H13 UNL A   1      17.059  30.326  43.007  1.00  0.00    +0.000 H 
ATOM    116  H14 UNL A   1      17.209  29.203  44.368  1.00  0.00    +0.000 H 
BRANCH   26   25
ATOM     25  C17 UNL A   1      16.971  31.228  44.936  1.00  0.00    +0.000 C 
ATOM    114  H12 UNL A   1      17.720  31.436  45.672  1.00  0.00    +0.000 H 
ATOM    113  H11 UNL A   1      16.083  30.874  45.416  1.00  0.00    +0.000 H 
BRANCH   25   24
ATOM    112  H10 UNL A   1      16.198  32.284  43.355  1.00  0.00    +0.000 H 
ATOM     24  N3  UNL A   1      16.672  32.441  44.203  1.00  0.00    +0.000 N 
BRANCH   24   22
ATOM     22  C16 UNL A   1      16.919  33.765  44.459  1.00  0.00    +0.000 C 
ATOM     23  O3  UNL A   1      15.964  34.540  44.402  1.00  0.00    +0.000 O 
BRANCH   22   21
ATOM     97  C68 UNL A   1      19.457  33.806  44.126  1.00  0.00    +0.000 C 
ATOM     98  C69 UNL A   1      20.663  34.499  44.238  1.00  0.00    +0.000 C 
ATOM    140  H38 UNL A   1      19.429  32.910  43.614  1.00  0.00    +0.000 H 
ATOM    141  H39 UNL A   1      21.497  34.181  43.719  1.00  0.00    +0.000 H 
ATOM    110  H8  UNL A   1      19.676  36.828  46.442  1.00  0.00    +0.000 H 
ATOM    111  H9  UNL A   1      17.535  35.763  46.036  1.00  0.00    +0.000 H 
ATOM     18  C12 UNL A   1      20.731  35.624  45.058  1.00  0.00    +0.000 C 
ATOM     19  C13 UNL A   1      19.604  36.050  45.767  1.00  0.00    +0.000 C 
ATOM     20  C14 UNL A   1      18.380  35.415  45.556  1.00  0.00    +0.000 C 
ATOM     21  C15 UNL A   1      18.284  34.308  44.699  1.00  0.00    +0.000 C 
BRANCH   18   17
ATOM     99  N9  UNL A   1      23.116  35.771  44.824  1.00  0.00    +0.000 N 
ATOM    100  N10 UNL A   1      24.067  36.669  45.012  1.00  0.00    +0.000 N 
ATOM    109  H7  UNL A   1      21.467  38.197  46.175  1.00  0.00    +0.000 H 
ATOM     15  C10 UNL A   1      23.514  37.786  45.584  1.00  0.00    +0.000 C 
ATOM     16  C11 UNL A   1      22.162  37.566  45.745  1.00  0.00    +0.000 C 
ATOM     17  N2  UNL A   1      21.947  36.318  45.205  1.00  0.00    +0.000 N 
BRANCH   15   14
ATOM    107  H5  UNL A   1      24.149  39.768  45.413  1.00  0.00    +0.000 H 
ATOM    108  H6  UNL A   1      24.176  39.061  47.062  1.00  0.00    +0.000 H 
ATOM     14  C9  UNL A   1      24.383  38.919  46.022  1.00  0.00    +0.000 C 
BRANCH   14   13
ATOM     13  O2  UNL A   1      25.801  38.688  45.932  1.00  0.00    +0.000 O 
BRANCH   13   12
ATOM    101  C70 UNL A   1      27.920  39.871  45.540  1.00  0.00    +0.000 C 
ATOM    102  C71 UNL A   1      28.603  41.087  45.595  1.00  0.00    +0.000 C 
ATOM      9  C5  UNL A   1      28.051  42.178  46.267  1.00  0.00    +0.000 C 
ATOM     10  C6  UNL A   1      26.841  42.018  46.946  1.00  0.00    +0.000 C 
ATOM    105  H3  UNL A   1      26.462  42.790  47.517  1.00  0.00    +0.000 H 
ATOM     11  C7  UNL A   1      26.141  40.809  46.851  1.00  0.00    +0.000 C 
ATOM    106  H4  UNL A   1      25.243  40.698  47.346  1.00  0.00    +0.000 H 
ATOM     12  C8  UNL A   1      26.648  39.751  46.093  1.00  0.00    +0.000 C 
ATOM    143  H41 UNL A   1      29.521  41.180  45.134  1.00  0.00    +0.000 H 
ATOM    142  H40 UNL A   1      28.361  39.056  45.086  1.00  0.00    +0.000 H 
BRANCH    9    8
ATOM    104  H2  UNL A   1      28.448  44.155  45.528  1.00  0.00    +0.000 H 
ATOM      8  C4  UNL A   1      28.740  43.470  46.242  1.00  0.00    +0.000 C 
BRANCH    8    7
ATOM      1  O1  UNL A   1      28.337  44.715  48.839  1.00  0.00    +0.000 O 
ATOM      2  C1  UNL A   1      29.436  44.456  48.402  1.00  0.00    +0.000 C 
ATOM      3  N1  UNL A   1      30.617  44.684  49.062  1.00  0.00    +0.000 N 
ATOM      4  C2  UNL A   1      31.777  44.335  48.444  1.00  0.00    +0.000 C 
ATOM      5  S1  UNL A   1      33.274  44.555  49.118  1.00  0.00    +0.000 S 
ATOM      6  S2  UNL A   1      31.429  43.645  46.877  1.00  0.00    +0.000 S 
ATOM      7  C3  UNL A   1      29.721  43.827  47.082  1.00  0.00    +0.000 C 
ATOM    103  H1  UNL A   1      30.624  45.090  49.958  1.00  0.00    +0.000 H 
ENDBRANCH    8    7
ENDBRANCH    9    8
ENDBRANCH   13   12
ENDBRANCH   14   13
ENDBRANCH   15   14
ENDBRANCH   18   17
ENDBRANCH   22   21
ENDBRANCH   24   22
ENDBRANCH   25   24
ENDBRANCH   26   25
ENDBRANCH   27   26
ENDBRANCH   28   27
ENDBRANCH   29   28
ENDBRANCH   30   29
ENDBRANCH   31   30
ENDBRANCH   32   31
ENDBRANCH   34   32
ENDBRANCH   38   37
BRANCH   42   43
ATOM     43  C32 UNL A   1      22.062  38.323  56.083  1.00  0.00    +0.000 C 
ATOM     44  C33 UNL A   1      22.178  38.004  57.452  1.00  0.00    +0.000 C 
ATOM     45  F1  UNL A   1      21.856  36.779  57.897  1.00  0.00    +0.000 F 
ATOM     46  C34 UNL A   1      22.526  38.962  58.407  1.00  0.00    +0.000 C 
ATOM     47  F2  UNL A   1      22.486  38.647  59.709  1.00  0.00    +0.000 F 
ATOM     48  C35 UNL A   1      22.838  40.253  58.024  1.00  0.00    +0.000 C 
ATOM     49  F3  UNL A   1      23.104  41.190  58.941  1.00  0.00    +0.000 F 
ATOM     50  C36 UNL A   1      22.823  40.580  56.685  1.00  0.00    +0.000 C 
ATOM     51  F4  UNL A   1      23.108  41.830  56.295  1.00  0.00    +0.000 F 
ATOM     52  C37 UNL A   1      22.424  39.643  55.735  1.00  0.00    +0.000 C 
ATOM     53  F5  UNL A   1      22.300  40.116  54.491  1.00  0.00    +0.000 F 
ENDBRANCH   42   43
BRANCH   59   60
ATOM     65  C46 UNL A   1      13.859  37.838  51.217  1.00  0.00    +0.000 C 
ATOM     66  F8  UNL A   1      12.768  37.535  50.497  1.00  0.00    +0.000 F 
ATOM     67  C47 UNL A   1      15.113  37.447  50.776  1.00  0.00    +0.000 C 
ATOM     68  F9  UNL A   1      15.240  36.788  49.616  1.00  0.00    +0.000 F 
ATOM     69  C48 UNL A   1      16.248  37.766  51.517  1.00  0.00    +0.000 C 
ATOM     70  F10 UNL A   1      17.449  37.395  51.046  1.00  0.00    +0.000 F 
ATOM     60  C43 UNL A   1      16.159  38.507  52.702  1.00  0.00    +0.000 C 
ATOM     61  C44 UNL A   1      14.879  38.921  53.108  1.00  0.00    +0.000 C 
ATOM     62  F6  UNL A   1      14.720  39.723  54.168  1.00  0.00    +0.000 F 
ATOM     63  C45 UNL A   1      13.739  38.567  52.388  1.00  0.00    +0.000 C 
ATOM     64  F7  UNL A   1      12.529  38.966  52.804  1.00  0.00    +0.000 F 
ENDBRANCH   59   60
BRANCH   74   75
ATOM     75  C52 UNL A   1      19.358  42.419  48.983  1.00  0.00    +0.000 C 
ATOM     76  C53 UNL A   1      18.362  43.383  48.750  1.00  0.00    +0.000 C 
ATOM     77  F11 UNL A   1      17.085  43.125  49.065  1.00  0.00    +0.000 F 
ATOM     78  C54 UNL A   1      18.671  44.656  48.258  1.00  0.00    +0.000 C 
ATOM     79  F12 UNL A   1      17.702  45.571  48.114  1.00  0.00    +0.000 F 
ATOM     80  C55 UNL A   1      19.983  44.999  47.975  1.00  0.00    +0.000 C 
ATOM     81  F13 UNL A   1      20.289  46.240  47.569  1.00  0.00    +0.000 F 
ATOM     82  C56 UNL A   1      20.982  44.063  48.158  1.00  0.00    +0.000 C 
ATOM     83  F14 UNL A   1      22.261  44.391  47.921  1.00  0.00    +0.000 F 
ATOM     84  C57 UNL A   1      20.676  42.796  48.656  1.00  0.00    +0.000 C 
ATOM     85  F15 UNL A   1      21.710  41.979  48.901  1.00  0.00    +0.000 F 
ENDBRANCH   74   75
TORSDOF 21
ENDMDL
MODEL 10
REMARK VINA RESULT:      -8.2      6.345     10.991
ROOT
ATOM    129  H27 UNL A   1       5.995  29.440  -8.115  1.00  0.00    +0.000 H 
ATOM    130  H28 UNL A   1      10.028  29.517  -8.429  1.00  0.00    +0.000 H 
ATOM    131  H29 UNL A   1       8.198  33.524  -1.517  1.00  0.00    +0.000 H 
ATOM    132  H30 UNL A   1       6.664  34.629  -3.221  1.00  0.00    +0.000 H 
ATOM    133  H31 UNL A   1       9.110  32.017  -5.319  1.00  0.00    +0.000 H 
ATOM    134  H32 UNL A   1      12.184  31.341  -4.776  1.00  0.00    +0.000 H 
ATOM    135  H33 UNL A   1      10.978  30.389  -6.852  1.00  0.00    +0.000 H 
ATOM    136  H34 UNL A   1       9.945  34.874  -9.790  1.00  0.00    +0.000 H 
ATOM    137  H35 UNL A   1       9.411  35.908  -7.488  1.00  0.00    +0.000 H 
ATOM     38  C28 UNL A   1       7.590  34.270  -5.954  1.00  0.00    +0.000 C 
ATOM     39  C29 UNL A   1       8.266  33.963  -7.240  1.00  0.00    +0.000 C 
ATOM     40  N5  UNL A   1       8.088  32.920  -7.982  1.00  0.00    +0.000 N 
ATOM     41  C30 UNL A   1       8.978  33.047  -9.043  1.00  0.00    +0.000 C 
ATOM     42  C31 UNL A   1       9.450  31.942  -9.685  1.00  0.00    +0.000 C 
ATOM     54  C38 UNL A   1       8.637  30.787  -9.385  1.00  0.00    +0.000 C 
ATOM     55  C39 UNL A   1       7.299  30.481  -9.545  1.00  0.00    +0.000 C 
ATOM     56  C40 UNL A   1       6.941  29.772  -8.361  1.00  0.00    +0.000 C 
ATOM     57  C41 UNL A   1       8.094  29.606  -7.594  1.00  0.00    +0.000 C 
ATOM     58  N6  UNL A   1       9.117  29.889  -8.462  1.00  0.00    +0.000 N 
ATOM     59  C42 UNL A   1       8.300  29.285  -6.203  1.00  0.00    +0.000 C 
ATOM     71  C49 UNL A   1       9.414  29.627  -5.490  1.00  0.00    +0.000 C 
ATOM     72  N7  UNL A   1       9.383  29.693  -4.104  1.00  0.00    +0.000 N 
ATOM     73  C50 UNL A   1      10.283  30.590  -3.799  1.00  0.00    +0.000 C 
ATOM     74  C51 UNL A   1      10.064  31.631  -2.759  1.00  0.00    +0.000 C 
ATOM     86  C58 UNL A   1       9.084  32.443  -3.231  1.00  0.00    +0.000 C 
ATOM     87  C59 UNL A   1       8.219  33.368  -2.537  1.00  0.00    +0.000 C 
ATOM     88  C60 UNL A   1       7.445  33.992  -3.445  1.00  0.00    +0.000 C 
ATOM     89  C61 UNL A   1       7.875  33.629  -4.798  1.00  0.00    +0.000 C 
ATOM     90  N8  UNL A   1       8.756  32.588  -4.600  1.00  0.00    +0.000 N 
ATOM     91  C62 UNL A   1      11.269  30.866  -4.834  1.00  0.00    +0.000 C 
ATOM     92  C63 UNL A   1      10.638  30.324  -5.880  1.00  0.00    +0.000 C 
ATOM     93  C64 UNL A   1       9.441  34.409  -9.018  1.00  0.00    +0.000 C 
ATOM     94  C65 UNL A   1       9.126  34.987  -7.856  1.00  0.00    +0.000 C 
ATOM    128  H26 UNL A   1       6.692  30.714 -10.347  1.00  0.00    +0.000 H 
ENDROOT
BRANCH   38   37
ATOM     34  C24 UNL A   1       5.047  37.611  -5.932  1.00  0.00    +0.000 C 
ATOM     35  C25 UNL A   1       6.124  37.603  -5.039  1.00  0.00    +0.000 C 
ATOM     36  C26 UNL A   1       7.022  36.541  -5.082  1.00  0.00    +0.000 C 
ATOM     37  C27 UNL A   1       6.781  35.482  -5.968  1.00  0.00    +0.000 C 
ATOM    138  H36 UNL A   1       5.456  34.665  -7.392  1.00  0.00    +0.000 H 
ATOM    139  H37 UNL A   1       4.226  36.729  -7.661  1.00  0.00    +0.000 H 
ATOM    127  H25 UNL A   1       7.854  36.533  -4.470  1.00  0.00    +0.000 H 
ATOM    126  H24 UNL A   1       6.250  38.370  -4.360  1.00  0.00    +0.000 H 
ATOM     95  C66 UNL A   1       5.684  35.495  -6.822  1.00  0.00    +0.000 C 
ATOM     96  C67 UNL A   1       4.909  36.619  -6.896  1.00  0.00    +0.000 C 
BRANCH   34   32
ATOM     33  O4  UNL A   1       4.296  39.831  -5.926  1.00  0.00    +0.000 O 
ATOM     32  C23 UNL A   1       4.001  38.644  -5.862  1.00  0.00    +0.000 C 
BRANCH   32   31
ATOM    125  H23 UNL A   1       2.490  37.309  -5.982  1.00  0.00    +0.000 H 
ATOM     31  N4  UNL A   1       2.688  38.240  -5.730  1.00  0.00    +0.000 N 
BRANCH   31   30
ATOM    123  H21 UNL A   1       1.914  40.008  -4.966  1.00  0.00    +0.000 H 
ATOM    124  H22 UNL A   1       0.847  39.125  -6.052  1.00  0.00    +0.000 H 
ATOM     30  C22 UNL A   1       1.558  39.042  -5.257  1.00  0.00    +0.000 C 
BRANCH   30   29
ATOM    121  H19 UNL A   1       1.386  38.680  -3.176  1.00  0.00    +0.000 H 
ATOM    122  H20 UNL A   1      -0.146  38.714  -4.067  1.00  0.00    +0.000 H 
ATOM     29  C21 UNL A   1       0.873  38.388  -4.069  1.00  0.00    +0.000 C 
BRANCH   29   28
ATOM     28  C20 UNL A   1       0.867  36.855  -4.152  1.00  0.00    +0.000 C 
ATOM    119  H17 UNL A   1       0.703  36.582  -5.173  1.00  0.00    +0.000 H 
ATOM    120  H18 UNL A   1       1.813  36.537  -3.765  1.00  0.00    +0.000 H 
BRANCH   28   27
ATOM     27  C19 UNL A   1      -0.197  36.146  -3.296  1.00  0.00    +0.000 C 
ATOM    117  H15 UNL A   1      -0.988  36.842  -3.107  1.00  0.00    +0.000 H 
ATOM    118  H16 UNL A   1      -0.510  35.290  -3.856  1.00  0.00    +0.000 H 
BRANCH   27   26
ATOM     26  C18 UNL A   1       0.306  35.618  -1.946  1.00  0.00    +0.000 C 
ATOM    115  H13 UNL A   1       1.377  35.628  -1.952  1.00  0.00    +0.000 H 
ATOM    116  H14 UNL A   1      -0.090  36.254  -1.182  1.00  0.00    +0.000 H 
BRANCH   26   25
ATOM     25  C17 UNL A   1      -0.170  34.193  -1.658  1.00  0.00    +0.000 C 
ATOM    114  H12 UNL A   1      -1.192  34.092  -1.961  1.00  0.00    +0.000 H 
ATOM    113  H11 UNL A   1      -0.085  33.995  -0.609  1.00  0.00    +0.000 H 
BRANCH   25   24
ATOM    112  H10 UNL A   1       0.123  32.533  -2.829  1.00  0.00    +0.000 H 
ATOM     24  N3  UNL A   1       0.643  33.247  -2.393  1.00  0.00    +0.000 N 
BRANCH   24   22
ATOM     22  C16 UNL A   1       1.993  33.149  -2.603  1.00  0.00    +0.000 C 
ATOM     23  O3  UNL A   1       2.421  33.480  -3.709  1.00  0.00    +0.000 O 
BRANCH   22   21
ATOM     97  C68 UNL A   1       2.598  32.250  -0.283  1.00  0.00    +0.000 C 
ATOM     98  C69 UNL A   1       3.478  31.527   0.524  1.00  0.00    +0.000 C 
ATOM    140  H38 UNL A   1       1.687  32.551   0.098  1.00  0.00    +0.000 H 
ATOM    141  H39 UNL A   1       3.179  31.195   1.454  1.00  0.00    +0.000 H 
ATOM    110  H8  UNL A   1       6.152  31.595  -1.502  1.00  0.00    +0.000 H 
ATOM    111  H9  UNL A   1       4.531  32.625  -2.984  1.00  0.00    +0.000 H 
ATOM     18  C12 UNL A   1       4.766  31.259   0.061  1.00  0.00    +0.000 C 
ATOM     19  C13 UNL A   1       5.174  31.716  -1.196  1.00  0.00    +0.000 C 
ATOM     20  C14 UNL A   1       4.248  32.337  -2.034  1.00  0.00    +0.000 C 
ATOM     21  C15 UNL A   1       2.935  32.575  -1.601  1.00  0.00    +0.000 C 
BRANCH   18   17
ATOM     99  N9  UNL A   1       6.278  31.143   1.923  1.00  0.00    +0.000 N 
ATOM    100  N10 UNL A   1       7.013  30.232   2.534  1.00  0.00    +0.000 N 
ATOM    109  H7  UNL A   1       5.871  28.579   0.003  1.00  0.00    +0.000 H 
ATOM     15  C10 UNL A   1       6.937  29.057   1.831  1.00  0.00    +0.000 C 
ATOM     16  C11 UNL A   1       6.110  29.255   0.745  1.00  0.00    +0.000 C 
ATOM     17  N2  UNL A   1       5.675  30.556   0.873  1.00  0.00    +0.000 N 
BRANCH   15   14
ATOM    107  H5  UNL A   1       7.399  27.516   3.163  1.00  0.00    +0.000 H 
ATOM    108  H6  UNL A   1       7.692  27.183   1.424  1.00  0.00    +0.000 H 
ATOM     14  C9  UNL A   1       7.771  27.884   2.229  1.00  0.00    +0.000 C 
BRANCH   14   13
ATOM     13  O2  UNL A   1       9.178  28.144   2.386  1.00  0.00    +0.000 O 
BRANCH   13   12
ATOM    101  C70 UNL A   1       9.605  27.551   0.039  1.00  0.00    +0.000 C 
ATOM    102  C71 UNL A   1      10.504  27.595  -1.029  1.00  0.00    +0.000 C 
ATOM      9  C5  UNL A   1      11.832  27.970  -0.821  1.00  0.00    +0.000 C 
ATOM     10  C6  UNL A   1      12.269  28.231   0.480  1.00  0.00    +0.000 C 
ATOM    105  H3  UNL A   1      13.266  28.428   0.660  1.00  0.00    +0.000 H 
ATOM     11  C7  UNL A   1      11.354  28.227   1.539  1.00  0.00    +0.000 C 
ATOM    106  H4  UNL A   1      11.679  28.430   2.496  1.00  0.00    +0.000 H 
ATOM     12  C8  UNL A   1      10.003  27.950   1.312  1.00  0.00    +0.000 C 
ATOM    143  H41 UNL A   1      10.183  27.350  -1.978  1.00  0.00    +0.000 H 
ATOM    142  H40 UNL A   1       8.640  27.221  -0.118  1.00  0.00    +0.000 H 
BRANCH    9    8
ATOM    104  H2  UNL A   1      12.940  29.043  -2.315  1.00  0.00    +0.000 H 
ATOM      8  C4  UNL A   1      12.738  28.094  -1.964  1.00  0.00    +0.000 C 
BRANCH    8    7
ATOM      1  O1  UNL A   1      12.620  27.592  -4.825  1.00  0.00    +0.000 O 
ATOM      2  C1  UNL A   1      13.226  26.875  -4.061  1.00  0.00    +0.000 C 
ATOM      3  N1  UNL A   1      13.945  25.766  -4.428  1.00  0.00    +0.000 N 
ATOM      4  C2  UNL A   1      14.580  25.059  -3.454  1.00  0.00    +0.000 C 
ATOM      5  S1  UNL A   1      15.479  23.700  -3.749  1.00  0.00    +0.000 S 
ATOM      6  S2  UNL A   1      14.291  25.803  -1.899  1.00  0.00    +0.000 S 
ATOM      7  C3  UNL A   1      13.326  27.063  -2.586  1.00  0.00    +0.000 C 
ATOM    103  H1  UNL A   1      14.000  25.489  -5.370  1.00  0.00    +0.000 H 
ENDBRANCH    8    7
ENDBRANCH    9    8
ENDBRANCH   13   12
ENDBRANCH   14   13
ENDBRANCH   15   14
ENDBRANCH   18   17
ENDBRANCH   22   21
ENDBRANCH   24   22
ENDBRANCH   25   24
ENDBRANCH   26   25
ENDBRANCH   27   26
ENDBRANCH   28   27
ENDBRANCH   29   28
ENDBRANCH   30   29
ENDBRANCH   31   30
ENDBRANCH   32   31
ENDBRANCH   34   32
ENDBRANCH   38   37
BRANCH   42   43
ATOM     43  C32 UNL A   1      10.841  31.805 -10.254  1.00  0.00    +0.000 C 
ATOM     44  C33 UNL A   1      10.993  31.663 -11.649  1.00  0.00    +0.000 C 
ATOM     45  F1  UNL A   1       9.972  31.932 -12.478  1.00  0.00    +0.000 F 
ATOM     46  C34 UNL A   1      12.159  31.144 -12.217  1.00  0.00    +0.000 C 
ATOM     47  F2  UNL A   1      12.204  30.897 -13.533  1.00  0.00    +0.000 F 
ATOM     48  C35 UNL A   1      13.240  30.814 -11.421  1.00  0.00    +0.000 C 
ATOM     49  F3  UNL A   1      14.332  30.253 -11.953  1.00  0.00    +0.000 F 
ATOM     50  C36 UNL A   1      13.163  31.023 -10.060  1.00  0.00    +0.000 C 
ATOM     51  F4  UNL A   1      14.194  30.695  -9.270  1.00  0.00    +0.000 F 
ATOM     52  C37 UNL A   1      11.982  31.488  -9.485  1.00  0.00    +0.000 C 
ATOM     53  F5  UNL A   1      11.973  31.505  -8.148  1.00  0.00    +0.000 F 
ENDBRANCH   42   43
BRANCH   59   60
ATOM     65  C46 UNL A   1       4.792  27.619  -4.319  1.00  0.00    +0.000 C 
ATOM     66  F8  UNL A   1       3.680  27.077  -3.800  1.00  0.00    +0.000 F 
ATOM     67  C47 UNL A   1       5.783  26.803  -4.843  1.00  0.00    +0.000 C 
ATOM     68  F9  UNL A   1       5.620  25.474  -4.853  1.00  0.00    +0.000 F 
ATOM     69  C48 UNL A   1       6.935  27.362  -5.389  1.00  0.00    +0.000 C 
ATOM     70  F10 UNL A   1       7.861  26.544  -5.912  1.00  0.00    +0.000 F 
ATOM     60  C43 UNL A   1       7.112  28.750  -5.451  1.00  0.00    +0.000 C 
ATOM     61  C44 UNL A   1       6.076  29.555  -4.945  1.00  0.00    +0.000 C 
ATOM     62  F6  UNL A   1       6.119  30.887  -5.065  1.00  0.00    +0.000 F 
ATOM     63  C45 UNL A   1       4.941  28.994  -4.361  1.00  0.00    +0.000 C 
ATOM     64  F7  UNL A   1       3.973  29.786  -3.876  1.00  0.00    +0.000 F 
ENDBRANCH   59   60
BRANCH   74   75
ATOM     75  C52 UNL A   1      10.993  31.857  -1.624  1.00  0.00    +0.000 C 
ATOM     76  C53 UNL A   1      12.120  32.685  -1.764  1.00  0.00    +0.000 C 
ATOM     77  F11 UNL A   1      12.500  33.108  -2.978  1.00  0.00    +0.000 F 
ATOM     78  C54 UNL A   1      12.833  33.152  -0.654  1.00  0.00    +0.000 C 
ATOM     79  F12 UNL A   1      13.861  33.995  -0.825  1.00  0.00    +0.000 F 
ATOM     80  C55 UNL A   1      12.446  32.797   0.628  1.00  0.00    +0.000 C 
ATOM     81  F13 UNL A   1      13.086  33.299   1.694  1.00  0.00    +0.000 F 
ATOM     82  C56 UNL A   1      11.364  31.956   0.800  1.00  0.00    +0.000 C 
ATOM     83  F14 UNL A   1      10.957  31.631   2.035  1.00  0.00    +0.000 F 
ATOM     84  C57 UNL A   1      10.648  31.495  -0.306  1.00  0.00    +0.000 C 
ATOM     85  F15 UNL A   1       9.553  30.766  -0.053  1.00  0.00    +0.000 F 
ENDBRANCH   74   75
TORSDOF 21
ENDMDL
