MODEL 1
REMARK VINA RESULT:      -9.8      0.000      0.000
ROOT
ATOM    133  H29 UNL A   1      18.711  15.324   7.258  1.00  0.00    +0.000 H 
ATOM    134  H30 UNL A   1      21.295  14.852   7.340  1.00  0.00    +0.000 H 
ATOM    135  H31 UNL A   1      20.598  18.582   8.990  1.00  0.00    +0.000 H 
ATOM    136  H32 UNL A   1      22.227  15.175   4.394  1.00  0.00    +0.000 H 
ATOM    137  H33 UNL A   1      20.095  16.493   4.925  1.00  0.00    +0.000 H 
ATOM    138  H34 UNL A   1      22.225  18.486   1.974  1.00  0.00    +0.000 H 
ATOM    139  H35 UNL A   1      26.495  16.916   5.732  1.00  0.00    +0.000 H 
ATOM    140  H36 UNL A   1      25.753  16.678   8.186  1.00  0.00    +0.000 H 
ATOM    141  H37 UNL A   1      16.721  20.432   6.571  1.00  0.00    +0.000 H 
ATOM    142  H38 UNL A   1      17.878  20.906   4.322  1.00  0.00    +0.000 H 
ATOM     38  C25 UNL A   1      20.290  19.260   4.004  1.00  0.00    +0.000 C 
ATOM     39  C26 UNL A   1      19.365  19.410   5.134  1.00  0.00    +0.000 C 
ATOM     40  N6  UNL A   1      19.529  18.861   6.281  1.00  0.00    +0.000 N 
ATOM     41  C27 UNL A   1      18.350  19.016   6.979  1.00  0.00    +0.000 C 
ATOM     42  C28 UNL A   1      18.092  18.151   8.000  1.00  0.00    +0.000 C 
ATOM     54  C35 UNL A   1      19.215  17.228   8.146  1.00  0.00    +0.000 C 
ATOM     55  C36 UNL A   1      19.434  15.965   7.621  1.00  0.00    +0.000 C 
ATOM     56  C37 UNL A   1      20.826  15.708   7.673  1.00  0.00    +0.000 C 
ATOM     57  C38 UNL A   1      21.448  16.805   8.246  1.00  0.00    +0.000 C 
ATOM     58  N7  UNL A   1      20.452  17.714   8.549  1.00  0.00    +0.000 N 
ATOM     59  C39 UNL A   1      22.835  17.070   8.591  1.00  0.00    +0.000 C 
ATOM     71  C46 UNL A   1      23.695  17.084   7.528  1.00  0.00    +0.000 C 
ATOM     72  N8  UNL A   1      23.264  17.317   6.248  1.00  0.00    +0.000 N 
ATOM     73  C47 UNL A   1      24.283  17.270   5.434  1.00  0.00    +0.000 C 
ATOM     74  C48 UNL A   1      24.168  17.447   3.941  1.00  0.00    +0.000 C 
ATOM     86  C55 UNL A   1      22.942  17.073   3.469  1.00  0.00    +0.000 C 
ATOM     87  C56 UNL A   1      22.035  16.158   4.143  1.00  0.00    +0.000 C 
ATOM     88  C57 UNL A   1      20.899  16.837   4.377  1.00  0.00    +0.000 C 
ATOM     89  C58 UNL A   1      20.991  18.139   3.729  1.00  0.00    +0.000 C 
ATOM     90  N9  UNL A   1      22.088  18.023   2.832  1.00  0.00    +0.000 N 
ATOM     91  C59 UNL A   1      25.541  16.998   6.120  1.00  0.00    +0.000 C 
ATOM     92  C60 UNL A   1      25.126  16.885   7.393  1.00  0.00    +0.000 C 
ATOM     93  C61 UNL A   1      17.596  19.996   6.241  1.00  0.00    +0.000 C 
ATOM     94  C62 UNL A   1      18.182  20.264   5.071  1.00  0.00    +0.000 C 
ENDROOT
BRANCH   38   37
ATOM     34  C21 UNL A   1      20.013  22.579   1.577  1.00  0.00    +0.000 C 
ATOM     35  C22 UNL A   1      19.386  21.413   1.112  1.00  0.00    +0.000 C 
ATOM     36  C23 UNL A   1      19.541  20.236   1.828  1.00  0.00    +0.000 C 
ATOM    131  H27 UNL A   1      18.820  21.430   0.250  1.00  0.00    +0.000 H 
ATOM    132  H28 UNL A   1      19.131  19.349   1.497  1.00  0.00    +0.000 H 
ATOM     37  C24 UNL A   1      20.269  20.302   3.007  1.00  0.00    +0.000 C 
ATOM    143  H39 UNL A   1      21.687  21.380   4.148  1.00  0.00    +0.000 H 
ATOM    144  H40 UNL A   1      21.735  23.260   2.602  1.00  0.00    +0.000 H 
ATOM     95  C63 UNL A   1      21.071  21.401   3.319  1.00  0.00    +0.000 C 
ATOM     96  C64 UNL A   1      21.033  22.508   2.515  1.00  0.00    +0.000 C 
BRANCH   34   32
ATOM     33  O7  UNL A   1      19.710  24.895   1.789  1.00  0.00    +0.000 O 
ATOM     32  C20 UNL A   1      19.242  23.831   1.400  1.00  0.00    +0.000 C 
BRANCH   32   31
ATOM    130  H26 UNL A   1      18.236  24.105  -0.322  1.00  0.00    +0.000 H 
ATOM     31  N5  UNL A   1      18.105  23.822   0.612  1.00  0.00    +0.000 N 
BRANCH   31   30
ATOM    129  H25 UNL A   1      16.138  24.331   0.865  1.00  0.00    +0.000 H 
ATOM     30  C19 UNL A   1      16.742  23.452   0.966  1.00  0.00    +0.000 C 
ATOM    128  H24 UNL A   1      16.741  23.077   1.968  1.00  0.00    +0.000 H 
BRANCH   30   29
ATOM     29  C18 UNL A   1      16.154  22.393   0.052  1.00  0.00    +0.000 C 
ATOM    126  H22 UNL A   1      16.954  21.946  -0.501  1.00  0.00    +0.000 H 
ATOM    127  H23 UNL A   1      15.642  21.696   0.682  1.00  0.00    +0.000 H 
BRANCH   29   28
ATOM    124  H20 UNL A   1      14.239  22.326  -0.845  1.00  0.00    +0.000 H 
ATOM     28  C17 UNL A   1      15.122  22.922  -0.943  1.00  0.00    +0.000 C 
ATOM    125  H21 UNL A   1      14.986  23.953  -0.695  1.00  0.00    +0.000 H 
BRANCH   28   27
ATOM    122  H18 UNL A   1      15.573  21.885  -2.741  1.00  0.00    +0.000 H 
ATOM     27  C16 UNL A   1      15.539  22.905  -2.421  1.00  0.00    +0.000 C 
ATOM    123  H19 UNL A   1      14.811  23.497  -2.935  1.00  0.00    +0.000 H 
BRANCH   27   26
ATOM    121  H17 UNL A   1      17.219  24.026  -1.841  1.00  0.00    +0.000 H 
ATOM     26  C15 UNL A   1      16.892  23.542  -2.738  1.00  0.00    +0.000 C 
ATOM    120  H16 UNL A   1      16.759  24.221  -3.554  1.00  0.00    +0.000 H 
BRANCH   26   25
ATOM     25  C14 UNL A   1      17.980  22.548  -3.118  1.00  0.00    +0.000 C 
ATOM    118  H14 UNL A   1      17.608  21.558  -2.954  1.00  0.00    +0.000 H 
ATOM    119  H15 UNL A   1      18.225  22.722  -4.144  1.00  0.00    +0.000 H 
BRANCH   25   24
ATOM    117  H13 UNL A   1      19.078  22.849  -1.386  1.00  0.00    +0.000 H 
ATOM     24  N4  UNL A   1      19.194  22.713  -2.354  1.00  0.00    +0.000 N 
BRANCH   24   22
ATOM     22  C13 UNL A   1      20.482  22.704  -2.807  1.00  0.00    +0.000 C 
ATOM     23  O6  UNL A   1      20.942  21.629  -3.202  1.00  0.00    +0.000 O 
BRANCH   22   21
ATOM    115  H11 UNL A   1      22.398  23.636  -2.840  1.00  0.00    +0.000 H 
ATOM    116  H12 UNL A   1      21.041  24.623  -3.467  1.00  0.00    +0.000 H 
ATOM     21  C12 UNL A   1      21.384  23.950  -2.708  1.00  0.00    +0.000 C 
BRANCH   21   20
ATOM    114  H10 UNL A   1      21.612  24.183  -0.665  1.00  0.00    +0.000 H 
ATOM     20  N3  UNL A   1      21.300  24.682  -1.453  1.00  0.00    +0.000 N 
BRANCH   20   18
ATOM     18  C11 UNL A   1      20.859  25.946  -1.192  1.00  0.00    +0.000 C 
ATOM     19  O5  UNL A   1      21.646  26.727  -0.651  1.00  0.00    +0.000 O 
BRANCH   18   17
ATOM     17  C10 UNL A   1      19.431  26.392  -1.547  1.00  0.00    +0.000 C 
ATOM    113  H9  UNL A   1      18.999  26.762  -0.642  1.00  0.00    +0.000 H 
ATOM    112  H8  UNL A   1      18.911  25.549  -1.952  1.00  0.00    +0.000 H 
BRANCH   17   16
ATOM    111  H7  UNL A   1      19.747  27.276  -3.394  1.00  0.00    +0.000 H 
ATOM     16  N2  UNL A   1      19.348  27.486  -2.519  1.00  0.00    +0.000 N 
BRANCH   16   14
ATOM     14  C9  UNL A   1      18.814  28.756  -2.430  1.00  0.00    +0.000 C 
ATOM     15  O4  UNL A   1      18.532  29.347  -3.467  1.00  0.00    +0.000 O 
BRANCH   14   12
ATOM     12  C8  UNL A   1      18.580  29.418  -1.055  1.00  0.00    +0.000 C 
ATOM     13  O3  UNL A   1      19.517  29.405  -0.262  1.00  0.00    +0.000 O 
BRANCH   12   11
ATOM     97  C65 UNL A   1      17.184  31.123   0.287  1.00  0.00    +0.000 C 
ATOM     98  C66 UNL A   1      18.122  31.837   1.067  1.00  0.00    +0.000 C 
ATOM     99  C67 UNL A   1      17.703  32.888   1.883  1.00  0.00    +0.000 C 
ATOM    100  C68 UNL A   1      16.360  33.229   1.950  1.00  0.00    +0.000 C 
ATOM    101  C69 UNL A   1      15.402  32.527   1.215  1.00  0.00    +0.000 C 
ATOM    102  C70 UNL A   1      15.833  31.479   0.380  1.00  0.00    +0.000 C 
ATOM      9  N1  UNL A   1      15.166  30.648  -0.495  1.00  0.00    +0.000 N 
ATOM     10  C6  UNL A   1      16.031  29.782  -1.122  1.00  0.00    +0.000 C 
ATOM     11  C7  UNL A   1      17.311  30.049  -0.667  1.00  0.00    +0.000 C 
ATOM    110  H6  UNL A   1      15.773  29.060  -1.812  1.00  0.00    +0.000 H 
ATOM    145  H41 UNL A   1      19.121  31.579   1.032  1.00  0.00    +0.000 H 
ATOM    146  H42 UNL A   1      18.396  33.413   2.440  1.00  0.00    +0.000 H 
ATOM    147  H43 UNL A   1      16.065  34.012   2.553  1.00  0.00    +0.000 H 
ATOM    148  H44 UNL A   1      14.400  32.770   1.282  1.00  0.00    +0.000 H 
BRANCH    9    6
ATOM      6  S1  UNL A   1      13.499  30.751  -0.845  1.00  0.00    +0.000 S 
ATOM      7  O1  UNL A   1      13.302  29.917  -2.008  1.00  0.00    +0.000 O 
ATOM      8  O2  UNL A   1      13.187  32.174  -0.853  1.00  0.00    +0.000 O 
BRANCH    6    5
ATOM      2  C2  UNL A   1      11.045  29.036   2.613  1.00  0.00    +0.000 C 
ATOM      3  C3  UNL A   1      11.286  30.409   2.498  1.00  0.00    +0.000 C 
ATOM      4  C4  UNL A   1      12.058  30.906   1.447  1.00  0.00    +0.000 C 
ATOM      5  C5  UNL A   1      12.607  30.025   0.506  1.00  0.00    +0.000 C 
ATOM    103  C71 UNL A   1      12.407  28.650   0.636  1.00  0.00    +0.000 C 
ATOM    104  C72 UNL A   1      11.617  28.162   1.681  1.00  0.00    +0.000 C 
ATOM    108  H4  UNL A   1      10.890  31.060   3.196  1.00  0.00    +0.000 H 
ATOM    109  H5  UNL A   1      12.224  31.921   1.362  1.00  0.00    +0.000 H 
ATOM    149  H45 UNL A   1      12.839  27.997  -0.037  1.00  0.00    +0.000 H 
ATOM    150  H46 UNL A   1      11.453  27.146   1.766  1.00  0.00    +0.000 H 
BRANCH    2    1
ATOM      1  C1  UNL A   1      10.184  28.516   3.728  1.00  0.00    +0.000 C 
ATOM    106  H2  UNL A   1       9.163  28.772   3.540  1.00  0.00    +0.000 H 
ATOM    107  H3  UNL A   1      10.497  28.953   4.654  1.00  0.00    +0.000 H 
ATOM    105  H1  UNL A   1      10.281  27.451   3.786  1.00  0.00    +0.000 H 
ENDBRANCH    2    1
ENDBRANCH    6    5
ENDBRANCH    9    6
ENDBRANCH   12   11
ENDBRANCH   14   12
ENDBRANCH   16   14
ENDBRANCH   17   16
ENDBRANCH   18   17
ENDBRANCH   20   18
ENDBRANCH   21   20
ENDBRANCH   22   21
ENDBRANCH   24   22
ENDBRANCH   25   24
ENDBRANCH   26   25
ENDBRANCH   27   26
ENDBRANCH   28   27
ENDBRANCH   29   28
ENDBRANCH   30   29
ENDBRANCH   31   30
ENDBRANCH   32   31
ENDBRANCH   34   32
ENDBRANCH   38   37
BRANCH   42   43
ATOM     43  C29 UNL A   1      16.740  17.909   8.634  1.00  0.00    +0.000 C 
ATOM     44  C30 UNL A   1      16.436  18.488   9.888  1.00  0.00    +0.000 C 
ATOM     45  F1  UNL A   1      17.269  19.351  10.483  1.00  0.00    +0.000 F 
ATOM     46  C31 UNL A   1      15.259  18.209  10.586  1.00  0.00    +0.000 C 
ATOM     47  F2  UNL A   1      15.041  18.784  11.777  1.00  0.00    +0.000 F 
ATOM     48  C32 UNL A   1      14.327  17.339  10.062  1.00  0.00    +0.000 C 
ATOM     49  F3  UNL A   1      13.208  17.053  10.740  1.00  0.00    +0.000 F 
ATOM     50  C33 UNL A   1      14.553  16.793   8.816  1.00  0.00    +0.000 C 
ATOM     51  F4  UNL A   1      13.645  15.963   8.281  1.00  0.00    +0.000 F 
ATOM     52  C34 UNL A   1      15.716  17.103   8.101  1.00  0.00    +0.000 C 
ATOM     53  F5  UNL A   1      15.771  16.631   6.853  1.00  0.00    +0.000 F 
ENDBRANCH   42   43
BRANCH   59   60
ATOM     65  C43 UNL A   1      24.139  17.446  12.736  1.00  0.00    +0.000 C 
ATOM     66  F8  UNL A   1      24.572  17.565  13.998  1.00  0.00    +0.000 F 
ATOM     67  C44 UNL A   1      24.154  18.533  11.892  1.00  0.00    +0.000 C 
ATOM     68  F9  UNL A   1      24.651  19.704  12.312  1.00  0.00    +0.000 F 
ATOM     69  C45 UNL A   1      23.671  18.412  10.590  1.00  0.00    +0.000 C 
ATOM     70  F10 UNL A   1      23.699  19.540   9.865  1.00  0.00    +0.000 F 
ATOM     60  C40 UNL A   1      23.214  17.181  10.052  1.00  0.00    +0.000 C 
ATOM     61  C41 UNL A   1      23.289  16.088  10.929  1.00  0.00    +0.000 C 
ATOM     62  F6  UNL A   1      23.036  14.838  10.519  1.00  0.00    +0.000 F 
ATOM     63  C42 UNL A   1      23.696  16.229  12.259  1.00  0.00    +0.000 C 
ATOM     64  F7  UNL A   1      23.682  15.160  13.069  1.00  0.00    +0.000 F 
ENDBRANCH   59   60
BRANCH   74   75
ATOM     75  C49 UNL A   1      24.761  18.562   3.148  1.00  0.00    +0.000 C 
ATOM     76  C50 UNL A   1      24.699  19.858   3.705  1.00  0.00    +0.000 C 
ATOM     77  F11 UNL A   1      23.764  20.145   4.626  1.00  0.00    +0.000 F 
ATOM     78  C51 UNL A   1      25.679  20.810   3.434  1.00  0.00    +0.000 C 
ATOM     79  F12 UNL A   1      25.680  21.975   4.097  1.00  0.00    +0.000 F 
ATOM     80  C52 UNL A   1      26.701  20.513   2.549  1.00  0.00    +0.000 C 
ATOM     81  F13 UNL A   1      27.705  21.382   2.369  1.00  0.00    +0.000 F 
ATOM     82  C53 UNL A   1      26.699  19.297   1.881  1.00  0.00    +0.000 C 
ATOM     83  F14 UNL A   1      27.690  19.013   1.022  1.00  0.00    +0.000 F 
ATOM     84  C54 UNL A   1      25.737  18.327   2.173  1.00  0.00    +0.000 C 
ATOM     85  F15 UNL A   1      25.840  17.122   1.593  1.00  0.00    +0.000 F 
ENDBRANCH   74   75
TORSDOF 25
ENDMDL
MODEL 2
REMARK VINA RESULT:      -9.8     12.514     19.573
ROOT
ATOM    133  H29 UNL A   1      28.576  26.147  -7.662  1.00  0.00    +0.000 H 
ATOM    134  H30 UNL A   1      26.418  27.610  -7.985  1.00  0.00    +0.000 H 
ATOM    135  H31 UNL A   1      25.363  24.160  -5.958  1.00  0.00    +0.000 H 
ATOM    136  H32 UNL A   1      25.725  27.299 -10.998  1.00  0.00    +0.000 H 
ATOM    137  H33 UNL A   1      27.069  25.326 -10.066  1.00  0.00    +0.000 H 
ATOM    138  H34 UNL A   1      24.606  23.971 -13.118  1.00  0.00    +0.000 H 
ATOM    139  H35 UNL A   1      21.012  27.582 -10.143  1.00  0.00    +0.000 H 
ATOM    140  H36 UNL A   1      21.543  27.827  -7.636  1.00  0.00    +0.000 H 
ATOM    141  H37 UNL A   1      28.358  20.627  -7.645  1.00  0.00    +0.000 H 
ATOM    142  H38 UNL A   1      27.332  20.359  -9.990  1.00  0.00    +0.000 H 
ATOM     38  C25 UNL A   1      25.849  22.768 -10.778  1.00  0.00    +0.000 C 
ATOM     39  C26 UNL A   1      26.516  22.414  -9.521  1.00  0.00    +0.000 C 
ATOM     40  N6  UNL A   1      26.481  23.129  -8.456  1.00  0.00    +0.000 N 
ATOM     41  C27 UNL A   1      27.420  22.612  -7.588  1.00  0.00    +0.000 C 
ATOM     42  C28 UNL A   1      27.909  23.430  -6.614  1.00  0.00    +0.000 C 
ATOM     54  C35 UNL A   1      27.254  24.733  -6.703  1.00  0.00    +0.000 C 
ATOM     55  C36 UNL A   1      27.623  25.899  -7.354  1.00  0.00    +0.000 C 
ATOM     56  C37 UNL A   1      26.460  26.689  -7.522  1.00  0.00    +0.000 C 
ATOM     57  C38 UNL A   1      25.391  26.014  -6.956  1.00  0.00    +0.000 C 
ATOM     58  N7  UNL A   1      25.894  24.834  -6.442  1.00  0.00    +0.000 N 
ATOM     59  C39 UNL A   1      23.991  26.368  -6.791  1.00  0.00    +0.000 C 
ATOM     71  C46 UNL A   1      23.309  26.557  -7.960  1.00  0.00    +0.000 C 
ATOM     72  N8  UNL A   1      23.729  26.006  -9.144  1.00  0.00    +0.000 N 
ATOM     73  C47 UNL A   1      22.901  26.346 -10.094  1.00  0.00    +0.000 C 
ATOM     74  C48 UNL A   1      23.078  25.943 -11.537  1.00  0.00    +0.000 C 
ATOM     86  C55 UNL A   1      24.390  25.736 -11.859  1.00  0.00    +0.000 C 
ATOM     87  C56 UNL A   1      25.522  26.297 -11.139  1.00  0.00    +0.000 C 
ATOM     88  C57 UNL A   1      26.251  25.260 -10.693  1.00  0.00    +0.000 C 
ATOM     89  C58 UNL A   1      25.698  24.029 -11.240  1.00  0.00    +0.000 C 
ATOM     90  N9  UNL A   1      24.837  24.451 -12.290  1.00  0.00    +0.000 N 
ATOM     91  C59 UNL A   1      21.805  27.181  -9.619  1.00  0.00    +0.000 C 
ATOM     92  C60 UNL A   1      22.105  27.286  -8.313  1.00  0.00    +0.000 C 
ATOM     93  C61 UNL A   1      27.774  21.326  -8.130  1.00  0.00    +0.000 C 
ATOM     94  C62 UNL A   1      27.246  21.160  -9.346  1.00  0.00    +0.000 C 
ENDROOT
BRANCH   38   37
ATOM     34  C21 UNL A   1      25.073  19.313 -12.887  1.00  0.00    +0.000 C 
ATOM     35  C22 UNL A   1      26.011  20.191 -13.452  1.00  0.00    +0.000 C 
ATOM     36  C23 UNL A   1      26.230  21.419 -12.849  1.00  0.00    +0.000 C 
ATOM    131  H27 UNL A   1      26.530  19.926 -14.303  1.00  0.00    +0.000 H 
ATOM    132  H28 UNL A   1      26.881  22.108 -13.255  1.00  0.00    +0.000 H 
ATOM     37  C24 UNL A   1      25.537  21.682 -11.675  1.00  0.00    +0.000 C 
ATOM    143  H39 UNL A   1      23.884  21.187 -10.454  1.00  0.00    +0.000 H 
ATOM    144  H40 UNL A   1      23.246  19.276 -11.820  1.00  0.00    +0.000 H 
ATOM     95  C63 UNL A   1      24.449  20.907 -11.271  1.00  0.00    +0.000 C 
ATOM     96  C64 UNL A   1      24.139  19.772 -11.969  1.00  0.00    +0.000 C 
BRANCH   34   32
ATOM     33  O7  UNL A   1      24.812  17.123 -13.685  1.00  0.00    +0.000 O 
ATOM     32  C20 UNL A   1      25.430  17.877 -12.942  1.00  0.00    +0.000 C 
BRANCH   32   31
ATOM    130  H26 UNL A   1      26.586  17.502 -11.337  1.00  0.00    +0.000 H 
ATOM     31  N5  UNL A   1      26.587  17.441 -12.320  1.00  0.00    +0.000 N 
BRANCH   31   30
ATOM    129  H25 UNL A   1      27.852  17.263 -13.919  1.00  0.00    +0.000 H 
ATOM     30  C19 UNL A   1      27.804  16.906 -12.911  1.00  0.00    +0.000 C 
ATOM    128  H24 UNL A   1      27.764  15.838 -12.866  1.00  0.00    +0.000 H 
BRANCH   30   29
ATOM     29  C18 UNL A   1      29.065  17.372 -12.207  1.00  0.00    +0.000 C 
ATOM    126  H22 UNL A   1      28.931  18.395 -11.921  1.00  0.00    +0.000 H 
ATOM    127  H23 UNL A   1      29.207  16.721 -11.370  1.00  0.00    +0.000 H 
BRANCH   29   28
ATOM    124  H20 UNL A   1      30.123  16.633 -13.884  1.00  0.00    +0.000 H 
ATOM     28  C17 UNL A   1      30.333  17.275 -13.055  1.00  0.00    +0.000 C 
ATOM    125  H21 UNL A   1      30.573  18.281 -13.329  1.00  0.00    +0.000 H 
BRANCH   28   27
ATOM    122  H18 UNL A   1      31.333  16.582 -11.314  1.00  0.00    +0.000 H 
ATOM     27  C16 UNL A   1      31.581  16.732 -12.344  1.00  0.00    +0.000 C 
ATOM    123  H19 UNL A   1      31.843  15.834 -12.863  1.00  0.00    +0.000 H 
BRANCH   27   26
ATOM    121  H17 UNL A   1      33.554  17.170 -11.767  1.00  0.00    +0.000 H 
ATOM     26  C15 UNL A   1      32.822  17.623 -12.403  1.00  0.00    +0.000 C 
ATOM    120  H16 UNL A   1      32.544  18.606 -12.084  1.00  0.00    +0.000 H 
BRANCH   26   25
ATOM     25  C14 UNL A   1      33.452  17.731 -13.784  1.00  0.00    +0.000 C 
ATOM    118  H14 UNL A   1      34.310  17.092 -13.817  1.00  0.00    +0.000 H 
ATOM    119  H15 UNL A   1      32.708  17.442 -14.496  1.00  0.00    +0.000 H 
BRANCH   25   24
ATOM    117  H13 UNL A   1      34.546  19.149 -14.826  1.00  0.00    +0.000 H 
ATOM     24  N4  UNL A   1      33.866  19.072 -14.118  1.00  0.00    +0.000 N 
BRANCH   24   22
ATOM     22  C13 UNL A   1      33.434  20.249 -13.574  1.00  0.00    +0.000 C 
ATOM     23  O6  UNL A   1      32.346  20.689 -13.955  1.00  0.00    +0.000 O 
BRANCH   22   21
ATOM    115  H11 UNL A   1      33.761  21.930 -12.307  1.00  0.00    +0.000 H 
ATOM    116  H12 UNL A   1      34.585  20.417 -11.820  1.00  0.00    +0.000 H 
ATOM     21  C12 UNL A   1      34.321  21.074 -12.621  1.00  0.00    +0.000 C 
BRANCH   21   20
ATOM    114  H10 UNL A   1      36.332  20.922 -13.082  1.00  0.00    +0.000 H 
ATOM     20  N3  UNL A   1      35.577  21.543 -13.188  1.00  0.00    +0.000 N 
BRANCH   20   18
ATOM     18  C11 UNL A   1      35.877  22.702 -13.840  1.00  0.00    +0.000 C 
ATOM     19  O5  UNL A   1      36.204  23.676 -13.158  1.00  0.00    +0.000 O 
BRANCH   18   17
ATOM     17  C10 UNL A   1      35.809  22.807 -15.373  1.00  0.00    +0.000 C 
ATOM    113  H9  UNL A   1      36.455  22.046 -15.755  1.00  0.00    +0.000 H 
ATOM    112  H8  UNL A   1      36.106  23.796 -15.652  1.00  0.00    +0.000 H 
BRANCH   17   16
ATOM    111  H7  UNL A   1      34.053  21.732 -15.616  1.00  0.00    +0.000 H 
ATOM     16  N2  UNL A   1      34.487  22.550 -15.952  1.00  0.00    +0.000 N 
BRANCH   16   14
ATOM     14  C9  UNL A   1      33.740  23.246 -16.882  1.00  0.00    +0.000 C 
ATOM     15  O4  UNL A   1      33.836  22.932 -18.064  1.00  0.00    +0.000 O 
BRANCH   14   12
ATOM     12  C8  UNL A   1      32.806  24.394 -16.443  1.00  0.00    +0.000 C 
ATOM     13  O3  UNL A   1      32.656  25.324 -17.229  1.00  0.00    +0.000 O 
BRANCH   12   11
ATOM     97  C65 UNL A   1      30.671  24.383 -14.994  1.00  0.00    +0.000 C 
ATOM     98  C66 UNL A   1      29.599  24.327 -15.914  1.00  0.00    +0.000 C 
ATOM     99  C67 UNL A   1      28.284  24.253 -15.458  1.00  0.00    +0.000 C 
ATOM    100  C68 UNL A   1      28.014  24.253 -14.097  1.00  0.00    +0.000 C 
ATOM    101  C69 UNL A   1      29.047  24.337 -13.159  1.00  0.00    +0.000 C 
ATOM    102  C70 UNL A   1      30.373  24.393 -13.626  1.00  0.00    +0.000 C 
ATOM      9  N1  UNL A   1      31.590  24.425 -12.978  1.00  0.00    +0.000 N 
ATOM     10  C6  UNL A   1      32.634  24.447 -13.874  1.00  0.00    +0.000 C 
ATOM     11  C7  UNL A   1      32.104  24.416 -15.152  1.00  0.00    +0.000 C 
ATOM    110  H6  UNL A   1      33.637  24.481 -13.635  1.00  0.00    +0.000 H 
ATOM    145  H41 UNL A   1      29.792  24.340 -16.928  1.00  0.00    +0.000 H 
ATOM    146  H42 UNL A   1      27.507  24.198 -16.136  1.00  0.00    +0.000 H 
ATOM    147  H43 UNL A   1      27.037  24.191 -13.772  1.00  0.00    +0.000 H 
ATOM    148  H44 UNL A   1      28.842  24.356 -12.147  1.00  0.00    +0.000 H 
BRANCH    9    6
ATOM      6  S1  UNL A   1      31.787  24.333 -11.286  1.00  0.00    +0.000 S 
ATOM      7  O1  UNL A   1      30.714  25.129 -10.734  1.00  0.00    +0.000 O 
ATOM      8  O2  UNL A   1      33.187  24.646 -11.037  1.00  0.00    +0.000 O 
BRANCH    6    5
ATOM      2  C2  UNL A   1      31.138  20.055  -9.803  1.00  0.00    +0.000 C 
ATOM      3  C3  UNL A   1      32.154  20.864  -9.281  1.00  0.00    +0.000 C 
ATOM      4  C4  UNL A   1      32.346  22.158  -9.767  1.00  0.00    +0.000 C 
ATOM      5  C5  UNL A   1      31.528  22.649 -10.792  1.00  0.00    +0.000 C 
ATOM    103  C71 UNL A   1      30.539  21.835 -11.347  1.00  0.00    +0.000 C 
ATOM    104  C72 UNL A   1      30.340  20.547 -10.843  1.00  0.00    +0.000 C 
ATOM    108  H4  UNL A   1      32.764  20.501  -8.532  1.00  0.00    +0.000 H 
ATOM    109  H5  UNL A   1      33.091  22.753  -9.372  1.00  0.00    +0.000 H 
ATOM    149  H45 UNL A   1      29.958  22.183 -12.127  1.00  0.00    +0.000 H 
ATOM    150  H46 UNL A   1      29.597  19.952 -11.240  1.00  0.00    +0.000 H 
BRANCH    2    1
ATOM      1  C1  UNL A   1      30.917  18.678  -9.248  1.00  0.00    +0.000 C 
ATOM    106  H2  UNL A   1      30.094  18.695  -8.566  1.00  0.00    +0.000 H 
ATOM    107  H3  UNL A   1      31.799  18.354  -8.735  1.00  0.00    +0.000 H 
ATOM    105  H1  UNL A   1      30.702  18.001 -10.050  1.00  0.00    +0.000 H 
ENDBRANCH    2    1
ENDBRANCH    6    5
ENDBRANCH    9    6
ENDBRANCH   12   11
ENDBRANCH   14   12
ENDBRANCH   16   14
ENDBRANCH   17   16
ENDBRANCH   18   17
ENDBRANCH   20   18
ENDBRANCH   21   20
ENDBRANCH   22   21
ENDBRANCH   24   22
ENDBRANCH   25   24
ENDBRANCH   26   25
ENDBRANCH   27   26
ENDBRANCH   28   27
ENDBRANCH   29   28
ENDBRANCH   30   29
ENDBRANCH   31   30
ENDBRANCH   32   31
ENDBRANCH   34   32
ENDBRANCH   38   37
BRANCH   42   43
ATOM     43  C29 UNL A   1      29.173  23.197  -5.816  1.00  0.00    +0.000 C 
ATOM     44  C30 UNL A   1      30.433  23.255  -6.458  1.00  0.00    +0.000 C 
ATOM     45  F1  UNL A   1      30.551  23.631  -7.737  1.00  0.00    +0.000 F 
ATOM     46  C31 UNL A   1      31.628  22.931  -5.811  1.00  0.00    +0.000 C 
ATOM     47  F2  UNL A   1      32.784  22.996  -6.485  1.00  0.00    +0.000 F 
ATOM     48  C32 UNL A   1      31.621  22.538  -4.491  1.00  0.00    +0.000 C 
ATOM     49  F3  UNL A   1      32.764  22.206  -3.875  1.00  0.00    +0.000 F 
ATOM     50  C33 UNL A   1      30.424  22.520  -3.806  1.00  0.00    +0.000 C 
ATOM     51  F4  UNL A   1      30.403  22.162  -2.514  1.00  0.00    +0.000 F 
ATOM     52  C34 UNL A   1      29.232  22.880  -4.446  1.00  0.00    +0.000 C 
ATOM     53  F5  UNL A   1      28.155  22.962  -3.659  1.00  0.00    +0.000 F 
ENDBRANCH   42   43
BRANCH   59   60
ATOM     65  C43 UNL A   1      22.250  27.029  -2.846  1.00  0.00    +0.000 C 
ATOM     66  F8  UNL A   1      21.684  27.231  -1.650  1.00  0.00    +0.000 F 
ATOM     67  C44 UNL A   1      22.123  25.812  -3.478  1.00  0.00    +0.000 C 
ATOM     68  F9  UNL A   1      21.388  24.839  -2.922  1.00  0.00    +0.000 F 
ATOM     69  C45 UNL A   1      22.742  25.596  -4.707  1.00  0.00    +0.000 C 
ATOM     70  F10 UNL A   1      22.584  24.365  -5.216  1.00  0.00    +0.000 F 
ATOM     60  C40 UNL A   1      23.460  26.609  -5.394  1.00  0.00    +0.000 C 
ATOM     61  C41 UNL A   1      23.497  27.853  -4.744  1.00  0.00    +0.000 C 
ATOM     62  F6  UNL A   1      24.006  28.941  -5.335  1.00  0.00    +0.000 F 
ATOM     63  C42 UNL A   1      22.946  28.043  -3.473  1.00  0.00    +0.000 C 
ATOM     64  F7  UNL A   1      23.071  29.235  -2.872  1.00  0.00    +0.000 F 
ENDBRANCH   59   60
BRANCH   74   75
ATOM     75  C49 UNL A   1      22.161  25.060 -12.313  1.00  0.00    +0.000 C 
ATOM     76  C50 UNL A   1      21.845  25.454 -13.631  1.00  0.00    +0.000 C 
ATOM     77  F11 UNL A   1      21.957  26.744 -13.989  1.00  0.00    +0.000 F 
ATOM     78  C51 UNL A   1      21.560  24.513 -14.619  1.00  0.00    +0.000 C 
ATOM     79  F12 UNL A   1      21.418  24.905 -15.893  1.00  0.00    +0.000 F 
ATOM     80  C52 UNL A   1      21.516  23.168 -14.296  1.00  0.00    +0.000 C 
ATOM     81  F13 UNL A   1      21.353  22.252 -15.260  1.00  0.00    +0.000 F 
ATOM     82  C53 UNL A   1      21.682  22.773 -12.976  1.00  0.00    +0.000 C 
ATOM     83  F14 UNL A   1      21.637  21.468 -12.666  1.00  0.00    +0.000 F 
ATOM     84  C54 UNL A   1      21.999  23.709 -11.988  1.00  0.00    +0.000 C 
ATOM     85  F15 UNL A   1      22.268  23.272 -10.750  1.00  0.00    +0.000 F 
ENDBRANCH   74   75
TORSDOF 25
ENDMDL
MODEL 3
REMARK VINA RESULT:      -9.6      5.630     13.720
ROOT
ATOM    133  H29 UNL A   1      22.469  21.856  -1.730  1.00  0.00    +0.000 H 
ATOM    134  H30 UNL A   1      21.360  23.920  -2.918  1.00  0.00    +0.000 H 
ATOM    135  H31 UNL A   1      20.978  24.410   1.173  1.00  0.00    +0.000 H 
ATOM    136  H32 UNL A   1      18.706  22.799  -4.083  1.00  0.00    +0.000 H 
ATOM    137  H33 UNL A   1      19.560  21.470  -2.066  1.00  0.00    +0.000 H 
ATOM    138  H34 UNL A   1      15.417  21.279  -2.164  1.00  0.00    +0.000 H 
ATOM    139  H35 UNL A   1      16.420  26.962  -3.394  1.00  0.00    +0.000 H 
ATOM    140  H36 UNL A   1      18.595  27.923  -2.407  1.00  0.00    +0.000 H 
ATOM    141  H37 UNL A   1      20.524  19.872   3.045  1.00  0.00    +0.000 H 
ATOM    142  H38 UNL A   1      18.143  19.363   2.212  1.00  0.00    +0.000 H 
ATOM     38  C25 UNL A   1      17.447  21.044  -0.094  1.00  0.00    +0.000 C 
ATOM     39  C26 UNL A   1      18.634  21.032   0.769  1.00  0.00    +0.000 C 
ATOM     40  N6  UNL A   1      19.593  21.879   0.691  1.00  0.00    +0.000 N 
ATOM     41  C27 UNL A   1      20.625  21.397   1.469  1.00  0.00    +0.000 C 
ATOM     42  C28 UNL A   1      21.888  21.837   1.201  1.00  0.00    +0.000 C 
ATOM     54  C35 UNL A   1      21.840  22.804   0.106  1.00  0.00    +0.000 C 
ATOM     55  C36 UNL A   1      22.001  22.646  -1.261  1.00  0.00    +0.000 C 
ATOM     56  C37 UNL A   1      21.409  23.763  -1.899  1.00  0.00    +0.000 C 
ATOM     57  C38 UNL A   1      20.907  24.606  -0.922  1.00  0.00    +0.000 C 
ATOM     58  N7  UNL A   1      21.197  24.020   0.296  1.00  0.00    +0.000 N 
ATOM     59  C39 UNL A   1      20.254  25.904  -0.994  1.00  0.00    +0.000 C 
ATOM     71  C46 UNL A   1      19.065  25.906  -1.667  1.00  0.00    +0.000 C 
ATOM     72  N8  UNL A   1      18.319  24.768  -1.831  1.00  0.00    +0.000 N 
ATOM     73  C47 UNL A   1      17.241  25.053  -2.510  1.00  0.00    +0.000 C 
ATOM     74  C48 UNL A   1      16.209  24.026  -2.904  1.00  0.00    +0.000 C 
ATOM     86  C55 UNL A   1      16.744  22.775  -3.028  1.00  0.00    +0.000 C 
ATOM     87  C56 UNL A   1      18.149  22.492  -3.271  1.00  0.00    +0.000 C 
ATOM     88  C57 UNL A   1      18.582  21.753  -2.235  1.00  0.00    +0.000 C 
ATOM     89  C58 UNL A   1      17.443  21.418  -1.391  1.00  0.00    +0.000 C 
ATOM     90  N9  UNL A   1      16.301  21.711  -2.187  1.00  0.00    +0.000 N 
ATOM     91  C59 UNL A   1      17.157  26.462  -2.872  1.00  0.00    +0.000 C 
ATOM     92  C60 UNL A   1      18.297  26.937  -2.342  1.00  0.00    +0.000 C 
ATOM     93  C61 UNL A   1      20.045  20.347   2.264  1.00  0.00    +0.000 C 
ATOM     94  C62 UNL A   1      18.805  20.069   1.855  1.00  0.00    +0.000 C 
ENDROOT
BRANCH   38   37
ATOM     34  C21 UNL A   1      14.311  19.276   1.914  1.00  0.00    +0.000 C 
ATOM     35  C22 UNL A   1      14.883  18.531   0.871  1.00  0.00    +0.000 C 
ATOM     36  C23 UNL A   1      15.863  19.117   0.087  1.00  0.00    +0.000 C 
ATOM    131  H27 UNL A   1      14.578  17.562   0.691  1.00  0.00    +0.000 H 
ATOM    132  H28 UNL A   1      16.279  18.617  -0.714  1.00  0.00    +0.000 H 
ATOM     37  C24 UNL A   1      16.263  20.402   0.424  1.00  0.00    +0.000 C 
ATOM    143  H39 UNL A   1      15.780  22.187   1.450  1.00  0.00    +0.000 H 
ATOM    144  H40 UNL A   1      13.776  21.249   2.464  1.00  0.00    +0.000 H 
ATOM     95  C63 UNL A   1      15.523  21.199   1.300  1.00  0.00    +0.000 C 
ATOM     96  C64 UNL A   1      14.452  20.656   1.957  1.00  0.00    +0.000 C 
BRANCH   34   32
ATOM     33  O7  UNL A   1      13.261  17.536   3.084  1.00  0.00    +0.000 O 
ATOM     32  C20 UNL A   1      13.997  18.515   3.145  1.00  0.00    +0.000 C 
BRANCH   32   31
ATOM    130  H26 UNL A   1      14.406  19.582   4.801  1.00  0.00    +0.000 H 
ATOM     31  N5  UNL A   1      14.699  18.782   4.306  1.00  0.00    +0.000 N 
BRANCH   31   30
ATOM    129  H25 UNL A   1      15.406  17.160   5.334  1.00  0.00    +0.000 H 
ATOM     30  C19 UNL A   1      15.809  18.052   4.900  1.00  0.00    +0.000 C 
ATOM    128  H24 UNL A   1      16.275  18.679   5.632  1.00  0.00    +0.000 H 
BRANCH   30   29
ATOM     29  C18 UNL A   1      16.856  17.629   3.888  1.00  0.00    +0.000 C 
ATOM    126  H22 UNL A   1      16.541  16.706   3.447  1.00  0.00    +0.000 H 
ATOM    127  H23 UNL A   1      16.935  18.425   3.178  1.00  0.00    +0.000 H 
BRANCH   29   28
ATOM    124  H20 UNL A   1      18.277  16.461   4.934  1.00  0.00    +0.000 H 
ATOM     28  C17 UNL A   1      18.253  17.426   4.474  1.00  0.00    +0.000 C 
ATOM    125  H21 UNL A   1      18.928  17.538   3.652  1.00  0.00    +0.000 H 
BRANCH   28   27
ATOM    122  H18 UNL A   1      19.535  18.993   5.117  1.00  0.00    +0.000 H 
ATOM     27  C16 UNL A   1      18.702  18.457   5.520  1.00  0.00    +0.000 C 
ATOM    123  H19 UNL A   1      17.845  19.067   5.714  1.00  0.00    +0.000 H 
BRANCH   27   26
ATOM    121  H17 UNL A   1      18.488  17.047   7.064  1.00  0.00    +0.000 H 
ATOM     26  C15 UNL A   1      19.122  17.888   6.876  1.00  0.00    +0.000 C 
ATOM    120  H16 UNL A   1      19.019  18.660   7.609  1.00  0.00    +0.000 H 
BRANCH   26   25
ATOM     25  C14 UNL A   1      20.553  17.373   6.924  1.00  0.00    +0.000 C 
ATOM    118  H14 UNL A   1      20.530  16.325   7.138  1.00  0.00    +0.000 H 
ATOM    119  H15 UNL A   1      20.997  17.581   5.974  1.00  0.00    +0.000 H 
BRANCH   25   24
ATOM    117  H13 UNL A   1      21.391  19.010   7.881  1.00  0.00    +0.000 H 
ATOM     24  N4  UNL A   1      21.361  18.028   7.926  1.00  0.00    +0.000 N 
BRANCH   24   22
ATOM     22  C13 UNL A   1      22.090  17.453   8.929  1.00  0.00    +0.000 C 
ATOM     23  O6  UNL A   1      21.820  16.289   9.237  1.00  0.00    +0.000 O 
BRANCH   22   21
ATOM    115  H11 UNL A   1      22.981  19.295   9.521  1.00  0.00    +0.000 H 
ATOM    116  H12 UNL A   1      22.943  18.012  10.770  1.00  0.00    +0.000 H 
ATOM     21  C12 UNL A   1      23.121  18.258   9.744  1.00  0.00    +0.000 C 
BRANCH   21   20
ATOM    114  H10 UNL A   1      24.698  16.966   9.398  1.00  0.00    +0.000 H 
ATOM     20  N3  UNL A   1      24.514  17.928   9.486  1.00  0.00    +0.000 N 
BRANCH   20   18
ATOM     18  C11 UNL A   1      25.606  18.733   9.350  1.00  0.00    +0.000 C 
ATOM     19  O5  UNL A   1      26.486  18.657  10.211  1.00  0.00    +0.000 O 
BRANCH   18   17
ATOM     17  C10 UNL A   1      25.744  19.713   8.172  1.00  0.00    +0.000 C 
ATOM    113  H9  UNL A   1      26.456  20.449   8.478  1.00  0.00    +0.000 H 
ATOM    112  H8  UNL A   1      24.776  20.119   7.963  1.00  0.00    +0.000 H 
BRANCH   17   16
ATOM    111  H7  UNL A   1      26.948  19.674   6.486  1.00  0.00    +0.000 H 
ATOM     16  N2  UNL A   1      26.266  19.124   6.936  1.00  0.00    +0.000 N 
BRANCH   16   14
ATOM     14  C9  UNL A   1      25.976  17.940   6.288  1.00  0.00    +0.000 C 
ATOM     15  O4  UNL A   1      26.834  17.064   6.256  1.00  0.00    +0.000 O 
BRANCH   14   12
ATOM     12  C8  UNL A   1      24.602  17.726   5.616  1.00  0.00    +0.000 C 
ATOM     13  O3  UNL A   1      23.751  18.591   5.798  1.00  0.00    +0.000 O 
BRANCH   12   11
ATOM     97  C65 UNL A   1      23.890  15.267   5.296  1.00  0.00    +0.000 C 
ATOM     98  C66 UNL A   1      23.706  14.761   6.603  1.00  0.00    +0.000 C 
ATOM     99  C67 UNL A   1      23.261  13.453   6.795  1.00  0.00    +0.000 C 
ATOM    100  C68 UNL A   1      23.012  12.632   5.705  1.00  0.00    +0.000 C 
ATOM    101  C69 UNL A   1      23.211  13.089   4.399  1.00  0.00    +0.000 C 
ATOM    102  C70 UNL A   1      23.643  14.415   4.212  1.00  0.00    +0.000 C 
ATOM      9  N1  UNL A   1      23.874  15.170   3.082  1.00  0.00    +0.000 N 
ATOM     10  C6  UNL A   1      24.264  16.449   3.405  1.00  0.00    +0.000 C 
ATOM     11  C7  UNL A   1      24.282  16.557   4.785  1.00  0.00    +0.000 C 
ATOM    110  H6  UNL A   1      24.502  17.198   2.736  1.00  0.00    +0.000 H 
ATOM    145  H41 UNL A   1      23.902  15.363   7.418  1.00  0.00    +0.000 H 
ATOM    146  H42 UNL A   1      23.116  13.096   7.752  1.00  0.00    +0.000 H 
ATOM    147  H43 UNL A   1      22.677  11.668   5.861  1.00  0.00    +0.000 H 
ATOM    148  H44 UNL A   1      23.043  12.469   3.591  1.00  0.00    +0.000 H 
BRANCH    9    6
ATOM      6  S1  UNL A   1      23.602  14.630   1.486  1.00  0.00    +0.000 S 
ATOM      7  O1  UNL A   1      24.110  13.278   1.450  1.00  0.00    +0.000 O 
ATOM      8  O2  UNL A   1      24.132  15.678   0.623  1.00  0.00    +0.000 O 
BRANCH    6    5
ATOM      2  C2  UNL A   1      19.079  14.681   0.806  1.00  0.00    +0.000 C 
ATOM      3  C3  UNL A   1      19.678  15.460   1.803  1.00  0.00    +0.000 C 
ATOM      4  C4  UNL A   1      21.057  15.409   2.006  1.00  0.00    +0.000 C 
ATOM      5  C5  UNL A   1      21.849  14.564   1.218  1.00  0.00    +0.000 C 
ATOM    103  C71 UNL A   1      21.256  13.752   0.250  1.00  0.00    +0.000 C 
ATOM    104  C72 UNL A   1      19.876  13.823   0.039  1.00  0.00    +0.000 C 
ATOM    108  H4  UNL A   1      19.095  16.077   2.391  1.00  0.00    +0.000 H 
ATOM    109  H5  UNL A   1      21.494  15.994   2.736  1.00  0.00    +0.000 H 
ATOM    149  H45 UNL A   1      21.835  13.104  -0.308  1.00  0.00    +0.000 H 
ATOM    150  H46 UNL A   1      19.440  13.236  -0.689  1.00  0.00    +0.000 H 
BRANCH    2    1
ATOM      1  C1  UNL A   1      17.599  14.770   0.573  1.00  0.00    +0.000 C 
ATOM    106  H2  UNL A   1      17.350  15.751   0.227  1.00  0.00    +0.000 H 
ATOM    107  H3  UNL A   1      17.081  14.572   1.488  1.00  0.00    +0.000 H 
ATOM    105  H1  UNL A   1      17.310  14.048  -0.163  1.00  0.00    +0.000 H 
ENDBRANCH    2    1
ENDBRANCH    6    5
ENDBRANCH    9    6
ENDBRANCH   12   11
ENDBRANCH   14   12
ENDBRANCH   16   14
ENDBRANCH   17   16
ENDBRANCH   18   17
ENDBRANCH   20   18
ENDBRANCH   21   20
ENDBRANCH   22   21
ENDBRANCH   24   22
ENDBRANCH   25   24
ENDBRANCH   26   25
ENDBRANCH   27   26
ENDBRANCH   28   27
ENDBRANCH   29   28
ENDBRANCH   30   29
ENDBRANCH   31   30
ENDBRANCH   32   31
ENDBRANCH   34   32
ENDBRANCH   38   37
BRANCH   42   43
ATOM     43  C29 UNL A   1      23.170  21.181   1.664  1.00  0.00    +0.000 C 
ATOM     44  C30 UNL A   1      23.766  20.167   0.879  1.00  0.00    +0.000 C 
ATOM     45  F1  UNL A   1      23.294  19.849  -0.333  1.00  0.00    +0.000 F 
ATOM     46  C31 UNL A   1      24.878  19.436   1.304  1.00  0.00    +0.000 C 
ATOM     47  F2  UNL A   1      25.385  18.481   0.513  1.00  0.00    +0.000 F 
ATOM     48  C32 UNL A   1      25.450  19.687   2.532  1.00  0.00    +0.000 C 
ATOM     49  F3  UNL A   1      26.502  18.973   2.950  1.00  0.00    +0.000 F 
ATOM     50  C33 UNL A   1      24.937  20.704   3.310  1.00  0.00    +0.000 C 
ATOM     51  F4  UNL A   1      25.496  20.977   4.498  1.00  0.00    +0.000 F 
ATOM     52  C34 UNL A   1      23.845  21.460   2.867  1.00  0.00    +0.000 C 
ATOM     53  F5  UNL A   1      23.518  22.506   3.631  1.00  0.00    +0.000 F 
ENDBRANCH   42   43
BRANCH   59   60
ATOM     65  C43 UNL A   1      22.507  29.256   0.652  1.00  0.00    +0.000 C 
ATOM     66  F8  UNL A   1      23.221  30.263   1.171  1.00  0.00    +0.000 F 
ATOM     67  C44 UNL A   1      23.005  28.522  -0.400  1.00  0.00    +0.000 C 
ATOM     68  F9  UNL A   1      24.231  28.777  -0.878  1.00  0.00    +0.000 F 
ATOM     69  C45 UNL A   1      22.244  27.497  -0.958  1.00  0.00    +0.000 C 
ATOM     70  F10 UNL A   1      22.809  26.870  -2.000  1.00  0.00    +0.000 F 
ATOM     60  C40 UNL A   1      20.977  27.115  -0.445  1.00  0.00    +0.000 C 
ATOM     61  C41 UNL A   1      20.547  27.845   0.675  1.00  0.00    +0.000 C 
ATOM     62  F6  UNL A   1      19.447  27.503   1.358  1.00  0.00    +0.000 F 
ATOM     63  C42 UNL A   1      21.275  28.926   1.181  1.00  0.00    +0.000 C 
ATOM     64  F7  UNL A   1      20.781  29.629   2.210  1.00  0.00    +0.000 F 
ENDBRANCH   59   60
BRANCH   74   75
ATOM     75  C49 UNL A   1      14.793  23.991  -2.436  1.00  0.00    +0.000 C 
ATOM     76  C50 UNL A   1      14.550  24.313  -1.083  1.00  0.00    +0.000 C 
ATOM     77  F11 UNL A   1      15.535  24.184  -0.179  1.00  0.00    +0.000 F 
ATOM     78  C51 UNL A   1      13.355  24.907  -0.685  1.00  0.00    +0.000 C 
ATOM     79  F12 UNL A   1      13.214  25.344   0.575  1.00  0.00    +0.000 F 
ATOM     80  C52 UNL A   1      12.352  25.126  -1.613  1.00  0.00    +0.000 C 
ATOM     81  F13 UNL A   1      11.246  25.795  -1.260  1.00  0.00    +0.000 F 
ATOM     82  C53 UNL A   1      12.516  24.684  -2.918  1.00  0.00    +0.000 C 
ATOM     83  F14 UNL A   1      11.541  24.897  -3.816  1.00  0.00    +0.000 F 
ATOM     84  C54 UNL A   1      13.725  24.118  -3.331  1.00  0.00    +0.000 C 
ATOM     85  F15 UNL A   1      13.885  23.814  -4.627  1.00  0.00    +0.000 F 
ENDBRANCH   74   75
TORSDOF 25
ENDMDL
MODEL 4
REMARK VINA RESULT:      -9.6      2.732      4.744
ROOT
ATOM    133  H29 UNL A   1      18.606  15.315   7.218  1.00  0.00    +0.000 H 
ATOM    134  H30 UNL A   1      21.167  14.749   7.367  1.00  0.00    +0.000 H 
ATOM    135  H31 UNL A   1      20.558  18.483   9.043  1.00  0.00    +0.000 H 
ATOM    136  H32 UNL A   1      22.194  15.073   4.452  1.00  0.00    +0.000 H 
ATOM    137  H33 UNL A   1      20.095  16.461   4.940  1.00  0.00    +0.000 H 
ATOM    138  H34 UNL A   1      22.379  18.410   2.075  1.00  0.00    +0.000 H 
ATOM    139  H35 UNL A   1      26.481  16.642   5.931  1.00  0.00    +0.000 H 
ATOM    140  H36 UNL A   1      25.662  16.403   8.360  1.00  0.00    +0.000 H 
ATOM    141  H37 UNL A   1      16.820  20.499   6.541  1.00  0.00    +0.000 H 
ATOM    142  H38 UNL A   1      18.056  20.958   4.331  1.00  0.00    +0.000 H 
ATOM     38  C25 UNL A   1      20.415  19.229   4.060  1.00  0.00    +0.000 C 
ATOM     39  C26 UNL A   1      19.465  19.399   5.165  1.00  0.00    +0.000 C 
ATOM     40  N6  UNL A   1      19.577  18.831   6.310  1.00  0.00    +0.000 N 
ATOM     41  C27 UNL A   1      18.385  19.021   6.976  1.00  0.00    +0.000 C 
ATOM     42  C28 UNL A   1      18.067  18.154   7.979  1.00  0.00    +0.000 C 
ATOM     54  C35 UNL A   1      19.151  17.189   8.144  1.00  0.00    +0.000 C 
ATOM     55  C36 UNL A   1      19.340  15.925   7.610  1.00  0.00    +0.000 C 
ATOM     56  C37 UNL A   1      20.720  15.618   7.697  1.00  0.00    +0.000 C 
ATOM     57  C38 UNL A   1      21.364  16.685   8.301  1.00  0.00    +0.000 C 
ATOM     58  N7  UNL A   1      20.393  17.625   8.588  1.00  0.00    +0.000 N 
ATOM     59  C39 UNL A   1      22.750  16.895   8.688  1.00  0.00    +0.000 C 
ATOM     71  C46 UNL A   1      23.639  16.890   7.650  1.00  0.00    +0.000 C 
ATOM     72  N8  UNL A   1      23.253  17.154   6.361  1.00  0.00    +0.000 N 
ATOM     73  C47 UNL A   1      24.293  17.080   5.576  1.00  0.00    +0.000 C 
ATOM     74  C48 UNL A   1      24.226  17.278   4.082  1.00  0.00    +0.000 C 
ATOM     86  C55 UNL A   1      23.001  16.954   3.572  1.00  0.00    +0.000 C 
ATOM     87  C56 UNL A   1      22.044  16.065   4.208  1.00  0.00    +0.000 C 
ATOM     88  C57 UNL A   1      20.927  16.782   4.419  1.00  0.00    +0.000 C 
ATOM     89  C58 UNL A   1      21.084  18.086   3.791  1.00  0.00    +0.000 C 
ATOM     90  N9  UNL A   1      22.201  17.941   2.923  1.00  0.00    +0.000 N 
ATOM     91  C59 UNL A   1      25.520  16.754   6.292  1.00  0.00    +0.000 C 
ATOM     92  C60 UNL A   1      25.065  16.642   7.552  1.00  0.00    +0.000 C 
ATOM     93  C61 UNL A   1      17.688  20.036   6.230  1.00  0.00    +0.000 C 
ATOM     94  C62 UNL A   1      18.315  20.297   5.080  1.00  0.00    +0.000 C 
ENDROOT
BRANCH   38   37
ATOM     34  C21 UNL A   1      20.355  22.591   1.677  1.00  0.00    +0.000 C 
ATOM     35  C22 UNL A   1      19.642  21.478   1.204  1.00  0.00    +0.000 C 
ATOM     36  C23 UNL A   1      19.718  20.285   1.904  1.00  0.00    +0.000 C 
ATOM    131  H27 UNL A   1      19.070  21.548   0.348  1.00  0.00    +0.000 H 
ATOM    132  H28 UNL A   1      19.242  19.434   1.567  1.00  0.00    +0.000 H 
ATOM     37  C24 UNL A   1      20.461  20.283   3.076  1.00  0.00    +0.000 C 
ATOM    143  H39 UNL A   1      21.963  21.241   4.215  1.00  0.00    +0.000 H 
ATOM    144  H40 UNL A   1      22.132  23.133   2.692  1.00  0.00    +0.000 H 
ATOM     95  C63 UNL A   1      21.343  21.317   3.393  1.00  0.00    +0.000 C 
ATOM     96  C64 UNL A   1      21.376  22.434   2.604  1.00  0.00    +0.000 C 
BRANCH   34   32
ATOM     33  O7  UNL A   1      18.630  24.115   2.126  1.00  0.00    +0.000 O 
ATOM     32  C20 UNL A   1      19.674  23.897   1.522  1.00  0.00    +0.000 C 
BRANCH   32   31
ATOM    130  H26 UNL A   1      20.248  24.928  -0.108  1.00  0.00    +0.000 H 
ATOM     31  N5  UNL A   1      20.327  24.930   0.873  1.00  0.00    +0.000 N 
BRANCH   31   30
ATOM    129  H25 UNL A   1      21.603  25.641   2.307  1.00  0.00    +0.000 H 
ATOM     30  C19 UNL A   1      21.113  26.019   1.433  1.00  0.00    +0.000 C 
ATOM    128  H24 UNL A   1      20.455  26.831   1.662  1.00  0.00    +0.000 H 
BRANCH   30   29
ATOM     29  C18 UNL A   1      22.192  26.522   0.492  1.00  0.00    +0.000 C 
ATOM    126  H22 UNL A   1      22.274  27.582   0.613  1.00  0.00    +0.000 H 
ATOM    127  H23 UNL A   1      23.090  26.002   0.752  1.00  0.00    +0.000 H 
BRANCH   29   28
ATOM    124  H20 UNL A   1      22.874  26.085  -1.463  1.00  0.00    +0.000 H 
ATOM     28  C17 UNL A   1      21.928  26.228  -0.984  1.00  0.00    +0.000 C 
ATOM    125  H21 UNL A   1      21.296  25.366  -0.997  1.00  0.00    +0.000 H 
BRANCH   28   27
ATOM    122  H18 UNL A   1      20.695  27.955  -1.052  1.00  0.00    +0.000 H 
ATOM     27  C16 UNL A   1      21.167  27.311  -1.762  1.00  0.00    +0.000 C 
ATOM    123  H19 UNL A   1      21.898  27.798  -2.373  1.00  0.00    +0.000 H 
BRANCH   27   26
ATOM    121  H17 UNL A   1      20.414  25.844  -3.066  1.00  0.00    +0.000 H 
ATOM     26  C15 UNL A   1      20.091  26.806  -2.725  1.00  0.00    +0.000 C 
ATOM    120  H16 UNL A   1      19.992  27.517  -3.518  1.00  0.00    +0.000 H 
BRANCH   26   25
ATOM     25  C14 UNL A   1      18.724  26.607  -2.089  1.00  0.00    +0.000 C 
ATOM    118  H14 UNL A   1      18.724  27.074  -1.126  1.00  0.00    +0.000 H 
ATOM    119  H15 UNL A   1      18.001  27.041  -2.747  1.00  0.00    +0.000 H 
BRANCH   25   24
ATOM    117  H13 UNL A   1      19.051  24.647  -1.499  1.00  0.00    +0.000 H 
ATOM     24  N4  UNL A   1      18.370  25.217  -1.923  1.00  0.00    +0.000 N 
BRANCH   24   22
ATOM     22  C13 UNL A   1      17.209  24.593  -2.281  1.00  0.00    +0.000 C 
ATOM     23  O6  UNL A   1      16.270  25.303  -2.653  1.00  0.00    +0.000 O 
BRANCH   22   21
ATOM    115  H11 UNL A   1      16.115  22.795  -2.607  1.00  0.00    +0.000 H 
ATOM    116  H12 UNL A   1      17.894  22.617  -2.513  1.00  0.00    +0.000 H 
ATOM     21  C12 UNL A   1      17.017  23.074  -2.105  1.00  0.00    +0.000 C 
BRANCH   21   20
ATOM    114  H10 UNL A   1      17.790  22.537  -0.263  1.00  0.00    +0.000 H 
ATOM     20  N3  UNL A   1      16.927  22.613  -0.728  1.00  0.00    +0.000 N 
BRANCH   20   18
ATOM     18  C11 UNL A   1      15.842  22.267   0.022  1.00  0.00    +0.000 C 
ATOM     19  O5  UNL A   1      14.728  22.374  -0.498  1.00  0.00    +0.000 O 
BRANCH   18   17
ATOM     17  C10 UNL A   1      15.987  21.767   1.469  1.00  0.00    +0.000 C 
ATOM    113  H9  UNL A   1      17.009  21.476   1.584  1.00  0.00    +0.000 H 
ATOM    112  H8  UNL A   1      15.298  20.961   1.612  1.00  0.00    +0.000 H 
BRANCH   17   16
ATOM    111  H7  UNL A   1      15.712  23.699   2.164  1.00  0.00    +0.000 H 
ATOM     16  N2  UNL A   1      15.728  22.774   2.501  1.00  0.00    +0.000 N 
BRANCH   16   14
ATOM     14  C9  UNL A   1      15.502  22.663   3.859  1.00  0.00    +0.000 C 
ATOM     15  O4  UNL A   1      16.404  22.975   4.630  1.00  0.00    +0.000 O 
BRANCH   14   12
ATOM     12  C8  UNL A   1      14.145  22.155   4.393  1.00  0.00    +0.000 C 
ATOM     13  O3  UNL A   1      14.030  20.946   4.564  1.00  0.00    +0.000 O 
BRANCH   12   11
ATOM     97  C65 UNL A   1      12.835  23.746   5.944  1.00  0.00    +0.000 C 
ATOM     98  C66 UNL A   1      13.594  23.810   7.136  1.00  0.00    +0.000 C 
ATOM     99  C67 UNL A   1      13.190  24.638   8.183  1.00  0.00    +0.000 C 
ATOM    100  C68 UNL A   1      12.031  25.392   8.072  1.00  0.00    +0.000 C 
ATOM    101  C69 UNL A   1      11.240  25.331   6.921  1.00  0.00    +0.000 C 
ATOM    102  C70 UNL A   1      11.663  24.508   5.861  1.00  0.00    +0.000 C 
ATOM      9  N1  UNL A   1      11.153  24.274   4.602  1.00  0.00    +0.000 N 
ATOM     10  C6  UNL A   1      11.943  23.394   3.897  1.00  0.00    +0.000 C 
ATOM     11  C7  UNL A   1      13.014  23.041   4.699  1.00  0.00    +0.000 C 
ATOM    110  H6  UNL A   1      11.768  23.057   2.938  1.00  0.00    +0.000 H 
ATOM    145  H41 UNL A   1      14.450  23.242   7.229  1.00  0.00    +0.000 H 
ATOM    146  H42 UNL A   1      13.757  24.690   9.044  1.00  0.00    +0.000 H 
ATOM    147  H43 UNL A   1      11.747  26.005   8.852  1.00  0.00    +0.000 H 
ATOM    148  H44 UNL A   1      10.368  25.879   6.849  1.00  0.00    +0.000 H 
BRANCH    9    6
ATOM      6  S1  UNL A   1       9.784  25.057   3.951  1.00  0.00    +0.000 S 
ATOM      7  O1  UNL A   1       8.892  25.257   5.071  1.00  0.00    +0.000 O 
ATOM      8  O2  UNL A   1       9.399  24.271   2.787  1.00  0.00    +0.000 O 
BRANCH    6    5
ATOM      2  C2  UNL A   1      11.135  29.228   2.646  1.00  0.00    +0.000 C 
ATOM      3  C3  UNL A   1      10.286  29.044   3.744  1.00  0.00    +0.000 C 
ATOM      4  C4  UNL A   1       9.870  27.763   4.108  1.00  0.00    +0.000 C 
ATOM      5  C5  UNL A   1      10.290  26.653   3.364  1.00  0.00    +0.000 C 
ATOM    103  C71 UNL A   1      11.103  26.830   2.243  1.00  0.00    +0.000 C 
ATOM    104  C72 UNL A   1      11.532  28.115   1.896  1.00  0.00    +0.000 C 
ATOM    108  H4  UNL A   1       9.967  29.861   4.288  1.00  0.00    +0.000 H 
ATOM    109  H5  UNL A   1       9.252  27.633   4.924  1.00  0.00    +0.000 H 
ATOM    149  H45 UNL A   1      11.386  26.016   1.674  1.00  0.00    +0.000 H 
ATOM    150  H46 UNL A   1      12.147  28.244   1.078  1.00  0.00    +0.000 H 
BRANCH    2    1
ATOM      1  C1  UNL A   1      11.605  30.607   2.285  1.00  0.00    +0.000 C 
ATOM    106  H2  UNL A   1      11.644  31.213   3.165  1.00  0.00    +0.000 H 
ATOM    107  H3  UNL A   1      10.927  31.043   1.581  1.00  0.00    +0.000 H 
ATOM    105  H1  UNL A   1      12.581  30.548   1.849  1.00  0.00    +0.000 H 
ENDBRANCH    2    1
ENDBRANCH    6    5
ENDBRANCH    9    6
ENDBRANCH   12   11
ENDBRANCH   14   12
ENDBRANCH   16   14
ENDBRANCH   17   16
ENDBRANCH   18   17
ENDBRANCH   20   18
ENDBRANCH   21   20
ENDBRANCH   22   21
ENDBRANCH   24   22
ENDBRANCH   25   24
ENDBRANCH   26   25
ENDBRANCH   27   26
ENDBRANCH   28   27
ENDBRANCH   29   28
ENDBRANCH   30   29
ENDBRANCH   31   30
ENDBRANCH   32   31
ENDBRANCH   34   32
ENDBRANCH   38   37
BRANCH   42   43
ATOM     43  C29 UNL A   1      16.689  17.954   8.572  1.00  0.00    +0.000 C 
ATOM     44  C30 UNL A   1      16.373  18.524   9.827  1.00  0.00    +0.000 C 
ATOM     45  F1  UNL A   1      17.222  19.345  10.458  1.00  0.00    +0.000 F 
ATOM     46  C31 UNL A   1      15.167  18.279  10.488  1.00  0.00    +0.000 C 
ATOM     47  F2  UNL A   1      14.939  18.843  11.681  1.00  0.00    +0.000 F 
ATOM     48  C32 UNL A   1      14.218  17.454   9.924  1.00  0.00    +0.000 C 
ATOM     49  F3  UNL A   1      13.071  17.200  10.566  1.00  0.00    +0.000 F 
ATOM     50  C33 UNL A   1      14.458  16.919   8.675  1.00  0.00    +0.000 C 
ATOM     51  F4  UNL A   1      13.535  16.133   8.101  1.00  0.00    +0.000 F 
ATOM     52  C34 UNL A   1      15.651  17.195   7.998  1.00  0.00    +0.000 C 
ATOM     53  F5  UNL A   1      15.723  16.742   6.743  1.00  0.00    +0.000 F 
ENDBRANCH   42   43
BRANCH   59   60
ATOM     65  C43 UNL A   1      23.550  17.001  12.974  1.00  0.00    +0.000 C 
ATOM     66  F8  UNL A   1      23.765  17.018  14.296  1.00  0.00    +0.000 F 
ATOM     67  C44 UNL A   1      23.572  15.811  12.283  1.00  0.00    +0.000 C 
ATOM     68  F9  UNL A   1      23.759  14.656  12.936  1.00  0.00    +0.000 F 
ATOM     69  C45 UNL A   1      23.382  15.802  10.902  1.00  0.00    +0.000 C 
ATOM     70  F10 UNL A   1      23.459  14.595  10.324  1.00  0.00    +0.000 F 
ATOM     60  C40 UNL A   1      23.091  16.976  10.160  1.00  0.00    +0.000 C 
ATOM     61  C41 UNL A   1      23.005  18.152  10.922  1.00  0.00    +0.000 C 
ATOM     62  F6  UNL A   1      22.593  19.309  10.388  1.00  0.00    +0.000 F 
ATOM     63  C42 UNL A   1      23.279  18.170  12.293  1.00  0.00    +0.000 C 
ATOM     64  F7  UNL A   1      23.247  19.336  12.957  1.00  0.00    +0.000 F 
ENDBRANCH   59   60
BRANCH   74   75
ATOM     75  C49 UNL A   1      24.881  18.381   3.320  1.00  0.00    +0.000 C 
ATOM     76  C50 UNL A   1      24.993  19.633   3.961  1.00  0.00    +0.000 C 
ATOM     77  F11 UNL A   1      24.155  19.948   4.963  1.00  0.00    +0.000 F 
ATOM     78  C51 UNL A   1      26.048  20.498   3.680  1.00  0.00    +0.000 C 
ATOM     79  F12 UNL A   1      26.216  21.607   4.414  1.00  0.00    +0.000 F 
ATOM     80  C52 UNL A   1      26.974  20.162   2.707  1.00  0.00    +0.000 C 
ATOM     81  F13 UNL A   1      28.050  20.935   2.510  1.00  0.00    +0.000 F 
ATOM     82  C53 UNL A   1      26.799  19.001   1.965  1.00  0.00    +0.000 C 
ATOM     83  F14 UNL A   1      27.697  18.680   1.021  1.00  0.00    +0.000 F 
ATOM     84  C54 UNL A   1      25.761  18.116   2.264  1.00  0.00    +0.000 C 
ATOM     85  F15 UNL A   1      25.698  16.951   1.604  1.00  0.00    +0.000 F 
ENDBRANCH   74   75
TORSDOF 25
ENDMDL
MODEL 5
REMARK VINA RESULT:      -9.6      3.895      5.972
ROOT
ATOM    133  H29 UNL A   1      18.727  15.570   6.884  1.00  0.00    +0.000 H 
ATOM    134  H30 UNL A   1      21.300  15.050   7.006  1.00  0.00    +0.000 H 
ATOM    135  H31 UNL A   1      20.629  18.728   8.779  1.00  0.00    +0.000 H 
ATOM    136  H32 UNL A   1      22.304  15.467   4.095  1.00  0.00    +0.000 H 
ATOM    137  H33 UNL A   1      20.183  16.801   4.628  1.00  0.00    +0.000 H 
ATOM    138  H34 UNL A   1      22.413  18.865   1.803  1.00  0.00    +0.000 H 
ATOM    139  H35 UNL A   1      26.569  17.080   5.592  1.00  0.00    +0.000 H 
ATOM    140  H36 UNL A   1      25.768  16.764   8.018  1.00  0.00    +0.000 H 
ATOM    141  H37 UNL A   1      16.839  20.735   6.347  1.00  0.00    +0.000 H 
ATOM    142  H38 UNL A   1      18.055  21.272   4.143  1.00  0.00    +0.000 H 
ATOM     38  C25 UNL A   1      20.445  19.596   3.817  1.00  0.00    +0.000 C 
ATOM     39  C26 UNL A   1      19.498  19.720   4.931  1.00  0.00    +0.000 C 
ATOM     40  N6  UNL A   1      19.627  19.126   6.060  1.00  0.00    +0.000 N 
ATOM     41  C27 UNL A   1      18.434  19.276   6.737  1.00  0.00    +0.000 C 
ATOM     42  C28 UNL A   1      18.138  18.378   7.718  1.00  0.00    +0.000 C 
ATOM     54  C35 UNL A   1      19.242  17.430   7.855  1.00  0.00    +0.000 C 
ATOM     55  C36 UNL A   1      19.452  16.184   7.287  1.00  0.00    +0.000 C 
ATOM     56  C37 UNL A   1      20.838  15.901   7.360  1.00  0.00    +0.000 C 
ATOM     57  C38 UNL A   1      21.465  16.965   7.988  1.00  0.00    +0.000 C 
ATOM     58  N7  UNL A   1      20.478  17.879   8.303  1.00  0.00    +0.000 N 
ATOM     59  C39 UNL A   1      22.848  17.192   8.373  1.00  0.00    +0.000 C 
ATOM     71  C46 UNL A   1      23.732  17.230   7.331  1.00  0.00    +0.000 C 
ATOM     72  N8  UNL A   1      23.334  17.519   6.051  1.00  0.00    +0.000 N 
ATOM     73  C47 UNL A   1      24.371  17.484   5.259  1.00  0.00    +0.000 C 
ATOM     74  C48 UNL A   1      24.293  17.719   3.771  1.00  0.00    +0.000 C 
ATOM     86  C55 UNL A   1      23.072  17.385   3.259  1.00  0.00    +0.000 C 
ATOM     87  C56 UNL A   1      22.134  16.461   3.877  1.00  0.00    +0.000 C 
ATOM     88  C57 UNL A   1      21.005  17.151   4.111  1.00  0.00    +0.000 C 
ATOM     89  C58 UNL A   1      21.134  18.474   3.516  1.00  0.00    +0.000 C 
ATOM     90  N9  UNL A   1      22.249  18.372   2.639  1.00  0.00    +0.000 N 
ATOM     91  C59 UNL A   1      25.608  17.165   5.961  1.00  0.00    +0.000 C 
ATOM     92  C60 UNL A   1      25.162  17.011   7.220  1.00  0.00    +0.000 C 
ATOM     93  C61 UNL A   1      17.714  20.296   6.020  1.00  0.00    +0.000 C 
ATOM     94  C62 UNL A   1      18.331  20.598   4.874  1.00  0.00    +0.000 C 
ENDROOT
BRANCH   38   37
ATOM     34  C21 UNL A   1      20.693  22.279   0.699  1.00  0.00    +0.000 C 
ATOM     35  C22 UNL A   1      21.378  22.625   1.874  1.00  0.00    +0.000 C 
ATOM     36  C23 UNL A   1      21.239  21.820   2.993  1.00  0.00    +0.000 C 
ATOM    131  H27 UNL A   1      21.975  23.465   1.904  1.00  0.00    +0.000 H 
ATOM    132  H28 UNL A   1      21.692  22.061   3.887  1.00  0.00    +0.000 H 
ATOM     37  C24 UNL A   1      20.465  20.675   2.860  1.00  0.00    +0.000 C 
ATOM    143  H39 UNL A   1      18.969  19.677   1.748  1.00  0.00    +0.000 H 
ATOM    144  H40 UNL A   1      18.911  21.373   0.004  1.00  0.00    +0.000 H 
ATOM     95  C63 UNL A   1      19.614  20.483   1.771  1.00  0.00    +0.000 C 
ATOM     96  C64 UNL A   1      19.642  21.373   0.732  1.00  0.00    +0.000 C 
BRANCH   34   32
ATOM     33  O7  UNL A   1      21.781  23.674  -0.842  1.00  0.00    +0.000 O 
ATOM     32  C20 UNL A   1      21.425  22.534  -0.564  1.00  0.00    +0.000 C 
BRANCH   32   31
ATOM    130  H26 UNL A   1      22.256  20.714  -0.788  1.00  0.00    +0.000 H 
ATOM     31  N5  UNL A   1      21.885  21.463  -1.309  1.00  0.00    +0.000 N 
BRANCH   31   30
ATOM    129  H25 UNL A   1      22.241  22.203  -3.184  1.00  0.00    +0.000 H 
ATOM     30  C19 UNL A   1      21.899  21.284  -2.753  1.00  0.00    +0.000 C 
ATOM    128  H24 UNL A   1      20.909  21.035  -3.075  1.00  0.00    +0.000 H 
BRANCH   30   29
ATOM     29  C18 UNL A   1      22.846  20.191  -3.211  1.00  0.00    +0.000 C 
ATOM    126  H22 UNL A   1      22.524  19.267  -2.777  1.00  0.00    +0.000 H 
ATOM    127  H23 UNL A   1      22.812  20.184  -4.280  1.00  0.00    +0.000 H 
BRANCH   29   28
ATOM    124  H20 UNL A   1      24.402  21.432  -2.494  1.00  0.00    +0.000 H 
ATOM     28  C17 UNL A   1      24.307  20.419  -2.822  1.00  0.00    +0.000 C 
ATOM    125  H21 UNL A   1      24.520  19.691  -2.068  1.00  0.00    +0.000 H 
BRANCH   28   27
ATOM    122  H18 UNL A   1      26.041  19.453  -3.576  1.00  0.00    +0.000 H 
ATOM     27  C16 UNL A   1      25.344  20.183  -3.929  1.00  0.00    +0.000 C 
ATOM    123  H19 UNL A   1      24.787  19.871  -4.788  1.00  0.00    +0.000 H 
BRANCH   27   26
ATOM    121  H17 UNL A   1      26.529  21.860  -3.481  1.00  0.00    +0.000 H 
ATOM     26  C15 UNL A   1      26.137  21.413  -4.371  1.00  0.00    +0.000 C 
ATOM    120  H16 UNL A   1      25.477  22.062  -4.907  1.00  0.00    +0.000 H 
BRANCH   26   25
ATOM     25  C14 UNL A   1      27.330  21.104  -5.264  1.00  0.00    +0.000 C 
ATOM    118  H14 UNL A   1      28.179  21.643  -4.897  1.00  0.00    +0.000 H 
ATOM    119  H15 UNL A   1      27.482  20.045  -5.235  1.00  0.00    +0.000 H 
BRANCH   25   24
ATOM    117  H13 UNL A   1      26.183  21.619  -6.912  1.00  0.00    +0.000 H 
ATOM     24  N4  UNL A   1      27.118  21.468  -6.645  1.00  0.00    +0.000 N 
BRANCH   24   22
ATOM     22  C13 UNL A   1      28.053  21.629  -7.628  1.00  0.00    +0.000 C 
ATOM     23  O6  UNL A   1      28.621  20.617  -8.047  1.00  0.00    +0.000 O 
BRANCH   22   21
ATOM    115  H11 UNL A   1      29.558  23.068  -8.075  1.00  0.00    +0.000 H 
ATOM    116  H12 UNL A   1      28.087  23.139  -9.094  1.00  0.00    +0.000 H 
ATOM     21  C12 UNL A   1      28.490  23.026  -8.109  1.00  0.00    +0.000 C 
BRANCH   21   20
ATOM    114  H10 UNL A   1      28.156  24.093  -6.368  1.00  0.00    +0.000 H 
ATOM     20  N3  UNL A   1      27.972  24.143  -7.333  1.00  0.00    +0.000 N 
BRANCH   20   18
ATOM     18  C11 UNL A   1      27.271  25.245  -7.725  1.00  0.00    +0.000 C 
ATOM     19  O5  UNL A   1      27.460  26.295  -7.104  1.00  0.00    +0.000 O 
BRANCH   18   17
ATOM     17  C10 UNL A   1      26.272  25.193  -8.893  1.00  0.00    +0.000 C 
ATOM    113  H9  UNL A   1      25.491  24.529  -8.589  1.00  0.00    +0.000 H 
ATOM    112  H8  UNL A   1      26.797  24.862  -9.764  1.00  0.00    +0.000 H 
BRANCH   17   16
ATOM    111  H7  UNL A   1      26.113  27.013  -9.870  1.00  0.00    +0.000 H 
ATOM     16  N2  UNL A   1      25.625  26.469  -9.210  1.00  0.00    +0.000 N 
BRANCH   16   14
ATOM     14  C9  UNL A   1      24.457  27.048  -8.752  1.00  0.00    +0.000 C 
ATOM     15  O4  UNL A   1      23.431  26.892  -9.405  1.00  0.00    +0.000 O 
BRANCH   14   12
ATOM     12  C8  UNL A   1      24.447  27.873  -7.448  1.00  0.00    +0.000 C 
ATOM     13  O3  UNL A   1      25.200  28.840  -7.393  1.00  0.00    +0.000 O 
BRANCH   12   11
ATOM     97  C65 UNL A   1      23.520  26.269  -5.653  1.00  0.00    +0.000 C 
ATOM     98  C66 UNL A   1      24.173  25.036  -5.885  1.00  0.00    +0.000 C 
ATOM     99  C67 UNL A   1      23.938  23.947  -5.045  1.00  0.00    +0.000 C 
ATOM    100  C68 UNL A   1      23.048  24.059  -3.987  1.00  0.00    +0.000 C 
ATOM    101  C69 UNL A   1      22.364  25.252  -3.745  1.00  0.00    +0.000 C 
ATOM    102  C70 UNL A   1      22.618  26.353  -4.585  1.00  0.00    +0.000 C 
ATOM      9  N1  UNL A   1      22.162  27.654  -4.581  1.00  0.00    +0.000 N 
ATOM     10  C6  UNL A   1      22.725  28.384  -5.602  1.00  0.00    +0.000 C 
ATOM     11  C7  UNL A   1      23.590  27.557  -6.297  1.00  0.00    +0.000 C 
ATOM    110  H6  UNL A   1      22.536  29.377  -5.813  1.00  0.00    +0.000 H 
ATOM    145  H41 UNL A   1      24.825  24.943  -6.679  1.00  0.00    +0.000 H 
ATOM    146  H42 UNL A   1      24.429  23.055  -5.213  1.00  0.00    +0.000 H 
ATOM    147  H43 UNL A   1      22.889  23.247  -3.370  1.00  0.00    +0.000 H 
ATOM    148  H44 UNL A   1      21.687  25.326  -2.968  1.00  0.00    +0.000 H 
BRANCH    9    6
ATOM      6  S1  UNL A   1      21.121  28.311  -3.400  1.00  0.00    +0.000 S 
ATOM      7  O1  UNL A   1      19.838  27.690  -3.635  1.00  0.00    +0.000 O 
ATOM      8  O2  UNL A   1      21.307  29.754  -3.473  1.00  0.00    +0.000 O 
BRANCH    6    5
ATOM      2  C2  UNL A   1      22.504  26.768   0.678  1.00  0.00    +0.000 C 
ATOM      3  C3  UNL A   1      21.180  26.622   0.252  1.00  0.00    +0.000 C 
ATOM      4  C4  UNL A   1      20.777  27.122  -0.987  1.00  0.00    +0.000 C 
ATOM      5  C5  UNL A   1      21.698  27.787  -1.806  1.00  0.00    +0.000 C 
ATOM    103  C71 UNL A   1      23.011  27.974  -1.371  1.00  0.00    +0.000 C 
ATOM    104  C72 UNL A   1      23.413  27.454  -0.137  1.00  0.00    +0.000 C 
ATOM    108  H4  UNL A   1      20.496  26.141   0.858  1.00  0.00    +0.000 H 
ATOM    109  H5  UNL A   1      19.801  27.003  -1.300  1.00  0.00    +0.000 H 
ATOM    149  H45 UNL A   1      23.683  28.494  -1.959  1.00  0.00    +0.000 H 
ATOM    150  H46 UNL A   1      24.388  27.576   0.176  1.00  0.00    +0.000 H 
BRANCH    2    1
ATOM      1  C1  UNL A   1      22.935  26.196   1.997  1.00  0.00    +0.000 C 
ATOM    106  H2  UNL A   1      23.751  25.521   1.845  1.00  0.00    +0.000 H 
ATOM    107  H3  UNL A   1      22.116  25.670   2.443  1.00  0.00    +0.000 H 
ATOM    105  H1  UNL A   1      23.245  26.989   2.646  1.00  0.00    +0.000 H 
ENDBRANCH    2    1
ENDBRANCH    6    5
ENDBRANCH    9    6
ENDBRANCH   12   11
ENDBRANCH   14   12
ENDBRANCH   16   14
ENDBRANCH   17   16
ENDBRANCH   18   17
ENDBRANCH   20   18
ENDBRANCH   21   20
ENDBRANCH   22   21
ENDBRANCH   24   22
ENDBRANCH   25   24
ENDBRANCH   26   25
ENDBRANCH   27   26
ENDBRANCH   28   27
ENDBRANCH   29   28
ENDBRANCH   30   29
ENDBRANCH   31   30
ENDBRANCH   32   31
ENDBRANCH   34   32
ENDBRANCH   38   37
BRANCH   42   43
ATOM     43  C29 UNL A   1      16.768  18.137   8.313  1.00  0.00    +0.000 C 
ATOM     44  C30 UNL A   1      16.507  18.504   9.654  1.00  0.00    +0.000 C 
ATOM     45  F1  UNL A   1      17.406  19.175  10.385  1.00  0.00    +0.000 F 
ATOM     46  C31 UNL A   1      15.308  18.199  10.302  1.00  0.00    +0.000 C 
ATOM     47  F2  UNL A   1      15.133  18.567  11.579  1.00  0.00    +0.000 F 
ATOM     48  C32 UNL A   1      14.311  17.517   9.640  1.00  0.00    +0.000 C 
ATOM     49  F3  UNL A   1      13.169  17.205  10.267  1.00  0.00    +0.000 F 
ATOM     50  C33 UNL A   1      14.497  17.187   8.314  1.00  0.00    +0.000 C 
ATOM     51  F4  UNL A   1      13.527  16.544   7.648  1.00  0.00    +0.000 F 
ATOM     52  C34 UNL A   1      15.685  17.525   7.655  1.00  0.00    +0.000 C 
ATOM     53  F5  UNL A   1      15.706  17.283   6.341  1.00  0.00    +0.000 F 
ENDBRANCH   42   43
BRANCH   59   60
ATOM     65  C43 UNL A   1      24.063  17.388  12.558  1.00  0.00    +0.000 C 
ATOM     66  F8  UNL A   1      24.470  17.452  13.832  1.00  0.00    +0.000 F 
ATOM     67  C44 UNL A   1      24.121  18.504  11.754  1.00  0.00    +0.000 C 
ATOM     68  F9  UNL A   1      24.633  19.649  12.228  1.00  0.00    +0.000 F 
ATOM     69  C45 UNL A   1      23.666  18.442  10.439  1.00  0.00    +0.000 C 
ATOM     70  F10 UNL A   1      23.735  19.595   9.756  1.00  0.00    +0.000 F 
ATOM     60  C40 UNL A   1      23.196  17.242   9.845  1.00  0.00    +0.000 C 
ATOM     61  C41 UNL A   1      23.227  16.116  10.683  1.00  0.00    +0.000 C 
ATOM     62  F6  UNL A   1      22.956  14.888  10.222  1.00  0.00    +0.000 F 
ATOM     63  C42 UNL A   1      23.605  16.199  12.026  1.00  0.00    +0.000 C 
ATOM     64  F7  UNL A   1      23.550  15.103  12.796  1.00  0.00    +0.000 F 
ENDBRANCH   59   60
BRANCH   74   75
ATOM     75  C49 UNL A   1      24.923  18.853   3.035  1.00  0.00    +0.000 C 
ATOM     76  C50 UNL A   1      24.779  20.144   3.586  1.00  0.00    +0.000 C 
ATOM     77  F11 UNL A   1      23.761  20.402   4.424  1.00  0.00    +0.000 F 
ATOM     78  C51 UNL A   1      25.753  21.122   3.403  1.00  0.00    +0.000 C 
ATOM     79  F12 UNL A   1      25.667  22.284   4.066  1.00  0.00    +0.000 F 
ATOM     80  C52 UNL A   1      26.855  20.856   2.608  1.00  0.00    +0.000 C 
ATOM     81  F13 UNL A   1      27.848  21.750   2.517  1.00  0.00    +0.000 F 
ATOM     82  C53 UNL A   1      26.943  19.642   1.940  1.00  0.00    +0.000 C 
ATOM     83  F14 UNL A   1      28.011  19.388   1.169  1.00  0.00    +0.000 F 
ATOM     84  C54 UNL A   1      25.984  18.646   2.146  1.00  0.00    +0.000 C 
ATOM     85  F15 UNL A   1      26.169  17.447   1.576  1.00  0.00    +0.000 F 
ENDBRANCH   74   75
TORSDOF 25
ENDMDL
MODEL 6
REMARK VINA RESULT:      -9.6      2.463      4.921
ROOT
ATOM    133  H29 UNL A   1      19.897  14.935   6.851  1.00  0.00    +0.000 H 
ATOM    134  H30 UNL A   1      22.386  14.676   7.652  1.00  0.00    +0.000 H 
ATOM    135  H31 UNL A   1      20.916  18.263   9.101  1.00  0.00    +0.000 H 
ATOM    136  H32 UNL A   1      24.072  15.201   5.095  1.00  0.00    +0.000 H 
ATOM    137  H33 UNL A   1      21.765  16.313   5.024  1.00  0.00    +0.000 H 
ATOM    138  H34 UNL A   1      24.444  18.599   2.831  1.00  0.00    +0.000 H 
ATOM    139  H35 UNL A   1      27.615  17.232   7.615  1.00  0.00    +0.000 H 
ATOM    140  H36 UNL A   1      26.242  16.831   9.755  1.00  0.00    +0.000 H 
ATOM    141  H37 UNL A   1      17.718  19.884   5.717  1.00  0.00    +0.000 H 
ATOM    142  H38 UNL A   1      19.410  20.547   3.895  1.00  0.00    +0.000 H 
ATOM     38  C25 UNL A   1      21.955  19.122   4.244  1.00  0.00    +0.000 C 
ATOM     39  C26 UNL A   1      20.741  19.147   5.069  1.00  0.00    +0.000 C 
ATOM     40  N6  UNL A   1      20.627  18.565   6.206  1.00  0.00    +0.000 N 
ATOM     41  C27 UNL A   1      19.290  18.593   6.544  1.00  0.00    +0.000 C 
ATOM     42  C28 UNL A   1      18.837  17.667   7.436  1.00  0.00    +0.000 C 
ATOM     54  C35 UNL A   1      19.954  16.835   7.878  1.00  0.00    +0.000 C 
ATOM     55  C36 UNL A   1      20.427  15.618   7.415  1.00  0.00    +0.000 C 
ATOM     56  C37 UNL A   1      21.766  15.476   7.853  1.00  0.00    +0.000 C 
ATOM     57  C38 UNL A   1      22.099  16.596   8.597  1.00  0.00    +0.000 C 
ATOM     58  N7  UNL A   1      20.979  17.404   8.622  1.00  0.00    +0.000 N 
ATOM     59  C39 UNL A   1      23.304  16.960   9.325  1.00  0.00    +0.000 C 
ATOM     71  C46 UNL A   1      24.421  17.090   8.549  1.00  0.00    +0.000 C 
ATOM     72  N8  UNL A   1      24.347  17.341   7.203  1.00  0.00    +0.000 N 
ATOM     73  C47 UNL A   1      25.553  17.413   6.710  1.00  0.00    +0.000 C 
ATOM     74  C48 UNL A   1      25.845  17.644   5.248  1.00  0.00    +0.000 C 
ATOM     86  C55 UNL A   1      24.839  17.189   4.443  1.00  0.00    +0.000 C 
ATOM     87  C56 UNL A   1      23.868  16.174   4.817  1.00  0.00    +0.000 C 
ATOM     88  C57 UNL A   1      22.655  16.745   4.732  1.00  0.00    +0.000 C 
ATOM     89  C58 UNL A   1      22.805  18.076   4.159  1.00  0.00    +0.000 C 
ATOM     90  N9  UNL A   1      24.115  18.090   3.607  1.00  0.00    +0.000 N 
ATOM     91  C59 UNL A   1      26.588  17.218   7.718  1.00  0.00    +0.000 C 
ATOM     92  C60 UNL A   1      25.845  17.017   8.820  1.00  0.00    +0.000 C 
ATOM     93  C61 UNL A   1      18.687  19.537   5.640  1.00  0.00    +0.000 C 
ATOM     94  C62 UNL A   1      19.549  19.902   4.688  1.00  0.00    +0.000 C 
ENDROOT
BRANCH   38   37
ATOM     34  C21 UNL A   1      21.975  22.457   1.822  1.00  0.00    +0.000 C 
ATOM     35  C22 UNL A   1      21.891  21.216   1.173  1.00  0.00    +0.000 C 
ATOM     36  C23 UNL A   1      21.994  20.057   1.925  1.00  0.00    +0.000 C 
ATOM    131  H27 UNL A   1      21.755  21.167   0.152  1.00  0.00    +0.000 H 
ATOM    132  H28 UNL A   1      21.979  19.126   1.481  1.00  0.00    +0.000 H 
ATOM     37  C24 UNL A   1      22.119  20.200   3.300  1.00  0.00    +0.000 C 
ATOM    143  H39 UNL A   1      22.630  21.485   4.900  1.00  0.00    +0.000 H 
ATOM    144  H40 UNL A   1      22.893  23.431   3.462  1.00  0.00    +0.000 H 
ATOM     95  C63 UNL A   1      22.437  21.426   3.887  1.00  0.00    +0.000 C 
ATOM     96  C64 UNL A   1      22.488  22.550   3.109  1.00  0.00    +0.000 C 
BRANCH   34   32
ATOM     33  O7  UNL A   1      19.869  23.399   1.394  1.00  0.00    +0.000 O 
ATOM     32  C20 UNL A   1      21.085  23.516   1.291  1.00  0.00    +0.000 C 
BRANCH   32   31
ATOM    130  H26 UNL A   1      21.981  24.727  -0.045  1.00  0.00    +0.000 H 
ATOM     31  N5  UNL A   1      21.633  24.717   0.877  1.00  0.00    +0.000 N 
BRANCH   31   30
ATOM    129  H25 UNL A   1      21.711  25.734   2.651  1.00  0.00    +0.000 H 
ATOM     30  C19 UNL A   1      21.769  25.968   1.608  1.00  0.00    +0.000 C 
ATOM    128  H24 UNL A   1      20.985  26.628   1.300  1.00  0.00    +0.000 H 
BRANCH   30   29
ATOM     29  C18 UNL A   1      23.101  26.656   1.373  1.00  0.00    +0.000 C 
ATOM    126  H22 UNL A   1      23.547  26.854   2.325  1.00  0.00    +0.000 H 
ATOM    127  H23 UNL A   1      23.684  25.994   0.768  1.00  0.00    +0.000 H 
BRANCH   29   28
ATOM    124  H20 UNL A   1      23.997  28.323   0.428  1.00  0.00    +0.000 H 
ATOM     28  C17 UNL A   1      23.002  27.974   0.606  1.00  0.00    +0.000 C 
ATOM    125  H21 UNL A   1      22.450  27.750  -0.282  1.00  0.00    +0.000 H 
BRANCH   28   27
ATOM    122  H18 UNL A   1      21.890  28.735   2.247  1.00  0.00    +0.000 H 
ATOM     27  C16 UNL A   1      22.226  29.103   1.301  1.00  0.00    +0.000 C 
ATOM    123  H19 UNL A   1      22.909  29.924   1.371  1.00  0.00    +0.000 H 
BRANCH   27   26
ATOM    121  H17 UNL A   1      20.583  28.804   0.025  1.00  0.00    +0.000 H 
ATOM     26  C15 UNL A   1      21.009  29.637   0.545  1.00  0.00    +0.000 C 
ATOM    120  H16 UNL A   1      21.337  30.415  -0.111  1.00  0.00    +0.000 H 
BRANCH   26   25
ATOM     25  C14 UNL A   1      19.913  30.198   1.439  1.00  0.00    +0.000 C 
ATOM    118  H14 UNL A   1      20.051  29.815   2.429  1.00  0.00    +0.000 H 
ATOM    119  H15 UNL A   1      19.991  31.264   1.406  1.00  0.00    +0.000 H 
BRANCH   25   24
ATOM    117  H13 UNL A   1      18.227  28.997   1.327  1.00  0.00    +0.000 H 
ATOM     24  N4  UNL A   1      18.583  29.852   0.995  1.00  0.00    +0.000 N 
BRANCH   24   22
ATOM     22  C13 UNL A   1      17.758  30.563   0.171  1.00  0.00    +0.000 C 
ATOM     23  O6  UNL A   1      17.239  31.586   0.625  1.00  0.00    +0.000 O 
BRANCH   22   21
ATOM    115  H11 UNL A   1      17.490  30.854  -1.922  1.00  0.00    +0.000 H 
ATOM    116  H12 UNL A   1      18.017  29.216  -1.426  1.00  0.00    +0.000 H 
ATOM     21  C12 UNL A   1      17.372  30.048  -1.229  1.00  0.00    +0.000 C 
BRANCH   21   20
ATOM    114  H10 UNL A   1      15.933  28.564  -1.297  1.00  0.00    +0.000 H 
ATOM     20  N3  UNL A   1      16.014  29.542  -1.356  1.00  0.00    +0.000 N 
BRANCH   20   18
ATOM     18  C11 UNL A   1      14.836  30.203  -1.543  1.00  0.00    +0.000 C 
ATOM     19  O5  UNL A   1      14.602  30.650  -2.669  1.00  0.00    +0.000 O 
BRANCH   18   17
ATOM     17  C10 UNL A   1      13.828  30.398  -0.397  1.00  0.00    +0.000 C 
ATOM    113  H9  UNL A   1      14.121  29.721   0.377  1.00  0.00    +0.000 H 
ATOM    112  H8  UNL A   1      12.848  30.207  -0.782  1.00  0.00    +0.000 H 
BRANCH   17   16
ATOM    111  H7  UNL A   1      14.479  31.846   0.934  1.00  0.00    +0.000 H 
ATOM     16  N2  UNL A   1      13.828  31.734   0.205  1.00  0.00    +0.000 N 
BRANCH   16   14
ATOM     14  C9  UNL A   1      13.079  32.863  -0.064  1.00  0.00    +0.000 C 
ATOM     15  O4  UNL A   1      13.539  33.701  -0.833  1.00  0.00    +0.000 O 
BRANCH   14   12
ATOM     12  C8  UNL A   1      11.696  33.065   0.591  1.00  0.00    +0.000 C 
ATOM     13  O3  UNL A   1      11.616  33.910   1.477  1.00  0.00    +0.000 O 
BRANCH   12   11
ATOM     97  C65 UNL A   1       9.564  32.710  -0.819  1.00  0.00    +0.000 C 
ATOM     98  C66 UNL A   1       9.497  33.831  -1.679  1.00  0.00    +0.000 C 
ATOM     99  C67 UNL A   1       8.479  33.930  -2.626  1.00  0.00    +0.000 C 
ATOM    100  C68 UNL A   1       7.511  32.941  -2.720  1.00  0.00    +0.000 C 
ATOM    101  C69 UNL A   1       7.529  31.834  -1.867  1.00  0.00    +0.000 C 
ATOM    102  C70 UNL A   1       8.570  31.730  -0.926  1.00  0.00    +0.000 C 
ATOM      9  N1  UNL A   1       8.898  30.761  -0.001  1.00  0.00    +0.000 N 
ATOM     10  C6  UNL A   1      10.042  31.093   0.687  1.00  0.00    +0.000 C 
ATOM     11  C7  UNL A   1      10.499  32.307   0.202  1.00  0.00    +0.000 C 
ATOM    110  H6  UNL A   1      10.484  30.536   1.435  1.00  0.00    +0.000 H 
ATOM    145  H41 UNL A   1      10.207  34.577  -1.604  1.00  0.00    +0.000 H 
ATOM    146  H42 UNL A   1       8.445  34.745  -3.259  1.00  0.00    +0.000 H 
ATOM    147  H43 UNL A   1       6.767  33.024  -3.429  1.00  0.00    +0.000 H 
ATOM    148  H44 UNL A   1       6.796  31.108  -1.927  1.00  0.00    +0.000 H 
BRANCH    9    6
ATOM      6  S1  UNL A   1       8.063  29.286   0.192  1.00  0.00    +0.000 S 
ATOM      7  O1  UNL A   1       8.490  28.460  -0.914  1.00  0.00    +0.000 O 
ATOM      8  O2  UNL A   1       6.666  29.649   0.390  1.00  0.00    +0.000 O 
BRANCH    6    5
ATOM      2  C2  UNL A   1       9.717  27.301   3.966  1.00  0.00    +0.000 C 
ATOM      3  C3  UNL A   1       9.951  26.764   2.695  1.00  0.00    +0.000 C 
ATOM      4  C4  UNL A   1       9.416  27.376   1.560  1.00  0.00    +0.000 C 
ATOM      5  C5  UNL A   1       8.628  28.526   1.692  1.00  0.00    +0.000 C 
ATOM    103  C71 UNL A   1       8.355  29.044   2.959  1.00  0.00    +0.000 C 
ATOM    104  C72 UNL A   1       8.910  28.438   4.089  1.00  0.00    +0.000 C 
ATOM    108  H4  UNL A   1      10.524  25.911   2.595  1.00  0.00    +0.000 H 
ATOM    109  H5  UNL A   1       9.600  26.981   0.625  1.00  0.00    +0.000 H 
ATOM    149  H45 UNL A   1       7.746  29.873   3.060  1.00  0.00    +0.000 H 
ATOM    150  H46 UNL A   1       8.723  28.832   5.024  1.00  0.00    +0.000 H 
BRANCH    2    1
ATOM      1  C1  UNL A   1      10.327  26.655   5.176  1.00  0.00    +0.000 C 
ATOM    106  H2  UNL A   1      11.393  26.689   5.100  1.00  0.00    +0.000 H 
ATOM    107  H3  UNL A   1      10.006  25.635   5.237  1.00  0.00    +0.000 H 
ATOM    105  H1  UNL A   1      10.015  27.180   6.056  1.00  0.00    +0.000 H 
ENDBRANCH    2    1
ENDBRANCH    6    5
ENDBRANCH    9    6
ENDBRANCH   12   11
ENDBRANCH   14   12
ENDBRANCH   16   14
ENDBRANCH   17   16
ENDBRANCH   18   17
ENDBRANCH   20   18
ENDBRANCH   21   20
ENDBRANCH   22   21
ENDBRANCH   24   22
ENDBRANCH   25   24
ENDBRANCH   26   25
ENDBRANCH   27   26
ENDBRANCH   28   27
ENDBRANCH   29   28
ENDBRANCH   30   29
ENDBRANCH   31   30
ENDBRANCH   32   31
ENDBRANCH   34   32
ENDBRANCH   38   37
BRANCH   42   43
ATOM     43  C29 UNL A   1      17.390  17.286   7.658  1.00  0.00    +0.000 C 
ATOM     44  C30 UNL A   1      16.675  17.838   8.747  1.00  0.00    +0.000 C 
ATOM     45  F1  UNL A   1      17.207  18.788   9.526  1.00  0.00    +0.000 F 
ATOM     46  C31 UNL A   1      15.379  17.439   9.082  1.00  0.00    +0.000 C 
ATOM     47  F2  UNL A   1      14.766  17.995  10.135  1.00  0.00    +0.000 F 
ATOM     48  C32 UNL A   1      14.734  16.472   8.342  1.00  0.00    +0.000 C 
ATOM     49  F3  UNL A   1      13.500  16.073   8.675  1.00  0.00    +0.000 F 
ATOM     50  C33 UNL A   1      15.369  15.945   7.237  1.00  0.00    +0.000 C 
ATOM     51  F4  UNL A   1      14.746  15.020   6.492  1.00  0.00    +0.000 F 
ATOM     52  C34 UNL A   1      16.653  16.372   6.880  1.00  0.00    +0.000 C 
ATOM     53  F5  UNL A   1      17.119  15.902   5.720  1.00  0.00    +0.000 F 
ENDBRANCH   42   43
BRANCH   59   60
ATOM     65  C43 UNL A   1      22.965  17.047  13.673  1.00  0.00    +0.000 C 
ATOM     66  F8  UNL A   1      22.832  17.055  15.005  1.00  0.00    +0.000 F 
ATOM     67  C44 UNL A   1      23.288  15.882  13.014  1.00  0.00    +0.000 C 
ATOM     68  F9  UNL A   1      23.420  14.737  13.698  1.00  0.00    +0.000 F 
ATOM     69  C45 UNL A   1      23.458  15.885  11.631  1.00  0.00    +0.000 C 
ATOM     70  F10 UNL A   1      23.806  14.706  11.096  1.00  0.00    +0.000 F 
ATOM     60  C40 UNL A   1      23.247  17.041  10.835  1.00  0.00    +0.000 C 
ATOM     61  C41 UNL A   1      22.846  18.184  11.545  1.00  0.00    +0.000 C 
ATOM     62  F6  UNL A   1      22.466  19.305  10.919  1.00  0.00    +0.000 F 
ATOM     63  C42 UNL A   1      22.757  18.198  12.940  1.00  0.00    +0.000 C 
ATOM     64  F7  UNL A   1      22.435  19.338  13.569  1.00  0.00    +0.000 F 
ENDBRANCH   59   60
BRANCH   74   75
ATOM     75  C49 UNL A   1      26.531  18.837   4.675  1.00  0.00    +0.000 C 
ATOM     76  C50 UNL A   1      27.489  18.609   3.664  1.00  0.00    +0.000 C 
ATOM     77  F11 UNL A   1      28.088  17.410   3.569  1.00  0.00    +0.000 F 
ATOM     78  C51 UNL A   1      27.724  19.550   2.664  1.00  0.00    +0.000 C 
ATOM     79  F12 UNL A   1      28.522  19.244   1.632  1.00  0.00    +0.000 F 
ATOM     80  C52 UNL A   1      27.060  20.765   2.692  1.00  0.00    +0.000 C 
ATOM     81  F13 UNL A   1      27.198  21.628   1.677  1.00  0.00    +0.000 F 
ATOM     82  C53 UNL A   1      26.222  21.065   3.758  1.00  0.00    +0.000 C 
ATOM     83  F14 UNL A   1      25.582  22.244   3.783  1.00  0.00    +0.000 F 
ATOM     84  C54 UNL A   1      25.959  20.112   4.745  1.00  0.00    +0.000 C 
ATOM     85  F15 UNL A   1      25.053  20.399   5.691  1.00  0.00    +0.000 F 
ENDBRANCH   74   75
TORSDOF 25
ENDMDL
MODEL 7
REMARK VINA RESULT:      -9.6     41.844     47.759
ROOT
ATOM    133  H29 UNL A   1      18.664  37.636  45.633  1.00  0.00    +0.000 H 
ATOM    134  H30 UNL A   1      20.013  36.217  43.881  1.00  0.00    +0.000 H 
ATOM    135  H31 UNL A   1      19.007  33.758  47.053  1.00  0.00    +0.000 H 
ATOM    136  H32 UNL A   1      22.948  37.186  44.207  1.00  0.00    +0.000 H 
ATOM    137  H33 UNL A   1      21.535  37.527  46.318  1.00  0.00    +0.000 H 
ATOM    138  H34 UNL A   1      25.484  36.885  47.415  1.00  0.00    +0.000 H 
ATOM    139  H35 UNL A   1      24.702  32.835  43.196  1.00  0.00    +0.000 H 
ATOM    140  H36 UNL A   1      22.284  31.989  42.933  1.00  0.00    +0.000 H 
ATOM    141  H37 UNL A   1      19.012  36.636  51.055  1.00  0.00    +0.000 H 
ATOM    142  H38 UNL A   1      21.553  36.980  51.262  1.00  0.00    +0.000 H 
ATOM     38  C25 UNL A   1      22.898  36.510  48.694  1.00  0.00    +0.000 C 
ATOM     39  C26 UNL A   1      21.495  36.351  49.092  1.00  0.00    +0.000 C 
ATOM     40  N6  UNL A   1      20.579  35.863  48.338  1.00  0.00    +0.000 N 
ATOM     41  C27 UNL A   1      19.370  36.112  48.953  1.00  0.00    +0.000 C 
ATOM     42  C28 UNL A   1      18.249  36.126  48.178  1.00  0.00    +0.000 C 
ATOM     54  C35 UNL A   1      18.613  35.817  46.797  1.00  0.00    +0.000 C 
ATOM     55  C36 UNL A   1      18.918  36.640  45.725  1.00  0.00    +0.000 C 
ATOM     56  C37 UNL A   1      19.639  35.872  44.779  1.00  0.00    +0.000 C 
ATOM     57  C38 UNL A   1      19.755  34.580  45.265  1.00  0.00    +0.000 C 
ATOM     58  N7  UNL A   1      19.106  34.556  46.485  1.00  0.00    +0.000 N 
ATOM     59  C39 UNL A   1      20.339  33.375  44.702  1.00  0.00    +0.000 C 
ATOM     71  C46 UNL A   1      21.683  33.451  44.462  1.00  0.00    +0.000 C 
ATOM     72  N8  UNL A   1      22.489  34.347  45.115  1.00  0.00    +0.000 N 
ATOM     73  C47 UNL A   1      23.716  34.208  44.696  1.00  0.00    +0.000 C 
ATOM     74  C48 UNL A   1      24.864  35.061  45.178  1.00  0.00    +0.000 C 
ATOM     86  C55 UNL A   1      24.453  36.297  45.589  1.00  0.00    +0.000 C 
ATOM     87  C56 UNL A   1      23.219  36.944  45.173  1.00  0.00    +0.000 C 
ATOM     88  C57 UNL A   1      22.501  37.166  46.287  1.00  0.00    +0.000 C 
ATOM     89  C58 UNL A   1      23.313  36.812  47.444  1.00  0.00    +0.000 C 
ATOM     90  N9  UNL A   1      24.639  36.710  46.942  1.00  0.00    +0.000 N 
ATOM     91  C59 UNL A   1      23.856  33.163  43.689  1.00  0.00    +0.000 C 
ATOM     92  C60 UNL A   1      22.585  32.738  43.577  1.00  0.00    +0.000 C 
ATOM     93  C61 UNL A   1      19.700  36.507  50.297  1.00  0.00    +0.000 C 
ATOM     94  C62 UNL A   1      21.017  36.685  50.432  1.00  0.00    +0.000 C 
ENDROOT
BRANCH   38   37
ATOM     34  C21 UNL A   1      26.016  36.960  51.351  1.00  0.00    +0.000 C 
ATOM     35  C22 UNL A   1      25.558  35.650  51.143  1.00  0.00    +0.000 C 
ATOM     36  C23 UNL A   1      24.441  35.447  50.350  1.00  0.00    +0.000 C 
ATOM    131  H27 UNL A   1      26.046  34.850  51.574  1.00  0.00    +0.000 H 
ATOM    132  H28 UNL A   1      24.049  34.504  50.205  1.00  0.00    +0.000 H 
ATOM     37  C24 UNL A   1      23.872  36.565  49.757  1.00  0.00    +0.000 C 
ATOM    143  H39 UNL A   1      23.677  38.671  49.785  1.00  0.00    +0.000 H 
ATOM    144  H40 UNL A   1      25.344  38.959  51.536  1.00  0.00    +0.000 H 
ATOM     95  C63 UNL A   1      24.193  37.861  50.165  1.00  0.00    +0.000 C 
ATOM     96  C64 UNL A   1      25.199  38.047  51.074  1.00  0.00    +0.000 C 
BRANCH   34   32
ATOM     33  O7  UNL A   1      28.013  37.588  52.408  1.00  0.00    +0.000 O 
ATOM     32  C20 UNL A   1      27.487  37.121  51.404  1.00  0.00    +0.000 C 
BRANCH   32   31
ATOM    130  H26 UNL A   1      28.209  35.570  50.344  1.00  0.00    +0.000 H 
ATOM     31  N5  UNL A   1      28.268  36.551  50.415  1.00  0.00    +0.000 N 
BRANCH   31   30
ATOM    129  H25 UNL A   1      29.353  36.487  48.681  1.00  0.00    +0.000 H 
ATOM     30  C19 UNL A   1      29.163  37.192  49.464  1.00  0.00    +0.000 C 
ATOM    128  H24 UNL A   1      30.059  37.473  49.976  1.00  0.00    +0.000 H 
BRANCH   30   29
ATOM     29  C18 UNL A   1      28.565  38.430  48.821  1.00  0.00    +0.000 C 
ATOM    126  H22 UNL A   1      28.031  38.127  47.944  1.00  0.00    +0.000 H 
ATOM    127  H23 UNL A   1      27.935  38.882  49.558  1.00  0.00    +0.000 H 
BRANCH   29   28
ATOM    124  H20 UNL A   1      30.119  39.785  49.297  1.00  0.00    +0.000 H 
ATOM     28  C17 UNL A   1      29.591  39.487  48.415  1.00  0.00    +0.000 C 
ATOM    125  H21 UNL A   1      30.204  39.022  47.673  1.00  0.00    +0.000 H 
BRANCH   28   27
ATOM    122  H18 UNL A   1      28.041  40.910  48.130  1.00  0.00    +0.000 H 
ATOM     27  C16 UNL A   1      29.030  40.754  47.753  1.00  0.00    +0.000 C 
ATOM    123  H19 UNL A   1      29.716  41.538  47.997  1.00  0.00    +0.000 H 
BRANCH   27   26
ATOM    121  H17 UNL A   1      29.312  39.768  45.919  1.00  0.00    +0.000 H 
ATOM     26  C15 UNL A   1      28.952  40.729  46.227  1.00  0.00    +0.000 C 
ATOM    120  H16 UNL A   1      29.542  41.536  45.848  1.00  0.00    +0.000 H 
BRANCH   26   25
ATOM     25  C14 UNL A   1      27.543  40.865  45.668  1.00  0.00    +0.000 C 
ATOM    118  H14 UNL A   1      27.199  41.862  45.851  1.00  0.00    +0.000 H 
ATOM    119  H15 UNL A   1      27.593  40.643  44.623  1.00  0.00    +0.000 H 
BRANCH   25   24
ATOM    117  H13 UNL A   1      26.911  39.009  46.338  1.00  0.00    +0.000 H 
ATOM     24  N4  UNL A   1      26.605  39.940  46.258  1.00  0.00    +0.000 N 
BRANCH   24   22
ATOM     22  C13 UNL A   1      25.344  40.197  46.717  1.00  0.00    +0.000 C 
ATOM     23  O6  UNL A   1      24.403  40.006  45.941  1.00  0.00    +0.000 O 
BRANCH   22   21
ATOM    115  H11 UNL A   1      24.856  40.043  48.785  1.00  0.00    +0.000 H 
ATOM    116  H12 UNL A   1      25.999  41.351  48.351  1.00  0.00    +0.000 H 
ATOM     21  C12 UNL A   1      25.099  40.829  48.101  1.00  0.00    +0.000 C 
BRANCH   21   20
ATOM    114  H10 UNL A   1      23.124  41.442  48.148  1.00  0.00    +0.000 H 
ATOM     20  N3  UNL A   1      24.033  41.818  48.155  1.00  0.00    +0.000 N 
BRANCH   20   18
ATOM     18  C11 UNL A   1      24.088  43.179  48.211  1.00  0.00    +0.000 C 
ATOM     19  O5  UNL A   1      23.203  43.764  48.841  1.00  0.00    +0.000 O 
BRANCH   18   17
ATOM     17  C10 UNL A   1      25.207  43.971  47.513  1.00  0.00    +0.000 C 
ATOM    113  H9  UNL A   1      25.075  43.813  46.464  1.00  0.00    +0.000 H 
ATOM    112  H8  UNL A   1      26.145  43.615  47.882  1.00  0.00    +0.000 H 
BRANCH   17   16
ATOM    111  H7  UNL A   1      24.637  45.906  47.037  1.00  0.00    +0.000 H 
ATOM     16  N2  UNL A   1      25.158  45.421  47.718  1.00  0.00    +0.000 N 
BRANCH   16   14
ATOM     14  C9  UNL A   1      25.710  46.232  48.691  1.00  0.00    +0.000 C 
ATOM     15  O4  UNL A   1      25.858  47.424  48.445  1.00  0.00    +0.000 O 
BRANCH   14   12
ATOM     12  C8  UNL A   1      26.133  45.647  50.056  1.00  0.00    +0.000 C 
ATOM     13  O3  UNL A   1      25.347  45.783  50.989  1.00  0.00    +0.000 O 
BRANCH   12   11
ATOM     97  C65 UNL A   1      27.529  43.587  50.736  1.00  0.00    +0.000 C 
ATOM     98  C66 UNL A   1      26.583  42.596  51.084  1.00  0.00    +0.000 C 
ATOM     99  C67 UNL A   1      27.005  41.320  51.455  1.00  0.00    +0.000 C 
ATOM    100  C68 UNL A   1      28.358  41.016  51.503  1.00  0.00    +0.000 C 
ATOM    101  C69 UNL A   1      29.322  41.979  51.194  1.00  0.00    +0.000 C 
ATOM    102  C70 UNL A   1      28.889  43.260  50.804  1.00  0.00    +0.000 C 
ATOM      9  N1  UNL A   1      29.566  44.388  50.392  1.00  0.00    +0.000 N 
ATOM     10  C6  UNL A   1      28.697  45.409  50.081  1.00  0.00    +0.000 C 
ATOM     11  C7  UNL A   1      27.406  44.948  50.277  1.00  0.00    +0.000 C 
ATOM    110  H6  UNL A   1      28.960  46.352  49.758  1.00  0.00    +0.000 H 
ATOM    145  H41 UNL A   1      25.575  42.819  51.063  1.00  0.00    +0.000 H 
ATOM    146  H42 UNL A   1      26.307  40.597  51.694  1.00  0.00    +0.000 H 
ATOM    147  H43 UNL A   1      28.656  40.066  51.773  1.00  0.00    +0.000 H 
ATOM    148  H44 UNL A   1      30.329  41.756  51.250  1.00  0.00    +0.000 H 
BRANCH    9    6
ATOM      6  S1  UNL A   1      31.257  44.479  50.182  1.00  0.00    +0.000 S 
ATOM      7  O1  UNL A   1      31.821  43.927  51.392  1.00  0.00    +0.000 O 
ATOM      8  O2  UNL A   1      31.526  45.846  49.757  1.00  0.00    +0.000 O 
BRANCH    6    5
ATOM      2  C2  UNL A   1      32.480  41.908  46.602  1.00  0.00    +0.000 C 
ATOM      3  C3  UNL A   1      31.790  43.114  46.435  1.00  0.00    +0.000 C 
ATOM      4  C4  UNL A   1      31.407  43.868  47.544  1.00  0.00    +0.000 C 
ATOM      5  C5  UNL A   1      31.702  43.413  48.835  1.00  0.00    +0.000 C 
ATOM    103  C71 UNL A   1      32.353  42.191  49.013  1.00  0.00    +0.000 C 
ATOM    104  C72 UNL A   1      32.751  41.450  47.897  1.00  0.00    +0.000 C 
ATOM    108  H4  UNL A   1      31.563  43.447  45.484  1.00  0.00    +0.000 H 
ATOM    109  H5  UNL A   1      30.907  44.762  47.414  1.00  0.00    +0.000 H 
ATOM    149  H45 UNL A   1      32.541  41.838  49.965  1.00  0.00    +0.000 H 
ATOM    150  H46 UNL A   1      33.249  40.556  48.028  1.00  0.00    +0.000 H 
BRANCH    2    1
ATOM      1  C1  UNL A   1      32.918  41.122  45.401  1.00  0.00    +0.000 C 
ATOM    106  H2  UNL A   1      32.623  41.635  44.510  1.00  0.00    +0.000 H 
ATOM    107  H3  UNL A   1      32.462  40.153  45.422  1.00  0.00    +0.000 H 
ATOM    105  H1  UNL A   1      33.983  41.014  45.413  1.00  0.00    +0.000 H 
ENDBRANCH    2    1
ENDBRANCH    6    5
ENDBRANCH    9    6
ENDBRANCH   12   11
ENDBRANCH   14   12
ENDBRANCH   16   14
ENDBRANCH   17   16
ENDBRANCH   18   17
ENDBRANCH   20   18
ENDBRANCH   21   20
ENDBRANCH   22   21
ENDBRANCH   24   22
ENDBRANCH   25   24
ENDBRANCH   26   25
ENDBRANCH   27   26
ENDBRANCH   28   27
ENDBRANCH   29   28
ENDBRANCH   30   29
ENDBRANCH   31   30
ENDBRANCH   32   31
ENDBRANCH   34   32
ENDBRANCH   38   37
BRANCH   42   43
ATOM     43  C29 UNL A   1      16.915  36.726  48.562  1.00  0.00    +0.000 C 
ATOM     44  C30 UNL A   1      16.866  37.821  49.457  1.00  0.00    +0.000 C 
ATOM     45  F1  UNL A   1      17.981  38.426  49.886  1.00  0.00    +0.000 F 
ATOM     46  C31 UNL A   1      15.668  38.344  49.949  1.00  0.00    +0.000 C 
ATOM     47  F2  UNL A   1      15.696  39.374  50.805  1.00  0.00    +0.000 F 
ATOM     48  C32 UNL A   1      14.461  37.800  49.567  1.00  0.00    +0.000 C 
ATOM     49  F3  UNL A   1      13.312  38.286  50.054  1.00  0.00    +0.000 F 
ATOM     50  C33 UNL A   1      14.455  36.768  48.652  1.00  0.00    +0.000 C 
ATOM     51  F4  UNL A   1      13.288  36.244  48.251  1.00  0.00    +0.000 F 
ATOM     52  C34 UNL A   1      15.655  36.269  48.132  1.00  0.00    +0.000 C 
ATOM     53  F5  UNL A   1      15.531  35.367  47.154  1.00  0.00    +0.000 F 
ENDBRANCH   42   43
BRANCH   59   60
ATOM     65  C43 UNL A   1      17.886  29.960  43.542  1.00  0.00    +0.000 C 
ATOM     66  F8  UNL A   1      17.160  28.898  43.168  1.00  0.00    +0.000 F 
ATOM     67  C44 UNL A   1      18.901  29.818  44.461  1.00  0.00    +0.000 C 
ATOM     68  F9  UNL A   1      19.202  28.608  44.950  1.00  0.00    +0.000 F 
ATOM     69  C45 UNL A   1      19.631  30.932  44.872  1.00  0.00    +0.000 C 
ATOM     70  F10 UNL A   1      20.571  30.688  45.797  1.00  0.00    +0.000 F 
ATOM     60  C40 UNL A   1      19.425  32.227  44.330  1.00  0.00    +0.000 C 
ATOM     61  C41 UNL A   1      18.431  32.304  43.342  1.00  0.00    +0.000 C 
ATOM     62  F6  UNL A   1      18.226  33.423  42.635  1.00  0.00    +0.000 F 
ATOM     63  C42 UNL A   1      17.644  31.203  42.992  1.00  0.00    +0.000 C 
ATOM     64  F7  UNL A   1      16.663  31.353  42.090  1.00  0.00    +0.000 F 
ENDBRANCH   59   60
BRANCH   74   75
ATOM     75  C49 UNL A   1      26.047  34.575  45.945  1.00  0.00    +0.000 C 
ATOM     76  C50 UNL A   1      25.836  33.524  46.864  1.00  0.00    +0.000 C 
ATOM     77  F11 UNL A   1      24.607  33.311  47.364  1.00  0.00    +0.000 F 
ATOM     78  C51 UNL A   1      26.840  32.604  47.153  1.00  0.00    +0.000 C 
ATOM     79  F12 UNL A   1      26.565  31.529  47.906  1.00  0.00    +0.000 F 
ATOM     80  C52 UNL A   1      28.095  32.754  46.588  1.00  0.00    +0.000 C 
ATOM     81  F13 UNL A   1      29.031  31.814  46.775  1.00  0.00    +0.000 F 
ATOM     82  C53 UNL A   1      28.364  33.862  45.797  1.00  0.00    +0.000 C 
ATOM     83  F14 UNL A   1      29.582  34.005  45.252  1.00  0.00    +0.000 F 
ATOM     84  C54 UNL A   1      27.351  34.770  45.478  1.00  0.00    +0.000 C 
ATOM     85  F15 UNL A   1      27.622  35.759  44.614  1.00  0.00    +0.000 F 
ENDBRANCH   74   75
TORSDOF 25
ENDMDL
MODEL 8
REMARK VINA RESULT:      -9.5      2.712      4.924
ROOT
ATOM    133  H29 UNL A   1      19.250  15.243   7.151  1.00  0.00    +0.000 H 
ATOM    134  H30 UNL A   1      21.854  14.910   7.254  1.00  0.00    +0.000 H 
ATOM    135  H31 UNL A   1      20.945  18.599   8.894  1.00  0.00    +0.000 H 
ATOM    136  H32 UNL A   1      22.791  15.281   4.315  1.00  0.00    +0.000 H 
ATOM    137  H33 UNL A   1      20.587  16.483   4.828  1.00  0.00    +0.000 H 
ATOM    138  H34 UNL A   1      22.630  18.586   1.892  1.00  0.00    +0.000 H 
ATOM    139  H35 UNL A   1      26.948  17.250   5.684  1.00  0.00    +0.000 H 
ATOM    140  H36 UNL A   1      26.201  16.974   8.133  1.00  0.00    +0.000 H 
ATOM    141  H37 UNL A   1      16.993  20.236   6.443  1.00  0.00    +0.000 H 
ATOM    142  H38 UNL A   1      18.141  20.770   4.203  1.00  0.00    +0.000 H 
ATOM     38  C25 UNL A   1      20.640  19.255   3.906  1.00  0.00    +0.000 C 
ATOM     39  C26 UNL A   1      19.700  19.356   5.028  1.00  0.00    +0.000 C 
ATOM     40  N6  UNL A   1      19.884  18.818   6.177  1.00  0.00    +0.000 N 
ATOM     41  C27 UNL A   1      18.693  18.910   6.865  1.00  0.00    +0.000 C 
ATOM     42  C28 UNL A   1      18.473  18.033   7.885  1.00  0.00    +0.000 C 
ATOM     54  C35 UNL A   1      19.643  17.171   8.041  1.00  0.00    +0.000 C 
ATOM     55  C36 UNL A   1      19.934  15.922   7.519  1.00  0.00    +0.000 C 
ATOM     56  C37 UNL A   1      21.337  15.741   7.582  1.00  0.00    +0.000 C 
ATOM     57  C38 UNL A   1      21.895  16.870   8.159  1.00  0.00    +0.000 C 
ATOM     58  N7  UNL A   1      20.849  17.723   8.454  1.00  0.00    +0.000 N 
ATOM     59  C39 UNL A   1      23.263  17.209   8.515  1.00  0.00    +0.000 C 
ATOM     71  C46 UNL A   1      24.129  17.268   7.458  1.00  0.00    +0.000 C 
ATOM     72  N8  UNL A   1      23.696  17.477   6.174  1.00  0.00    +0.000 N 
ATOM     73  C47 UNL A   1      24.723  17.484   5.369  1.00  0.00    +0.000 C 
ATOM     74  C48 UNL A   1      24.610  17.654   3.875  1.00  0.00    +0.000 C 
ATOM     86  C55 UNL A   1      23.410  17.214   3.394  1.00  0.00    +0.000 C 
ATOM     87  C56 UNL A   1      22.548  16.252   4.061  1.00  0.00    +0.000 C 
ATOM     88  C57 UNL A   1      21.376  16.869   4.286  1.00  0.00    +0.000 C 
ATOM     89  C58 UNL A   1      21.403  18.173   3.637  1.00  0.00    +0.000 C 
ATOM     90  N9  UNL A   1      22.511  18.116   2.749  1.00  0.00    +0.000 N 
ATOM     91  C59 UNL A   1      25.988  17.281   6.064  1.00  0.00    +0.000 C 
ATOM     92  C60 UNL A   1      25.570  17.146   7.335  1.00  0.00    +0.000 C 
ATOM     93  C61 UNL A   1      17.893  19.847   6.120  1.00  0.00    +0.000 C 
ATOM     94  C62 UNL A   1      18.473  20.146   4.955  1.00  0.00    +0.000 C 
ENDROOT
BRANCH   38   37
ATOM     34  C21 UNL A   1      20.315  22.583   1.496  1.00  0.00    +0.000 C 
ATOM     35  C22 UNL A   1      19.535  21.474   1.136  1.00  0.00    +0.000 C 
ATOM     36  C23 UNL A   1      19.686  20.290   1.839  1.00  0.00    +0.000 C 
ATOM    131  H27 UNL A   1      18.859  21.539   0.359  1.00  0.00    +0.000 H 
ATOM    132  H28 UNL A   1      19.161  19.440   1.579  1.00  0.00    +0.000 H 
ATOM     37  C24 UNL A   1      20.571  20.294   2.907  1.00  0.00    +0.000 C 
ATOM    143  H39 UNL A   1      22.217  21.249   3.831  1.00  0.00    +0.000 H 
ATOM    144  H40 UNL A   1      22.212  23.116   2.269  1.00  0.00    +0.000 H 
ATOM     95  C63 UNL A   1      21.498  21.322   3.093  1.00  0.00    +0.000 C 
ATOM     96  C64 UNL A   1      21.444  22.427   2.288  1.00  0.00    +0.000 C 
BRANCH   34   32
ATOM     33  O7  UNL A   1      18.514  24.034   1.886  1.00  0.00    +0.000 O 
ATOM     32  C20 UNL A   1      19.635  23.896   1.409  1.00  0.00    +0.000 C 
BRANCH   32   31
ATOM    130  H26 UNL A   1      20.382  25.134   0.009  1.00  0.00    +0.000 H 
ATOM     31  N5  UNL A   1      20.348  25.003   0.984  1.00  0.00    +0.000 N 
BRANCH   31   30
ATOM    129  H25 UNL A   1      21.029  25.678   2.793  1.00  0.00    +0.000 H 
ATOM     30  C19 UNL A   1      21.055  26.001   1.772  1.00  0.00    +0.000 C 
ATOM    128  H24 UNL A   1      20.571  26.946   1.638  1.00  0.00    +0.000 H 
BRANCH   30   29
ATOM     29  C18 UNL A   1      22.514  26.146   1.382  1.00  0.00    +0.000 C 
ATOM    126  H22 UNL A   1      23.101  26.154   2.278  1.00  0.00    +0.000 H 
ATOM    127  H23 UNL A   1      22.743  25.320   0.742  1.00  0.00    +0.000 H 
BRANCH   29   28
ATOM    124  H20 UNL A   1      23.893  27.463   0.466  1.00  0.00    +0.000 H 
ATOM     28  C17 UNL A   1      22.832  27.414   0.590  1.00  0.00    +0.000 C 
ATOM    125  H21 UNL A   1      22.287  27.325  -0.325  1.00  0.00    +0.000 H 
BRANCH   28   27
ATOM    122  H18 UNL A   1      22.047  28.529   2.218  1.00  0.00    +0.000 H 
ATOM     27  C16 UNL A   1      22.370  28.736   1.220  1.00  0.00    +0.000 C 
ATOM    123  H19 UNL A   1      23.212  29.395   1.163  1.00  0.00    +0.000 H 
BRANCH   27   26
ATOM    121  H17 UNL A   1      20.738  28.719  -0.104  1.00  0.00    +0.000 H 
ATOM     26  C15 UNL A   1      21.231  29.455   0.497  1.00  0.00    +0.000 C 
ATOM    120  H16 UNL A   1      21.650  30.252  -0.080  1.00  0.00    +0.000 H 
BRANCH   26   25
ATOM     25  C14 UNL A   1      20.173  30.040   1.421  1.00  0.00    +0.000 C 
ATOM    118  H14 UNL A   1      20.319  29.640   2.403  1.00  0.00    +0.000 H 
ATOM    119  H15 UNL A   1      20.285  31.104   1.399  1.00  0.00    +0.000 H 
BRANCH   25   24
ATOM    117  H13 UNL A   1      18.436  28.911   1.355  1.00  0.00    +0.000 H 
ATOM     24  N4  UNL A   1      18.823  29.744   1.002  1.00  0.00    +0.000 N 
BRANCH   24   22
ATOM     22  C13 UNL A   1      18.018  30.475   0.175  1.00  0.00    +0.000 C 
ATOM     23  O6  UNL A   1      17.517  31.507   0.630  1.00  0.00    +0.000 O 
BRANCH   22   21
ATOM    115  H11 UNL A   1      17.783  30.775  -1.921  1.00  0.00    +0.000 H 
ATOM    116  H12 UNL A   1      18.250  29.120  -1.420  1.00  0.00    +0.000 H 
ATOM     21  C12 UNL A   1      17.631  29.972  -1.230  1.00  0.00    +0.000 C 
BRANCH   21   20
ATOM    114  H10 UNL A   1      16.148  28.534  -1.349  1.00  0.00    +0.000 H 
ATOM     20  N3  UNL A   1      16.258  29.512  -1.371  1.00  0.00    +0.000 N 
BRANCH   20   18
ATOM     18  C11 UNL A   1      15.099  30.213  -1.531  1.00  0.00    +0.000 C 
ATOM     19  O5  UNL A   1      14.806  30.584  -2.670  1.00  0.00    +0.000 O 
BRANCH   18   17
ATOM     17  C10 UNL A   1      14.185  30.544  -0.339  1.00  0.00    +0.000 C 
ATOM    113  H9  UNL A   1      14.489  29.900   0.459  1.00  0.00    +0.000 H 
ATOM    112  H8  UNL A   1      13.171  30.389  -0.646  1.00  0.00    +0.000 H 
BRANCH   17   16
ATOM    111  H7  UNL A   1      15.054  32.048   0.790  1.00  0.00    +0.000 H 
ATOM     16  N2  UNL A   1      14.302  31.912   0.169  1.00  0.00    +0.000 N 
BRANCH   16   14
ATOM     14  C9  UNL A   1      13.550  33.047  -0.062  1.00  0.00    +0.000 C 
ATOM     15  O4  UNL A   1      13.991  33.896  -0.830  1.00  0.00    +0.000 O 
BRANCH   14   12
ATOM     12  C8  UNL A   1      12.184  33.242   0.632  1.00  0.00    +0.000 C 
ATOM     13  O3  UNL A   1      12.134  34.062   1.543  1.00  0.00    +0.000 O 
BRANCH   12   11
ATOM     97  C65 UNL A   1      10.469  31.339   0.936  1.00  0.00    +0.000 C 
ATOM     98  C66 UNL A   1      10.921  30.609   2.060  1.00  0.00    +0.000 C 
ATOM     99  C67 UNL A   1      10.183  29.527   2.538  1.00  0.00    +0.000 C 
ATOM    100  C68 UNL A   1       9.009  29.146   1.905  1.00  0.00    +0.000 C 
ATOM    101  C69 UNL A   1       8.548  29.825   0.774  1.00  0.00    +0.000 C 
ATOM    102  C70 UNL A   1       9.288  30.927   0.307  1.00  0.00    +0.000 C 
ATOM      9  N1  UNL A   1       9.080  31.821  -0.722  1.00  0.00    +0.000 N 
ATOM     10  C6  UNL A   1      10.081  32.765  -0.775  1.00  0.00    +0.000 C 
ATOM     11  C7  UNL A   1      10.972  32.505   0.252  1.00  0.00    +0.000 C 
ATOM    110  H6  UNL A   1      10.154  33.533  -1.460  1.00  0.00    +0.000 H 
ATOM    145  H41 UNL A   1      11.801  30.880   2.527  1.00  0.00    +0.000 H 
ATOM    146  H42 UNL A   1      10.512  29.008   3.367  1.00  0.00    +0.000 H 
ATOM    147  H43 UNL A   1       8.470  28.347   2.273  1.00  0.00    +0.000 H 
ATOM    148  H44 UNL A   1       7.684  29.527   0.294  1.00  0.00    +0.000 H 
BRANCH    9    6
ATOM      6  S1  UNL A   1       7.705  31.832  -1.731  1.00  0.00    +0.000 S 
ATOM      7  O1  UNL A   1       6.673  32.488  -0.961  1.00  0.00    +0.000 O 
ATOM      8  O2  UNL A   1       7.560  30.464  -2.210  1.00  0.00    +0.000 O 
BRANCH    6    5
ATOM      2  C2  UNL A   1       8.566  34.284  -5.495  1.00  0.00    +0.000 C 
ATOM      3  C3  UNL A   1       8.977  32.951  -5.381  1.00  0.00    +0.000 C 
ATOM      4  C4  UNL A   1       8.722  32.231  -4.212  1.00  0.00    +0.000 C 
ATOM      5  C5  UNL A   1       8.065  32.848  -3.141  1.00  0.00    +0.000 C 
ATOM    103  C71 UNL A   1       7.689  34.189  -3.230  1.00  0.00    +0.000 C 
ATOM    104  C72 UNL A   1       7.929  34.898  -4.410  1.00  0.00    +0.000 C 
ATOM    108  H4  UNL A   1       9.470  32.497  -6.166  1.00  0.00    +0.000 H 
ATOM    109  H5  UNL A   1       9.019  31.246  -4.138  1.00  0.00    +0.000 H 
ATOM    149  H45 UNL A   1       7.234  34.654  -2.428  1.00  0.00    +0.000 H 
ATOM    150  H46 UNL A   1       7.635  35.884  -4.483  1.00  0.00    +0.000 H 
BRANCH    2    1
ATOM      1  C1  UNL A   1       8.814  35.038  -6.769  1.00  0.00    +0.000 C 
ATOM    106  H2  UNL A   1       7.879  35.345  -7.190  1.00  0.00    +0.000 H 
ATOM    107  H3  UNL A   1       9.327  34.406  -7.464  1.00  0.00    +0.000 H 
ATOM    105  H1  UNL A   1       9.413  35.901  -6.562  1.00  0.00    +0.000 H 
ENDBRANCH    2    1
ENDBRANCH    6    5
ENDBRANCH    9    6
ENDBRANCH   12   11
ENDBRANCH   14   12
ENDBRANCH   16   14
ENDBRANCH   17   16
ENDBRANCH   18   17
ENDBRANCH   20   18
ENDBRANCH   21   20
ENDBRANCH   22   21
ENDBRANCH   24   22
ENDBRANCH   25   24
ENDBRANCH   26   25
ENDBRANCH   27   26
ENDBRANCH   28   27
ENDBRANCH   29   28
ENDBRANCH   30   29
ENDBRANCH   31   30
ENDBRANCH   32   31
ENDBRANCH   34   32
ENDBRANCH   38   37
BRANCH   42   43
ATOM     43  C29 UNL A   1      17.131  17.719   8.509  1.00  0.00    +0.000 C 
ATOM     44  C30 UNL A   1      16.675  18.473   9.616  1.00  0.00    +0.000 C 
ATOM     45  F1  UNL A   1      17.345  19.545  10.059  1.00  0.00    +0.000 F 
ATOM     46  C31 UNL A   1      15.507  18.160  10.315  1.00  0.00    +0.000 C 
ATOM     47  F2  UNL A   1      15.141  18.911  11.363  1.00  0.00    +0.000 F 
ATOM     48  C32 UNL A   1      14.737  17.081   9.940  1.00  0.00    +0.000 C 
ATOM     49  F3  UNL A   1      13.629  16.766  10.623  1.00  0.00    +0.000 F 
ATOM     50  C33 UNL A   1      15.111  16.349   8.832  1.00  0.00    +0.000 C 
ATOM     51  F4  UNL A   1      14.361  15.310   8.438  1.00  0.00    +0.000 F 
ATOM     52  C34 UNL A   1      16.262  16.686   8.110  1.00  0.00    +0.000 C 
ATOM     53  F5  UNL A   1      16.457  16.002   6.979  1.00  0.00    +0.000 F 
ENDBRANCH   42   43
BRANCH   59   60
ATOM     65  C43 UNL A   1      24.086  17.550  12.784  1.00  0.00    +0.000 C 
ATOM     66  F8  UNL A   1      24.304  17.653  14.102  1.00  0.00    +0.000 F 
ATOM     67  C44 UNL A   1      23.645  16.363  12.245  1.00  0.00    +0.000 C 
ATOM     68  F9  UNL A   1      23.382  15.318  13.041  1.00  0.00    +0.000 F 
ATOM     69  C45 UNL A   1      23.452  16.251  10.869  1.00  0.00    +0.000 C 
ATOM     70  F10 UNL A   1      23.056  15.041  10.446  1.00  0.00    +0.000 F 
ATOM     60  C40 UNL A   1      23.624  17.341   9.978  1.00  0.00    +0.000 C 
ATOM     61  C41 UNL A   1      24.002  18.549  10.587  1.00  0.00    +0.000 C 
ATOM     62  F6  UNL A   1      24.057  19.697   9.900  1.00  0.00    +0.000 F 
ATOM     63  C42 UNL A   1      24.276  18.637  11.955  1.00  0.00    +0.000 C 
ATOM     64  F7  UNL A   1      24.698  19.801  12.469  1.00  0.00    +0.000 F 
ENDBRANCH   59   60
BRANCH   74   75
ATOM     75  C49 UNL A   1      25.149  18.799   3.085  1.00  0.00    +0.000 C 
ATOM     76  C50 UNL A   1      25.015  20.089   3.641  1.00  0.00    +0.000 C 
ATOM     77  F11 UNL A   1      24.060  20.326   4.557  1.00  0.00    +0.000 F 
ATOM     78  C51 UNL A   1      25.945  21.091   3.377  1.00  0.00    +0.000 C 
ATOM     79  F12 UNL A   1      25.881  22.255   4.039  1.00  0.00    +0.000 F 
ATOM     80  C52 UNL A   1      26.987  20.849   2.498  1.00  0.00    +0.000 C 
ATOM     81  F13 UNL A   1      27.945  21.769   2.324  1.00  0.00    +0.000 F 
ATOM     82  C53 UNL A   1      27.053  19.634   1.830  1.00  0.00    +0.000 C 
ATOM     83  F14 UNL A   1      28.063  19.403   0.977  1.00  0.00    +0.000 F 
ATOM     84  C54 UNL A   1      26.142  18.615   2.116  1.00  0.00    +0.000 C 
ATOM     85  F15 UNL A   1      26.312  17.417   1.538  1.00  0.00    +0.000 F 
ENDBRANCH   74   75
TORSDOF 25
ENDMDL
MODEL 9
REMARK VINA RESULT:      -9.5      7.665     16.378
ROOT
ATOM    133  H29 UNL A   1      12.539  32.667   1.783  1.00  0.00    +0.000 H 
ATOM    134  H30 UNL A   1      10.287  31.612   2.630  1.00  0.00    +0.000 H 
ATOM    135  H31 UNL A   1      12.243  28.808   0.300  1.00  0.00    +0.000 H 
ATOM    136  H32 UNL A   1       8.096  33.024   0.938  1.00  0.00    +0.000 H 
ATOM    137  H33 UNL A   1      10.385  32.983  -0.213  1.00  0.00    +0.000 H 
ATOM    138  H34 UNL A   1       7.409  32.921  -3.104  1.00  0.00    +0.000 H 
ATOM    139  H35 UNL A   1       5.335  29.099   0.884  1.00  0.00    +0.000 H 
ATOM    140  H36 UNL A   1       7.133  27.889   2.272  1.00  0.00    +0.000 H 
ATOM    141  H37 UNL A   1      14.675  31.365  -3.143  1.00  0.00    +0.000 H 
ATOM    142  H38 UNL A   1      12.653  32.105  -4.552  1.00  0.00    +0.000 H 
ATOM     38  C25 UNL A   1      10.179  32.040  -2.971  1.00  0.00    +0.000 C 
ATOM     39  C26 UNL A   1      11.547  31.626  -2.640  1.00  0.00    +0.000 C 
ATOM     40  N6  UNL A   1      11.884  31.048  -1.546  1.00  0.00    +0.000 N 
ATOM     41  C27 UNL A   1      13.262  31.054  -1.490  1.00  0.00    +0.000 C 
ATOM     42  C28 UNL A   1      13.854  30.937  -0.268  1.00  0.00    +0.000 C 
ATOM     54  C35 UNL A   1      12.822  30.788   0.756  1.00  0.00    +0.000 C 
ATOM     55  C36 UNL A   1      12.190  31.722   1.560  1.00  0.00    +0.000 C 
ATOM     56  C37 UNL A   1      10.979  31.150   2.021  1.00  0.00    +0.000 C 
ATOM     57  C38 UNL A   1      10.886  29.864   1.515  1.00  0.00    +0.000 C 
ATOM     58  N7  UNL A   1      12.026  29.649   0.764  1.00  0.00    +0.000 N 
ATOM     59  C39 UNL A   1       9.900  28.812   1.700  1.00  0.00    +0.000 C 
ATOM     71  C46 UNL A   1       8.644  29.124   1.258  1.00  0.00    +0.000 C 
ATOM     72  N8  UNL A   1       8.425  30.092   0.312  1.00  0.00    +0.000 N 
ATOM     73  C47 UNL A   1       7.145  30.186   0.080  1.00  0.00    +0.000 C 
ATOM     74  C48 UNL A   1       6.542  31.179  -0.883  1.00  0.00    +0.000 C 
ATOM     86  C55 UNL A   1       7.312  32.299  -1.018  1.00  0.00    +0.000 C 
ATOM     87  C56 UNL A   1       8.285  32.764  -0.043  1.00  0.00    +0.000 C 
ATOM     88  C57 UNL A   1       9.477  32.787  -0.663  1.00  0.00    +0.000 C 
ATOM     89  C58 UNL A   1       9.275  32.492  -2.075  1.00  0.00    +0.000 C 
ATOM     90  N9  UNL A   1       7.877  32.644  -2.283  1.00  0.00    +0.000 N 
ATOM     91  C59 UNL A   1       6.356  29.249   0.871  1.00  0.00    +0.000 C 
ATOM     92  C60 UNL A   1       7.317  28.631   1.578  1.00  0.00    +0.000 C 
ATOM     93  C61 UNL A   1      13.696  31.403  -2.818  1.00  0.00    +0.000 C 
ATOM     94  C62 UNL A   1      12.662  31.785  -3.572  1.00  0.00    +0.000 C 
ENDROOT
BRANCH   38   37
ATOM     34  C21 UNL A   1       9.750  32.102  -7.069  1.00  0.00    +0.000 C 
ATOM     35  C22 UNL A   1       9.806  33.349  -6.430  1.00  0.00    +0.000 C 
ATOM     36  C23 UNL A   1       9.835  33.393  -5.045  1.00  0.00    +0.000 C 
ATOM    131  H27 UNL A   1       9.824  34.220  -6.982  1.00  0.00    +0.000 H 
ATOM    132  H28 UNL A   1       9.835  34.291  -4.537  1.00  0.00    +0.000 H 
ATOM     37  C24 UNL A   1       9.865  32.180  -4.372  1.00  0.00    +0.000 C 
ATOM    143  H39 UNL A   1       9.493  30.101  -4.466  1.00  0.00    +0.000 H 
ATOM    144  H40 UNL A   1       8.990  30.138  -6.847  1.00  0.00    +0.000 H 
ATOM     95  C63 UNL A   1       9.570  30.975  -5.011  1.00  0.00    +0.000 C 
ATOM     96  C64 UNL A   1       9.386  30.962  -6.366  1.00  0.00    +0.000 C 
BRANCH   34   32
ATOM     33  O7  UNL A   1      10.584  32.947  -9.092  1.00  0.00    +0.000 O 
ATOM     32  C20 UNL A   1      10.530  31.993  -8.324  1.00  0.00    +0.000 C 
BRANCH   32   31
ATOM    130  H26 UNL A   1      11.118  30.317  -9.271  1.00  0.00    +0.000 H 
ATOM     31  N5  UNL A   1      11.358  30.901  -8.516  1.00  0.00    +0.000 N 
BRANCH   31   30
ATOM    129  H25 UNL A   1      12.367  30.769  -6.740  1.00  0.00    +0.000 H 
ATOM     30  C19 UNL A   1      12.533  30.493  -7.761  1.00  0.00    +0.000 C 
ATOM    128  H24 UNL A   1      13.390  30.982  -8.175  1.00  0.00    +0.000 H 
BRANCH   30   29
ATOM     29  C18 UNL A   1      12.770  28.995  -7.790  1.00  0.00    +0.000 C 
ATOM    126  H22 UNL A   1      12.319  28.601  -8.677  1.00  0.00    +0.000 H 
ATOM    127  H23 UNL A   1      13.830  28.853  -7.763  1.00  0.00    +0.000 H 
BRANCH   29   28
ATOM    124  H20 UNL A   1      11.133  28.344  -6.617  1.00  0.00    +0.000 H 
ATOM     28  C17 UNL A   1      12.198  28.243  -6.589  1.00  0.00    +0.000 C 
ATOM    125  H21 UNL A   1      12.546  27.237  -6.687  1.00  0.00    +0.000 H 
BRANCH   28   27
ATOM    122  H18 UNL A   1      13.715  28.470  -5.120  1.00  0.00    +0.000 H 
ATOM     27  C16 UNL A   1      12.677  28.713  -5.207  1.00  0.00    +0.000 C 
ATOM    123  H19 UNL A   1      12.472  29.762  -5.170  1.00  0.00    +0.000 H 
BRANCH   27   26
ATOM    121  H17 UNL A   1      10.924  28.402  -4.090  1.00  0.00    +0.000 H 
ATOM     26  C15 UNL A   1      11.950  28.104  -4.008  1.00  0.00    +0.000 C 
ATOM    120  H16 UNL A   1      12.418  28.462  -3.116  1.00  0.00    +0.000 H 
BRANCH   26   25
ATOM     25  C14 UNL A   1      11.959  26.583  -3.974  1.00  0.00    +0.000 C 
ATOM    118  H14 UNL A   1      10.973  26.231  -4.200  1.00  0.00    +0.000 H 
ATOM    119  H15 UNL A   1      12.678  26.254  -4.695  1.00  0.00    +0.000 H 
BRANCH   25   24
ATOM    117  H13 UNL A   1      11.625  25.772  -2.097  1.00  0.00    +0.000 H 
ATOM     24  N4  UNL A   1      12.357  26.044  -2.696  1.00  0.00    +0.000 N 
BRANCH   24   22
ATOM     22  C13 UNL A   1      13.622  25.865  -2.213  1.00  0.00    +0.000 C 
ATOM     23  O6  UNL A   1      13.753  25.706  -0.996  1.00  0.00    +0.000 O 
BRANCH   22   21
ATOM    115  H11 UNL A   1      14.768  26.895  -3.684  1.00  0.00    +0.000 H 
ATOM    116  H12 UNL A   1      15.709  25.973  -2.469  1.00  0.00    +0.000 H 
ATOM     21  C12 UNL A   1      14.861  25.989  -3.122  1.00  0.00    +0.000 C 
BRANCH   21   20
ATOM    114  H10 UNL A   1      15.507  25.148  -4.898  1.00  0.00    +0.000 H 
ATOM     20  N3  UNL A   1      15.056  24.895  -4.062  1.00  0.00    +0.000 N 
BRANCH   20   18
ATOM     18  C11 UNL A   1      14.714  23.578  -3.973  1.00  0.00    +0.000 C 
ATOM     19  O5  UNL A   1      13.655  23.224  -4.496  1.00  0.00    +0.000 O 
BRANCH   18   17
ATOM     17  C10 UNL A   1      15.606  22.560  -3.242  1.00  0.00    +0.000 C 
ATOM    113  H9  UNL A   1      16.614  22.885  -3.390  1.00  0.00    +0.000 H 
ATOM    112  H8  UNL A   1      15.407  21.592  -3.651  1.00  0.00    +0.000 H 
BRANCH   17   16
ATOM    111  H7  UNL A   1      14.531  22.128  -1.524  1.00  0.00    +0.000 H 
ATOM     16  N2  UNL A   1      15.405  22.491  -1.792  1.00  0.00    +0.000 N 
BRANCH   16   14
ATOM     14  C9  UNL A   1      16.219  22.844  -0.733  1.00  0.00    +0.000 C 
ATOM     15  O4  UNL A   1      16.572  24.014  -0.630  1.00  0.00    +0.000 O 
BRANCH   14   12
ATOM     12  C8  UNL A   1      16.675  21.787   0.295  1.00  0.00    +0.000 C 
ATOM     13  O3  UNL A   1      17.597  21.048  -0.035  1.00  0.00    +0.000 O 
BRANCH   12   11
ATOM     97  C65 UNL A   1      14.656  21.454   1.866  1.00  0.00    +0.000 C 
ATOM     98  C66 UNL A   1      13.532  21.372   1.012  1.00  0.00    +0.000 C 
ATOM     99  C67 UNL A   1      12.263  21.136   1.541  1.00  0.00    +0.000 C 
ATOM    100  C68 UNL A   1      12.090  20.998   2.910  1.00  0.00    +0.000 C 
ATOM    101  C69 UNL A   1      13.173  21.102   3.786  1.00  0.00    +0.000 C 
ATOM    102  C70 UNL A   1      14.454  21.323   3.245  1.00  0.00    +0.000 C 
ATOM      9  N1  UNL A   1      15.705  21.417   3.818  1.00  0.00    +0.000 N 
ATOM     10  C6  UNL A   1      16.678  21.612   2.865  1.00  0.00    +0.000 C 
ATOM     11  C7  UNL A   1      16.066  21.636   1.623  1.00  0.00    +0.000 C 
ATOM    110  H6  UNL A   1      17.688  21.721   3.043  1.00  0.00    +0.000 H 
ATOM    145  H41 UNL A   1      13.652  21.488  -0.007  1.00  0.00    +0.000 H 
ATOM    146  H42 UNL A   1      11.450  21.064   0.909  1.00  0.00    +0.000 H 
ATOM    147  H43 UNL A   1      11.147  20.817   3.287  1.00  0.00    +0.000 H 
ATOM    148  H44 UNL A   1      13.038  21.018   4.807  1.00  0.00    +0.000 H 
BRANCH    9    6
ATOM      6  S1  UNL A   1      16.026  21.204   5.480  1.00  0.00    +0.000 S 
ATOM      7  O1  UNL A   1      17.379  21.677   5.669  1.00  0.00    +0.000 O 
ATOM      8  O2  UNL A   1      15.637  19.834   5.782  1.00  0.00    +0.000 O 
BRANCH    6    5
ATOM      2  C2  UNL A   1      13.181  24.062   7.639  1.00  0.00    +0.000 C 
ATOM      3  C3  UNL A   1      14.116  24.526   6.707  1.00  0.00    +0.000 C 
ATOM      4  C4  UNL A   1      14.989  23.637   6.079  1.00  0.00    +0.000 C 
ATOM      5  C5  UNL A   1      14.941  22.272   6.391  1.00  0.00    +0.000 C 
ATOM    103  C71 UNL A   1      14.041  21.806   7.350  1.00  0.00    +0.000 C 
ATOM    104  C72 UNL A   1      13.157  22.699   7.961  1.00  0.00    +0.000 C 
ATOM    108  H4  UNL A   1      14.159  25.533   6.482  1.00  0.00    +0.000 H 
ATOM    109  H5  UNL A   1      15.669  23.984   5.385  1.00  0.00    +0.000 H 
ATOM    149  H45 UNL A   1      14.028  20.805   7.606  1.00  0.00    +0.000 H 
ATOM    150  H46 UNL A   1      12.479  22.352   8.657  1.00  0.00    +0.000 H 
BRANCH    2    1
ATOM      1  C1  UNL A   1      12.224  25.022   8.283  1.00  0.00    +0.000 C 
ATOM    106  H2  UNL A   1      12.172  25.918   7.702  1.00  0.00    +0.000 H 
ATOM    107  H3  UNL A   1      12.563  25.256   9.271  1.00  0.00    +0.000 H 
ATOM    105  H1  UNL A   1      11.252  24.575   8.337  1.00  0.00    +0.000 H 
ENDBRANCH    2    1
ENDBRANCH    6    5
ENDBRANCH    9    6
ENDBRANCH   12   11
ENDBRANCH   14   12
ENDBRANCH   16   14
ENDBRANCH   17   16
ENDBRANCH   18   17
ENDBRANCH   20   18
ENDBRANCH   21   20
ENDBRANCH   22   21
ENDBRANCH   24   22
ENDBRANCH   25   24
ENDBRANCH   26   25
ENDBRANCH   27   26
ENDBRANCH   28   27
ENDBRANCH   29   28
ENDBRANCH   30   29
ENDBRANCH   31   30
ENDBRANCH   32   31
ENDBRANCH   34   32
ENDBRANCH   38   37
BRANCH   42   43
ATOM     43  C29 UNL A   1      15.290  31.283   0.057  1.00  0.00    +0.000 C 
ATOM     44  C30 UNL A   1      16.340  30.482  -0.451  1.00  0.00    +0.000 C 
ATOM     45  F1  UNL A   1      16.108  29.488  -1.317  1.00  0.00    +0.000 F 
ATOM     46  C31 UNL A   1      17.677  30.670  -0.093  1.00  0.00    +0.000 C 
ATOM     47  F2  UNL A   1      18.619  29.865  -0.603  1.00  0.00    +0.000 F 
ATOM     48  C32 UNL A   1      18.029  31.670   0.787  1.00  0.00    +0.000 C 
ATOM     49  F3  UNL A   1      19.308  31.838   1.149  1.00  0.00    +0.000 F 
ATOM     50  C33 UNL A   1      17.048  32.513   1.265  1.00  0.00    +0.000 C 
ATOM     51  F4  UNL A   1      17.376  33.506   2.104  1.00  0.00    +0.000 F 
ATOM     52  C34 UNL A   1      15.713  32.346   0.877  1.00  0.00    +0.000 C 
ATOM     53  F5  UNL A   1      14.868  33.296   1.287  1.00  0.00    +0.000 F 
ENDBRANCH   42   43
BRANCH   59   60
ATOM     65  C43 UNL A   1      11.200  25.328   3.978  1.00  0.00    +0.000 C 
ATOM     66  F8  UNL A   1      11.624  24.278   4.693  1.00  0.00    +0.000 F 
ATOM     67  C44 UNL A   1      10.539  26.366   4.595  1.00  0.00    +0.000 C 
ATOM     68  F9  UNL A   1      10.362  26.357   5.923  1.00  0.00    +0.000 F 
ATOM     69  C45 UNL A   1      10.071  27.441   3.842  1.00  0.00    +0.000 C 
ATOM     70  F10 UNL A   1       9.411  28.379   4.536  1.00  0.00    +0.000 F 
ATOM     60  C40 UNL A   1      10.302  27.559   2.447  1.00  0.00    +0.000 C 
ATOM     61  C41 UNL A   1      11.045  26.511   1.879  1.00  0.00    +0.000 C 
ATOM     62  F6  UNL A   1      11.469  26.556   0.610  1.00  0.00    +0.000 F 
ATOM     63  C42 UNL A   1      11.441  25.395   2.621  1.00  0.00    +0.000 C 
ATOM     64  F7  UNL A   1      12.090  24.393   2.009  1.00  0.00    +0.000 F 
ENDBRANCH   59   60
BRANCH   74   75
ATOM     75  C49 UNL A   1       5.811  30.841  -2.138  1.00  0.00    +0.000 C 
ATOM     76  C50 UNL A   1       6.315  29.776  -2.915  1.00  0.00    +0.000 C 
ATOM     77  F11 UNL A   1       7.605  29.419  -2.801  1.00  0.00    +0.000 F 
ATOM     78  C51 UNL A   1       5.472  28.984  -3.690  1.00  0.00    +0.000 C 
ATOM     79  F12 UNL A   1       5.952  27.887  -4.292  1.00  0.00    +0.000 F 
ATOM     80  C52 UNL A   1       4.121  29.281  -3.762  1.00  0.00    +0.000 C 
ATOM     81  F13 UNL A   1       3.288  28.461  -4.416  1.00  0.00    +0.000 F 
ATOM     82  C53 UNL A   1       3.632  30.411  -3.121  1.00  0.00    +0.000 C 
ATOM     83  F14 UNL A   1       2.323  30.697  -3.194  1.00  0.00    +0.000 F 
ATOM     84  C54 UNL A   1       4.467  31.190  -2.316  1.00  0.00    +0.000 C 
ATOM     85  F15 UNL A   1       3.930  32.201  -1.619  1.00  0.00    +0.000 F 
ENDBRANCH   74   75
TORSDOF 25
ENDMDL
MODEL 10
REMARK VINA RESULT:      -9.5     42.177     47.937
ROOT
ATOM    133  H29 UNL A   1      18.416  37.672  45.667  1.00  0.00    +0.000 H 
ATOM    134  H30 UNL A   1      19.812  36.300  43.914  1.00  0.00    +0.000 H 
ATOM    135  H31 UNL A   1      18.757  33.765  47.009  1.00  0.00    +0.000 H 
ATOM    136  H32 UNL A   1      22.732  37.282  44.324  1.00  0.00    +0.000 H 
ATOM    137  H33 UNL A   1      21.273  37.567  46.410  1.00  0.00    +0.000 H 
ATOM    138  H34 UNL A   1      25.203  36.927  47.577  1.00  0.00    +0.000 H 
ATOM    139  H35 UNL A   1      24.538  32.966  43.255  1.00  0.00    +0.000 H 
ATOM    140  H36 UNL A   1      22.133  32.110  42.922  1.00  0.00    +0.000 H 
ATOM    141  H37 UNL A   1      18.657  36.555  51.073  1.00  0.00    +0.000 H 
ATOM    142  H38 UNL A   1      21.191  36.911  51.341  1.00  0.00    +0.000 H 
ATOM     38  C25 UNL A   1      22.593  36.507  48.792  1.00  0.00    +0.000 C 
ATOM     39  C26 UNL A   1      21.183  36.329  49.157  1.00  0.00    +0.000 C 
ATOM     40  N6  UNL A   1      20.287  35.852  48.373  1.00  0.00    +0.000 N 
ATOM     41  C27 UNL A   1      19.063  36.080  48.967  1.00  0.00    +0.000 C 
ATOM     42  C28 UNL A   1      17.959  36.103  48.169  1.00  0.00    +0.000 C 
ATOM     54  C35 UNL A   1      18.354  35.827  46.790  1.00  0.00    +0.000 C 
ATOM     55  C36 UNL A   1      18.675  36.676  45.743  1.00  0.00    +0.000 C 
ATOM     56  C37 UNL A   1      19.422  35.934  44.796  1.00  0.00    +0.000 C 
ATOM     57  C38 UNL A   1      19.536  34.632  45.256  1.00  0.00    +0.000 C 
ATOM     58  N7  UNL A   1      18.862  34.577  46.461  1.00  0.00    +0.000 N 
ATOM     59  C39 UNL A   1      20.141  33.443  44.679  1.00  0.00    +0.000 C 
ATOM     71  C46 UNL A   1      21.489  33.533  44.470  1.00  0.00    +0.000 C 
ATOM     72  N8  UNL A   1      22.274  34.420  45.159  1.00  0.00    +0.000 N 
ATOM     73  C47 UNL A   1      23.512  34.299  44.763  1.00  0.00    +0.000 C 
ATOM     74  C48 UNL A   1      24.643  35.148  45.288  1.00  0.00    +0.000 C 
ATOM     86  C55 UNL A   1      24.214  36.372  45.717  1.00  0.00    +0.000 C 
ATOM     87  C56 UNL A   1      22.986  37.020  45.289  1.00  0.00    +0.000 C 
ATOM     88  C57 UNL A   1      22.242  37.213  46.393  1.00  0.00    +0.000 C 
ATOM     89  C58 UNL A   1      23.032  36.839  47.558  1.00  0.00    +0.000 C 
ATOM     90  N9  UNL A   1      24.369  36.757  47.082  1.00  0.00    +0.000 N 
ATOM     91  C59 UNL A   1      23.679  33.276  43.737  1.00  0.00    +0.000 C 
ATOM     92  C60 UNL A   1      22.415  32.846  43.589  1.00  0.00    +0.000 C 
ATOM     93  C61 UNL A   1      19.362  36.448  50.327  1.00  0.00    +0.000 C 
ATOM     94  C62 UNL A   1      20.674  36.631  50.493  1.00  0.00    +0.000 C 
ENDROOT
BRANCH   38   37
ATOM     34  C21 UNL A   1      25.653  36.915  51.523  1.00  0.00    +0.000 C 
ATOM     35  C22 UNL A   1      25.201  35.608  51.283  1.00  0.00    +0.000 C 
ATOM     36  C23 UNL A   1      24.101  35.417  50.463  1.00  0.00    +0.000 C 
ATOM    131  H27 UNL A   1      25.680  34.801  51.712  1.00  0.00    +0.000 H 
ATOM    132  H28 UNL A   1      23.713  34.476  50.295  1.00  0.00    +0.000 H 
ATOM     37  C24 UNL A   1      23.543  36.545  49.877  1.00  0.00    +0.000 C 
ATOM    143  H39 UNL A   1      23.347  38.650  49.935  1.00  0.00    +0.000 H 
ATOM    144  H40 UNL A   1      24.975  38.910  51.726  1.00  0.00    +0.000 H 
ATOM     95  C63 UNL A   1      23.855  37.834  50.313  1.00  0.00    +0.000 C 
ATOM     96  C64 UNL A   1      24.841  38.006  51.246  1.00  0.00    +0.000 C 
BRANCH   34   32
ATOM     33  O7  UNL A   1      27.668  37.108  52.708  1.00  0.00    +0.000 O 
ATOM     32  C20 UNL A   1      27.123  37.075  51.610  1.00  0.00    +0.000 C 
BRANCH   32   31
ATOM    130  H26 UNL A   1      28.021  36.058  50.124  1.00  0.00    +0.000 H 
ATOM     31  N5  UNL A   1      27.885  36.973  50.461  1.00  0.00    +0.000 N 
BRANCH   31   30
ATOM    129  H25 UNL A   1      29.535  37.737  49.520  1.00  0.00    +0.000 H 
ATOM     30  C19 UNL A   1      28.516  38.025  49.678  1.00  0.00    +0.000 C 
ATOM    128  H24 UNL A   1      28.439  38.945  50.218  1.00  0.00    +0.000 H 
BRANCH   30   29
ATOM     29  C18 UNL A   1      27.884  38.214  48.311  1.00  0.00    +0.000 C 
ATOM    126  H22 UNL A   1      28.609  38.667  47.667  1.00  0.00    +0.000 H 
ATOM    127  H23 UNL A   1      27.580  37.243  47.979  1.00  0.00    +0.000 H 
BRANCH   29   28
ATOM    124  H20 UNL A   1      25.801  38.470  48.580  1.00  0.00    +0.000 H 
ATOM     28  C17 UNL A   1      26.631  39.089  48.311  1.00  0.00    +0.000 C 
ATOM    125  H21 UNL A   1      26.833  39.878  49.003  1.00  0.00    +0.000 H 
BRANCH   28   27
ATOM    122  H18 UNL A   1      25.310  39.467  46.692  1.00  0.00    +0.000 H 
ATOM     27  C16 UNL A   1      26.291  39.780  46.983  1.00  0.00    +0.000 C 
ATOM    123  H19 UNL A   1      26.373  40.830  47.172  1.00  0.00    +0.000 H 
BRANCH   27   26
ATOM    121  H17 UNL A   1      26.776  38.728  45.229  1.00  0.00    +0.000 H 
ATOM     26  C15 UNL A   1      27.240  39.491  45.820  1.00  0.00    +0.000 C 
ATOM    120  H16 UNL A   1      28.183  39.190  46.224  1.00  0.00    +0.000 H 
BRANCH   26   25
ATOM     25  C14 UNL A   1      27.475  40.675  44.893  1.00  0.00    +0.000 C 
ATOM    118  H14 UNL A   1      27.574  40.310  43.892  1.00  0.00    +0.000 H 
ATOM    119  H15 UNL A   1      26.638  41.333  45.000  1.00  0.00    +0.000 H 
BRANCH   25   24
ATOM    117  H13 UNL A   1      29.431  41.305  44.627  1.00  0.00    +0.000 H 
ATOM     24  N4  UNL A   1      28.659  41.432  45.224  1.00  0.00    +0.000 N 
BRANCH   24   22
ATOM     22  C13 UNL A   1      28.842  42.300  46.263  1.00  0.00    +0.000 C 
ATOM     23  O6  UNL A   1      29.702  42.016  47.101  1.00  0.00    +0.000 O 
BRANCH   22   21
ATOM    115  H11 UNL A   1      28.502  44.403  46.268  1.00  0.00    +0.000 H 
ATOM    116  H12 UNL A   1      27.102  43.389  45.798  1.00  0.00    +0.000 H 
ATOM     21  C12 UNL A   1      27.926  43.523  46.467  1.00  0.00    +0.000 C 
BRANCH   21   20
ATOM    114  H10 UNL A   1      27.742  43.061  48.475  1.00  0.00    +0.000 H 
ATOM     20  N3  UNL A   1      27.349  43.654  47.796  1.00  0.00    +0.000 N 
BRANCH   20   18
ATOM     18  C11 UNL A   1      26.351  44.463  48.253  1.00  0.00    +0.000 C 
ATOM     19  O5  UNL A   1      25.577  44.944  47.422  1.00  0.00    +0.000 O 
BRANCH   18   17
ATOM     17  C10 UNL A   1      26.190  44.779  49.750  1.00  0.00    +0.000 C 
ATOM    113  H9  UNL A   1      25.792  45.769  49.806  1.00  0.00    +0.000 H 
ATOM    112  H8  UNL A   1      27.149  44.679  50.215  1.00  0.00    +0.000 H 
BRANCH   17   16
ATOM    111  H7  UNL A   1      24.625  43.426  49.879  1.00  0.00    +0.000 H 
ATOM     16  N2  UNL A   1      25.246  43.916  50.465  1.00  0.00    +0.000 N 
BRANCH   16   14
ATOM     14  C9  UNL A   1      25.068  43.666  51.812  1.00  0.00    +0.000 C 
ATOM     15  O4  UNL A   1      26.060  43.505  52.514  1.00  0.00    +0.000 O 
BRANCH   14   12
ATOM     12  C8  UNL A   1      23.650  43.589  52.418  1.00  0.00    +0.000 C 
ATOM     13  O3  UNL A   1      23.178  44.628  52.869  1.00  0.00    +0.000 O 
BRANCH   12   11
ATOM     97  C65 UNL A   1      22.135  41.788  51.359  1.00  0.00    +0.000 C 
ATOM     98  C66 UNL A   1      21.965  42.190  50.015  1.00  0.00    +0.000 C 
ATOM     99  C67 UNL A   1      21.231  41.399  49.132  1.00  0.00    +0.000 C 
ATOM    100  C68 UNL A   1      20.647  40.219  49.569  1.00  0.00    +0.000 C 
ATOM    101  C69 UNL A   1      20.770  39.805  50.898  1.00  0.00    +0.000 C 
ATOM    102  C70 UNL A   1      21.526  40.599  51.780  1.00  0.00    +0.000 C 
ATOM      9  N1  UNL A   1      21.878  40.446  53.104  1.00  0.00    +0.000 N 
ATOM     10  C6  UNL A   1      22.667  41.488  53.536  1.00  0.00    +0.000 C 
ATOM     11  C7  UNL A   1      22.860  42.351  52.472  1.00  0.00    +0.000 C 
ATOM    110  H6  UNL A   1      23.049  41.605  54.487  1.00  0.00    +0.000 H 
ATOM    145  H41 UNL A   1      22.386  43.074  49.687  1.00  0.00    +0.000 H 
ATOM    146  H42 UNL A   1      21.123  41.693  48.148  1.00  0.00    +0.000 H 
ATOM    147  H43 UNL A   1      20.112  39.640  48.904  1.00  0.00    +0.000 H 
ATOM    148  H44 UNL A   1      20.317  38.936  51.225  1.00  0.00    +0.000 H 
BRANCH    9    6
ATOM      6  S1  UNL A   1      21.485  39.088  54.059  1.00  0.00    +0.000 S 
ATOM      7  O1  UNL A   1      21.905  39.430  55.398  1.00  0.00    +0.000 O 
ATOM      8  O2  UNL A   1      22.028  37.939  53.347  1.00  0.00    +0.000 O 
BRANCH    6    5
ATOM      2  C2  UNL A   1      16.918  38.834  53.976  1.00  0.00    +0.000 C 
ATOM      3  C3  UNL A   1      17.579  40.012  54.342  1.00  0.00    +0.000 C 
ATOM      4  C4  UNL A   1      18.973  40.057  54.382  1.00  0.00    +0.000 C 
ATOM      5  C5  UNL A   1      19.719  38.914  54.068  1.00  0.00    +0.000 C 
ATOM    103  C71 UNL A   1      19.068  37.723  53.742  1.00  0.00    +0.000 C 
ATOM    104  C72 UNL A   1      17.672  37.691  53.685  1.00  0.00    +0.000 C 
ATOM    108  H4  UNL A   1      17.031  40.853  54.584  1.00  0.00    +0.000 H 
ATOM    109  H5  UNL A   1      19.454  40.932  54.644  1.00  0.00    +0.000 H 
ATOM    149  H45 UNL A   1      19.616  36.871  53.543  1.00  0.00    +0.000 H 
ATOM    150  H46 UNL A   1      17.192  36.815  53.427  1.00  0.00    +0.000 H 
BRANCH    2    1
ATOM      1  C1  UNL A   1      15.419  38.806  53.903  1.00  0.00    +0.000 C 
ATOM    106  H2  UNL A   1      15.109  38.942  52.888  1.00  0.00    +0.000 H 
ATOM    107  H3  UNL A   1      15.017  39.594  54.506  1.00  0.00    +0.000 H 
ATOM    105  H1  UNL A   1      15.062  37.863  54.262  1.00  0.00    +0.000 H 
ENDBRANCH    2    1
ENDBRANCH    6    5
ENDBRANCH    9    6
ENDBRANCH   12   11
ENDBRANCH   14   12
ENDBRANCH   16   14
ENDBRANCH   17   16
ENDBRANCH   18   17
ENDBRANCH   20   18
ENDBRANCH   21   20
ENDBRANCH   22   21
ENDBRANCH   24   22
ENDBRANCH   25   24
ENDBRANCH   26   25
ENDBRANCH   27   26
ENDBRANCH   28   27
ENDBRANCH   29   28
ENDBRANCH   30   29
ENDBRANCH   31   30
ENDBRANCH   32   31
ENDBRANCH   34   32
ENDBRANCH   38   37
BRANCH   42   43
ATOM     43  C29 UNL A   1      16.613  36.686  48.538  1.00  0.00    +0.000 C 
ATOM     44  C30 UNL A   1      16.534  37.734  49.485  1.00  0.00    +0.000 C 
ATOM     45  F1  UNL A   1      17.634  38.315  49.982  1.00  0.00    +0.000 F 
ATOM     46  C31 UNL A   1      15.320  38.234  49.962  1.00  0.00    +0.000 C 
ATOM     47  F2  UNL A   1      15.320  39.220  50.869  1.00  0.00    +0.000 F 
ATOM     48  C32 UNL A   1      14.126  37.713  49.512  1.00  0.00    +0.000 C 
ATOM     49  F3  UNL A   1      12.962  38.177  49.985  1.00  0.00    +0.000 F 
ATOM     50  C33 UNL A   1      14.151  36.729  48.547  1.00  0.00    +0.000 C 
ATOM     51  F4  UNL A   1      12.998  36.228  48.080  1.00  0.00    +0.000 F 
ATOM     52  C34 UNL A   1      15.368  36.254  48.043  1.00  0.00    +0.000 C 
ATOM     53  F5  UNL A   1      15.277  35.403  47.017  1.00  0.00    +0.000 F 
ENDBRANCH   42   43
BRANCH   59   60
ATOM     65  C43 UNL A   1      17.737  30.039  43.392  1.00  0.00    +0.000 C 
ATOM     66  F8  UNL A   1      17.027  28.981  42.980  1.00  0.00    +0.000 F 
ATOM     67  C44 UNL A   1      18.735  29.883  44.328  1.00  0.00    +0.000 C 
ATOM     68  F9  UNL A   1      19.036  28.663  44.794  1.00  0.00    +0.000 F 
ATOM     69  C45 UNL A   1      19.449  30.992  44.778  1.00  0.00    +0.000 C 
ATOM     70  F10 UNL A   1      20.373  30.733  45.715  1.00  0.00    +0.000 F 
ATOM     60  C40 UNL A   1      19.243  32.298  44.263  1.00  0.00    +0.000 C 
ATOM     61  C41 UNL A   1      18.268  32.391  43.258  1.00  0.00    +0.000 C 
ATOM     62  F6  UNL A   1      18.068  33.525  42.573  1.00  0.00    +0.000 F 
ATOM     63  C42 UNL A   1      17.496  31.293  42.868  1.00  0.00    +0.000 C 
ATOM     64  F7  UNL A   1      16.531  31.457  41.950  1.00  0.00    +0.000 F 
ENDBRANCH   59   60
BRANCH   74   75
ATOM     75  C49 UNL A   1      25.812  34.653  46.070  1.00  0.00    +0.000 C 
ATOM     76  C50 UNL A   1      25.633  33.478  46.831  1.00  0.00    +0.000 C 
ATOM     77  F11 UNL A   1      24.397  33.112  47.212  1.00  0.00    +0.000 F 
ATOM     78  C51 UNL A   1      26.689  32.604  47.073  1.00  0.00    +0.000 C 
ATOM     79  F12 UNL A   1      26.458  31.422  47.662  1.00  0.00    +0.000 F 
ATOM     80  C52 UNL A   1      27.960  32.917  46.621  1.00  0.00    +0.000 C 
ATOM     81  F13 UNL A   1      28.956  32.032  46.753  1.00  0.00    +0.000 F 
ATOM     82  C53 UNL A   1      28.185  34.136  45.996  1.00  0.00    +0.000 C 
ATOM     83  F14 UNL A   1      29.418  34.439  45.561  1.00  0.00    +0.000 F 
ATOM     84  C54 UNL A   1      27.123  35.002  45.723  1.00  0.00    +0.000 C 
ATOM     85  F15 UNL A   1      27.364  36.113  45.013  1.00  0.00    +0.000 F 
ENDBRANCH   74   75
TORSDOF 25
ENDMDL
