MODEL 1
REMARK VINA RESULT:      -8.2      0.000      0.000
ROOT
ATOM    148  H44 UNL A   1       1.590  15.848  38.468  1.00  0.00    +0.000 H 
ATOM    149  H45 UNL A   1       4.190  15.393  38.773  1.00  0.00    +0.000 H 
ATOM    150  H46 UNL A   1       2.861  17.639  41.886  1.00  0.00    +0.000 H 
ATOM    151  H47 UNL A   1       5.136  11.283  46.134  1.00  0.00    +0.000 H 
ATOM    152  H48 UNL A   1       3.427  10.257  44.547  1.00  0.00    +0.000 H 
ATOM    153  H49 UNL A   1       3.502  14.341  43.782  1.00  0.00    +0.000 H 
ATOM    154  H50 UNL A   1       3.892  16.706  45.992  1.00  0.00    +0.000 H 
ATOM    155  H51 UNL A   1       3.586  17.596  43.592  1.00  0.00    +0.000 H 
ATOM    156  H52 UNL A   1      -1.753  15.041  42.527  1.00  0.00    +0.000 H 
ATOM    157  H53 UNL A   1      -0.939  13.035  43.917  1.00  0.00    +0.000 H 
ATOM     37  C32 UNL A   1       1.741  12.236  43.274  1.00  0.00    +0.000 C 
ATOM     38  C33 UNL A   1       0.983  13.418  42.770  1.00  0.00    +0.000 C 
ATOM     39  N3  UNL A   1       1.342  14.266  41.860  1.00  0.00    +0.000 N 
ATOM     40  C34 UNL A   1       0.307  15.195  41.778  1.00  0.00    +0.000 C 
ATOM     41  C35 UNL A   1       0.512  16.448  41.289  1.00  0.00    +0.000 C 
ATOM     53  C42 UNL A   1       1.722  16.525  40.519  1.00  0.00    +0.000 C 
ATOM     54  C43 UNL A   1       2.156  16.023  39.312  1.00  0.00    +0.000 C 
ATOM     55  C44 UNL A   1       3.555  15.798  39.478  1.00  0.00    +0.000 C 
ATOM     56  C45 UNL A   1       3.917  16.218  40.759  1.00  0.00    +0.000 C 
ATOM     57  N4  UNL A   1       2.838  16.938  41.196  1.00  0.00    +0.000 N 
ATOM     58  C46 UNL A   1       5.048  15.908  41.603  1.00  0.00    +0.000 C 
ATOM     70  C53 UNL A   1       5.114  16.141  42.946  1.00  0.00    +0.000 C 
ATOM     71  N5  UNL A   1       5.944  15.375  43.748  1.00  0.00    +0.000 N 
ATOM     72  C54 UNL A   1       5.353  15.361  44.911  1.00  0.00    +0.000 C 
ATOM     73  C55 UNL A   1       5.352  14.189  45.817  1.00  0.00    +0.000 C 
ATOM     85  C62 UNL A   1       4.621  13.224  45.205  1.00  0.00    +0.000 C 
ATOM     86  C63 UNL A   1       4.558  11.802  45.454  1.00  0.00    +0.000 C 
ATOM     87  C64 UNL A   1       3.619  11.266  44.649  1.00  0.00    +0.000 C 
ATOM     88  C65 UNL A   1       2.910  12.335  43.941  1.00  0.00    +0.000 C 
ATOM     89  N6  UNL A   1       3.643  13.470  44.218  1.00  0.00    +0.000 N 
ATOM     90  C66 UNL A   1       4.362  16.400  45.125  1.00  0.00    +0.000 C 
ATOM     91  C67 UNL A   1       4.234  16.843  43.873  1.00  0.00    +0.000 C 
ATOM     92  C68 UNL A   1      -0.795  14.656  42.529  1.00  0.00    +0.000 C 
ATOM     93  C69 UNL A   1      -0.406  13.592  43.231  1.00  0.00    +0.000 C 
ENDROOT
BRANCH   37   36
ATOM     33  C28 UNL A   1      -0.316   8.575  42.634  1.00  0.00    +0.000 C 
ATOM     34  C29 UNL A   1       0.019   9.408  41.566  1.00  0.00    +0.000 C 
ATOM     35  C30 UNL A   1       0.718  10.587  41.783  1.00  0.00    +0.000 C 
ATOM     36  C31 UNL A   1       1.054  10.964  43.084  1.00  0.00    +0.000 C 
ATOM    146  H42 UNL A   1      -0.256   9.145  40.605  1.00  0.00    +0.000 H 
ATOM    147  H43 UNL A   1       0.989  11.183  40.985  1.00  0.00    +0.000 H 
ATOM    158  H54 UNL A   1       0.808  10.527  45.133  1.00  0.00    +0.000 H 
ATOM    159  H55 UNL A   1      -0.327   8.431  44.743  1.00  0.00    +0.000 H 
ATOM     94  C70 UNL A   1       0.630  10.205  44.170  1.00  0.00    +0.000 C 
ATOM     95  C71 UNL A   1      -0.035   9.010  43.941  1.00  0.00    +0.000 C 
BRANCH   33   31
ATOM     31  C27 UNL A   1      -0.929   7.228  42.530  1.00  0.00    +0.000 C 
ATOM     32  O2  UNL A   1      -1.631   6.819  43.459  1.00  0.00    +0.000 O 
BRANCH   31   30
ATOM    145  H41 UNL A   1      -1.592   6.009  41.140  1.00  0.00    +0.000 H 
ATOM     30  N2  UNL A   1      -0.744   6.365  41.493  1.00  0.00    +0.000 N 
BRANCH   30   29
ATOM     29  C26 UNL A   1       0.411   5.854  40.791  1.00  0.00    +0.000 C 
ATOM    143  H39 UNL A   1       0.276   4.805  40.627  1.00  0.00    +0.000 H 
ATOM    144  H40 UNL A   1       0.493   6.393  39.870  1.00  0.00    +0.000 H 
BRANCH   29   28
ATOM     28  C25 UNL A   1       1.714   6.062  41.564  1.00  0.00    +0.000 C 
ATOM    141  H37 UNL A   1       2.350   6.703  40.989  1.00  0.00    +0.000 H 
ATOM    142  H38 UNL A   1       1.457   6.492  42.509  1.00  0.00    +0.000 H 
BRANCH   28   27
ATOM     27  C24 UNL A   1       2.467   4.754  41.848  1.00  0.00    +0.000 C 
ATOM    140  H36 UNL A   1       1.778   4.112  42.356  1.00  0.00    +0.000 H 
ATOM    139  H35 UNL A   1       3.333   4.988  42.431  1.00  0.00    +0.000 H 
BRANCH   27   26
ATOM    137  H33 UNL A   1       3.391   3.083  40.902  1.00  0.00    +0.000 H 
ATOM     26  C23 UNL A   1       2.925   3.994  40.594  1.00  0.00    +0.000 C 
ATOM    138  H34 UNL A   1       2.056   3.824  39.995  1.00  0.00    +0.000 H 
BRANCH   26   25
ATOM     25  C22 UNL A   1       3.911   4.774  39.740  1.00  0.00    +0.000 C 
ATOM    135  H31 UNL A   1       4.143   5.699  40.225  1.00  0.00    +0.000 H 
ATOM    136  H32 UNL A   1       4.799   4.190  39.615  1.00  0.00    +0.000 H 
BRANCH   25   24
ATOM    133  H29 UNL A   1       3.997   4.710  37.629  1.00  0.00    +0.000 H 
ATOM    134  H30 UNL A   1       2.380   4.561  38.311  1.00  0.00    +0.000 H 
ATOM     24  C21 UNL A   1       3.322   5.061  38.382  1.00  0.00    +0.000 C 
BRANCH   24   23
ATOM    132  H28 UNL A   1       3.742   7.086  38.630  1.00  0.00    +0.000 H 
ATOM     23  N1  UNL A   1       3.100   6.483  38.190  1.00  0.00    +0.000 N 
BRANCH   23   21
ATOM     21  C20 UNL A   1       2.097   7.089  37.465  1.00  0.00    +0.000 C 
ATOM     22  O1  UNL A   1       1.620   6.456  36.544  1.00  0.00    +0.000 O 
BRANCH   21   18
ATOM     18  C17 UNL A   1       1.856   8.585  37.706  1.00  0.00    +0.000 C 
BRANCH   18   17
ATOM     17  C16 UNL A   1       2.572   9.306  38.886  1.00  0.00    +0.000 C 
ATOM    124  H20 UNL A   1       1.818   9.760  39.493  1.00  0.00    +0.000 H 
ATOM    125  H21 UNL A   1       3.142   8.544  39.376  1.00  0.00    +0.000 H 
BRANCH   17   16
ATOM      4  C4  UNL A   1       6.354  13.140  36.164  1.00  0.00    +0.000 C 
ATOM      5  C5  UNL A   1       5.306  14.026  36.431  1.00  0.00    +0.000 C 
ATOM      6  C6  UNL A   1       4.204  13.649  37.206  1.00  0.00    +0.000 C 
ATOM      7  C7  UNL A   1       4.153  12.339  37.713  1.00  0.00    +0.000 C 
ATOM      8  C8  UNL A   1       5.216  11.437  37.536  1.00  0.00    +0.000 C 
ATOM      9  C9  UNL A   1       6.325  11.864  36.758  1.00  0.00    +0.000 C 
ATOM     10  C10 UNL A   1       4.876  10.197  38.196  1.00  0.00    +0.000 C 
ATOM    112  H8  UNL A   1       5.346  14.982  36.045  1.00  0.00    +0.000 H 
ATOM    113  H9  UNL A   1       3.444  14.320  37.403  1.00  0.00    +0.000 H 
ATOM    114  H10 UNL A   1       7.126  11.226  36.625  1.00  0.00    +0.000 H 
ATOM     16  C15 UNL A   1       3.539  10.342  38.532  1.00  0.00    +0.000 C 
ATOM     96  N7  UNL A   1       3.162  11.678  38.426  1.00  0.00    +0.000 N 
BRANCH    4    2
ATOM      2  C2  UNL A   1       7.484  13.583  35.247  1.00  0.00    +0.000 C 
ATOM    108  H4  UNL A   1       7.965  12.689  34.910  1.00  0.00    +0.000 H 
BRANCH    2    1
ATOM      1  C1  UNL A   1       6.937  14.340  34.039  1.00  0.00    +0.000 C 
ATOM    106  H2  UNL A   1       7.410  15.297  33.972  1.00  0.00    +0.000 H 
ATOM    107  H3  UNL A   1       5.881  14.472  34.148  1.00  0.00    +0.000 H 
ATOM    105  H1  UNL A   1       7.137  13.782  33.147  1.00  0.00    +0.000 H 
ENDBRANCH    2    1
BRANCH    2    3
ATOM      3  C3  UNL A   1       8.561  14.406  35.965  1.00  0.00    +0.000 C 
ATOM    109  H5  UNL A   1       8.113  14.958  36.765  1.00  0.00    +0.000 H 
ATOM    110  H6  UNL A   1       9.012  15.083  35.272  1.00  0.00    +0.000 H 
ATOM    111  H7  UNL A   1       9.307  13.748  36.359  1.00  0.00    +0.000 H 
ENDBRANCH    2    3
ENDBRANCH    4    2
BRANCH   10   11
ATOM     11  S1  UNL A   1       5.994   8.800  38.187  1.00  0.00    +0.000 S 
ATOM     12  C11 UNL A   1       6.645   8.104  36.565  1.00  0.00    +0.000 C 
ATOM     13  C12 UNL A   1       5.500   7.474  35.765  1.00  0.00    +0.000 C 
ATOM     14  C13 UNL A   1       7.550   8.877  35.573  1.00  0.00    +0.000 C 
ATOM     15  C14 UNL A   1       7.624   6.996  37.046  1.00  0.00    +0.000 C 
ATOM    115  H11 UNL A   1       4.830   8.242  35.437  1.00  0.00    +0.000 H 
ATOM    116  H12 UNL A   1       4.971   6.780  36.384  1.00  0.00    +0.000 H 
ATOM    117  H13 UNL A   1       5.898   6.960  34.915  1.00  0.00    +0.000 H 
ATOM    118  H14 UNL A   1       7.001   9.691  35.149  1.00  0.00    +0.000 H 
ATOM    119  H15 UNL A   1       7.869   8.217  34.793  1.00  0.00    +0.000 H 
ATOM    120  H16 UNL A   1       8.406   9.255  36.092  1.00  0.00    +0.000 H 
ATOM    121  H17 UNL A   1       7.128   6.365  37.754  1.00  0.00    +0.000 H 
ATOM    122  H18 UNL A   1       8.477   7.448  37.506  1.00  0.00    +0.000 H 
ATOM    123  H19 UNL A   1       7.940   6.410  36.207  1.00  0.00    +0.000 H 
ENDBRANCH   10   11
BRANCH   96   97
ATOM     97  C72 UNL A   1       2.024  12.355  39.116  1.00  0.00    +0.000 C 
ATOM    161  H57 UNL A   1       1.785  11.698  39.926  1.00  0.00    +0.000 H 
ATOM    160  H56 UNL A   1       2.357  13.337  39.381  1.00  0.00    +0.000 H 
BRANCH   97   98
ATOM     98  C73 UNL A   1       0.702  12.517  38.374  1.00  0.00    +0.000 C 
ATOM     99  C74 UNL A   1      -0.495  12.815  39.058  1.00  0.00    +0.000 C 
ATOM    100  C75 UNL A   1      -1.742  12.720  38.427  1.00  0.00    +0.000 C 
ATOM    162  H58 UNL A   1      -0.451  13.109  40.046  1.00  0.00    +0.000 H 
ATOM    165  H61 UNL A   1       1.486  12.255  36.428  1.00  0.00    +0.000 H 
ATOM    103  C77 UNL A   1      -0.626  12.329  36.330  1.00  0.00    +0.000 C 
ATOM    104  C78 UNL A   1       0.620  12.356  36.980  1.00  0.00    +0.000 C 
ATOM    163  H59 UNL A   1      -2.610  12.852  38.969  1.00  0.00    +0.000 H 
ATOM    164  H60 UNL A   1      -0.669  12.221  35.304  1.00  0.00    +0.000 H 
ATOM    101  C76 UNL A   1      -1.802  12.446  37.067  1.00  0.00    +0.000 C 
ATOM    102 Cl1  UNL A   1      -3.331  12.216  36.311  1.00  0.00    +0.000 Cl
ENDBRANCH   97   98
ENDBRANCH   96   97
ENDBRANCH   17   16
ENDBRANCH   18   17
BRANCH   18   19
ATOM     19  C18 UNL A   1       0.328   8.463  37.975  1.00  0.00    +0.000 C 
ATOM    126  H22 UNL A   1       0.023   9.232  38.654  1.00  0.00    +0.000 H 
ATOM    127  H23 UNL A   1       0.116   7.505  38.404  1.00  0.00    +0.000 H 
ATOM    128  H24 UNL A   1      -0.206   8.568  37.055  1.00  0.00    +0.000 H 
ENDBRANCH   18   19
BRANCH   18   20
ATOM    129  H25 UNL A   1       2.451   8.728  35.627  1.00  0.00    +0.000 H 
ATOM    130  H26 UNL A   1       3.437   9.682  36.709  1.00  0.00    +0.000 H 
ATOM    131  H27 UNL A   1       1.830  10.222  36.286  1.00  0.00    +0.000 H 
ATOM     20  C19 UNL A   1       2.439   9.366  36.486  1.00  0.00    +0.000 C 
ENDBRANCH   18   20
ENDBRANCH   21   18
ENDBRANCH   23   21
ENDBRANCH   24   23
ENDBRANCH   25   24
ENDBRANCH   26   25
ENDBRANCH   27   26
ENDBRANCH   28   27
ENDBRANCH   29   28
ENDBRANCH   30   29
ENDBRANCH   31   30
ENDBRANCH   33   31
ENDBRANCH   37   36
BRANCH   41   42
ATOM     42  C36 UNL A   1      -0.153  17.681  41.852  1.00  0.00    +0.000 C 
ATOM     43  C37 UNL A   1       0.176  18.127  43.146  1.00  0.00    +0.000 C 
ATOM     44  F1  UNL A   1       1.231  17.612  43.798  1.00  0.00    +0.000 F 
ATOM     45  C38 UNL A   1      -0.620  19.050  43.832  1.00  0.00    +0.000 C 
ATOM     46  F2  UNL A   1      -0.329  19.369  45.101  1.00  0.00    +0.000 F 
ATOM     47  C39 UNL A   1      -1.743  19.593  43.233  1.00  0.00    +0.000 C 
ATOM     48  F3  UNL A   1      -2.532  20.440  43.905  1.00  0.00    +0.000 F 
ATOM     49  C40 UNL A   1      -2.076  19.210  41.952  1.00  0.00    +0.000 C 
ATOM     50  F4  UNL A   1      -3.178  19.698  41.366  1.00  0.00    +0.000 F 
ATOM     51  C41 UNL A   1      -1.314  18.252  41.286  1.00  0.00    +0.000 C 
ATOM     52  F5  UNL A   1      -1.818  17.823  40.122  1.00  0.00    +0.000 F 
ENDBRANCH   41   42
BRANCH   58   59
ATOM     65  F8  UNL A   1       9.112  13.010  38.944  1.00  0.00    +0.000 F 
ATOM     66  C51 UNL A   1       8.185  15.059  39.662  1.00  0.00    +0.000 C 
ATOM     67  F9  UNL A   1       9.143  15.736  39.015  1.00  0.00    +0.000 F 
ATOM     68  C52 UNL A   1       7.197  15.753  40.354  1.00  0.00    +0.000 C 
ATOM     69  F10 UNL A   1       7.238  17.094  40.361  1.00  0.00    +0.000 F 
ATOM     59  C47 UNL A   1       6.144  15.080  40.991  1.00  0.00    +0.000 C 
ATOM     60  C48 UNL A   1       6.126  13.677  40.909  1.00  0.00    +0.000 C 
ATOM     61  F6  UNL A   1       5.106  12.971  41.416  1.00  0.00    +0.000 F 
ATOM     62  C49 UNL A   1       7.141  12.982  40.249  1.00  0.00    +0.000 C 
ATOM     63  F7  UNL A   1       7.112  11.643  40.192  1.00  0.00    +0.000 F 
ATOM     64  C50 UNL A   1       8.163  13.675  39.618  1.00  0.00    +0.000 C 
ENDBRANCH   58   59
BRANCH   73   74
ATOM     74  C56 UNL A   1       5.727  14.300  47.246  1.00  0.00    +0.000 C 
ATOM     75  C57 UNL A   1       6.940  14.903  47.625  1.00  0.00    +0.000 C 
ATOM     76  F11 UNL A   1       7.883  15.155  46.705  1.00  0.00    +0.000 F 
ATOM     77  C58 UNL A   1       7.168  15.332  48.936  1.00  0.00    +0.000 C 
ATOM     78  F12 UNL A   1       8.305  15.973  49.243  1.00  0.00    +0.000 F 
ATOM     79  C59 UNL A   1       6.196  15.161  49.908  1.00  0.00    +0.000 C 
ATOM     80  F13 UNL A   1       6.383  15.636  51.146  1.00  0.00    +0.000 F 
ATOM     81  C60 UNL A   1       5.009  14.533  49.578  1.00  0.00    +0.000 C 
ATOM     82  F14 UNL A   1       4.047  14.393  50.500  1.00  0.00    +0.000 F 
ATOM     83  C61 UNL A   1       4.778  14.109  48.268  1.00  0.00    +0.000 C 
ATOM     84  F15 UNL A   1       3.567  13.601  47.996  1.00  0.00    +0.000 F 
ENDBRANCH   73   74
TORSDOF 25
ENDMDL
MODEL 2
REMARK VINA RESULT:      -7.6     30.319     35.809
ROOT
ATOM    148  H44 UNL A   1      18.783  39.397  54.245  1.00  0.00    +0.000 H 
ATOM    149  H45 UNL A   1      20.866  37.763  54.466  1.00  0.00    +0.000 H 
ATOM    150  H46 UNL A   1      18.603  36.606  51.297  1.00  0.00    +0.000 H 
ATOM    151  H47 UNL A   1      25.236  38.329  47.217  1.00  0.00    +0.000 H 
ATOM    152  H48 UNL A   1      24.726  40.560  48.336  1.00  0.00    +0.000 H 
ATOM    153  H49 UNL A   1      21.660  37.951  49.367  1.00  0.00    +0.000 H 
ATOM    154  H50 UNL A   1      20.359  35.657  47.449  1.00  0.00    +0.000 H 
ATOM    155  H51 UNL A   1      19.272  35.769  49.784  1.00  0.00    +0.000 H 
ATOM    156  H52 UNL A   1      17.553  41.527  49.527  1.00  0.00    +0.000 H 
ATOM    157  H53 UNL A   1      19.715  41.991  48.211  1.00  0.00    +0.000 H 
ATOM     37  C32 UNL A   1      22.020  40.719  49.352  1.00  0.00    +0.000 C 
ATOM     38  C33 UNL A   1      20.592  40.582  49.761  1.00  0.00    +0.000 C 
ATOM     39  N3  UNL A   1      20.112  39.943  50.780  1.00  0.00    +0.000 N 
ATOM     40  C34 UNL A   1      18.729  40.090  50.703  1.00  0.00    +0.000 C 
ATOM     41  C35 UNL A   1      17.885  39.209  51.305  1.00  0.00    +0.000 C 
ATOM     53  C42 UNL A   1      18.555  38.441  52.316  1.00  0.00    +0.000 C 
ATOM     54  C43 UNL A   1      19.104  38.704  53.553  1.00  0.00    +0.000 C 
ATOM     55  C44 UNL A   1      20.211  37.811  53.671  1.00  0.00    +0.000 C 
ATOM     56  C45 UNL A   1      20.255  37.014  52.526  1.00  0.00    +0.000 C 
ATOM     57  N4  UNL A   1      19.047  37.227  51.920  1.00  0.00    +0.000 N 
ATOM     58  C46 UNL A   1      21.312  36.234  51.921  1.00  0.00    +0.000 C 
ATOM     70  C53 UNL A   1      21.306  35.762  50.640  1.00  0.00    +0.000 C 
ATOM     71  N5  UNL A   1      22.499  35.512  49.983  1.00  0.00    +0.000 N 
ATOM     72  C54 UNL A   1      22.227  35.713  48.724  1.00  0.00    +0.000 C 
ATOM     73  C55 UNL A   1      23.183  36.310  47.763  1.00  0.00    +0.000 C 
ATOM     85  C62 UNL A   1      23.363  37.599  48.141  1.00  0.00    +0.000 C 
ATOM     86  C63 UNL A   1      24.405  38.538  47.792  1.00  0.00    +0.000 C 
ATOM     87  C64 UNL A   1      24.110  39.732  48.343  1.00  0.00    +0.000 C 
ATOM     88  C65 UNL A   1      22.779  39.677  48.954  1.00  0.00    +0.000 C 
ATOM     89  N6  UNL A   1      22.443  38.339  48.913  1.00  0.00    +0.000 N 
ATOM     90  C66 UNL A   1      20.818  35.696  48.374  1.00  0.00    +0.000 C 
ATOM     91  C67 UNL A   1      20.287  35.746  49.597  1.00  0.00    +0.000 C 
ATOM     92  C68 UNL A   1      18.473  41.091  49.702  1.00  0.00    +0.000 C 
ATOM     93  C69 UNL A   1      19.588  41.376  49.030  1.00  0.00    +0.000 C 
ENDROOT
BRANCH   37   36
ATOM     33  C28 UNL A   1      23.354  44.751  49.320  1.00  0.00    +0.000 C 
ATOM     34  C29 UNL A   1      23.164  44.066  50.521  1.00  0.00    +0.000 C 
ATOM     35  C30 UNL A   1      22.757  42.740  50.518  1.00  0.00    +0.000 C 
ATOM     36  C31 UNL A   1      22.497  42.096  49.308  1.00  0.00    +0.000 C 
ATOM    146  H42 UNL A   1      23.327  44.550  51.418  1.00  0.00    +0.000 H 
ATOM    147  H43 UNL A   1      22.648  42.230  51.409  1.00  0.00    +0.000 H 
ATOM    158  H54 UNL A   1      22.300  42.341  47.222  1.00  0.00    +0.000 H 
ATOM    159  H55 UNL A   1      23.097  44.622  47.226  1.00  0.00    +0.000 H 
ATOM     94  C70 UNL A   1      22.571  42.795  48.108  1.00  0.00    +0.000 C 
ATOM     95  C71 UNL A   1      23.015  44.108  48.117  1.00  0.00    +0.000 C 
BRANCH   33   31
ATOM     31  C27 UNL A   1      23.921  46.115  49.175  1.00  0.00    +0.000 C 
ATOM     32  O2  UNL A   1      23.264  47.079  49.576  1.00  0.00    +0.000 O 
BRANCH   31   30
ATOM    145  H41 UNL A   1      25.016  47.007  47.810  1.00  0.00    +0.000 H 
ATOM     30  N2  UNL A   1      25.113  46.405  48.583  1.00  0.00    +0.000 N 
BRANCH   30   29
ATOM     29  C26 UNL A   1      26.487  46.032  48.831  1.00  0.00    +0.000 C 
ATOM    143  H39 UNL A   1      27.104  46.479  48.080  1.00  0.00    +0.000 H 
ATOM    144  H40 UNL A   1      26.742  46.375  49.812  1.00  0.00    +0.000 H 
BRANCH   29   28
ATOM     28  C25 UNL A   1      26.705  44.518  48.803  1.00  0.00    +0.000 C 
ATOM    141  H37 UNL A   1      27.646  44.303  49.263  1.00  0.00    +0.000 H 
ATOM    142  H38 UNL A   1      25.888  44.070  49.329  1.00  0.00    +0.000 H 
BRANCH   28   27
ATOM     27  C24 UNL A   1      26.710  43.932  47.384  1.00  0.00    +0.000 C 
ATOM    140  H36 UNL A   1      27.729  43.938  47.057  1.00  0.00    +0.000 H 
ATOM    139  H35 UNL A   1      26.069  44.532  46.773  1.00  0.00    +0.000 H 
BRANCH   27   26
ATOM    137  H33 UNL A   1      25.862  42.179  48.250  1.00  0.00    +0.000 H 
ATOM     26  C23 UNL A   1      26.232  42.475  47.292  1.00  0.00    +0.000 C 
ATOM    138  H34 UNL A   1      25.477  42.439  46.536  1.00  0.00    +0.000 H 
BRANCH   26   25
ATOM     25  C22 UNL A   1      27.326  41.504  46.878  1.00  0.00    +0.000 C 
ATOM    135  H31 UNL A   1      27.938  41.281  47.727  1.00  0.00    +0.000 H 
ATOM    136  H32 UNL A   1      26.872  40.609  46.505  1.00  0.00    +0.000 H 
BRANCH   25   24
ATOM    133  H29 UNL A   1      27.860  41.725  44.845  1.00  0.00    +0.000 H 
ATOM    134  H30 UNL A   1      28.079  43.168  45.831  1.00  0.00    +0.000 H 
ATOM     24  C21 UNL A   1      28.182  42.105  45.792  1.00  0.00    +0.000 C 
BRANCH   24   23
ATOM    132  H28 UNL A   1      30.090  42.360  46.588  1.00  0.00    +0.000 H 
ATOM     23  N1  UNL A   1      29.584  41.775  45.980  1.00  0.00    +0.000 N 
BRANCH   23   21
ATOM     21  C20 UNL A   1      30.289  40.739  45.407  1.00  0.00    +0.000 C 
ATOM     22  O1  UNL A   1      29.655  39.924  44.766  1.00  0.00    +0.000 O 
BRANCH   21   18
ATOM     18  C17 UNL A   1      31.750  40.554  45.840  1.00  0.00    +0.000 C 
BRANCH   18   17
ATOM     17  C16 UNL A   1      32.075  39.842  47.185  1.00  0.00    +0.000 C 
ATOM    124  H20 UNL A   1      32.217  38.803  46.976  1.00  0.00    +0.000 H 
ATOM    125  H21 UNL A   1      32.940  40.344  47.566  1.00  0.00    +0.000 H 
BRANCH   17   16
ATOM      4  C4  UNL A   1      27.318  41.103  50.678  1.00  0.00    +0.000 C 
ATOM      5  C5  UNL A   1      26.962  39.808  50.290  1.00  0.00    +0.000 C 
ATOM      6  C6  UNL A   1      27.834  38.992  49.562  1.00  0.00    +0.000 C 
ATOM      7  C7  UNL A   1      29.095  39.502  49.205  1.00  0.00    +0.000 C 
ATOM      8  C8  UNL A   1      29.528  40.768  49.637  1.00  0.00    +0.000 C 
ATOM      9  C9  UNL A   1      28.619  41.558  50.390  1.00  0.00    +0.000 C 
ATOM     10  C10 UNL A   1      30.866  40.988  49.137  1.00  0.00    +0.000 C 
ATOM    112  H8  UNL A   1      26.030  39.446  50.545  1.00  0.00    +0.000 H 
ATOM    113  H9  UNL A   1      27.559  38.034  49.292  1.00  0.00    +0.000 H 
ATOM    114  H10 UNL A   1      28.918  42.486  50.732  1.00  0.00    +0.000 H 
ATOM     16  C15 UNL A   1      31.073  39.947  48.243  1.00  0.00    +0.000 C 
ATOM     96  N7  UNL A   1      30.108  38.960  48.427  1.00  0.00    +0.000 N 
BRANCH    4    2
ATOM      2  C2  UNL A   1      26.295  41.969  51.397  1.00  0.00    +0.000 C 
ATOM    108  H4  UNL A   1      25.788  42.526  50.637  1.00  0.00    +0.000 H 
BRANCH    2    1
ATOM      1  C1  UNL A   1      25.280  41.105  52.142  1.00  0.00    +0.000 C 
ATOM    106  H2  UNL A   1      24.512  40.792  51.466  1.00  0.00    +0.000 H 
ATOM    107  H3  UNL A   1      24.845  41.672  52.938  1.00  0.00    +0.000 H 
ATOM    105  H1  UNL A   1      25.772  40.243  52.545  1.00  0.00    +0.000 H 
ENDBRANCH    2    1
BRANCH    2    3
ATOM      3  C3  UNL A   1      26.928  43.002  52.337  1.00  0.00    +0.000 C 
ATOM    109  H5  UNL A   1      26.917  43.964  51.868  1.00  0.00    +0.000 H 
ATOM    110  H6  UNL A   1      27.936  42.719  52.551  1.00  0.00    +0.000 H 
ATOM    111  H7  UNL A   1      26.368  43.044  53.248  1.00  0.00    +0.000 H 
ENDBRANCH    2    3
ENDBRANCH    4    2
BRANCH   10   11
ATOM     11  S1  UNL A   1      31.755  42.500  49.485  1.00  0.00    +0.000 S 
ATOM     12  C11 UNL A   1      30.859  44.155  49.503  1.00  0.00    +0.000 C 
ATOM     13  C12 UNL A   1      30.373  44.505  48.092  1.00  0.00    +0.000 C 
ATOM     14  C13 UNL A   1      29.741  44.543  50.502  1.00  0.00    +0.000 C 
ATOM     15  C14 UNL A   1      31.985  45.139  49.931  1.00  0.00    +0.000 C 
ATOM    115  H11 UNL A   1      29.599  43.825  47.803  1.00  0.00    +0.000 H 
ATOM    116  H12 UNL A   1      31.189  44.431  47.404  1.00  0.00    +0.000 H 
ATOM    117  H13 UNL A   1      29.991  45.505  48.084  1.00  0.00    +0.000 H 
ATOM    118  H14 UNL A   1      28.878  43.935  50.325  1.00  0.00    +0.000 H 
ATOM    119  H15 UNL A   1      29.485  45.574  50.368  1.00  0.00    +0.000 H 
ATOM    120  H16 UNL A   1      30.088  44.389  51.502  1.00  0.00    +0.000 H 
ATOM    121  H17 UNL A   1      32.845  44.987  49.314  1.00  0.00    +0.000 H 
ATOM    122  H18 UNL A   1      32.243  44.962  50.955  1.00  0.00    +0.000 H 
ATOM    123  H19 UNL A   1      31.639  46.146  49.820  1.00  0.00    +0.000 H 
ENDBRANCH   10   11
BRANCH   96   97
ATOM     97  C72 UNL A   1      30.208  37.517  48.058  1.00  0.00    +0.000 C 
ATOM    161  H57 UNL A   1      31.261  37.328  48.035  1.00  0.00    +0.000 H 
ATOM    160  H56 UNL A   1      29.641  36.968  48.780  1.00  0.00    +0.000 H 
BRANCH   97   98
ATOM     98  C73 UNL A   1      29.727  37.073  46.680  1.00  0.00    +0.000 C 
ATOM     99  C74 UNL A   1      28.361  37.106  46.331  1.00  0.00    +0.000 C 
ATOM    100  C75 UNL A   1      27.886  36.474  45.175  1.00  0.00    +0.000 C 
ATOM    162  H58 UNL A   1      27.697  37.607  46.941  1.00  0.00    +0.000 H 
ATOM    165  H61 UNL A   1      31.641  36.661  45.880  1.00  0.00    +0.000 H 
ATOM    103  C77 UNL A   1      30.156  36.019  44.516  1.00  0.00    +0.000 C 
ATOM    104  C78 UNL A   1      30.625  36.593  45.711  1.00  0.00    +0.000 C 
ATOM    163  H59 UNL A   1      26.872  36.432  44.985  1.00  0.00    +0.000 H 
ATOM    164  H60 UNL A   1      30.828  35.682  43.809  1.00  0.00    +0.000 H 
ATOM    101  C76 UNL A   1      28.788  35.906  44.285  1.00  0.00    +0.000 C 
ATOM    102 Cl1  UNL A   1      28.203  35.031  42.923  1.00  0.00    +0.000 Cl
ENDBRANCH   97   98
ENDBRANCH   96   97
ENDBRANCH   17   16
ENDBRANCH   18   17
BRANCH   18   19
ATOM     19  C18 UNL A   1      32.091  42.071  45.917  1.00  0.00    +0.000 C 
ATOM    126  H22 UNL A   1      32.069  42.390  46.939  1.00  0.00    +0.000 H 
ATOM    127  H23 UNL A   1      31.371  42.628  45.354  1.00  0.00    +0.000 H 
ATOM    128  H24 UNL A   1      33.067  42.238  45.513  1.00  0.00    +0.000 H 
ENDBRANCH   18   19
BRANCH   18   20
ATOM    129  H25 UNL A   1      31.814  38.721  44.685  1.00  0.00    +0.000 H 
ATOM    130  H26 UNL A   1      33.386  39.285  45.199  1.00  0.00    +0.000 H 
ATOM    131  H27 UNL A   1      32.559  40.084  43.885  1.00  0.00    +0.000 H 
ATOM     20  C19 UNL A   1      32.431  39.585  44.822  1.00  0.00    +0.000 C 
ENDBRANCH   18   20
ENDBRANCH   21   18
ENDBRANCH   23   21
ENDBRANCH   24   23
ENDBRANCH   25   24
ENDBRANCH   26   25
ENDBRANCH   27   26
ENDBRANCH   28   27
ENDBRANCH   29   28
ENDBRANCH   30   29
ENDBRANCH   31   30
ENDBRANCH   33   31
ENDBRANCH   37   36
BRANCH   41   42
ATOM     42  C36 UNL A   1      16.580  38.758  50.697  1.00  0.00    +0.000 C 
ATOM     43  C37 UNL A   1      15.386  38.867  51.436  1.00  0.00    +0.000 C 
ATOM     44  F1  UNL A   1      15.353  39.570  52.579  1.00  0.00    +0.000 F 
ATOM     45  C38 UNL A   1      14.223  38.186  51.062  1.00  0.00    +0.000 C 
ATOM     46  F2  UNL A   1      13.140  38.233  51.849  1.00  0.00    +0.000 F 
ATOM     47  C39 UNL A   1      14.198  37.412  49.915  1.00  0.00    +0.000 C 
ATOM     48  F3  UNL A   1      13.101  36.722  49.581  1.00  0.00    +0.000 F 
ATOM     49  C40 UNL A   1      15.336  37.313  49.143  1.00  0.00    +0.000 C 
ATOM     50  F4  UNL A   1      15.344  36.542  48.047  1.00  0.00    +0.000 F 
ATOM     51  C41 UNL A   1      16.511  37.949  49.541  1.00  0.00    +0.000 C 
ATOM     52  F5  UNL A   1      17.599  37.649  48.822  1.00  0.00    +0.000 F 
ENDBRANCH   41   42
BRANCH   58   59
ATOM     65  F8  UNL A   1      26.346  35.871  54.470  1.00  0.00    +0.000 F 
ATOM     66  C51 UNL A   1      24.783  37.074  53.174  1.00  0.00    +0.000 C 
ATOM     67  F9  UNL A   1      25.668  38.065  53.000  1.00  0.00    +0.000 F 
ATOM     68  C52 UNL A   1      23.525  37.162  52.586  1.00  0.00    +0.000 C 
ATOM     69  F10 UNL A   1      23.228  38.251  51.863  1.00  0.00    +0.000 F 
ATOM     59  C47 UNL A   1      22.596  36.117  52.695  1.00  0.00    +0.000 C 
ATOM     60  C48 UNL A   1      22.981  34.979  53.423  1.00  0.00    +0.000 C 
ATOM     61  F6  UNL A   1      22.181  33.905  53.496  1.00  0.00    +0.000 F 
ATOM     62  C49 UNL A   1      24.228  34.911  54.046  1.00  0.00    +0.000 C 
ATOM     63  F7  UNL A   1      24.571  33.821  54.747  1.00  0.00    +0.000 F 
ATOM     64  C50 UNL A   1      25.131  35.955  53.912  1.00  0.00    +0.000 C 
ENDBRANCH   58   59
BRANCH   73   74
ATOM     74  C56 UNL A   1      23.481  35.678  46.455  1.00  0.00    +0.000 C 
ATOM     75  C57 UNL A   1      23.028  36.260  45.257  1.00  0.00    +0.000 C 
ATOM     76  F11 UNL A   1      22.115  37.242  45.289  1.00  0.00    +0.000 F 
ATOM     77  C58 UNL A   1      23.567  35.901  44.017  1.00  0.00    +0.000 C 
ATOM     78  F12 UNL A   1      23.165  36.532  42.905  1.00  0.00    +0.000 F 
ATOM     79  C59 UNL A   1      24.565  34.943  43.939  1.00  0.00    +0.000 C 
ATOM     80  F13 UNL A   1      25.133  34.651  42.761  1.00  0.00    +0.000 F 
ATOM     81  C60 UNL A   1      25.003  34.322  45.094  1.00  0.00    +0.000 C 
ATOM     82  F14 UNL A   1      25.992  33.420  45.035  1.00  0.00    +0.000 F 
ATOM     83  C61 UNL A   1      24.470  34.684  46.333  1.00  0.00    +0.000 C 
ATOM     84  F15 UNL A   1      25.012  34.115  47.419  1.00  0.00    +0.000 F 
ENDBRANCH   73   74
TORSDOF 25
ENDMDL
MODEL 3
REMARK VINA RESULT:      -7.4     38.772     45.251
ROOT
ATOM    148  H44 UNL A   1       6.528  29.875  -5.124  1.00  0.00    +0.000 H 
ATOM    149  H45 UNL A   1       8.908  28.725  -5.394  1.00  0.00    +0.000 H 
ATOM    150  H46 UNL A   1       9.426  32.674  -4.598  1.00  0.00    +0.000 H 
ATOM    151  H47 UNL A   1      13.048  29.854   1.925  1.00  0.00    +0.000 H 
ATOM    152  H48 UNL A   1      10.716  28.854   2.157  1.00  0.00    +0.000 H 
ATOM    153  H49 UNL A   1      10.686  31.238  -1.247  1.00  0.00    +0.000 H 
ATOM    154  H50 UNL A   1      12.266  34.063  -1.632  1.00  0.00    +0.000 H 
ATOM    155  H51 UNL A   1      10.888  33.378  -3.700  1.00  0.00    +0.000 H 
ATOM    156  H52 UNL A   1       5.549  33.029  -0.953  1.00  0.00    +0.000 H 
ATOM    157  H53 UNL A   1       6.800  32.131   1.109  1.00  0.00    +0.000 H 
ATOM     37  C32 UNL A   1       8.762  30.142   0.454  1.00  0.00    +0.000 C 
ATOM     38  C33 UNL A   1       7.938  30.968  -0.476  1.00  0.00    +0.000 C 
ATOM     39  N3  UNL A   1       7.863  30.882  -1.765  1.00  0.00    +0.000 N 
ATOM     40  C34 UNL A   1       6.985  31.888  -2.162  1.00  0.00    +0.000 C 
ATOM     41  C35 UNL A   1       7.011  32.398  -3.424  1.00  0.00    +0.000 C 
ATOM     53  C42 UNL A   1       7.692  31.521  -4.335  1.00  0.00    +0.000 C 
ATOM     54  C43 UNL A   1       7.445  30.280  -4.880  1.00  0.00    +0.000 C 
ATOM     55  C44 UNL A   1       8.728  29.677  -5.039  1.00  0.00    +0.000 C 
ATOM     56  C45 UNL A   1       9.697  30.594  -4.629  1.00  0.00    +0.000 C 
ATOM     57  N4  UNL A   1       9.021  31.780  -4.534  1.00  0.00    +0.000 N 
ATOM     58  C46 UNL A   1      11.073  30.438  -4.214  1.00  0.00    +0.000 C 
ATOM     70  C53 UNL A   1      11.803  31.376  -3.543  1.00  0.00    +0.000 C 
ATOM     71  N5  UNL A   1      12.864  30.992  -2.739  1.00  0.00    +0.000 N 
ATOM     72  C54 UNL A   1      12.917  31.905  -1.810  1.00  0.00    +0.000 C 
ATOM     73  C55 UNL A   1      13.278  31.622  -0.401  1.00  0.00    +0.000 C 
ATOM     85  C62 UNL A   1      12.279  30.865   0.113  1.00  0.00    +0.000 C 
ATOM     86  C63 UNL A   1      12.248  30.038   1.299  1.00  0.00    +0.000 C 
ATOM     87  C64 UNL A   1      11.001  29.549   1.450  1.00  0.00    +0.000 C 
ATOM     88  C65 UNL A   1      10.111  30.154   0.455  1.00  0.00    +0.000 C 
ATOM     89  N6  UNL A   1      10.962  30.831  -0.394  1.00  0.00    +0.000 N 
ATOM     90  C66 UNL A   1      12.230  33.148  -2.109  1.00  0.00    +0.000 C 
ATOM     91  C67 UNL A   1      11.537  32.764  -3.183  1.00  0.00    +0.000 C 
ATOM     92  C68 UNL A   1       6.357  32.387  -0.968  1.00  0.00    +0.000 C 
ATOM     93  C69 UNL A   1       6.966  31.906   0.115  1.00  0.00    +0.000 C 
ENDROOT
BRANCH   37   36
ATOM     33  C28 UNL A   1       6.584  28.000   3.405  1.00  0.00    +0.000 C 
ATOM     34  C29 UNL A   1       7.476  29.012   3.763  1.00  0.00    +0.000 C 
ATOM     35  C30 UNL A   1       8.159  29.726   2.789  1.00  0.00    +0.000 C 
ATOM     36  C31 UNL A   1       7.985  29.403   1.442  1.00  0.00    +0.000 C 
ATOM    146  H42 UNL A   1       7.629  29.231   4.760  1.00  0.00    +0.000 H 
ATOM    147  H43 UNL A   1       8.794  30.493   3.059  1.00  0.00    +0.000 H 
ATOM    158  H54 UNL A   1       7.125  28.037   0.084  1.00  0.00    +0.000 H 
ATOM    159  H55 UNL A   1       5.867  26.858   1.777  1.00  0.00    +0.000 H 
ATOM     94  C70 UNL A   1       7.189  28.325   1.073  1.00  0.00    +0.000 C 
ATOM     95  C71 UNL A   1       6.480  27.642   2.050  1.00  0.00    +0.000 C 
BRANCH   33   31
ATOM     31  C27 UNL A   1       5.687  27.262   4.328  1.00  0.00    +0.000 C 
ATOM     32  O2  UNL A   1       4.502  27.598   4.404  1.00  0.00    +0.000 O 
BRANCH   31   30
ATOM    145  H41 UNL A   1       5.336  25.895   5.694  1.00  0.00    +0.000 H 
ATOM     30  N2  UNL A   1       6.078  26.250   5.152  1.00  0.00    +0.000 N 
BRANCH   30   29
ATOM     29  C26 UNL A   1       7.331  25.579   5.412  1.00  0.00    +0.000 C 
ATOM    143  H39 UNL A   1       8.100  26.317   5.511  1.00  0.00    +0.000 H 
ATOM    144  H40 UNL A   1       7.210  25.008   6.309  1.00  0.00    +0.000 H 
BRANCH   29   28
ATOM     28  C25 UNL A   1       7.726  24.609   4.298  1.00  0.00    +0.000 C 
ATOM    141  H37 UNL A   1       8.068  23.699   4.746  1.00  0.00    +0.000 H 
ATOM    142  H38 UNL A   1       6.861  24.457   3.688  1.00  0.00    +0.000 H 
BRANCH   28   27
ATOM     27  C24 UNL A   1       8.837  25.151   3.387  1.00  0.00    +0.000 C 
ATOM    140  H36 UNL A   1       8.381  25.894   2.764  1.00  0.00    +0.000 H 
ATOM    139  H35 UNL A   1       9.244  24.331   2.834  1.00  0.00    +0.000 H 
BRANCH   27   26
ATOM    137  H33 UNL A   1       9.754  26.890   4.209  1.00  0.00    +0.000 H 
ATOM     26  C23 UNL A   1       9.987  25.850   4.126  1.00  0.00    +0.000 C 
ATOM    138  H34 UNL A   1      10.080  25.377   5.081  1.00  0.00    +0.000 H 
BRANCH   26   25
ATOM     25  C22 UNL A   1      11.329  25.711   3.427  1.00  0.00    +0.000 C 
ATOM    135  H31 UNL A   1      12.032  26.381   3.877  1.00  0.00    +0.000 H 
ATOM    136  H32 UNL A   1      11.668  24.701   3.525  1.00  0.00    +0.000 H 
BRANCH   25   24
ATOM    133  H29 UNL A   1      10.163  26.018   1.692  1.00  0.00    +0.000 H 
ATOM    134  H30 UNL A   1      11.613  27.011   1.796  1.00  0.00    +0.000 H 
ATOM     24  C21 UNL A   1      11.198  26.040   1.962  1.00  0.00    +0.000 C 
BRANCH   24   23
ATOM    132  H28 UNL A   1      12.903  25.135   1.178  1.00  0.00    +0.000 H 
ATOM     23  N1  UNL A   1      11.921  25.087   1.138  1.00  0.00    +0.000 N 
BRANCH   23   21
ATOM     21  C20 UNL A   1      11.394  24.123   0.307  1.00  0.00    +0.000 C 
ATOM     22  O1  UNL A   1      10.183  24.044   0.248  1.00  0.00    +0.000 O 
BRANCH   21   18
ATOM     18  C17 UNL A   1      12.360  23.073  -0.258  1.00  0.00    +0.000 C 
BRANCH   18   17
ATOM     17  C16 UNL A   1      12.552  21.718   0.483  1.00  0.00    +0.000 C 
ATOM    124  H20 UNL A   1      11.835  21.028   0.090  1.00  0.00    +0.000 H 
ATOM    125  H21 UNL A   1      13.574  21.447   0.313  1.00  0.00    +0.000 H 
BRANCH   17   16
ATOM      4  C4  UNL A   1      11.738  23.124   6.295  1.00  0.00    +0.000 C 
ATOM      5  C5  UNL A   1      10.494  22.540   6.039  1.00  0.00    +0.000 C 
ATOM      6  C6  UNL A   1      10.217  21.900   4.826  1.00  0.00    +0.000 C 
ATOM      7  C7  UNL A   1      11.219  21.859   3.841  1.00  0.00    +0.000 C 
ATOM      8  C8  UNL A   1      12.509  22.364   4.080  1.00  0.00    +0.000 C 
ATOM      9  C9  UNL A   1      12.755  22.991   5.331  1.00  0.00    +0.000 C 
ATOM     10  C10 UNL A   1      13.310  22.147   2.897  1.00  0.00    +0.000 C 
ATOM    112  H8  UNL A   1       9.759  22.585   6.763  1.00  0.00    +0.000 H 
ATOM    113  H9  UNL A   1       9.296  21.464   4.658  1.00  0.00    +0.000 H 
ATOM    114  H10 UNL A   1      13.698  23.356   5.537  1.00  0.00    +0.000 H 
ATOM     16  C15 UNL A   1      12.397  21.736   1.936  1.00  0.00    +0.000 C 
ATOM     96  N7  UNL A   1      11.196  21.376   2.540  1.00  0.00    +0.000 N 
BRANCH    4    2
ATOM      2  C2  UNL A   1      11.949  23.876   7.599  1.00  0.00    +0.000 C 
ATOM    108  H4  UNL A   1      11.213  23.505   8.282  1.00  0.00    +0.000 H 
BRANCH    2    1
ATOM      1  C1  UNL A   1      13.340  23.599   8.167  1.00  0.00    +0.000 C 
ATOM    106  H2  UNL A   1      14.046  23.531   7.366  1.00  0.00    +0.000 H 
ATOM    107  H3  UNL A   1      13.326  22.677   8.710  1.00  0.00    +0.000 H 
ATOM    105  H1  UNL A   1      13.623  24.396   8.824  1.00  0.00    +0.000 H 
ENDBRANCH    2    1
BRANCH    2    3
ATOM      3  C3  UNL A   1      11.700  25.384   7.478  1.00  0.00    +0.000 C 
ATOM    109  H5  UNL A   1      11.948  25.708   6.488  1.00  0.00    +0.000 H 
ATOM    110  H6  UNL A   1      12.309  25.904   8.187  1.00  0.00    +0.000 H 
ATOM    111  H7  UNL A   1      10.668  25.592   7.673  1.00  0.00    +0.000 H 
ENDBRANCH    2    3
ENDBRANCH    4    2
BRANCH   10   11
ATOM     11  S1  UNL A   1      15.022  22.660   2.823  1.00  0.00    +0.000 S 
ATOM     12  C11 UNL A   1      16.295  21.617   1.910  1.00  0.00    +0.000 C 
ATOM     13  C12 UNL A   1      16.497  20.281   2.633  1.00  0.00    +0.000 C 
ATOM     14  C13 UNL A   1      16.279  21.337   0.387  1.00  0.00    +0.000 C 
ATOM     15  C14 UNL A   1      17.582  22.481   2.032  1.00  0.00    +0.000 C 
ATOM    115  H11 UNL A   1      15.608  19.691   2.546  1.00  0.00    +0.000 H 
ATOM    116  H12 UNL A   1      16.705  20.461   3.667  1.00  0.00    +0.000 H 
ATOM    117  H13 UNL A   1      17.318  19.756   2.191  1.00  0.00    +0.000 H 
ATOM    118  H14 UNL A   1      15.427  20.736   0.144  1.00  0.00    +0.000 H 
ATOM    119  H15 UNL A   1      17.173  20.817   0.110  1.00  0.00    +0.000 H 
ATOM    120  H16 UNL A   1      16.226  22.264  -0.145  1.00  0.00    +0.000 H 
ATOM    121  H17 UNL A   1      17.731  22.758   3.054  1.00  0.00    +0.000 H 
ATOM    122  H18 UNL A   1      17.479  23.363   1.434  1.00  0.00    +0.000 H 
ATOM    123  H19 UNL A   1      18.425  21.916   1.690  1.00  0.00    +0.000 H 
ENDBRANCH   10   11
BRANCH   96   97
ATOM     97  C72 UNL A   1      10.148  20.461   1.998  1.00  0.00    +0.000 C 
ATOM    161  H57 UNL A   1      10.670  19.871   1.275  1.00  0.00    +0.000 H 
ATOM    160  H56 UNL A   1       9.729  19.935   2.830  1.00  0.00    +0.000 H 
BRANCH   97   98
ATOM     98  C73 UNL A   1       8.983  21.056   1.213  1.00  0.00    +0.000 C 
ATOM     99  C74 UNL A   1       8.852  20.855  -0.177  1.00  0.00    +0.000 C 
ATOM    100  C75 UNL A   1       7.939  21.593  -0.940  1.00  0.00    +0.000 C 
ATOM    162  H58 UNL A   1       9.442  20.147  -0.641  1.00  0.00    +0.000 H 
ATOM    165  H61 UNL A   1       7.996  21.923   2.870  1.00  0.00    +0.000 H 
ATOM    103  C77 UNL A   1       7.042  22.537   1.085  1.00  0.00    +0.000 C 
ATOM    104  C78 UNL A   1       8.006  21.847   1.841  1.00  0.00    +0.000 C 
ATOM    163  H59 UNL A   1       7.923  21.495  -1.967  1.00  0.00    +0.000 H 
ATOM    164  H60 UNL A   1       6.323  23.104   1.561  1.00  0.00    +0.000 H 
ATOM    101  C76 UNL A   1       7.056  22.456  -0.305  1.00  0.00    +0.000 C 
ATOM    102 Cl1  UNL A   1       6.011  23.448  -1.247  1.00  0.00    +0.000 Cl
ENDBRANCH   97   98
ENDBRANCH   96   97
ENDBRANCH   17   16
ENDBRANCH   18   17
BRANCH   18   19
ATOM     19  C18 UNL A   1      13.640  23.952  -0.151  1.00  0.00    +0.000 C 
ATOM    126  H22 UNL A   1      14.375  23.598  -0.844  1.00  0.00    +0.000 H 
ATOM    127  H23 UNL A   1      14.031  23.892   0.844  1.00  0.00    +0.000 H 
ATOM    128  H24 UNL A   1      13.395  24.968  -0.377  1.00  0.00    +0.000 H 
ENDBRANCH   18   19
BRANCH   18   20
ATOM    129  H25 UNL A   1      12.590  22.272  -2.259  1.00  0.00    +0.000 H 
ATOM    130  H26 UNL A   1      11.248  23.378  -2.094  1.00  0.00    +0.000 H 
ATOM    131  H27 UNL A   1      11.126  21.756  -1.459  1.00  0.00    +0.000 H 
ATOM     20  C19 UNL A   1      11.785  22.581  -1.625  1.00  0.00    +0.000 C 
ENDBRANCH   18   20
ENDBRANCH   21   18
ENDBRANCH   23   21
ENDBRANCH   24   23
ENDBRANCH   25   24
ENDBRANCH   26   25
ENDBRANCH   27   26
ENDBRANCH   28   27
ENDBRANCH   29   28
ENDBRANCH   30   29
ENDBRANCH   31   30
ENDBRANCH   33   31
ENDBRANCH   37   36
BRANCH   41   42
ATOM     42  C36 UNL A   1       6.791  33.858  -3.737  1.00  0.00    +0.000 C 
ATOM     43  C37 UNL A   1       5.688  34.250  -4.520  1.00  0.00    +0.000 C 
ATOM     44  F1  UNL A   1       4.707  33.378  -4.802  1.00  0.00    +0.000 F 
ATOM     45  C38 UNL A   1       5.611  35.520  -5.100  1.00  0.00    +0.000 C 
ATOM     46  F2  UNL A   1       4.596  35.817  -5.923  1.00  0.00    +0.000 F 
ATOM     47  C39 UNL A   1       6.607  36.455  -4.882  1.00  0.00    +0.000 C 
ATOM     48  F3  UNL A   1       6.558  37.655  -5.475  1.00  0.00    +0.000 F 
ATOM     49  C40 UNL A   1       7.684  36.122  -4.089  1.00  0.00    +0.000 C 
ATOM     50  F4  UNL A   1       8.676  37.002  -3.892  1.00  0.00    +0.000 F 
ATOM     51  C41 UNL A   1       7.788  34.840  -3.551  1.00  0.00    +0.000 C 
ATOM     52  F5  UNL A   1       8.949  34.564  -2.944  1.00  0.00    +0.000 F 
ENDBRANCH   41   42
BRANCH   58   59
ATOM     65  F8  UNL A   1      13.094  25.227  -5.074  1.00  0.00    +0.000 F 
ATOM     66  C51 UNL A   1      12.733  27.438  -5.817  1.00  0.00    +0.000 C 
ATOM     67  F9  UNL A   1      13.239  27.132  -7.020  1.00  0.00    +0.000 F 
ATOM     68  C52 UNL A   1      12.264  28.725  -5.573  1.00  0.00    +0.000 C 
ATOM     69  F10 UNL A   1      12.343  29.635  -6.556  1.00  0.00    +0.000 F 
ATOM     59  C47 UNL A   1      11.671  29.064  -4.349  1.00  0.00    +0.000 C 
ATOM     60  C48 UNL A   1      11.571  28.057  -3.374  1.00  0.00    +0.000 C 
ATOM     61  F6  UNL A   1      10.937  28.282  -2.215  1.00  0.00    +0.000 F 
ATOM     62  C49 UNL A   1      12.078  26.778  -3.607  1.00  0.00    +0.000 C 
ATOM     63  F7  UNL A   1      11.983  25.834  -2.660  1.00  0.00    +0.000 F 
ATOM     64  C50 UNL A   1      12.649  26.468  -4.833  1.00  0.00    +0.000 C 
ENDBRANCH   58   59
BRANCH   73   74
ATOM     74  C56 UNL A   1      14.311  32.405   0.318  1.00  0.00    +0.000 C 
ATOM     75  C57 UNL A   1      13.945  33.433   1.205  1.00  0.00    +0.000 C 
ATOM     76  F11 UNL A   1      12.683  33.889   1.223  1.00  0.00    +0.000 F 
ATOM     77  C58 UNL A   1      14.845  33.949   2.143  1.00  0.00    +0.000 C 
ATOM     78  F12 UNL A   1      14.437  34.874   3.023  1.00  0.00    +0.000 F 
ATOM     79  C59 UNL A   1      16.139  33.460   2.214  1.00  0.00    +0.000 C 
ATOM     80  F13 UNL A   1      16.979  33.901   3.158  1.00  0.00    +0.000 F 
ATOM     81  C60 UNL A   1      16.543  32.479   1.327  1.00  0.00    +0.000 C 
ATOM     82  F14 UNL A   1      17.782  31.973   1.409  1.00  0.00    +0.000 F 
ATOM     83  C61 UNL A   1      15.644  31.959   0.395  1.00  0.00    +0.000 C 
ATOM     84  F15 UNL A   1      16.074  30.940  -0.364  1.00  0.00    +0.000 F 
ENDBRANCH   73   74
TORSDOF 25
ENDMDL
MODEL 4
REMARK VINA RESULT:      -7.4     17.876     25.013
ROOT
ATOM    148  H44 UNL A   1      12.247  -3.005  25.520  1.00  0.00    +0.000 H 
ATOM    149  H45 UNL A   1       9.698  -2.912  26.267  1.00  0.00    +0.000 H 
ATOM    150  H46 UNL A   1      11.536   0.536  27.382  1.00  0.00    +0.000 H 
ATOM    151  H47 UNL A   1       6.230   3.793  22.395  1.00  0.00    +0.000 H 
ATOM    152  H48 UNL A   1       7.470   2.189  20.853  1.00  0.00    +0.000 H 
ATOM    153  H49 UNL A   1       9.297   1.952  24.578  1.00  0.00    +0.000 H 
ATOM    154  H50 UNL A   1       9.755   4.422  26.657  1.00  0.00    +0.000 H 
ATOM    155  H51 UNL A   1      10.685   2.178  27.521  1.00  0.00    +0.000 H 
ATOM    156  H52 UNL A   1      14.420   1.103  22.931  1.00  0.00    +0.000 H 
ATOM    157  H53 UNL A   1      12.655   2.174  21.396  1.00  0.00    +0.000 H 
ATOM     37  C32 UNL A   1       9.986   1.280  21.958  1.00  0.00    +0.000 C 
ATOM     38  C33 UNL A   1      11.239   0.977  22.708  1.00  0.00    +0.000 C 
ATOM     39  N3  UNL A   1      11.395   0.165  23.704  1.00  0.00    +0.000 N 
ATOM     40  C34 UNL A   1      12.737   0.262  24.066  1.00  0.00    +0.000 C 
ATOM     41  C35 UNL A   1      13.163  -0.072  25.315  1.00  0.00    +0.000 C 
ATOM     53  C42 UNL A   1      12.205  -0.895  25.998  1.00  0.00    +0.000 C 
ATOM     54  C43 UNL A   1      11.728  -2.180  25.857  1.00  0.00    +0.000 C 
ATOM     55  C44 UNL A   1      10.366  -2.125  26.276  1.00  0.00    +0.000 C 
ATOM     56  C45 UNL A   1      10.090  -0.824  26.699  1.00  0.00    +0.000 C 
ATOM     57  N4  UNL A   1      11.321  -0.236  26.810  1.00  0.00    +0.000 N 
ATOM     58  C46 UNL A   1       8.853  -0.093  26.861  1.00  0.00    +0.000 C 
ATOM     70  C53 UNL A   1       8.751   1.263  26.979  1.00  0.00    +0.000 C 
ATOM     71  N5  UNL A   1       7.585   1.911  26.603  1.00  0.00    +0.000 N 
ATOM     72  C54 UNL A   1       7.977   3.094  26.220  1.00  0.00    +0.000 C 
ATOM     73  C55 UNL A   1       7.361   3.840  25.099  1.00  0.00    +0.000 C 
ATOM     85  C62 UNL A   1       7.650   3.153  23.967  1.00  0.00    +0.000 C 
ATOM     86  C63 UNL A   1       7.049   3.220  22.654  1.00  0.00    +0.000 C 
ATOM     87  C64 UNL A   1       7.735   2.409  21.825  1.00  0.00    +0.000 C 
ATOM     88  C65 UNL A   1       8.917   1.886  22.515  1.00  0.00    +0.000 C 
ATOM     89  N6  UNL A   1       8.737   2.264  23.830  1.00  0.00    +0.000 N 
ATOM     90  C66 UNL A   1       9.297   3.496  26.674  1.00  0.00    +0.000 C 
ATOM     91  C67 UNL A   1       9.744   2.321  27.120  1.00  0.00    +0.000 C 
ATOM     92  C68 UNL A   1      13.397   1.000  23.023  1.00  0.00    +0.000 C 
ATOM     93  C69 UNL A   1      12.502   1.536  22.192  1.00  0.00    +0.000 C 
ENDROOT
BRANCH   37   36
ATOM     33  C28 UNL A   1      10.121   0.462  17.792  1.00  0.00    +0.000 C 
ATOM     34  C29 UNL A   1      10.047   1.772  18.265  1.00  0.00    +0.000 C 
ATOM     35  C30 UNL A   1      10.034   2.029  19.629  1.00  0.00    +0.000 C 
ATOM     36  C31 UNL A   1      10.055   0.968  20.534  1.00  0.00    +0.000 C 
ATOM    146  H42 UNL A   1      10.001   2.557  17.595  1.00  0.00    +0.000 H 
ATOM    147  H43 UNL A   1      10.010   3.003  19.972  1.00  0.00    +0.000 H 
ATOM    158  H54 UNL A   1       9.947  -1.127  20.753  1.00  0.00    +0.000 H 
ATOM    159  H55 UNL A   1      10.063  -1.568  18.380  1.00  0.00    +0.000 H 
ATOM     94  C70 UNL A   1      10.014  -0.346  20.082  1.00  0.00    +0.000 C 
ATOM     95  C71 UNL A   1      10.065  -0.593  18.719  1.00  0.00    +0.000 C 
BRANCH   33   31
ATOM     31  C27 UNL A   1      10.287   0.055  16.374  1.00  0.00    +0.000 C 
ATOM     32  O2  UNL A   1      11.344  -0.479  16.027  1.00  0.00    +0.000 O 
BRANCH   31   30
ATOM    145  H41 UNL A   1       8.443   0.237  15.724  1.00  0.00    +0.000 H 
ATOM     30  N2  UNL A   1       9.369   0.264  15.390  1.00  0.00    +0.000 N 
BRANCH   30   29
ATOM     29  C26 UNL A   1       9.444   0.519  13.970  1.00  0.00    +0.000 C 
ATOM    143  H39 UNL A   1       9.621   1.563  13.818  1.00  0.00    +0.000 H 
ATOM    144  H40 UNL A   1      10.239  -0.080  13.577  1.00  0.00    +0.000 H 
BRANCH   29   28
ATOM     28  C25 UNL A   1       8.164   0.128  13.229  1.00  0.00    +0.000 C 
ATOM    141  H37 UNL A   1       7.632  -0.584  13.823  1.00  0.00    +0.000 H 
ATOM    142  H38 UNL A   1       7.601   1.025  13.074  1.00  0.00    +0.000 H 
BRANCH   28   27
ATOM     27  C24 UNL A   1       8.428  -0.488  11.847  1.00  0.00    +0.000 C 
ATOM    140  H36 UNL A   1       9.484  -0.426  11.684  1.00  0.00    +0.000 H 
ATOM    139  H35 UNL A   1       7.858   0.057  11.125  1.00  0.00    +0.000 H 
BRANCH   27   26
ATOM    137  H33 UNL A   1       7.132  -2.134  12.241  1.00  0.00    +0.000 H 
ATOM     26  C23 UNL A   1       8.056  -1.974  11.728  1.00  0.00    +0.000 C 
ATOM    138  H34 UNL A   1       7.985  -2.197  10.684  1.00  0.00    +0.000 H 
BRANCH   26   25
ATOM     25  C22 UNL A   1       9.101  -2.909  12.315  1.00  0.00    +0.000 C 
ATOM    135  H31 UNL A   1       9.563  -3.461  11.524  1.00  0.00    +0.000 H 
ATOM    136  H32 UNL A   1       9.832  -2.326  12.836  1.00  0.00    +0.000 H 
BRANCH   25   24
ATOM    133  H29 UNL A   1       7.807  -4.523  12.747  1.00  0.00    +0.000 H 
ATOM    134  H30 UNL A   1       9.239  -4.425  13.767  1.00  0.00    +0.000 H 
ATOM     24  C21 UNL A   1       8.463  -3.871  13.285  1.00  0.00    +0.000 C 
BRANCH   24   23
ATOM    132  H28 UNL A   1       8.026  -2.274  14.549  1.00  0.00    +0.000 H 
ATOM     23  N1  UNL A   1       7.701  -3.169  14.303  1.00  0.00    +0.000 N 
BRANCH   23   21
ATOM     21  C20 UNL A   1       6.576  -3.610  14.965  1.00  0.00    +0.000 C 
ATOM     22  O1  UNL A   1       5.794  -4.294  14.335  1.00  0.00    +0.000 O 
BRANCH   21   18
ATOM     18  C17 UNL A   1       6.275  -2.990  16.336  1.00  0.00    +0.000 C 
BRANCH   18   17
ATOM     17  C16 UNL A   1       5.542  -3.830  17.422  1.00  0.00    +0.000 C 
ATOM    124  H20 UNL A   1       4.573  -3.400  17.565  1.00  0.00    +0.000 H 
ATOM    125  H21 UNL A   1       5.536  -4.832  17.046  1.00  0.00    +0.000 H 
BRANCH   17   16
ATOM      4  C4  UNL A   1       9.297  -3.783  22.146  1.00  0.00    +0.000 C 
ATOM      5  C5  UNL A   1       8.583  -2.615  22.429  1.00  0.00    +0.000 C 
ATOM      6  C6  UNL A   1       7.459  -2.242  21.683  1.00  0.00    +0.000 C 
ATOM      7  C7  UNL A   1       7.055  -3.062  20.616  1.00  0.00    +0.000 C 
ATOM      8  C8  UNL A   1       7.694  -4.283  20.341  1.00  0.00    +0.000 C 
ATOM      9  C9  UNL A   1       8.820  -4.636  21.133  1.00  0.00    +0.000 C 
ATOM     10  C10 UNL A   1       7.032  -4.902  19.215  1.00  0.00    +0.000 C 
ATOM    112  H8  UNL A   1       8.893  -2.012  23.206  1.00  0.00    +0.000 H 
ATOM    113  H9  UNL A   1       6.937  -1.381  21.912  1.00  0.00    +0.000 H 
ATOM    114  H10 UNL A   1       9.298  -5.535  20.961  1.00  0.00    +0.000 H 
ATOM     16  C15 UNL A   1       6.185  -3.916  18.732  1.00  0.00    +0.000 C 
ATOM     96  N7  UNL A   1       6.051  -2.898  19.672  1.00  0.00    +0.000 N 
BRANCH    4    2
ATOM      2  C2  UNL A   1      10.557  -4.092  22.941  1.00  0.00    +0.000 C 
ATOM    108  H4  UNL A   1      10.848  -3.175  23.408  1.00  0.00    +0.000 H 
BRANCH    2    1
ATOM      1  C1  UNL A   1      10.276  -5.134  24.021  1.00  0.00    +0.000 C 
ATOM    106  H2  UNL A   1       9.313  -5.571  23.855  1.00  0.00    +0.000 H 
ATOM    107  H3  UNL A   1      10.294  -4.665  24.983  1.00  0.00    +0.000 H 
ATOM    105  H1  UNL A   1      11.024  -5.899  23.983  1.00  0.00    +0.000 H 
ENDBRANCH    2    1
BRANCH    2    3
ATOM      3  C3  UNL A   1      11.738  -4.521  22.063  1.00  0.00    +0.000 C 
ATOM    109  H5  UNL A   1      11.370  -4.967  21.162  1.00  0.00    +0.000 H 
ATOM    110  H6  UNL A   1      12.338  -5.230  22.593  1.00  0.00    +0.000 H 
ATOM    111  H7  UNL A   1      12.331  -3.663  21.819  1.00  0.00    +0.000 H 
ENDBRANCH    2    3
ENDBRANCH    4    2
BRANCH   10   11
ATOM     11  S1  UNL A   1       7.568  -6.482  18.571  1.00  0.00    +0.000 S 
ATOM     12  C11 UNL A   1       9.232  -6.650  17.708  1.00  0.00    +0.000 C 
ATOM     13  C12 UNL A   1       9.224  -5.866  16.391  1.00  0.00    +0.000 C 
ATOM     14  C13 UNL A   1      10.605  -6.424  18.388  1.00  0.00    +0.000 C 
ATOM     15  C14 UNL A   1       9.302  -8.175  17.414  1.00  0.00    +0.000 C 
ATOM    115  H11 UNL A   1       9.175  -4.818  16.600  1.00  0.00    +0.000 H 
ATOM    116  H12 UNL A   1       8.373  -6.154  15.810  1.00  0.00    +0.000 H 
ATOM    117  H13 UNL A   1      10.117  -6.080  15.843  1.00  0.00    +0.000 H 
ATOM    118  H14 UNL A   1      10.706  -5.392  18.655  1.00  0.00    +0.000 H 
ATOM    119  H15 UNL A   1      11.388  -6.695  17.710  1.00  0.00    +0.000 H 
ATOM    120  H16 UNL A   1      10.671  -7.029  19.268  1.00  0.00    +0.000 H 
ATOM    121  H17 UNL A   1       8.401  -8.487  16.931  1.00  0.00    +0.000 H 
ATOM    122  H18 UNL A   1       9.420  -8.711  18.332  1.00  0.00    +0.000 H 
ATOM    123  H19 UNL A   1      10.137  -8.377  16.774  1.00  0.00    +0.000 H 
ENDBRANCH   10   11
BRANCH   96   97
ATOM     97  C72 UNL A   1       4.926  -1.924  19.797  1.00  0.00    +0.000 C 
ATOM    161  H57 UNL A   1       4.293  -2.151  18.965  1.00  0.00    +0.000 H 
ATOM    160  H56 UNL A   1       4.502  -2.058  20.770  1.00  0.00    +0.000 H 
BRANCH   97   98
ATOM     98  C73 UNL A   1       5.218  -0.435  19.639  1.00  0.00    +0.000 C 
ATOM     99  C74 UNL A   1       4.410   0.544  20.253  1.00  0.00    +0.000 C 
ATOM    100  C75 UNL A   1       4.516   1.899  19.916  1.00  0.00    +0.000 C 
ATOM    162  H58 UNL A   1       3.725   0.255  20.968  1.00  0.00    +0.000 H 
ATOM    165  H61 UNL A   1       6.977  -0.657  18.486  1.00  0.00    +0.000 H 
ATOM    103  C77 UNL A   1       6.446   1.389  18.569  1.00  0.00    +0.000 C 
ATOM    104  C78 UNL A   1       6.292   0.021  18.855  1.00  0.00    +0.000 C 
ATOM    163  H59 UNL A   1       3.855   2.586  20.309  1.00  0.00    +0.000 H 
ATOM    164  H60 UNL A   1       7.247   1.709  18.002  1.00  0.00    +0.000 H 
ATOM    101  C76 UNL A   1       5.519   2.311  19.048  1.00  0.00    +0.000 C 
ATOM    102 Cl1  UNL A   1       5.584   3.955  18.541  1.00  0.00    +0.000 Cl
ENDBRANCH   97   98
ENDBRANCH   96   97
ENDBRANCH   17   16
ENDBRANCH   18   17
BRANCH   18   19
ATOM     19  C18 UNL A   1       5.360  -1.850  15.804  1.00  0.00    +0.000 C 
ATOM    126  H22 UNL A   1       5.744  -0.904  16.125  1.00  0.00    +0.000 H 
ATOM    127  H23 UNL A   1       4.368  -1.980  16.187  1.00  0.00    +0.000 H 
ATOM    128  H24 UNL A   1       5.335  -1.881  14.735  1.00  0.00    +0.000 H 
ENDBRANCH   18   19
BRANCH   18   20
ATOM    129  H25 UNL A   1       8.395  -3.342  16.620  1.00  0.00    +0.000 H 
ATOM    130  H26 UNL A   1       7.547  -2.931  18.091  1.00  0.00    +0.000 H 
ATOM    131  H27 UNL A   1       7.910  -1.690  16.916  1.00  0.00    +0.000 H 
ATOM     20  C19 UNL A   1       7.639  -2.716  17.047  1.00  0.00    +0.000 C 
ENDBRANCH   18   20
ENDBRANCH   21   18
ENDBRANCH   23   21
ENDBRANCH   24   23
ENDBRANCH   25   24
ENDBRANCH   26   25
ENDBRANCH   27   26
ENDBRANCH   28   27
ENDBRANCH   29   28
ENDBRANCH   30   29
ENDBRANCH   31   30
ENDBRANCH   33   31
ENDBRANCH   37   36
BRANCH   41   42
ATOM     42  C36 UNL A   1      14.239   0.682  26.057  1.00  0.00    +0.000 C 
ATOM     43  C37 UNL A   1      15.521   0.116  26.201  1.00  0.00    +0.000 C 
ATOM     44  F1  UNL A   1      15.868  -0.974  25.500  1.00  0.00    +0.000 F 
ATOM     45  C38 UNL A   1      16.443   0.608  27.131  1.00  0.00    +0.000 C 
ATOM     46  F2  UNL A   1      17.611  -0.024  27.310  1.00  0.00    +0.000 F 
ATOM     47  C39 UNL A   1      16.135   1.706  27.914  1.00  0.00    +0.000 C 
ATOM     48  F3  UNL A   1      16.998   2.149  28.837  1.00  0.00    +0.000 F 
ATOM     49  C40 UNL A   1      14.905   2.312  27.773  1.00  0.00    +0.000 C 
ATOM     50  F4  UNL A   1      14.575   3.357  28.545  1.00  0.00    +0.000 F 
ATOM     51  C41 UNL A   1      13.965   1.793  26.884  1.00  0.00    +0.000 C 
ATOM     52  F5  UNL A   1      12.747   2.344  26.949  1.00  0.00    +0.000 F 
ENDBRANCH   41   42
BRANCH   58   59
ATOM     65  F8  UNL A   1       4.256  -3.343  26.333  1.00  0.00    +0.000 F 
ATOM     66  C51 UNL A   1       5.961  -2.398  27.664  1.00  0.00    +0.000 C 
ATOM     67  F9  UNL A   1       5.536  -3.093  28.728  1.00  0.00    +0.000 F 
ATOM     68  C52 UNL A   1       7.067  -1.563  27.783  1.00  0.00    +0.000 C 
ATOM     69  F10 UNL A   1       7.678  -1.471  28.974  1.00  0.00    +0.000 F 
ATOM     59  C47 UNL A   1       7.578  -0.868  26.677  1.00  0.00    +0.000 C 
ATOM     60  C48 UNL A   1       6.927  -1.043  25.444  1.00  0.00    +0.000 C 
ATOM     61  F6  UNL A   1       7.409  -0.482  24.326  1.00  0.00    +0.000 F 
ATOM     62  C49 UNL A   1       5.792  -1.848  25.336  1.00  0.00    +0.000 C 
ATOM     63  F7  UNL A   1       5.179  -1.992  24.153  1.00  0.00    +0.000 F 
ATOM     64  C50 UNL A   1       5.317  -2.533  26.445  1.00  0.00    +0.000 C 
ENDBRANCH   58   59
BRANCH   73   74
ATOM     74  C56 UNL A   1       6.919   5.248  25.241  1.00  0.00    +0.000 C 
ATOM     75  C57 UNL A   1       5.995   5.614  26.236  1.00  0.00    +0.000 C 
ATOM     76  F11 UNL A   1       5.311   4.670  26.899  1.00  0.00    +0.000 F 
ATOM     77  C58 UNL A   1       5.821   6.947  26.622  1.00  0.00    +0.000 C 
ATOM     78  F12 UNL A   1       4.987   7.249  27.627  1.00  0.00    +0.000 F 
ATOM     79  C59 UNL A   1       6.557   7.952  26.017  1.00  0.00    +0.000 C 
ATOM     80  F13 UNL A   1       6.446   9.220  26.436  1.00  0.00    +0.000 F 
ATOM     81  C60 UNL A   1       7.444   7.630  25.006  1.00  0.00    +0.000 C 
ATOM     82  F14 UNL A   1       8.188   8.590  24.438  1.00  0.00    +0.000 F 
ATOM     83  C61 UNL A   1       7.623   6.300  24.624  1.00  0.00    +0.000 C 
ATOM     84  F15 UNL A   1       8.571   6.050  23.709  1.00  0.00    +0.000 F 
ENDBRANCH   73   74
TORSDOF 25
ENDMDL
MODEL 5
REMARK VINA RESULT:      -7.4     45.172     52.289
ROOT
ATOM    148  H44 UNL A   1      24.174  27.511   1.360  1.00  0.00    +0.000 H 
ATOM    149  H45 UNL A   1      23.616  25.110   2.353  1.00  0.00    +0.000 H 
ATOM    150  H46 UNL A   1      20.164  26.890   1.160  1.00  0.00    +0.000 H 
ATOM    151  H47 UNL A   1      19.873  20.682  -3.841  1.00  0.00    +0.000 H 
ATOM    152  H48 UNL A   1      22.091  21.758  -4.484  1.00  0.00    +0.000 H 
ATOM    153  H49 UNL A   1      20.377  24.158  -1.556  1.00  0.00    +0.000 H 
ATOM    154  H50 UNL A   1      17.198  24.788  -1.202  1.00  0.00    +0.000 H 
ATOM    155  H51 UNL A   1      18.672  25.974   0.549  1.00  0.00    +0.000 H 
ATOM    156  H52 UNL A   1      22.138  29.001  -3.323  1.00  0.00    +0.000 H 
ATOM    157  H53 UNL A   1      21.985  26.956  -4.877  1.00  0.00    +0.000 H 
ATOM     37  C32 UNL A   1      22.358  24.467  -3.498  1.00  0.00    +0.000 C 
ATOM     38  C33 UNL A   1      22.258  25.838  -2.919  1.00  0.00    +0.000 C 
ATOM     39  N3  UNL A   1      22.424  26.197  -1.686  1.00  0.00    +0.000 N 
ATOM     40  C34 UNL A   1      22.193  27.571  -1.656  1.00  0.00    +0.000 C 
ATOM     41  C35 UNL A   1      21.829  28.206  -0.510  1.00  0.00    +0.000 C 
ATOM     53  C42 UNL A   1      22.131  27.418   0.652  1.00  0.00    +0.000 C 
ATOM     54  C43 UNL A   1      23.280  27.003   1.290  1.00  0.00    +0.000 C 
ATOM     55  C44 UNL A   1      22.966  25.723   1.835  1.00  0.00    +0.000 C 
ATOM     56  C45 UNL A   1      21.630  25.439   1.546  1.00  0.00    +0.000 C 
ATOM     57  N4  UNL A   1      21.114  26.635   1.126  1.00  0.00    +0.000 N 
ATOM     58  C46 UNL A   1      20.885  24.201   1.499  1.00  0.00    +0.000 C 
ATOM     70  C53 UNL A   1      19.670  24.038   0.899  1.00  0.00    +0.000 C 
ATOM     71  N5  UNL A   1      19.282  22.791   0.436  1.00  0.00    +0.000 N 
ATOM     72  C54 UNL A   1      18.495  23.047  -0.572  1.00  0.00    +0.000 C 
ATOM     73  C55 UNL A   1      18.437  22.218  -1.799  1.00  0.00    +0.000 C 
ATOM     85  C62 UNL A   1      19.629  22.367  -2.427  1.00  0.00    +0.000 C 
ATOM     86  C63 UNL A   1      20.249  21.564  -3.458  1.00  0.00    +0.000 C 
ATOM     87  C64 UNL A   1      21.398  22.160  -3.833  1.00  0.00    +0.000 C 
ATOM     88  C65 UNL A   1      21.514  23.464  -3.177  1.00  0.00    +0.000 C 
ATOM     89  N6  UNL A   1      20.491  23.470  -2.251  1.00  0.00    +0.000 N 
ATOM     90  C66 UNL A   1      17.957  24.394  -0.624  1.00  0.00    +0.000 C 
ATOM     91  C67 UNL A   1      18.731  24.976   0.295  1.00  0.00    +0.000 C 
ATOM     92  C68 UNL A   1      22.142  28.013  -3.024  1.00  0.00    +0.000 C 
ATOM     93  C69 UNL A   1      22.100  26.969  -3.851  1.00  0.00    +0.000 C 
ENDROOT
BRANCH   37   36
ATOM     33  C28 UNL A   1      25.408  24.099  -6.431  1.00  0.00    +0.000 C 
ATOM     34  C29 UNL A   1      25.663  23.813  -5.089  1.00  0.00    +0.000 C 
ATOM     35  C30 UNL A   1      24.651  23.907  -4.144  1.00  0.00    +0.000 C 
ATOM     36  C31 UNL A   1      23.379  24.330  -4.531  1.00  0.00    +0.000 C 
ATOM    146  H42 UNL A   1      26.612  23.530  -4.796  1.00  0.00    +0.000 H 
ATOM    147  H43 UNL A   1      24.839  23.665  -3.158  1.00  0.00    +0.000 H 
ATOM    158  H54 UNL A   1      22.218  25.117  -6.106  1.00  0.00    +0.000 H 
ATOM    159  H55 UNL A   1      23.957  24.863  -7.764  1.00  0.00    +0.000 H 
ATOM     94  C70 UNL A   1      23.136  24.728  -5.841  1.00  0.00    +0.000 C 
ATOM     95  C71 UNL A   1      24.142  24.594  -6.785  1.00  0.00    +0.000 C 
BRANCH   33   31
ATOM     31  C27 UNL A   1      26.353  23.901  -7.558  1.00  0.00    +0.000 C 
ATOM     32  O2  UNL A   1      27.089  22.912  -7.552  1.00  0.00    +0.000 O 
BRANCH   31   30
ATOM    145  H41 UNL A   1      26.072  24.445  -9.425  1.00  0.00    +0.000 H 
ATOM     30  N2  UNL A   1      26.512  24.761  -8.602  1.00  0.00    +0.000 N 
BRANCH   30   29
ATOM     29  C26 UNL A   1      27.176  26.032  -8.779  1.00  0.00    +0.000 C 
ATOM    143  H39 UNL A   1      27.783  26.224  -7.917  1.00  0.00    +0.000 H 
ATOM    144  H40 UNL A   1      27.764  25.968  -9.671  1.00  0.00    +0.000 H 
BRANCH   29   28
ATOM     28  C25 UNL A   1      26.199  27.195  -8.955  1.00  0.00    +0.000 C 
ATOM    141  H37 UNL A   1      26.588  27.855  -9.700  1.00  0.00    +0.000 H 
ATOM    142  H38 UNL A   1      25.256  26.775  -9.241  1.00  0.00    +0.000 H 
BRANCH   28   27
ATOM     27  C24 UNL A   1      25.968  27.995  -7.665  1.00  0.00    +0.000 C 
ATOM    140  H36 UNL A   1      26.070  29.028  -7.927  1.00  0.00    +0.000 H 
ATOM    139  H35 UNL A   1      26.685  27.672  -6.940  1.00  0.00    +0.000 H 
BRANCH   27   26
ATOM    137  H33 UNL A   1      24.339  26.794  -6.997  1.00  0.00    +0.000 H 
ATOM     26  C23 UNL A   1      24.567  27.837  -7.056  1.00  0.00    +0.000 C 
ATOM    138  H34 UNL A   1      24.588  28.304  -6.094  1.00  0.00    +0.000 H 
BRANCH   26   25
ATOM     25  C22 UNL A   1      23.476  28.524  -7.862  1.00  0.00    +0.000 C 
ATOM    135  H31 UNL A   1      23.224  29.452  -7.393  1.00  0.00    +0.000 H 
ATOM    136  H32 UNL A   1      23.836  28.697  -8.855  1.00  0.00    +0.000 H 
BRANCH   25   24
ATOM    133  H29 UNL A   1      22.445  26.729  -7.435  1.00  0.00    +0.000 H 
ATOM    134  H30 UNL A   1      21.439  28.174  -7.464  1.00  0.00    +0.000 H 
ATOM     24  C21 UNL A   1      22.246  27.655  -7.934  1.00  0.00    +0.000 C 
BRANCH   24   23
ATOM    132  H28 UNL A   1      21.667  28.161  -9.870  1.00  0.00    +0.000 H 
ATOM     23  N1  UNL A   1      21.873  27.378  -9.310  1.00  0.00    +0.000 N 
BRANCH   23   21
ATOM     21  C20 UNL A   1      21.774  26.149  -9.925  1.00  0.00    +0.000 C 
ATOM     22  O1  UNL A   1      22.078  25.174  -9.266  1.00  0.00    +0.000 O 
BRANCH   21   18
ATOM     18  C17 UNL A   1      21.551  26.135 -11.443  1.00  0.00    +0.000 C 
BRANCH   18   17
ATOM     17  C16 UNL A   1      21.927  24.871 -12.270  1.00  0.00    +0.000 C 
ATOM    124  H20 UNL A   1      21.780  24.017 -11.642  1.00  0.00    +0.000 H 
ATOM    125  H21 UNL A   1      21.299  24.904 -13.135  1.00  0.00    +0.000 H 
BRANCH   17   16
ATOM      4  C4  UNL A   1      27.558  25.940 -14.160  1.00  0.00    +0.000 C 
ATOM      5  C5  UNL A   1      27.854  25.326 -12.940  1.00  0.00    +0.000 C 
ATOM      6  C6  UNL A   1      26.859  24.740 -12.150  1.00  0.00    +0.000 C 
ATOM      7  C7  UNL A   1      25.528  24.787 -12.599  1.00  0.00    +0.000 C 
ATOM      8  C8  UNL A   1      25.190  25.325 -13.852  1.00  0.00    +0.000 C 
ATOM      9  C9  UNL A   1      26.232  25.895 -14.632  1.00  0.00    +0.000 C 
ATOM     10  C10 UNL A   1      23.762  25.200 -14.033  1.00  0.00    +0.000 C 
ATOM    112  H8  UNL A   1      28.833  25.306 -12.613  1.00  0.00    +0.000 H 
ATOM    113  H9  UNL A   1      27.097  24.281 -11.257  1.00  0.00    +0.000 H 
ATOM    114  H10 UNL A   1      26.013  26.283 -15.564  1.00  0.00    +0.000 H 
ATOM     16  C15 UNL A   1      23.292  24.808 -12.789  1.00  0.00    +0.000 C 
ATOM     96  N7  UNL A   1      24.349  24.373 -11.994  1.00  0.00    +0.000 N 
BRANCH    4    2
ATOM      2  C2  UNL A   1      28.671  26.630 -14.932  1.00  0.00    +0.000 C 
ATOM    108  H4  UNL A   1      29.060  27.388 -14.285  1.00  0.00    +0.000 H 
BRANCH    2    1
ATOM      1  C1  UNL A   1      29.788  25.645 -15.273  1.00  0.00    +0.000 C 
ATOM    106  H2  UNL A   1      29.578  25.178 -16.212  1.00  0.00    +0.000 H 
ATOM    107  H3  UNL A   1      29.850  24.898 -14.509  1.00  0.00    +0.000 H 
ATOM    105  H1  UNL A   1      30.719  26.169 -15.336  1.00  0.00    +0.000 H 
ENDBRANCH    2    1
BRANCH    2    3
ATOM      3  C3  UNL A   1      28.179  27.354 -16.192  1.00  0.00    +0.000 C 
ATOM    109  H5  UNL A   1      28.500  28.375 -16.164  1.00  0.00    +0.000 H 
ATOM    110  H6  UNL A   1      27.111  27.316 -16.230  1.00  0.00    +0.000 H 
ATOM    111  H7  UNL A   1      28.585  26.876 -17.059  1.00  0.00    +0.000 H 
ENDBRANCH    2    3
ENDBRANCH    4    2
BRANCH   10   11
ATOM     11  S1  UNL A   1      22.956  25.778 -15.522  1.00  0.00    +0.000 S 
ATOM     12  C11 UNL A   1      21.486  24.847 -16.238  1.00  0.00    +0.000 C 
ATOM     13  C12 UNL A   1      21.931  23.472 -16.748  1.00  0.00    +0.000 C 
ATOM     14  C13 UNL A   1      20.120  24.672 -15.528  1.00  0.00    +0.000 C 
ATOM     15  C14 UNL A   1      21.074  25.746 -17.438  1.00  0.00    +0.000 C 
ATOM    115  H11 UNL A   1      22.213  22.858 -15.918  1.00  0.00    +0.000 H 
ATOM    116  H12 UNL A   1      22.767  23.588 -17.406  1.00  0.00    +0.000 H 
ATOM    117  H13 UNL A   1      21.124  23.009 -17.277  1.00  0.00    +0.000 H 
ATOM    118  H14 UNL A   1      20.246  24.059 -14.659  1.00  0.00    +0.000 H 
ATOM    119  H15 UNL A   1      19.427  24.205 -16.196  1.00  0.00    +0.000 H 
ATOM    120  H16 UNL A   1      19.745  25.631 -15.237  1.00  0.00    +0.000 H 
ATOM    121  H17 UNL A   1      21.935  25.957 -18.038  1.00  0.00    +0.000 H 
ATOM    122  H18 UNL A   1      20.660  26.663 -17.073  1.00  0.00    +0.000 H 
ATOM    123  H19 UNL A   1      20.343  25.237 -18.032  1.00  0.00    +0.000 H 
ENDBRANCH   10   11
BRANCH   96   97
ATOM     97  C72 UNL A   1      24.281  23.450 -10.822  1.00  0.00    +0.000 C 
ATOM    161  H57 UNL A   1      25.194  23.634 -10.295  1.00  0.00    +0.000 H 
ATOM    160  H56 UNL A   1      23.376  23.674 -10.298  1.00  0.00    +0.000 H 
BRANCH   97   98
ATOM     98  C73 UNL A   1      24.296  21.945 -11.067  1.00  0.00    +0.000 C 
ATOM     99  C74 UNL A   1      25.481  21.190 -10.940  1.00  0.00    +0.000 C 
ATOM    100  C75 UNL A   1      25.559  19.869 -11.399  1.00  0.00    +0.000 C 
ATOM    162  H58 UNL A   1      26.308  21.620 -10.498  1.00  0.00    +0.000 H 
ATOM    165  H61 UNL A   1      22.224  21.743 -11.439  1.00  0.00    +0.000 H 
ATOM    103  C77 UNL A   1      23.193  19.907 -11.846  1.00  0.00    +0.000 C 
ATOM    104  C78 UNL A   1      23.133  21.254 -11.449  1.00  0.00    +0.000 C 
ATOM    163  H59 UNL A   1      26.459  19.365 -11.380  1.00  0.00    +0.000 H 
ATOM    164  H60 UNL A   1      22.329  19.410 -12.113  1.00  0.00    +0.000 H 
ATOM    101  C76 UNL A   1      24.417  19.242 -11.880  1.00  0.00    +0.000 C 
ATOM    102 Cl1  UNL A   1      24.532  17.661 -12.550  1.00  0.00    +0.000 Cl
ENDBRANCH   97   98
ENDBRANCH   96   97
ENDBRANCH   17   16
ENDBRANCH   18   17
BRANCH   18   19
ATOM     19  C18 UNL A   1      22.515  27.314 -11.762  1.00  0.00    +0.000 C 
ATOM    126  H22 UNL A   1      21.971  28.236 -11.737  1.00  0.00    +0.000 H 
ATOM    127  H23 UNL A   1      22.937  27.177 -12.736  1.00  0.00    +0.000 H 
ATOM    128  H24 UNL A   1      23.298  27.343 -11.034  1.00  0.00    +0.000 H 
ENDBRANCH   18   19
BRANCH   18   20
ATOM    129  H25 UNL A   1      19.498  26.290 -10.766  1.00  0.00    +0.000 H 
ATOM    130  H26 UNL A   1      19.693  25.321 -12.206  1.00  0.00    +0.000 H 
ATOM    131  H27 UNL A   1      19.791  27.062 -12.305  1.00  0.00    +0.000 H 
ATOM     20  C19 UNL A   1      20.012  26.208 -11.701  1.00  0.00    +0.000 C 
ENDBRANCH   18   20
ENDBRANCH   21   18
ENDBRANCH   23   21
ENDBRANCH   24   23
ENDBRANCH   25   24
ENDBRANCH   26   25
ENDBRANCH   27   26
ENDBRANCH   28   27
ENDBRANCH   29   28
ENDBRANCH   30   29
ENDBRANCH   31   30
ENDBRANCH   33   31
ENDBRANCH   37   36
BRANCH   41   42
ATOM     42  C36 UNL A   1      20.832  29.339  -0.467  1.00  0.00    +0.000 C 
ATOM     43  C37 UNL A   1      21.215  30.629  -0.881  1.00  0.00    +0.000 C 
ATOM     44  F1  UNL A   1      22.377  30.821  -1.525  1.00  0.00    +0.000 F 
ATOM     45  C38 UNL A   1      20.454  31.760  -0.569  1.00  0.00    +0.000 C 
ATOM     46  F2  UNL A   1      20.908  32.978  -0.892  1.00  0.00    +0.000 F 
ATOM     47  C39 UNL A   1      19.264  31.637   0.126  1.00  0.00    +0.000 C 
ATOM     48  F3  UNL A   1      18.558  32.723   0.466  1.00  0.00    +0.000 F 
ATOM     49  C40 UNL A   1      18.835  30.386   0.514  1.00  0.00    +0.000 C 
ATOM     50  F4  UNL A   1      17.702  30.250   1.217  1.00  0.00    +0.000 F 
ATOM     51  C41 UNL A   1      19.617  29.263   0.250  1.00  0.00    +0.000 C 
ATOM     52  F5  UNL A   1      19.200  28.125   0.818  1.00  0.00    +0.000 F 
ENDBRANCH   41   42
BRANCH   58   59
ATOM     65  F8  UNL A   1      23.372  19.331   2.938  1.00  0.00    +0.000 F 
ATOM     66  C51 UNL A   1      22.902  21.003   1.339  1.00  0.00    +0.000 C 
ATOM     67  F9  UNL A   1      23.528  20.293   0.391  1.00  0.00    +0.000 F 
ATOM     68  C52 UNL A   1      22.315  22.221   1.014  1.00  0.00    +0.000 C 
ATOM     69  F10 UNL A   1      22.404  22.660  -0.251  1.00  0.00    +0.000 F 
ATOM     59  C47 UNL A   1      21.598  22.962   1.965  1.00  0.00    +0.000 C 
ATOM     60  C48 UNL A   1      21.496  22.428   3.261  1.00  0.00    +0.000 C 
ATOM     61  F6  UNL A   1      20.753  23.034   4.198  1.00  0.00    +0.000 F 
ATOM     62  C49 UNL A   1      22.120  21.225   3.595  1.00  0.00    +0.000 C 
ATOM     63  F7  UNL A   1      22.021  20.740   4.841  1.00  0.00    +0.000 F 
ATOM     64  C50 UNL A   1      22.813  20.509   2.631  1.00  0.00    +0.000 C 
ENDBRANCH   58   59
BRANCH   73   74
ATOM     74  C56 UNL A   1      17.155  21.720  -2.351  1.00  0.00    +0.000 C 
ATOM     75  C57 UNL A   1      16.429  20.715  -1.687  1.00  0.00    +0.000 C 
ATOM     76  F11 UNL A   1      16.999  20.018  -0.693  1.00  0.00    +0.000 F 
ATOM     77  C58 UNL A   1      15.083  20.470  -1.975  1.00  0.00    +0.000 C 
ATOM     78  F12 UNL A   1      14.403  19.556  -1.268  1.00  0.00    +0.000 F 
ATOM     79  C59 UNL A   1      14.427  21.213  -2.943  1.00  0.00    +0.000 C 
ATOM     80  F13 UNL A   1      13.120  21.030  -3.169  1.00  0.00    +0.000 F 
ATOM     81  C60 UNL A   1      15.124  22.181  -3.643  1.00  0.00    +0.000 C 
ATOM     82  F14 UNL A   1      14.492  22.931  -4.557  1.00  0.00    +0.000 F 
ATOM     83  C61 UNL A   1      16.466  22.431  -3.352  1.00  0.00    +0.000 C 
ATOM     84  F15 UNL A   1      17.050  23.450  -3.998  1.00  0.00    +0.000 F 
ENDBRANCH   73   74
TORSDOF 25
ENDMDL
MODEL 6
REMARK VINA RESULT:      -7.4      3.292      8.852
ROOT
ATOM    148  H44 UNL A   1       7.392  13.481  41.774  1.00  0.00    +0.000 H 
ATOM    149  H45 UNL A   1       5.486  14.943  42.912  1.00  0.00    +0.000 H 
ATOM    150  H46 UNL A   1       5.216  15.319  38.876  1.00  0.00    +0.000 H 
ATOM    151  H47 UNL A   1      -1.936  11.990  40.054  1.00  0.00    +0.000 H 
ATOM    152  H48 UNL A   1      -0.379  10.219  41.017  1.00  0.00    +0.000 H 
ATOM    153  H49 UNL A   1       2.020  13.245  39.480  1.00  0.00    +0.000 H 
ATOM    154  H50 UNL A   1       1.430  14.990  36.790  1.00  0.00    +0.000 H 
ATOM    155  H51 UNL A   1       3.636  15.634  37.958  1.00  0.00    +0.000 H 
ATOM    156  H52 UNL A   1       6.196  10.195  37.765  1.00  0.00    +0.000 H 
ATOM    157  H53 UNL A   1       3.851   9.207  38.141  1.00  0.00    +0.000 H 
ATOM     37  C32 UNL A   1       2.374  10.569  40.191  1.00  0.00    +0.000 C 
ATOM     38  C33 UNL A   1       3.703  10.928  39.616  1.00  0.00    +0.000 C 
ATOM     39  N3  UNL A   1       4.509  11.866  39.998  1.00  0.00    +0.000 N 
ATOM     40  C34 UNL A   1       5.595  11.811  39.126  1.00  0.00    +0.000 C 
ATOM     41  C35 UNL A   1       6.397  12.891  38.920  1.00  0.00    +0.000 C 
ATOM     53  C42 UNL A   1       6.258  13.861  39.969  1.00  0.00    +0.000 C 
ATOM     54  C43 UNL A   1       6.584  13.921  41.307  1.00  0.00    +0.000 C 
ATOM     55  C44 UNL A   1       5.567  14.721  41.907  1.00  0.00    +0.000 C 
ATOM     56  C45 UNL A   1       4.699  15.152  40.903  1.00  0.00    +0.000 C 
ATOM     57  N4  UNL A   1       5.362  14.870  39.739  1.00  0.00    +0.000 N 
ATOM     58  C46 UNL A   1       3.338  15.641  40.934  1.00  0.00    +0.000 C 
ATOM     70  C53 UNL A   1       2.509  15.726  39.853  1.00  0.00    +0.000 C 
ATOM     71  N5  UNL A   1       1.135  15.685  40.022  1.00  0.00    +0.000 N 
ATOM     72  C54 UNL A   1       0.685  15.154  38.919  1.00  0.00    +0.000 C 
ATOM     73  C55 UNL A   1      -0.475  14.235  38.864  1.00  0.00    +0.000 C 
ATOM     85  C62 UNL A   1      -0.102  13.098  39.501  1.00  0.00    +0.000 C 
ATOM     86  C63 UNL A   1      -0.904  12.019  40.033  1.00  0.00    +0.000 C 
ATOM     87  C64 UNL A   1      -0.080  11.059  40.498  1.00  0.00    +0.000 C 
ATOM     88  C65 UNL A   1       1.305  11.391  40.154  1.00  0.00    +0.000 C 
ATOM     89  N6  UNL A   1       1.235  12.683  39.675  1.00  0.00    +0.000 N 
ATOM     90  C66 UNL A   1       1.599  15.180  37.791  1.00  0.00    +0.000 C 
ATOM     91  C67 UNL A   1       2.722  15.524  38.424  1.00  0.00    +0.000 C 
ATOM     92  C68 UNL A   1       5.466  10.590  38.378  1.00  0.00    +0.000 C 
ATOM     93  C69 UNL A   1       4.270  10.039  38.586  1.00  0.00    +0.000 C 
ENDROOT
BRANCH   37   36
ATOM     33  C28 UNL A   1       2.088   6.561  41.569  1.00  0.00    +0.000 C 
ATOM     34  C29 UNL A   1       2.257   6.845  40.213  1.00  0.00    +0.000 C 
ATOM     35  C30 UNL A   1       2.379   8.157  39.778  1.00  0.00    +0.000 C 
ATOM     36  C31 UNL A   1       2.293   9.203  40.697  1.00  0.00    +0.000 C 
ATOM    146  H42 UNL A   1       2.290   6.073  39.528  1.00  0.00    +0.000 H 
ATOM    147  H43 UNL A   1       2.534   8.358  38.777  1.00  0.00    +0.000 H 
ATOM    158  H54 UNL A   1       1.869   9.723  42.696  1.00  0.00    +0.000 H 
ATOM    159  H55 UNL A   1       1.749   7.435  43.463  1.00  0.00    +0.000 H 
ATOM     94  C70 UNL A   1       2.013   8.946  42.034  1.00  0.00    +0.000 C 
ATOM     95  C71 UNL A   1       1.930   7.631  42.466  1.00  0.00    +0.000 C 
BRANCH   33   31
ATOM     31  C27 UNL A   1       2.089   5.210  42.183  1.00  0.00    +0.000 C 
ATOM     32  O2  UNL A   1       1.628   5.072  43.319  1.00  0.00    +0.000 O 
BRANCH   31   30
ATOM    145  H41 UNL A   1       1.926   3.553  41.142  1.00  0.00    +0.000 H 
ATOM     30  N2  UNL A   1       2.608   4.091  41.606  1.00  0.00    +0.000 N 
BRANCH   30   29
ATOM     29  C26 UNL A   1       3.929   3.514  41.517  1.00  0.00    +0.000 C 
ATOM    143  H39 UNL A   1       4.541   3.938  42.287  1.00  0.00    +0.000 H 
ATOM    144  H40 UNL A   1       3.827   2.455  41.629  1.00  0.00    +0.000 H 
BRANCH   29   28
ATOM     28  C25 UNL A   1       4.600   3.770  40.166  1.00  0.00    +0.000 C 
ATOM    141  H37 UNL A   1       5.197   2.918  39.917  1.00  0.00    +0.000 H 
ATOM    142  H38 UNL A   1       3.820   3.938  39.453  1.00  0.00    +0.000 H 
BRANCH   28   27
ATOM     27  C24 UNL A   1       5.498   5.015  40.161  1.00  0.00    +0.000 C 
ATOM    140  H36 UNL A   1       6.351   4.775  40.762  1.00  0.00    +0.000 H 
ATOM    139  H35 UNL A   1       4.931   5.837  40.544  1.00  0.00    +0.000 H 
BRANCH   27   26
ATOM    137  H33 UNL A   1       7.106   5.366  38.807  1.00  0.00    +0.000 H 
ATOM     26  C23 UNL A   1       6.038   5.408  38.778  1.00  0.00    +0.000 C 
ATOM    138  H34 UNL A   1       5.623   4.721  38.071  1.00  0.00    +0.000 H 
BRANCH   26   25
ATOM     25  C22 UNL A   1       5.624   6.804  38.340  1.00  0.00    +0.000 C 
ATOM    135  H31 UNL A   1       4.744   7.094  38.876  1.00  0.00    +0.000 H 
ATOM    136  H32 UNL A   1       6.424   7.484  38.549  1.00  0.00    +0.000 H 
BRANCH   25   24
ATOM    133  H29 UNL A   1       5.098   7.832  36.571  1.00  0.00    +0.000 H 
ATOM    134  H30 UNL A   1       6.200   6.478  36.343  1.00  0.00    +0.000 H 
ATOM     24  C21 UNL A   1       5.335   6.830  36.861  1.00  0.00    +0.000 C 
BRANCH   24   23
ATOM    132  H28 UNL A   1       4.384   4.997  36.584  1.00  0.00    +0.000 H 
ATOM     23  N1  UNL A   1       4.217   5.965  36.525  1.00  0.00    +0.000 N 
BRANCH   23   21
ATOM     21  C20 UNL A   1       2.951   6.341  36.133  1.00  0.00    +0.000 C 
ATOM     22  O1  UNL A   1       2.731   7.532  36.036  1.00  0.00    +0.000 O 
BRANCH   21   18
ATOM     18  C17 UNL A   1       1.867   5.255  36.110  1.00  0.00    +0.000 C 
BRANCH   18   17
ATOM     17  C16 UNL A   1       0.377   5.651  35.898  1.00  0.00    +0.000 C 
ATOM    124  H20 UNL A   1       0.360   6.563  35.338  1.00  0.00    +0.000 H 
ATOM    125  H21 UNL A   1      -0.068   4.814  35.402  1.00  0.00    +0.000 H 
BRANCH   17   16
ATOM      4  C4  UNL A   1      -1.827   6.054  41.501  1.00  0.00    +0.000 C 
ATOM      5  C5  UNL A   1      -1.604   7.412  41.260  1.00  0.00    +0.000 C 
ATOM      6  C6  UNL A   1      -1.217   7.882  40.001  1.00  0.00    +0.000 C 
ATOM      7  C7  UNL A   1      -1.036   6.954  38.961  1.00  0.00    +0.000 C 
ATOM      8  C8  UNL A   1      -1.320   5.588  39.134  1.00  0.00    +0.000 C 
ATOM      9  C9  UNL A   1      -1.729   5.154  40.424  1.00  0.00    +0.000 C 
ATOM     10  C10 UNL A   1      -1.066   4.907  37.884  1.00  0.00    +0.000 C 
ATOM    112  H8  UNL A   1      -1.728   8.086  42.032  1.00  0.00    +0.000 H 
ATOM    113  H9  UNL A   1      -1.068   8.891  39.837  1.00  0.00    +0.000 H 
ATOM    114  H10 UNL A   1      -1.958   4.158  40.573  1.00  0.00    +0.000 H 
ATOM     16  C15 UNL A   1      -0.426   5.856  37.102  1.00  0.00    +0.000 C 
ATOM     96  N7  UNL A   1      -0.582   7.122  37.661  1.00  0.00    +0.000 N 
BRANCH    4    2
ATOM      2  C2  UNL A   1      -2.166   5.597  42.912  1.00  0.00    +0.000 C 
ATOM    108  H4  UNL A   1      -1.771   4.607  43.010  1.00  0.00    +0.000 H 
BRANCH    2    1
ATOM      1  C1  UNL A   1      -1.504   6.502  43.949  1.00  0.00    +0.000 C 
ATOM    106  H2  UNL A   1      -1.409   7.491  43.553  1.00  0.00    +0.000 H 
ATOM    107  H3  UNL A   1      -0.534   6.120  44.190  1.00  0.00    +0.000 H 
ATOM    105  H1  UNL A   1      -2.106   6.530  44.834  1.00  0.00    +0.000 H 
ENDBRANCH    2    1
BRANCH    2    3
ATOM      3  C3  UNL A   1      -3.674   5.485  43.168  1.00  0.00    +0.000 C 
ATOM    109  H5  UNL A   1      -4.101   4.786  42.479  1.00  0.00    +0.000 H 
ATOM    110  H6  UNL A   1      -4.130   6.443  43.033  1.00  0.00    +0.000 H 
ATOM    111  H7  UNL A   1      -3.841   5.147  44.169  1.00  0.00    +0.000 H 
ENDBRANCH    2    3
ENDBRANCH    4    2
BRANCH   10   11
ATOM     11  S1  UNL A   1      -1.318   3.144  37.715  1.00  0.00    +0.000 S 
ATOM     12  C11 UNL A   1      -1.921   2.415  36.089  1.00  0.00    +0.000 C 
ATOM     13  C12 UNL A   1      -3.357   2.871  35.807  1.00  0.00    +0.000 C 
ATOM     14  C13 UNL A   1      -1.136   2.465  34.754  1.00  0.00    +0.000 C 
ATOM     15  C14 UNL A   1      -1.900   0.888  36.380  1.00  0.00    +0.000 C 
ATOM    115  H11 UNL A   1      -3.364   3.923  35.608  1.00  0.00    +0.000 H 
ATOM    116  H12 UNL A   1      -3.970   2.665  36.659  1.00  0.00    +0.000 H 
ATOM    117  H13 UNL A   1      -3.739   2.344  34.958  1.00  0.00    +0.000 H 
ATOM    118  H14 UNL A   1      -1.065   3.479  34.419  1.00  0.00    +0.000 H 
ATOM    119  H15 UNL A   1      -1.646   1.880  34.018  1.00  0.00    +0.000 H 
ATOM    120  H16 UNL A   1      -0.153   2.069  34.905  1.00  0.00    +0.000 H 
ATOM    121  H17 UNL A   1      -2.419   0.692  37.295  1.00  0.00    +0.000 H 
ATOM    122  H18 UNL A   1      -0.887   0.554  36.465  1.00  0.00    +0.000 H 
ATOM    123  H19 UNL A   1      -2.381   0.365  35.579  1.00  0.00    +0.000 H 
ENDBRANCH   10   11
BRANCH   96   97
ATOM     97  C72 UNL A   1      -0.495   8.438  36.960  1.00  0.00    +0.000 C 
ATOM    161  H57 UNL A   1      -0.772   9.148  37.711  1.00  0.00    +0.000 H 
ATOM    160  H56 UNL A   1       0.497   8.520  36.569  1.00  0.00    +0.000 H 
BRANCH   97   98
ATOM     98  C73 UNL A   1      -1.454   8.726  35.810  1.00  0.00    +0.000 C 
ATOM     99  C74 UNL A   1      -1.069   9.523  34.712  1.00  0.00    +0.000 C 
ATOM    100  C75 UNL A   1      -2.007   9.996  33.786  1.00  0.00    +0.000 C 
ATOM    162  H58 UNL A   1      -0.073   9.763  34.588  1.00  0.00    +0.000 H 
ATOM    165  H61 UNL A   1      -3.053   7.545  36.531  1.00  0.00    +0.000 H 
ATOM    103  C77 UNL A   1      -3.697   8.644  34.841  1.00  0.00    +0.000 C 
ATOM    104  C78 UNL A   1      -2.768   8.227  35.810  1.00  0.00    +0.000 C 
ATOM    163  H59 UNL A   1      -1.719  10.651  33.043  1.00  0.00    +0.000 H 
ATOM    164  H60 UNL A   1      -4.655   8.259  34.847  1.00  0.00    +0.000 H 
ATOM    101  C76 UNL A   1      -3.328   9.575  33.874  1.00  0.00    +0.000 C 
ATOM    102 Cl1  UNL A   1      -4.506  10.240  32.810  1.00  0.00    +0.000 Cl
ENDBRANCH   97   98
ENDBRANCH   96   97
ENDBRANCH   17   16
ENDBRANCH   18   17
BRANCH   18   19
ATOM     19  C18 UNL A   1       2.107   4.753  37.563  1.00  0.00    +0.000 C 
ATOM    126  H22 UNL A   1       3.155   4.595  37.718  1.00  0.00    +0.000 H 
ATOM    127  H23 UNL A   1       1.583   3.832  37.714  1.00  0.00    +0.000 H 
ATOM    128  H24 UNL A   1       1.750   5.484  38.257  1.00  0.00    +0.000 H 
ENDBRANCH   18   19
BRANCH   18   20
ATOM    129  H25 UNL A   1       1.350   4.543  34.129  1.00  0.00    +0.000 H 
ATOM    130  H26 UNL A   1       2.092   3.328  35.142  1.00  0.00    +0.000 H 
ATOM    131  H27 UNL A   1       3.070   4.590  34.433  1.00  0.00    +0.000 H 
ATOM     20  C19 UNL A   1       2.115   4.358  34.855  1.00  0.00    +0.000 C 
ENDBRANCH   18   20
ENDBRANCH   21   18
ENDBRANCH   23   21
ENDBRANCH   24   23
ENDBRANCH   25   24
ENDBRANCH   26   25
ENDBRANCH   27   26
ENDBRANCH   28   27
ENDBRANCH   29   28
ENDBRANCH   30   29
ENDBRANCH   31   30
ENDBRANCH   33   31
ENDBRANCH   37   36
BRANCH   41   42
ATOM     42  C36 UNL A   1       6.981  13.250  37.575  1.00  0.00    +0.000 C 
ATOM     43  C37 UNL A   1       8.307  13.715  37.487  1.00  0.00    +0.000 C 
ATOM     44  F1  UNL A   1       9.131  13.630  38.543  1.00  0.00    +0.000 F 
ATOM     45  C38 UNL A   1       8.789  14.354  36.340  1.00  0.00    +0.000 C 
ATOM     46  F2  UNL A   1      10.024  14.874  36.336  1.00  0.00    +0.000 F 
ATOM     47  C39 UNL A   1       7.980  14.509  35.228  1.00  0.00    +0.000 C 
ATOM     48  F3  UNL A   1       8.425  15.162  34.147  1.00  0.00    +0.000 F 
ATOM     49  C40 UNL A   1       6.688  14.032  35.262  1.00  0.00    +0.000 C 
ATOM     50  F4  UNL A   1       5.877  14.201  34.208  1.00  0.00    +0.000 F 
ATOM     51  C41 UNL A   1       6.189  13.441  36.422  1.00  0.00    +0.000 C 
ATOM     52  F5  UNL A   1       4.878  13.170  36.411  1.00  0.00    +0.000 F 
ENDBRANCH   41   42
BRANCH   58   59
ATOM     65  F8  UNL A   1       0.707  16.331  45.891  1.00  0.00    +0.000 F 
ATOM     66  C51 UNL A   1       1.474  14.933  44.150  1.00  0.00    +0.000 C 
ATOM     67  F9  UNL A   1       0.886  13.874  44.722  1.00  0.00    +0.000 F 
ATOM     68  C52 UNL A   1       2.158  14.777  42.949  1.00  0.00    +0.000 C 
ATOM     69  F10 UNL A   1       2.219  13.556  42.398  1.00  0.00    +0.000 F 
ATOM     59  C47 UNL A   1       2.732  15.874  42.290  1.00  0.00    +0.000 C 
ATOM     60  C48 UNL A   1       2.594  17.137  42.890  1.00  0.00    +0.000 C 
ATOM     61  F6  UNL A   1       3.038  18.243  42.276  1.00  0.00    +0.000 F 
ATOM     62  C49 UNL A   1       1.942  17.284  44.115  1.00  0.00    +0.000 C 
ATOM     63  F7  UNL A   1       1.831  18.497  44.677  1.00  0.00    +0.000 F 
ATOM     64  C50 UNL A   1       1.374  16.183  44.738  1.00  0.00    +0.000 C 
ENDBRANCH   58   59
BRANCH   73   74
ATOM     74  C56 UNL A   1      -1.597  14.441  37.918  1.00  0.00    +0.000 C 
ATOM     75  C57 UNL A   1      -1.707  13.660  36.753  1.00  0.00    +0.000 C 
ATOM     76  F11 UNL A   1      -0.677  12.901  36.352  1.00  0.00    +0.000 F 
ATOM     77  C58 UNL A   1      -2.902  13.582  36.032  1.00  0.00    +0.000 C 
ATOM     78  F12 UNL A   1      -2.992  12.768  34.971  1.00  0.00    +0.000 F 
ATOM     79  C59 UNL A   1      -4.018  14.291  36.447  1.00  0.00    +0.000 C 
ATOM     80  F13 UNL A   1      -5.183  14.161  35.800  1.00  0.00    +0.000 F 
ATOM     81  C60 UNL A   1      -3.930  15.101  37.565  1.00  0.00    +0.000 C 
ATOM     82  F14 UNL A   1      -5.012  15.764  37.997  1.00  0.00    +0.000 F 
ATOM     83  C61 UNL A   1      -2.739  15.175  38.288  1.00  0.00    +0.000 C 
ATOM     84  F15 UNL A   1      -2.756  15.900  39.417  1.00  0.00    +0.000 F 
ENDBRANCH   73   74
TORSDOF 25
ENDMDL
MODEL 7
REMARK VINA RESULT:      -7.4     26.355     32.169
ROOT
ATOM    148  H44 UNL A   1      22.735  30.951  46.293  1.00  0.00    +0.000 H 
ATOM    149  H45 UNL A   1      25.032  31.982  45.442  1.00  0.00    +0.000 H 
ATOM    150  H46 UNL A   1      22.044  34.645  44.748  1.00  0.00    +0.000 H 
ATOM    151  H47 UNL A   1      26.273  39.171  49.772  1.00  0.00    +0.000 H 
ATOM    152  H48 UNL A   1      25.781  37.126  51.210  1.00  0.00    +0.000 H 
ATOM    153  H49 UNL A   1      23.868  36.542  47.568  1.00  0.00    +0.000 H 
ATOM    154  H50 UNL A   1      22.432  38.842  45.758  1.00  0.00    +0.000 H 
ATOM    155  H51 UNL A   1      22.266  36.485  44.727  1.00  0.00    +0.000 H 
ATOM    156  H52 UNL A   1      19.489  33.841  49.361  1.00  0.00    +0.000 H 
ATOM    157  H53 UNL A   1      20.891  35.345  50.908  1.00  0.00    +0.000 H 
ATOM     37  C32 UNL A   1      23.653  35.481  50.141  1.00  0.00    +0.000 C 
ATOM     38  C33 UNL A   1      22.526  34.816  49.423  1.00  0.00    +0.000 C 
ATOM     39  N3  UNL A   1      22.583  34.076  48.363  1.00  0.00    +0.000 N 
ATOM     40  C34 UNL A   1      21.266  33.726  48.074  1.00  0.00    +0.000 C 
ATOM     41  C35 UNL A   1      20.887  33.357  46.820  1.00  0.00    +0.000 C 
ATOM     53  C42 UNL A   1      22.014  32.973  46.017  1.00  0.00    +0.000 C 
ATOM     54  C43 UNL A   1      22.912  31.928  46.013  1.00  0.00    +0.000 C 
ATOM     55  C44 UNL A   1      24.136  32.485  45.539  1.00  0.00    +0.000 C 
ATOM     56  C45 UNL A   1      23.916  33.828  45.230  1.00  0.00    +0.000 C 
ATOM     57  N4  UNL A   1      22.553  33.956  45.232  1.00  0.00    +0.000 N 
ATOM     58  C46 UNL A   1      24.810  34.954  45.082  1.00  0.00    +0.000 C 
ATOM     70  C53 UNL A   1      24.432  36.265  45.090  1.00  0.00    +0.000 C 
ATOM     71  N5  UNL A   1      25.329  37.249  45.471  1.00  0.00    +0.000 N 
ATOM     72  C54 UNL A   1      24.585  38.190  45.983  1.00  0.00    +0.000 C 
ATOM     73  C55 UNL A   1      24.992  39.020  47.141  1.00  0.00    +0.000 C 
ATOM     85  C62 UNL A   1      25.043  38.193  48.214  1.00  0.00    +0.000 C 
ATOM     86  C63 UNL A   1      25.684  38.369  49.498  1.00  0.00    +0.000 C 
ATOM     87  C64 UNL A   1      25.383  37.310  50.276  1.00  0.00    +0.000 C 
ATOM     88  C65 UNL A   1      24.403  36.461  49.595  1.00  0.00    +0.000 C 
ATOM     89  N6  UNL A   1      24.342  36.973  48.316  1.00  0.00    +0.000 N 
ATOM     90  C66 UNL A   1      23.177  38.139  45.631  1.00  0.00    +0.000 C 
ATOM     91  C67 UNL A   1      23.128  36.918  45.096  1.00  0.00    +0.000 C 
ATOM     92  C68 UNL A   1      20.475  34.109  49.212  1.00  0.00    +0.000 C 
ATOM     93  C69 UNL A   1      21.192  34.860  50.048  1.00  0.00    +0.000 C 
ENDROOT
BRANCH   37   36
ATOM     33  C28 UNL A   1      24.170  34.182  54.152  1.00  0.00    +0.000 C 
ATOM     34  C29 UNL A   1      25.232  34.162  53.247  1.00  0.00    +0.000 C 
ATOM     35  C30 UNL A   1      25.060  34.618  51.948  1.00  0.00    +0.000 C 
ATOM     36  C31 UNL A   1      23.804  35.061  51.529  1.00  0.00    +0.000 C 
ATOM    146  H42 UNL A   1      26.154  33.806  53.547  1.00  0.00    +0.000 H 
ATOM    147  H43 UNL A   1      25.857  34.629  51.293  1.00  0.00    +0.000 H 
ATOM    158  H54 UNL A   1      21.766  35.233  52.045  1.00  0.00    +0.000 H 
ATOM    159  H55 UNL A   1      22.092  34.526  54.332  1.00  0.00    +0.000 H 
ATOM     94  C70 UNL A   1      22.708  34.981  52.381  1.00  0.00    +0.000 C 
ATOM     95  C71 UNL A   1      22.898  34.561  53.689  1.00  0.00    +0.000 C 
BRANCH   33   31
ATOM     31  C27 UNL A   1      24.251  33.863  55.599  1.00  0.00    +0.000 C 
ATOM     32  O2  UNL A   1      23.916  34.722  56.418  1.00  0.00    +0.000 O 
BRANCH   31   30
ATOM    145  H41 UNL A   1      23.993  32.098  56.421  1.00  0.00    +0.000 H 
ATOM     30  N2  UNL A   1      24.716  32.691  56.114  1.00  0.00    +0.000 N 
BRANCH   30   29
ATOM     29  C26 UNL A   1      26.028  32.119  56.312  1.00  0.00    +0.000 C 
ATOM    143  H39 UNL A   1      26.755  32.769  55.870  1.00  0.00    +0.000 H 
ATOM    144  H40 UNL A   1      26.178  32.014  57.366  1.00  0.00    +0.000 H 
BRANCH   29   28
ATOM     28  C25 UNL A   1      26.171  30.730  55.687  1.00  0.00    +0.000 C 
ATOM    141  H37 UNL A   1      27.150  30.359  55.907  1.00  0.00    +0.000 H 
ATOM    142  H38 UNL A   1      25.403  30.114  56.105  1.00  0.00    +0.000 H 
BRANCH   28   27
ATOM     27  C24 UNL A   1      25.978  30.728  54.164  1.00  0.00    +0.000 C 
ATOM    140  H36 UNL A   1      26.914  30.426  53.741  1.00  0.00    +0.000 H 
ATOM    139  H35 UNL A   1      25.678  31.710  53.864  1.00  0.00    +0.000 H 
BRANCH   27   26
ATOM    137  H33 UNL A   1      24.198  29.584  54.421  1.00  0.00    +0.000 H 
ATOM     26  C23 UNL A   1      24.929  29.729  53.653  1.00  0.00    +0.000 C 
ATOM    138  H34 UNL A   1      24.506  30.145  52.763  1.00  0.00    +0.000 H 
BRANCH   26   25
ATOM     25  C22 UNL A   1      25.511  28.376  53.281  1.00  0.00    +0.000 C 
ATOM    135  H31 UNL A   1      25.717  27.824  54.174  1.00  0.00    +0.000 H 
ATOM    136  H32 UNL A   1      24.803  27.848  52.677  1.00  0.00    +0.000 H 
BRANCH   25   24
ATOM    133  H29 UNL A   1      26.680  28.066  51.548  1.00  0.00    +0.000 H 
ATOM    134  H30 UNL A   1      26.970  29.593  52.376  1.00  0.00    +0.000 H 
ATOM     24  C21 UNL A   1      26.788  28.547  52.498  1.00  0.00    +0.000 C 
BRANCH   24   23
ATOM    132  H28 UNL A   1      28.388  28.552  53.832  1.00  0.00    +0.000 H 
ATOM     23  N1  UNL A   1      27.920  27.964  53.197  1.00  0.00    +0.000 N 
BRANCH   23   21
ATOM     21  C20 UNL A   1      28.416  26.685  53.075  1.00  0.00    +0.000 C 
ATOM     22  O1  UNL A   1      27.841  25.938  52.308  1.00  0.00    +0.000 O 
BRANCH   21   18
ATOM     18  C17 UNL A   1      29.468  26.235  54.097  1.00  0.00    +0.000 C 
BRANCH   18   17
ATOM     17  C16 UNL A   1      29.028  25.457  55.372  1.00  0.00    +0.000 C 
ATOM    124  H20 UNL A   1      29.140  24.413  55.169  1.00  0.00    +0.000 H 
ATOM    125  H21 UNL A   1      29.653  25.830  56.157  1.00  0.00    +0.000 H 
BRANCH   17   16
ATOM      4  C4  UNL A   1      23.383  27.346  56.359  1.00  0.00    +0.000 C 
ATOM      5  C5  UNL A   1      23.096  26.177  55.648  1.00  0.00    +0.000 C 
ATOM      6  C6  UNL A   1      24.098  25.265  55.298  1.00  0.00    +0.000 C 
ATOM      7  C7  UNL A   1      25.425  25.548  55.664  1.00  0.00    +0.000 C 
ATOM      8  C8  UNL A   1      25.752  26.671  56.444  1.00  0.00    +0.000 C 
ATOM      9  C9  UNL A   1      24.704  27.564  56.794  1.00  0.00    +0.000 C 
ATOM     10  C10 UNL A   1      27.179  26.666  56.676  1.00  0.00    +0.000 C 
ATOM    112  H8  UNL A   1      22.121  25.983  55.373  1.00  0.00    +0.000 H 
ATOM    113  H9  UNL A   1      23.867  24.401  54.783  1.00  0.00    +0.000 H 
ATOM    114  H10 UNL A   1      24.915  28.388  57.378  1.00  0.00    +0.000 H 
ATOM     16  C15 UNL A   1      27.659  25.674  55.833  1.00  0.00    +0.000 C 
ATOM     96  N7  UNL A   1      26.609  24.880  55.382  1.00  0.00    +0.000 N 
BRANCH    4    2
ATOM      2  C2  UNL A   1      22.263  28.337  56.637  1.00  0.00    +0.000 C 
ATOM    108  H4  UNL A   1      21.689  28.402  55.736  1.00  0.00    +0.000 H 
BRANCH    2    1
ATOM      1  C1  UNL A   1      21.363  27.837  57.765  1.00  0.00    +0.000 C 
ATOM    106  H2  UNL A   1      20.339  27.917  57.468  1.00  0.00    +0.000 H 
ATOM    107  H3  UNL A   1      21.527  28.430  58.641  1.00  0.00    +0.000 H 
ATOM    105  H1  UNL A   1      21.593  26.814  57.979  1.00  0.00    +0.000 H 
ENDBRANCH    2    1
BRANCH    2    3
ATOM      3  C3  UNL A   1      22.766  29.756  56.928  1.00  0.00    +0.000 C 
ATOM    109  H5  UNL A   1      23.401  29.740  57.789  1.00  0.00    +0.000 H 
ATOM    110  H6  UNL A   1      21.932  30.400  57.111  1.00  0.00    +0.000 H 
ATOM    111  H7  UNL A   1      23.318  30.118  56.085  1.00  0.00    +0.000 H 
ENDBRANCH    2    3
ENDBRANCH    4    2
BRANCH   10   11
ATOM     11  S1  UNL A   1      27.972  27.949  57.637  1.00  0.00    +0.000 S 
ATOM     12  C11 UNL A   1      27.906  27.916  59.517  1.00  0.00    +0.000 C 
ATOM     13  C12 UNL A   1      26.467  28.138  59.998  1.00  0.00    +0.000 C 
ATOM     14  C13 UNL A   1      28.539  26.815  60.404  1.00  0.00    +0.000 C 
ATOM     15  C14 UNL A   1      28.785  29.139  59.903  1.00  0.00    +0.000 C 
ATOM    115  H11 UNL A   1      25.868  27.293  59.729  1.00  0.00    +0.000 H 
ATOM    116  H12 UNL A   1      26.070  29.019  59.538  1.00  0.00    +0.000 H 
ATOM    117  H13 UNL A   1      26.461  28.257  61.061  1.00  0.00    +0.000 H 
ATOM    118  H14 UNL A   1      28.027  25.889  60.244  1.00  0.00    +0.000 H 
ATOM    119  H15 UNL A   1      28.458  27.095  61.434  1.00  0.00    +0.000 H 
ATOM    120  H16 UNL A   1      29.572  26.700  60.146  1.00  0.00    +0.000 H 
ATOM    121  H17 UNL A   1      28.458  30.000  59.358  1.00  0.00    +0.000 H 
ATOM    122  H18 UNL A   1      29.808  28.933  59.666  1.00  0.00    +0.000 H 
ATOM    123  H19 UNL A   1      28.694  29.327  60.953  1.00  0.00    +0.000 H 
ENDBRANCH   10   11
BRANCH   96   97
ATOM     97  C72 UNL A   1      26.686  23.476  54.879  1.00  0.00    +0.000 C 
ATOM    161  H57 UNL A   1      25.828  23.380  54.248  1.00  0.00    +0.000 H 
ATOM    160  H56 UNL A   1      27.640  23.363  54.409  1.00  0.00    +0.000 H 
BRANCH   97   98
ATOM     98  C73 UNL A   1      26.540  22.328  55.873  1.00  0.00    +0.000 C 
ATOM     99  C74 UNL A   1      25.272  21.841  56.254  1.00  0.00    +0.000 C 
ATOM    100  C75 UNL A   1      25.119  20.969  57.339  1.00  0.00    +0.000 C 
ATOM    162  H58 UNL A   1      24.439  22.134  55.721  1.00  0.00    +0.000 H 
ATOM    165  H61 UNL A   1      28.607  21.967  56.128  1.00  0.00    +0.000 H 
ATOM    103  C77 UNL A   1      27.514  20.794  57.508  1.00  0.00    +0.000 C 
ATOM    104  C78 UNL A   1      27.662  21.725  56.465  1.00  0.00    +0.000 C 
ATOM    163  H59 UNL A   1      24.176  20.696  57.657  1.00  0.00    +0.000 H 
ATOM    164  H60 UNL A   1      28.348  20.351  57.925  1.00  0.00    +0.000 H 
ATOM    101  C76 UNL A   1      26.245  20.472  57.982  1.00  0.00    +0.000 C 
ATOM    102 Cl1  UNL A   1      26.061  19.491  59.384  1.00  0.00    +0.000 Cl
ENDBRANCH   97   98
ENDBRANCH   96   97
ENDBRANCH   17   16
ENDBRANCH   18   17
BRANCH   18   19
ATOM     19  C18 UNL A   1      29.964  27.664  54.462  1.00  0.00    +0.000 C 
ATOM    126  H22 UNL A   1      29.382  28.048  55.274  1.00  0.00    +0.000 H 
ATOM    127  H23 UNL A   1      29.857  28.307  53.612  1.00  0.00    +0.000 H 
ATOM    128  H24 UNL A   1      30.993  27.623  54.750  1.00  0.00    +0.000 H 
ENDBRANCH   18   19
BRANCH   18   20
ATOM    129  H25 UNL A   1      30.817  25.598  52.524  1.00  0.00    +0.000 H 
ATOM    130  H26 UNL A   1      29.799  24.318  53.140  1.00  0.00    +0.000 H 
ATOM    131  H27 UNL A   1      31.160  24.880  54.079  1.00  0.00    +0.000 H 
ATOM     20  C19 UNL A   1      30.383  25.174  53.406  1.00  0.00    +0.000 C 
ENDBRANCH   18   20
ENDBRANCH   21   18
ENDBRANCH   23   21
ENDBRANCH   24   23
ENDBRANCH   25   24
ENDBRANCH   26   25
ENDBRANCH   27   26
ENDBRANCH   28   27
ENDBRANCH   29   28
ENDBRANCH   30   29
ENDBRANCH   31   30
ENDBRANCH   33   31
ENDBRANCH   37   36
BRANCH   41   42
ATOM     42  C36 UNL A   1      19.564  33.741  46.204  1.00  0.00    +0.000 C 
ATOM     43  C37 UNL A   1      18.827  32.789  45.472  1.00  0.00    +0.000 C 
ATOM     44  F1  UNL A   1      19.168  31.491  45.504  1.00  0.00    +0.000 F 
ATOM     45  C38 UNL A   1      17.778  33.162  44.625  1.00  0.00    +0.000 C 
ATOM     46  F2  UNL A   1      17.172  32.237  43.868  1.00  0.00    +0.000 F 
ATOM     47  C39 UNL A   1      17.399  34.488  44.516  1.00  0.00    +0.000 C 
ATOM     48  F3  UNL A   1      16.426  34.851  43.671  1.00  0.00    +0.000 F 
ATOM     49  C40 UNL A   1      18.070  35.444  45.247  1.00  0.00    +0.000 C 
ATOM     50  F4  UNL A   1      17.740  36.738  45.131  1.00  0.00    +0.000 F 
ATOM     51  C41 UNL A   1      19.149  35.082  46.052  1.00  0.00    +0.000 C 
ATOM     52  F5  UNL A   1      19.839  36.100  46.580  1.00  0.00    +0.000 F 
ENDBRANCH   41   42
BRANCH   58   59
ATOM     65  F8  UNL A   1      30.276  33.505  45.039  1.00  0.00    +0.000 F 
ATOM     66  C51 UNL A   1      28.280  34.024  43.890  1.00  0.00    +0.000 C 
ATOM     67  F9  UNL A   1      28.865  33.743  42.718  1.00  0.00    +0.000 F 
ATOM     68  C52 UNL A   1      26.947  34.419  43.919  1.00  0.00    +0.000 C 
ATOM     69  F10 UNL A   1      26.280  34.517  42.759  1.00  0.00    +0.000 F 
ATOM     59  C47 UNL A   1      26.284  34.660  45.132  1.00  0.00    +0.000 C 
ATOM     60  C48 UNL A   1      27.020  34.493  46.318  1.00  0.00    +0.000 C 
ATOM     61  F6  UNL A   1      26.431  34.620  47.515  1.00  0.00    +0.000 F 
ATOM     62  C49 UNL A   1      28.369  34.137  46.284  1.00  0.00    +0.000 C 
ATOM     63  F7  UNL A   1      29.055  33.994  47.427  1.00  0.00    +0.000 F 
ATOM     64  C50 UNL A   1      28.994  33.893  45.070  1.00  0.00    +0.000 C 
ENDBRANCH   58   59
BRANCH   73   74
ATOM     74  C56 UNL A   1      24.911  40.499  47.114  1.00  0.00    +0.000 C 
ATOM     75  C57 UNL A   1      23.860  41.173  47.762  1.00  0.00    +0.000 C 
ATOM     76  F11 UNL A   1      22.788  40.492  48.191  1.00  0.00    +0.000 F 
ATOM     77  C58 UNL A   1      23.932  42.539  48.052  1.00  0.00    +0.000 C 
ATOM     78  F12 UNL A   1      22.945  43.130  48.739  1.00  0.00    +0.000 F 
ATOM     79  C59 UNL A   1      25.051  43.273  47.694  1.00  0.00    +0.000 C 
ATOM     80  F13 UNL A   1      25.154  44.563  48.036  1.00  0.00    +0.000 F 
ATOM     81  C60 UNL A   1      26.085  42.649  47.019  1.00  0.00    +0.000 C 
ATOM     82  F14 UNL A   1      27.188  43.339  46.698  1.00  0.00    +0.000 F 
ATOM     83  C61 UNL A   1      26.016  41.284  46.733  1.00  0.00    +0.000 C 
ATOM     84  F15 UNL A   1      27.095  40.725  46.167  1.00  0.00    +0.000 F 
ENDBRANCH   73   74
TORSDOF 25
ENDMDL
MODEL 8
REMARK VINA RESULT:      -7.3     29.782     35.473
ROOT
ATOM    148  H44 UNL A   1      19.405  37.322  44.200  1.00  0.00    +0.000 H 
ATOM    149  H45 UNL A   1      18.483  38.527  46.381  1.00  0.00    +0.000 H 
ATOM    150  H46 UNL A   1      19.553  34.721  47.318  1.00  0.00    +0.000 H 
ATOM    151  H47 UNL A   1      24.752  38.430  52.097  1.00  0.00    +0.000 H 
ATOM    152  H48 UNL A   1      25.399  39.357  49.814  1.00  0.00    +0.000 H 
ATOM    153  H49 UNL A   1      22.361  36.591  49.189  1.00  0.00    +0.000 H 
ATOM    154  H50 UNL A   1      21.929  33.805  50.826  1.00  0.00    +0.000 H 
ATOM    155  H51 UNL A   1      20.166  34.187  48.985  1.00  0.00    +0.000 H 
ATOM    156  H52 UNL A   1      23.998  34.643  44.371  1.00  0.00    +0.000 H 
ATOM    157  H53 UNL A   1      25.616  35.826  45.984  1.00  0.00    +0.000 H 
ATOM     37  C32 UNL A   1      24.328  37.801  47.620  1.00  0.00    +0.000 C 
ATOM     38  C33 UNL A   1      23.702  36.839  46.667  1.00  0.00    +0.000 C 
ATOM     39  N3  UNL A   1      22.461  36.771  46.304  1.00  0.00    +0.000 N 
ATOM     40  C34 UNL A   1      22.381  35.690  45.428  1.00  0.00    +0.000 C 
ATOM     41  C35 UNL A   1      21.207  35.037  45.208  1.00  0.00    +0.000 C 
ATOM     53  C42 UNL A   1      20.079  35.827  45.613  1.00  0.00    +0.000 C 
ATOM     54  C43 UNL A   1      19.475  36.985  45.172  1.00  0.00    +0.000 C 
ATOM     55  C44 UNL A   1      18.968  37.617  46.346  1.00  0.00    +0.000 C 
ATOM     56  C45 UNL A   1      19.242  36.793  47.439  1.00  0.00    +0.000 C 
ATOM     57  N4  UNL A   1      19.612  35.601  46.880  1.00  0.00    +0.000 N 
ATOM     58  C46 UNL A   1      19.316  37.052  48.860  1.00  0.00    +0.000 C 
ATOM     70  C53 UNL A   1      19.900  36.229  49.779  1.00  0.00    +0.000 C 
ATOM     71  N5  UNL A   1      20.397  36.746  50.964  1.00  0.00    +0.000 N 
ATOM     72  C54 UNL A   1      21.381  35.951  51.280  1.00  0.00    +0.000 C 
ATOM     73  C55 UNL A   1      22.634  36.412  51.924  1.00  0.00    +0.000 C 
ATOM     85  C62 UNL A   1      23.278  37.184  51.015  1.00  0.00    +0.000 C 
ATOM     86  C63 UNL A   1      24.346  38.142  51.192  1.00  0.00    +0.000 C 
ATOM     87  C64 UNL A   1      24.722  38.596  49.980  1.00  0.00    +0.000 C 
ATOM     88  C65 UNL A   1      24.025  37.843  48.935  1.00  0.00    +0.000 C 
ATOM     89  N6  UNL A   1      23.081  37.106  49.620  1.00  0.00    +0.000 N 
ATOM     90  C66 UNL A   1      21.378  34.655  50.626  1.00  0.00    +0.000 C 
ATOM     91  C67 UNL A   1      20.455  34.883  49.690  1.00  0.00    +0.000 C 
ATOM     92  C68 UNL A   1      23.732  35.310  45.112  1.00  0.00    +0.000 C 
ATOM     93  C69 UNL A   1      24.593  35.940  45.912  1.00  0.00    +0.000 C 
ENDROOT
BRANCH   37   36
ATOM     33  C28 UNL A   1      27.459  40.174  46.007  1.00  0.00    +0.000 C 
ATOM     34  C29 UNL A   1      27.730  39.144  46.908  1.00  0.00    +0.000 C 
ATOM     35  C30 UNL A   1      26.701  38.355  47.406  1.00  0.00    +0.000 C 
ATOM     36  C31 UNL A   1      25.383  38.619  47.033  1.00  0.00    +0.000 C 
ATOM    146  H42 UNL A   1      28.702  38.967  47.209  1.00  0.00    +0.000 H 
ATOM    147  H43 UNL A   1      26.912  37.576  48.049  1.00  0.00    +0.000 H 
ATOM    158  H54 UNL A   1      24.102  39.953  46.019  1.00  0.00    +0.000 H 
ATOM    159  H55 UNL A   1      25.902  41.265  45.083  1.00  0.00    +0.000 H 
ATOM     94  C70 UNL A   1      25.083  39.711  46.227  1.00  0.00    +0.000 C 
ATOM     95  C71 UNL A   1      26.119  40.470  45.704  1.00  0.00    +0.000 C 
BRANCH   33   31
ATOM     31  C27 UNL A   1      28.469  40.993  45.292  1.00  0.00    +0.000 C 
ATOM     32  O2  UNL A   1      28.400  41.086  44.064  1.00  0.00    +0.000 O 
BRANCH   31   30
ATOM    145  H41 UNL A   1      30.362  41.136  45.796  1.00  0.00    +0.000 H 
ATOM     30  N2  UNL A   1      29.516  41.632  45.884  1.00  0.00    +0.000 N 
BRANCH   30   29
ATOM     29  C26 UNL A   1      29.670  42.871  46.611  1.00  0.00    +0.000 C 
ATOM    143  H39 UNL A   1      29.979  42.646  47.610  1.00  0.00    +0.000 H 
ATOM    144  H40 UNL A   1      30.398  43.461  46.093  1.00  0.00    +0.000 H 
BRANCH   29   28
ATOM     28  C25 UNL A   1      28.378  43.688  46.672  1.00  0.00    +0.000 C 
ATOM    141  H37 UNL A   1      28.609  44.707  46.443  1.00  0.00    +0.000 H 
ATOM    142  H38 UNL A   1      27.699  43.260  45.964  1.00  0.00    +0.000 H 
BRANCH   28   27
ATOM     27  C24 UNL A   1      27.693  43.639  48.046  1.00  0.00    +0.000 C 
ATOM    140  H36 UNL A   1      27.636  44.650  48.392  1.00  0.00    +0.000 H 
ATOM    139  H35 UNL A   1      28.274  43.007  48.685  1.00  0.00    +0.000 H 
BRANCH   27   26
ATOM    137  H33 UNL A   1      25.591  43.908  48.267  1.00  0.00    +0.000 H 
ATOM     26  C23 UNL A   1      26.253  43.104  48.025  1.00  0.00    +0.000 C 
ATOM    138  H34 UNL A   1      26.078  42.714  47.045  1.00  0.00    +0.000 H 
BRANCH   26   25
ATOM     25  C22 UNL A   1      26.014  41.970  49.008  1.00  0.00    +0.000 C 
ATOM    135  H31 UNL A   1      25.227  42.246  49.679  1.00  0.00    +0.000 H 
ATOM    136  H32 UNL A   1      25.742  41.091  48.462  1.00  0.00    +0.000 H 
BRANCH   25   24
ATOM    133  H29 UNL A   1      27.590  40.688  49.588  1.00  0.00    +0.000 H 
ATOM    134  H30 UNL A   1      28.010  42.397  49.519  1.00  0.00    +0.000 H 
ATOM     24  C21 UNL A   1      27.264  41.685  49.800  1.00  0.00    +0.000 C 
BRANCH   24   23
ATOM    132  H28 UNL A   1      26.940  40.968  51.729  1.00  0.00    +0.000 H 
ATOM     23  N1  UNL A   1      27.027  41.810  51.228  1.00  0.00    +0.000 N 
BRANCH   23   21
ATOM     21  C20 UNL A   1      26.909  42.969  51.963  1.00  0.00    +0.000 C 
ATOM     22  O1  UNL A   1      27.472  43.957  51.533  1.00  0.00    +0.000 O 
BRANCH   21   18
ATOM     18  C17 UNL A   1      26.315  42.854  53.373  1.00  0.00    +0.000 C 
BRANCH   18   17
ATOM     17  C16 UNL A   1      24.839  43.279  53.629  1.00  0.00    +0.000 C 
ATOM    124  H20 UNL A   1      24.320  42.429  54.019  1.00  0.00    +0.000 H 
ATOM    125  H21 UNL A   1      24.899  44.113  54.297  1.00  0.00    +0.000 H 
BRANCH   17   16
ATOM      4  C4  UNL A   1      22.960  45.509  48.345  1.00  0.00    +0.000 C 
ATOM      5  C5  UNL A   1      22.692  44.157  48.115  1.00  0.00    +0.000 C 
ATOM      6  C6  UNL A   1      22.822  43.198  49.126  1.00  0.00    +0.000 C 
ATOM      7  C7  UNL A   1      23.248  43.615  50.399  1.00  0.00    +0.000 C 
ATOM      8  C8  UNL A   1      23.456  44.971  50.700  1.00  0.00    +0.000 C 
ATOM      9  C9  UNL A   1      23.296  45.916  49.650  1.00  0.00    +0.000 C 
ATOM     10  C10 UNL A   1      23.854  45.076  52.085  1.00  0.00    +0.000 C 
ATOM    112  H8  UNL A   1      22.391  43.857  47.174  1.00  0.00    +0.000 H 
ATOM    113  H9  UNL A   1      22.609  42.205  48.941  1.00  0.00    +0.000 H 
ATOM    114  H10 UNL A   1      23.429  46.920  49.848  1.00  0.00    +0.000 H 
ATOM     16  C15 UNL A   1      24.086  43.766  52.475  1.00  0.00    +0.000 C 
ATOM     96  N7  UNL A   1      23.541  42.886  51.543  1.00  0.00    +0.000 N 
BRANCH    4    2
ATOM      2  C2  UNL A   1      22.879  46.488  47.185  1.00  0.00    +0.000 C 
ATOM    108  H4  UNL A   1      22.055  47.137  47.397  1.00  0.00    +0.000 H 
BRANCH    2    1
ATOM      1  C1  UNL A   1      24.156  47.321  47.087  1.00  0.00    +0.000 C 
ATOM    106  H2  UNL A   1      24.990  46.736  47.413  1.00  0.00    +0.000 H 
ATOM    107  H3  UNL A   1      24.065  48.188  47.707  1.00  0.00    +0.000 H 
ATOM    105  H1  UNL A   1      24.308  47.624  46.071  1.00  0.00    +0.000 H 
ENDBRANCH    2    1
BRANCH    2    3
ATOM      3  C3  UNL A   1      22.562  45.816  45.843  1.00  0.00    +0.000 C 
ATOM    109  H5  UNL A   1      21.625  46.180  45.475  1.00  0.00    +0.000 H 
ATOM    110  H6  UNL A   1      22.506  44.757  45.980  1.00  0.00    +0.000 H 
ATOM    111  H7  UNL A   1      23.335  46.045  45.139  1.00  0.00    +0.000 H 
ENDBRANCH    2    3
ENDBRANCH    4    2
BRANCH   10   11
ATOM     11  S1  UNL A   1      24.208  46.661  52.837  1.00  0.00    +0.000 S 
ATOM     12  C11 UNL A   1      25.531  47.788  52.116  1.00  0.00    +0.000 C 
ATOM     13  C12 UNL A   1      26.915  47.150  52.284  1.00  0.00    +0.000 C 
ATOM     14  C13 UNL A   1      25.472  48.431  50.708  1.00  0.00    +0.000 C 
ATOM     15  C14 UNL A   1      25.420  49.050  53.017  1.00  0.00    +0.000 C 
ATOM    115  H11 UNL A   1      26.985  46.282  51.662  1.00  0.00    +0.000 H 
ATOM    116  H12 UNL A   1      27.056  46.868  53.306  1.00  0.00    +0.000 H 
ATOM    117  H13 UNL A   1      27.669  47.854  52.001  1.00  0.00    +0.000 H 
ATOM    118  H14 UNL A   1      25.538  47.667  49.963  1.00  0.00    +0.000 H 
ATOM    119  H15 UNL A   1      26.288  49.115  50.593  1.00  0.00    +0.000 H 
ATOM    120  H16 UNL A   1      24.547  48.959  50.597  1.00  0.00    +0.000 H 
ATOM    121  H17 UNL A   1      25.449  48.758  54.046  1.00  0.00    +0.000 H 
ATOM    122  H18 UNL A   1      24.498  49.554  52.814  1.00  0.00    +0.000 H 
ATOM    123  H19 UNL A   1      26.238  49.709  52.810  1.00  0.00    +0.000 H 
ENDBRANCH   10   11
BRANCH   96   97
ATOM     97  C72 UNL A   1      23.134  41.467  51.768  1.00  0.00    +0.000 C 
ATOM    161  H57 UNL A   1      22.916  41.102  50.786  1.00  0.00    +0.000 H 
ATOM    160  H56 UNL A   1      23.937  40.988  52.287  1.00  0.00    +0.000 H 
BRANCH   97   98
ATOM     98  C73 UNL A   1      21.859  41.182  52.555  1.00  0.00    +0.000 C 
ATOM     99  C74 UNL A   1      21.410  39.863  52.777  1.00  0.00    +0.000 C 
ATOM    100  C75 UNL A   1      20.128  39.600  53.275  1.00  0.00    +0.000 C 
ATOM    162  H58 UNL A   1      22.041  39.074  52.568  1.00  0.00    +0.000 H 
ATOM    165  H61 UNL A   1      21.420  43.193  53.037  1.00  0.00    +0.000 H 
ATOM    103  C77 UNL A   1      19.810  41.959  53.638  1.00  0.00    +0.000 C 
ATOM    104  C78 UNL A   1      21.070  42.223  53.073  1.00  0.00    +0.000 C 
ATOM    163  H59 UNL A   1      19.786  38.629  53.344  1.00  0.00    +0.000 H 
ATOM    164  H60 UNL A   1      19.247  42.734  54.025  1.00  0.00    +0.000 H 
ATOM    101  C76 UNL A   1      19.320  40.656  53.676  1.00  0.00    +0.000 C 
ATOM    102 Cl1  UNL A   1      17.704  40.347  54.182  1.00  0.00    +0.000 Cl
ENDBRANCH   97   98
ENDBRANCH   96   97
ENDBRANCH   17   16
ENDBRANCH   18   17
BRANCH   18   19
ATOM     19  C18 UNL A   1      27.304  43.846  54.050  1.00  0.00    +0.000 C 
ATOM    126  H22 UNL A   1      26.779  44.435  54.773  1.00  0.00    +0.000 H 
ATOM    127  H23 UNL A   1      27.728  44.490  53.307  1.00  0.00    +0.000 H 
ATOM    128  H24 UNL A   1      28.084  43.298  54.534  1.00  0.00    +0.000 H 
ENDBRANCH   18   19
BRANCH   18   20
ATOM    129  H25 UNL A   1      26.630  40.756  52.928  1.00  0.00    +0.000 H 
ATOM    130  H26 UNL A   1      25.239  41.060  53.940  1.00  0.00    +0.000 H 
ATOM    131  H27 UNL A   1      26.847  41.159  54.614  1.00  0.00    +0.000 H 
ATOM     20  C19 UNL A   1      26.252  41.338  53.743  1.00  0.00    +0.000 C 
ENDBRANCH   18   20
ENDBRANCH   21   18
ENDBRANCH   23   21
ENDBRANCH   24   23
ENDBRANCH   25   24
ENDBRANCH   26   25
ENDBRANCH   27   26
ENDBRANCH   28   27
ENDBRANCH   29   28
ENDBRANCH   30   29
ENDBRANCH   31   30
ENDBRANCH   33   31
ENDBRANCH   37   36
BRANCH   41   42
ATOM     42  C36 UNL A   1      21.108  33.543  45.020  1.00  0.00    +0.000 C 
ATOM     43  C37 UNL A   1      20.156  33.009  44.130  1.00  0.00    +0.000 C 
ATOM     44  F1  UNL A   1      19.493  33.808  43.280  1.00  0.00    +0.000 F 
ATOM     45  C38 UNL A   1      19.804  31.655  44.153  1.00  0.00    +0.000 C 
ATOM     46  F2  UNL A   1      18.820  31.209  43.361  1.00  0.00    +0.000 F 
ATOM     47  C39 UNL A   1      20.422  30.783  45.032  1.00  0.00    +0.000 C 
ATOM     48  F3  UNL A   1      20.053  29.497  45.087  1.00  0.00    +0.000 F 
ATOM     49  C40 UNL A   1      21.387  31.261  45.891  1.00  0.00    +0.000 C 
ATOM     50  F4  UNL A   1      21.974  30.439  46.772  1.00  0.00    +0.000 F 
ATOM     51  C41 UNL A   1      21.703  32.618  45.906  1.00  0.00    +0.000 C 
ATOM     52  F5  UNL A   1      22.521  33.008  46.891  1.00  0.00    +0.000 F 
ENDBRANCH   41   42
BRANCH   58   59
ATOM     65  F8  UNL A   1      18.135  42.225  50.813  1.00  0.00    +0.000 F 
ATOM     66  C51 UNL A   1      19.559  40.745  49.650  1.00  0.00    +0.000 C 
ATOM     67  F9  UNL A   1      20.476  41.712  49.513  1.00  0.00    +0.000 F 
ATOM     68  C52 UNL A   1      19.815  39.475  49.143  1.00  0.00    +0.000 C 
ATOM     69  F10 UNL A   1      20.981  39.255  48.517  1.00  0.00    +0.000 F 
ATOM     59  C47 UNL A   1      18.905  38.422  49.322  1.00  0.00    +0.000 C 
ATOM     60  C48 UNL A   1      17.723  38.699  50.030  1.00  0.00    +0.000 C 
ATOM     61  F6  UNL A   1      16.849  37.724  50.317  1.00  0.00    +0.000 F 
ATOM     62  C49 UNL A   1      17.451  39.984  50.502  1.00  0.00    +0.000 C 
ATOM     63  F7  UNL A   1      16.311  40.230  51.164  1.00  0.00    +0.000 F 
ATOM     64  C50 UNL A   1      18.374  41.002  50.320  1.00  0.00    +0.000 C 
ENDBRANCH   58   59
BRANCH   73   74
ATOM     74  C56 UNL A   1      23.179  35.761  53.138  1.00  0.00    +0.000 C 
ATOM     75  C57 UNL A   1      24.351  34.986  53.073  1.00  0.00    +0.000 C 
ATOM     76  F11 UNL A   1      24.848  34.615  51.883  1.00  0.00    +0.000 F 
ATOM     77  C58 UNL A   1      25.075  34.651  54.222  1.00  0.00    +0.000 C 
ATOM     78  F12 UNL A   1      26.228  33.977  54.113  1.00  0.00    +0.000 F 
ATOM     79  C59 UNL A   1      24.642  35.072  55.469  1.00  0.00    +0.000 C 
ATOM     80  F13 UNL A   1      25.373  34.816  56.562  1.00  0.00    +0.000 F 
ATOM     81  C60 UNL A   1      23.471  35.800  55.571  1.00  0.00    +0.000 C 
ATOM     82  F14 UNL A   1      23.061  36.243  56.768  1.00  0.00    +0.000 F 
ATOM     83  C61 UNL A   1      22.751  36.139  54.425  1.00  0.00    +0.000 C 
ATOM     84  F15 UNL A   1      21.681  36.931  54.589  1.00  0.00    +0.000 F 
ENDBRANCH   73   74
TORSDOF 25
ENDMDL
MODEL 9
REMARK VINA RESULT:      -7.3     45.442     52.568
ROOT
ATOM    148  H44 UNL A   1      24.188  27.681   1.212  1.00  0.00    +0.000 H 
ATOM    149  H45 UNL A   1      23.727  25.257   2.199  1.00  0.00    +0.000 H 
ATOM    150  H46 UNL A   1      20.185  26.983   1.209  1.00  0.00    +0.000 H 
ATOM    151  H47 UNL A   1      19.754  20.836  -3.855  1.00  0.00    +0.000 H 
ATOM    152  H48 UNL A   1      21.915  21.964  -4.596  1.00  0.00    +0.000 H 
ATOM    153  H49 UNL A   1      20.309  24.291  -1.551  1.00  0.00    +0.000 H 
ATOM    154  H50 UNL A   1      17.141  24.855  -1.026  1.00  0.00    +0.000 H 
ATOM    155  H51 UNL A   1      18.681  26.047   0.664  1.00  0.00    +0.000 H 
ATOM    156  H52 UNL A   1      21.885  29.190  -3.340  1.00  0.00    +0.000 H 
ATOM    157  H53 UNL A   1      21.691  27.163  -4.912  1.00  0.00    +0.000 H 
ATOM     37  C32 UNL A   1      22.181  24.664  -3.588  1.00  0.00    +0.000 C 
ATOM     38  C33 UNL A   1      22.085  26.026  -2.986  1.00  0.00    +0.000 C 
ATOM     39  N3  UNL A   1      22.307  26.371  -1.758  1.00  0.00    +0.000 N 
ATOM     40  C34 UNL A   1      22.053  27.740  -1.698  1.00  0.00    +0.000 C 
ATOM     41  C35 UNL A   1      21.736  28.354  -0.525  1.00  0.00    +0.000 C 
ATOM     53  C42 UNL A   1      22.113  27.557   0.608  1.00  0.00    +0.000 C 
ATOM     54  C43 UNL A   1      23.301  27.156   1.181  1.00  0.00    +0.000 C 
ATOM     55  C44 UNL A   1      23.040  25.863   1.723  1.00  0.00    +0.000 C 
ATOM     56  C45 UNL A   1      21.697  25.557   1.500  1.00  0.00    +0.000 C 
ATOM     57  N4  UNL A   1      21.137  26.748   1.123  1.00  0.00    +0.000 N 
ATOM     58  C46 UNL A   1      20.973  24.305   1.474  1.00  0.00    +0.000 C 
ATOM     70  C53 UNL A   1      19.732  24.126   0.934  1.00  0.00    +0.000 C 
ATOM     71  N5  UNL A   1      19.345  22.878   0.475  1.00  0.00    +0.000 N 
ATOM     72  C54 UNL A   1      18.502  23.131  -0.488  1.00  0.00    +0.000 C 
ATOM     73  C55 UNL A   1      18.396  22.317  -1.721  1.00  0.00    +0.000 C 
ATOM     85  C62 UNL A   1      19.551  22.498  -2.408  1.00  0.00    +0.000 C 
ATOM     86  C63 UNL A   1      20.132  21.720  -3.480  1.00  0.00    +0.000 C 
ATOM     87  C64 UNL A   1      21.249  22.343  -3.906  1.00  0.00    +0.000 C 
ATOM     88  C65 UNL A   1      21.373  23.641  -3.238  1.00  0.00    +0.000 C 
ATOM     89  N6  UNL A   1      20.400  23.615  -2.261  1.00  0.00    +0.000 N 
ATOM     90  C66 UNL A   1      17.937  24.469  -0.493  1.00  0.00    +0.000 C 
ATOM     91  C67 UNL A   1      18.746  25.053   0.392  1.00  0.00    +0.000 C 
ATOM     92  C68 UNL A   1      21.923  28.199  -3.055  1.00  0.00    +0.000 C 
ATOM     93  C69 UNL A   1      21.858  27.165  -3.893  1.00  0.00    +0.000 C 
ENDROOT
BRANCH   37   36
ATOM     33  C28 UNL A   1      25.080  24.404  -6.681  1.00  0.00    +0.000 C 
ATOM     34  C29 UNL A   1      25.435  24.212  -5.345  1.00  0.00    +0.000 C 
ATOM     35  C30 UNL A   1      24.474  24.269  -4.346  1.00  0.00    +0.000 C 
ATOM     36  C31 UNL A   1      23.149  24.560  -4.674  1.00  0.00    +0.000 C 
ATOM    146  H42 UNL A   1      26.421  24.027  -5.098  1.00  0.00    +0.000 H 
ATOM    147  H43 UNL A   1      24.738  24.097  -3.363  1.00  0.00    +0.000 H 
ATOM    158  H54 UNL A   1      21.836  25.160  -6.211  1.00  0.00    +0.000 H 
ATOM    159  H55 UNL A   1      23.494  24.969  -7.959  1.00  0.00    +0.000 H 
ATOM     94  C70 UNL A   1      22.798  24.866  -5.984  1.00  0.00    +0.000 C 
ATOM     95  C71 UNL A   1      23.756  24.769  -6.981  1.00  0.00    +0.000 C 
BRANCH   33   31
ATOM     31  C27 UNL A   1      25.973  24.228  -7.854  1.00  0.00    +0.000 C 
ATOM     32  O2  UNL A   1      26.843  23.354  -7.815  1.00  0.00    +0.000 O 
BRANCH   31   30
ATOM    145  H41 UNL A   1      25.297  24.666  -9.645  1.00  0.00    +0.000 H 
ATOM     30  N2  UNL A   1      25.943  24.995  -8.979  1.00  0.00    +0.000 N 
BRANCH   30   29
ATOM     29  C26 UNL A   1      26.641  26.182  -9.417  1.00  0.00    +0.000 C 
ATOM    143  H39 UNL A   1      25.941  26.834  -9.896  1.00  0.00    +0.000 H 
ATOM    144  H40 UNL A   1      27.079  26.635  -8.552  1.00  0.00    +0.000 H 
BRANCH   29   28
ATOM     28  C25 UNL A   1      27.773  25.876 -10.399  1.00  0.00    +0.000 C 
ATOM    141  H37 UNL A   1      27.441  25.114 -11.072  1.00  0.00    +0.000 H 
ATOM    142  H38 UNL A   1      28.008  26.788 -10.906  1.00  0.00    +0.000 H 
BRANCH   28   27
ATOM     27  C24 UNL A   1      29.059  25.393  -9.711  1.00  0.00    +0.000 C 
ATOM    140  H36 UNL A   1      28.754  24.729  -8.929  1.00  0.00    +0.000 H 
ATOM    139  H35 UNL A   1      29.586  26.252  -9.351  1.00  0.00    +0.000 H 
BRANCH   27   26
ATOM    137  H33 UNL A   1      30.713  24.081  -9.998  1.00  0.00    +0.000 H 
ATOM     26  C23 UNL A   1      30.007  24.593 -10.616  1.00  0.00    +0.000 C 
ATOM    138  H34 UNL A   1      29.403  23.920 -11.187  1.00  0.00    +0.000 H 
BRANCH   26   25
ATOM     25  C22 UNL A   1      30.772  25.456 -11.606  1.00  0.00    +0.000 C 
ATOM    135  H31 UNL A   1      30.176  25.596 -12.484  1.00  0.00    +0.000 H 
ATOM    136  H32 UNL A   1      30.984  26.401 -11.150  1.00  0.00    +0.000 H 
BRANCH   25   24
ATOM    133  H29 UNL A   1      32.343  25.107 -12.976  1.00  0.00    +0.000 H 
ATOM    134  H30 UNL A   1      32.818  25.088 -11.280  1.00  0.00    +0.000 H 
ATOM     24  C21 UNL A   1      32.072  24.797 -11.988  1.00  0.00    +0.000 C 
BRANCH   24   23
ATOM    132  H28 UNL A   1      31.271  22.957 -12.549  1.00  0.00    +0.000 H 
ATOM     23  N1  UNL A   1      31.959  23.348 -11.964  1.00  0.00    +0.000 N 
BRANCH   23   21
ATOM     21  C20 UNL A   1      32.701  22.459 -11.219  1.00  0.00    +0.000 C 
ATOM     22  O1  UNL A   1      32.918  22.752 -10.060  1.00  0.00    +0.000 O 
BRANCH   21   18
ATOM     18  C17 UNL A   1      33.405  21.323 -11.972  1.00  0.00    +0.000 C 
BRANCH   18   17
ATOM     17  C16 UNL A   1      32.719  19.931 -12.095  1.00  0.00    +0.000 C 
ATOM    124  H20 UNL A   1      32.831  19.602 -13.107  1.00  0.00    +0.000 H 
ATOM    125  H21 UNL A   1      33.204  19.314 -11.368  1.00  0.00    +0.000 H 
BRANCH   17   16
ATOM      4  C4  UNL A   1      26.890  18.517 -11.430  1.00  0.00    +0.000 C 
ATOM      5  C5  UNL A   1      27.337  18.196 -10.145  1.00  0.00    +0.000 C 
ATOM      6  C6  UNL A   1      28.639  18.486  -9.724  1.00  0.00    +0.000 C 
ATOM      7  C7  UNL A   1      29.517  19.106 -10.630  1.00  0.00    +0.000 C 
ATOM      8  C8  UNL A   1      29.093  19.517 -11.905  1.00  0.00    +0.000 C 
ATOM      9  C9  UNL A   1      27.757  19.219 -12.288  1.00  0.00    +0.000 C 
ATOM     10  C10 UNL A   1      30.208  20.144 -12.577  1.00  0.00    +0.000 C 
ATOM    112  H8  UNL A   1      26.689  17.730  -9.490  1.00  0.00    +0.000 H 
ATOM    113  H9  UNL A   1      28.949  18.252  -8.768  1.00  0.00    +0.000 H 
ATOM    114  H10 UNL A   1      27.416  19.523 -13.214  1.00  0.00    +0.000 H 
ATOM     16  C15 UNL A   1      31.297  19.869 -11.764  1.00  0.00    +0.000 C 
ATOM     96  N7  UNL A   1      30.863  19.427 -10.517  1.00  0.00    +0.000 N 
BRANCH    4    2
ATOM      2  C2  UNL A   1      25.490  18.101 -11.853  1.00  0.00    +0.000 C 
ATOM    108  H4  UNL A   1      25.117  17.469 -11.074  1.00  0.00    +0.000 H 
BRANCH    2    1
ATOM      1  C1  UNL A   1      24.578  19.319 -11.986  1.00  0.00    +0.000 C 
ATOM    106  H2  UNL A   1      25.099  20.101 -12.498  1.00  0.00    +0.000 H 
ATOM    107  H3  UNL A   1      24.292  19.659 -11.013  1.00  0.00    +0.000 H 
ATOM    105  H1  UNL A   1      23.703  19.052 -12.542  1.00  0.00    +0.000 H 
ENDBRANCH    2    1
BRANCH    2    3
ATOM      3  C3  UNL A   1      25.468  17.260 -13.135  1.00  0.00    +0.000 C 
ATOM    109  H5  UNL A   1      24.601  17.511 -13.711  1.00  0.00    +0.000 H 
ATOM    110  H6  UNL A   1      25.440  16.222 -12.881  1.00  0.00    +0.000 H 
ATOM    111  H7  UNL A   1      26.348  17.463 -13.710  1.00  0.00    +0.000 H 
ENDBRANCH    2    3
ENDBRANCH    4    2
BRANCH   10   11
ATOM     11  S1  UNL A   1      30.050  20.799 -14.235  1.00  0.00    +0.000 S 
ATOM     12  C11 UNL A   1      28.800  22.155 -14.613  1.00  0.00    +0.000 C 
ATOM     13  C12 UNL A   1      27.375  21.616 -14.451  1.00  0.00    +0.000 C 
ATOM     14  C13 UNL A   1      28.840  23.583 -14.015  1.00  0.00    +0.000 C 
ATOM     15  C14 UNL A   1      29.082  22.459 -16.111  1.00  0.00    +0.000 C 
ATOM    115  H11 UNL A   1      27.187  21.408 -13.418  1.00  0.00    +0.000 H 
ATOM    116  H12 UNL A   1      27.266  20.717 -15.021  1.00  0.00    +0.000 H 
ATOM    117  H13 UNL A   1      26.676  22.346 -14.802  1.00  0.00    +0.000 H 
ATOM    118  H14 UNL A   1      28.658  23.535 -12.962  1.00  0.00    +0.000 H 
ATOM    119  H15 UNL A   1      28.087  24.186 -14.481  1.00  0.00    +0.000 H 
ATOM    120  H16 UNL A   1      29.803  24.016 -14.192  1.00  0.00    +0.000 H 
ATOM    121  H17 UNL A   1      29.085  21.545 -16.667  1.00  0.00    +0.000 H 
ATOM    122  H18 UNL A   1      30.035  22.937 -16.206  1.00  0.00    +0.000 H 
ATOM    123  H19 UNL A   1      28.320  23.106 -16.493  1.00  0.00    +0.000 H 
ENDBRANCH   10   11
BRANCH   96   97
ATOM     97  C72 UNL A   1      31.613  19.478  -9.227  1.00  0.00    +0.000 C 
ATOM    161  H57 UNL A   1      31.291  18.601  -8.706  1.00  0.00    +0.000 H 
ATOM    160  H56 UNL A   1      32.653  19.533  -9.470  1.00  0.00    +0.000 H 
BRANCH   97   98
ATOM     98  C73 UNL A   1      31.322  20.612  -8.249  1.00  0.00    +0.000 C 
ATOM     99  C74 UNL A   1      30.134  21.368  -8.330  1.00  0.00    +0.000 C 
ATOM    100  C75 UNL A   1      29.972  22.556  -7.606  1.00  0.00    +0.000 C 
ATOM    162  H58 UNL A   1      29.367  21.038  -8.935  1.00  0.00    +0.000 H 
ATOM    165  H61 UNL A   1      33.060  20.364  -7.071  1.00  0.00    +0.000 H 
ATOM    103  C77 UNL A   1      32.045  22.117  -6.463  1.00  0.00    +0.000 C 
ATOM    104  C78 UNL A   1      32.237  20.962  -7.241  1.00  0.00    +0.000 C 
ATOM    163  H59 UNL A   1      29.134  23.141  -7.749  1.00  0.00    +0.000 H 
ATOM    164  H60 UNL A   1      32.720  22.354  -5.718  1.00  0.00    +0.000 H 
ATOM    101  C76 UNL A   1      30.947  22.941  -6.695  1.00  0.00    +0.000 C 
ATOM    102 Cl1  UNL A   1      30.807  24.455  -5.888  1.00  0.00    +0.000 Cl
ENDBRANCH   97   98
ENDBRANCH   96   97
ENDBRANCH   17   16
ENDBRANCH   18   17
BRANCH   18   19
ATOM     19  C18 UNL A   1      34.646  21.249 -11.035  1.00  0.00    +0.000 C 
ATOM    126  H22 UNL A   1      34.990  22.240 -10.821  1.00  0.00    +0.000 H 
ATOM    127  H23 UNL A   1      35.427  20.699 -11.519  1.00  0.00    +0.000 H 
ATOM    128  H24 UNL A   1      34.377  20.760 -10.124  1.00  0.00    +0.000 H 
ENDBRANCH   18   19
BRANCH   18   20
ATOM    129  H25 UNL A   1      34.161  22.575 -13.572  1.00  0.00    +0.000 H 
ATOM    130  H26 UNL A   1      32.534  21.998 -13.839  1.00  0.00    +0.000 H 
ATOM    131  H27 UNL A   1      33.889  20.916 -14.046  1.00  0.00    +0.000 H 
ATOM     20  C19 UNL A   1      33.505  21.735 -13.476  1.00  0.00    +0.000 C 
ENDBRANCH   18   20
ENDBRANCH   21   18
ENDBRANCH   23   21
ENDBRANCH   24   23
ENDBRANCH   25   24
ENDBRANCH   26   25
ENDBRANCH   27   26
ENDBRANCH   28   27
ENDBRANCH   29   28
ENDBRANCH   30   29
ENDBRANCH   31   30
ENDBRANCH   33   31
ENDBRANCH   37   36
BRANCH   41   42
ATOM     42  C36 UNL A   1      20.722  29.466  -0.415  1.00  0.00    +0.000 C 
ATOM     43  C37 UNL A   1      21.057  30.767  -0.836  1.00  0.00    +0.000 C 
ATOM     44  F1  UNL A   1      22.178  30.988  -1.540  1.00  0.00    +0.000 F 
ATOM     45  C38 UNL A   1      20.293  31.880  -0.470  1.00  0.00    +0.000 C 
ATOM     46  F2  UNL A   1      20.705  33.110  -0.804  1.00  0.00    +0.000 F 
ATOM     47  C39 UNL A   1      19.145  31.727   0.287  1.00  0.00    +0.000 C 
ATOM     48  F3  UNL A   1      18.438  32.795   0.677  1.00  0.00    +0.000 F 
ATOM     49  C40 UNL A   1      18.762  30.464   0.685  1.00  0.00    +0.000 C 
ATOM     50  F4  UNL A   1      17.672  30.298   1.447  1.00  0.00    +0.000 F 
ATOM     51  C41 UNL A   1      19.549  29.359   0.365  1.00  0.00    +0.000 C 
ATOM     52  F5  UNL A   1      19.186  28.208   0.943  1.00  0.00    +0.000 F 
ENDBRANCH   41   42
BRANCH   58   59
ATOM     65  F8  UNL A   1      23.606  19.462   2.732  1.00  0.00    +0.000 F 
ATOM     66  C51 UNL A   1      22.975  21.109   1.163  1.00  0.00    +0.000 C 
ATOM     67  F9  UNL A   1      23.508  20.386   0.168  1.00  0.00    +0.000 F 
ATOM     68  C52 UNL A   1      22.355  22.321   0.879  1.00  0.00    +0.000 C 
ATOM     69  F10 UNL A   1      22.318  22.742  -0.394  1.00  0.00    +0.000 F 
ATOM     59  C47 UNL A   1      21.732  23.074   1.885  1.00  0.00    +0.000 C 
ATOM     60  C48 UNL A   1      21.760  22.560   3.192  1.00  0.00    +0.000 C 
ATOM     61  F6  UNL A   1      21.110  23.178   4.189  1.00  0.00    +0.000 F 
ATOM     62  C49 UNL A   1      22.417  21.363   3.481  1.00  0.00    +0.000 C 
ATOM     63  F7  UNL A   1      22.443  20.896   4.737  1.00  0.00    +0.000 F 
ATOM     64  C50 UNL A   1      23.015  20.634   2.464  1.00  0.00    +0.000 C 
ENDBRANCH   58   59
BRANCH   73   74
ATOM     74  C56 UNL A   1      17.097  21.802  -2.214  1.00  0.00    +0.000 C 
ATOM     75  C57 UNL A   1      16.412  20.793  -1.512  1.00  0.00    +0.000 C 
ATOM     76  F11 UNL A   1      17.033  20.109  -0.540  1.00  0.00    +0.000 F 
ATOM     77  C58 UNL A   1      15.057  20.531  -1.740  1.00  0.00    +0.000 C 
ATOM     78  F12 UNL A   1      14.419  19.615  -0.998  1.00  0.00    +0.000 F 
ATOM     79  C59 UNL A   1      14.352  21.261  -2.682  1.00  0.00    +0.000 C 
ATOM     80  F13 UNL A   1      13.038  21.061  -2.850  1.00  0.00    +0.000 F 
ATOM     81  C60 UNL A   1      15.006  22.232  -3.419  1.00  0.00    +0.000 C 
ATOM     82  F14 UNL A   1      14.327  22.969  -4.308  1.00  0.00    +0.000 F 
ATOM     83  C61 UNL A   1      16.357  22.498  -3.188  1.00  0.00    +0.000 C 
ATOM     84  F15 UNL A   1      16.901  23.519  -3.866  1.00  0.00    +0.000 F 
ENDBRANCH   73   74
TORSDOF 25
ENDMDL
MODEL 10
REMARK VINA RESULT:      -7.1     40.087     46.695
ROOT
ATOM    148  H44 UNL A   1      43.033  26.339  31.516  1.00  0.00    +0.000 H 
ATOM    149  H45 UNL A   1      45.540  26.520  32.380  1.00  0.00    +0.000 H 
ATOM    150  H46 UNL A   1      45.488  24.470  28.873  1.00  0.00    +0.000 H 
ATOM    151  H47 UNL A   1      49.934  30.606  26.383  1.00  0.00    +0.000 H 
ATOM    152  H48 UNL A   1      47.808  31.786  27.142  1.00  0.00    +0.000 H 
ATOM    153  H49 UNL A   1      47.178  27.707  27.628  1.00  0.00    +0.000 H 
ATOM    154  H50 UNL A   1      48.269  25.344  25.665  1.00  0.00    +0.000 H 
ATOM    155  H51 UNL A   1      46.879  24.459  27.647  1.00  0.00    +0.000 H 
ATOM    156  H52 UNL A   1      41.856  27.551  26.472  1.00  0.00    +0.000 H 
ATOM    157  H53 UNL A   1      43.367  29.478  25.682  1.00  0.00    +0.000 H 
ATOM     37  C32 UNL A   1      45.567  29.980  27.455  1.00  0.00    +0.000 C 
ATOM     38  C33 UNL A   1      44.563  28.878  27.516  1.00  0.00    +0.000 C 
ATOM     39  N3  UNL A   1      44.417  27.984  28.442  1.00  0.00    +0.000 N 
ATOM     40  C34 UNL A   1      43.368  27.169  28.020  1.00  0.00    +0.000 C 
ATOM     41  C35 UNL A   1      43.229  25.895  28.475  1.00  0.00    +0.000 C 
ATOM     53  C42 UNL A   1      43.976  25.680  29.683  1.00  0.00    +0.000 C 
ATOM     54  C43 UNL A   1      43.890  26.117  30.987  1.00  0.00    +0.000 C 
ATOM     55  C44 UNL A   1      45.237  26.194  31.449  1.00  0.00    +0.000 C 
ATOM     56  C45 UNL A   1      46.077  25.756  30.424  1.00  0.00    +0.000 C 
ATOM     57  N4  UNL A   1      45.232  25.160  29.527  1.00  0.00    +0.000 N 
ATOM     58  C46 UNL A   1      47.485  25.956  30.164  1.00  0.00    +0.000 C 
ATOM     70  C53 UNL A   1      48.103  25.735  28.967  1.00  0.00    +0.000 C 
ATOM     71  N5  UNL A   1      49.262  26.420  28.643  1.00  0.00    +0.000 N 
ATOM     72  C54 UNL A   1      49.235  26.512  27.343  1.00  0.00    +0.000 C 
ATOM     73  C55 UNL A   1      49.730  27.690  26.593  1.00  0.00    +0.000 C 
ATOM     85  C62 UNL A   1      48.897  28.718  26.887  1.00  0.00    +0.000 C 
ATOM     86  C63 UNL A   1      49.075  30.143  26.719  1.00  0.00    +0.000 C 
ATOM     87  C64 UNL A   1      47.933  30.764  27.074  1.00  0.00    +0.000 C 
ATOM     88  C65 UNL A   1      46.895  29.766  27.347  1.00  0.00    +0.000 C 
ATOM     89  N6  UNL A   1      47.571  28.564  27.345  1.00  0.00    +0.000 N 
ATOM     90  C66 UNL A   1      48.344  25.587  26.665  1.00  0.00    +0.000 C 
ATOM     91  C67 UNL A   1      47.649  25.143  27.714  1.00  0.00    +0.000 C 
ATOM     92  C68 UNL A   1      42.752  27.832  26.902  1.00  0.00    +0.000 C 
ATOM     93  C69 UNL A   1      43.499  28.859  26.497  1.00  0.00    +0.000 C 
ENDROOT
BRANCH   37   36
ATOM     33  C28 UNL A   1      43.928  33.891  27.222  1.00  0.00    +0.000 C 
ATOM     34  C29 UNL A   1      44.311  33.202  26.070  1.00  0.00    +0.000 C 
ATOM     35  C30 UNL A   1      44.817  31.913  26.156  1.00  0.00    +0.000 C 
ATOM     36  C31 UNL A   1      44.982  31.315  27.406  1.00  0.00    +0.000 C 
ATOM    146  H42 UNL A   1      44.217  33.655  25.147  1.00  0.00    +0.000 H 
ATOM    147  H43 UNL A   1      45.069  31.398  25.298  1.00  0.00    +0.000 H 
ATOM    158  H54 UNL A   1      44.914  31.613  29.493  1.00  0.00    +0.000 H 
ATOM    159  H55 UNL A   1      43.947  33.822  29.334  1.00  0.00    +0.000 H 
ATOM     94  C70 UNL A   1      44.714  32.027  28.569  1.00  0.00    +0.000 C 
ATOM     95  C71 UNL A   1      44.173  33.300  28.473  1.00  0.00    +0.000 C 
BRANCH   33   31
ATOM     31  C27 UNL A   1      43.244  35.208  27.263  1.00  0.00    +0.000 C 
ATOM     32  O2  UNL A   1      43.873  36.217  26.935  1.00  0.00    +0.000 O 
BRANCH   31   30
ATOM    145  H41 UNL A   1      41.302  35.261  26.970  1.00  0.00    +0.000 H 
ATOM     30  N2  UNL A   1      41.964  35.408  27.684  1.00  0.00    +0.000 N 
BRANCH   30   29
ATOM     29  C26 UNL A   1      41.356  35.787  28.939  1.00  0.00    +0.000 C 
ATOM    143  H39 UNL A   1      42.064  35.624  29.725  1.00  0.00    +0.000 H 
ATOM    144  H40 UNL A   1      41.076  36.817  28.863  1.00  0.00    +0.000 H 
BRANCH   29   28
ATOM     28  C25 UNL A   1      40.089  34.988  29.250  1.00  0.00    +0.000 C 
ATOM    141  H37 UNL A   1      39.264  35.666  29.297  1.00  0.00    +0.000 H 
ATOM    142  H38 UNL A   1      39.972  34.264  28.470  1.00  0.00    +0.000 H 
BRANCH   28   27
ATOM     27  C24 UNL A   1      40.167  34.219  30.577  1.00  0.00    +0.000 C 
ATOM    140  H36 UNL A   1      39.303  33.589  30.613  1.00  0.00    +0.000 H 
ATOM    139  H35 UNL A   1      40.201  34.933  31.373  1.00  0.00    +0.000 H 
BRANCH   27   26
ATOM    137  H33 UNL A   1      41.064  32.286  30.557  1.00  0.00    +0.000 H 
ATOM     26  C23 UNL A   1      41.386  33.294  30.710  1.00  0.00    +0.000 C 
ATOM    138  H34 UNL A   1      42.100  33.608  29.979  1.00  0.00    +0.000 H 
BRANCH   26   25
ATOM     25  C22 UNL A   1      42.067  33.381  32.066  1.00  0.00    +0.000 C 
ATOM    135  H31 UNL A   1      42.691  34.250  32.091  1.00  0.00    +0.000 H 
ATOM    136  H32 UNL A   1      41.317  33.444  32.827  1.00  0.00    +0.000 H 
BRANCH   25   24
ATOM    133  H29 UNL A   1      43.700  32.127  31.592  1.00  0.00    +0.000 H 
ATOM    134  H30 UNL A   1      43.304  32.213  33.305  1.00  0.00    +0.000 H 
ATOM     24  C21 UNL A   1      42.910  32.156  32.313  1.00  0.00    +0.000 C 
BRANCH   24   23
ATOM    132  H28 UNL A   1      41.890  30.657  31.289  1.00  0.00    +0.000 H 
ATOM     23  N1  UNL A   1      42.124  30.940  32.202  1.00  0.00    +0.000 N 
BRANCH   23   21
ATOM     21  C20 UNL A   1      41.668  30.136  33.223  1.00  0.00    +0.000 C 
ATOM     22  O1  UNL A   1      42.056  30.393  34.346  1.00  0.00    +0.000 O 
BRANCH   21   18
ATOM     18  C17 UNL A   1      40.936  28.845  32.833  1.00  0.00    +0.000 C 
BRANCH   18   17
ATOM     17  C16 UNL A   1      39.386  28.847  32.687  1.00  0.00    +0.000 C 
ATOM    124  H20 UNL A   1      39.137  28.201  31.871  1.00  0.00    +0.000 H 
ATOM    125  H21 UNL A   1      39.014  28.530  33.639  1.00  0.00    +0.000 H 
BRANCH   17   16
ATOM      4  C4  UNL A   1      35.758  33.423  31.166  1.00  0.00    +0.000 C 
ATOM      5  C5  UNL A   1      35.569  33.450  32.550  1.00  0.00    +0.000 C 
ATOM      6  C6  UNL A   1      36.325  32.649  33.412  1.00  0.00    +0.000 C 
ATOM      7  C7  UNL A   1      37.289  31.788  32.860  1.00  0.00    +0.000 C 
ATOM      8  C8  UNL A   1      37.569  31.780  31.483  1.00  0.00    +0.000 C 
ATOM      9  C9  UNL A   1      36.791  32.622  30.643  1.00  0.00    +0.000 C 
ATOM     10  C10 UNL A   1      38.620  30.819  31.236  1.00  0.00    +0.000 C 
ATOM    112  H8  UNL A   1      34.851  34.077  32.947  1.00  0.00    +0.000 H 
ATOM    113  H9  UNL A   1      36.179  32.690  34.434  1.00  0.00    +0.000 H 
ATOM    114  H10 UNL A   1      36.987  32.646  29.630  1.00  0.00    +0.000 H 
ATOM     16  C15 UNL A   1      38.751  30.139  32.437  1.00  0.00    +0.000 C 
ATOM     96  N7  UNL A   1      38.107  30.838  33.455  1.00  0.00    +0.000 N 
BRANCH    4    2
ATOM      2  C2  UNL A   1      34.849  34.257  30.277  1.00  0.00    +0.000 C 
ATOM    108  H4  UNL A   1      35.477  34.981  29.801  1.00  0.00    +0.000 H 
BRANCH    2    1
ATOM      1  C1  UNL A   1      34.190  33.388  29.207  1.00  0.00    +0.000 C 
ATOM    106  H2  UNL A   1      33.522  32.694  29.672  1.00  0.00    +0.000 H 
ATOM    107  H3  UNL A   1      34.944  32.853  28.669  1.00  0.00    +0.000 H 
ATOM    105  H1  UNL A   1      33.642  34.010  28.530  1.00  0.00    +0.000 H 
ENDBRANCH    2    1
BRANCH    2    3
ATOM      3  C3  UNL A   1      33.796  35.051  31.060  1.00  0.00    +0.000 C 
ATOM    109  H5  UNL A   1      33.213  34.379  31.656  1.00  0.00    +0.000 H 
ATOM    110  H6  UNL A   1      33.156  35.566  30.375  1.00  0.00    +0.000 H 
ATOM    111  H7  UNL A   1      34.284  35.760  31.696  1.00  0.00    +0.000 H 
ENDBRANCH    2    3
ENDBRANCH    4    2
BRANCH   10   11
ATOM     11  S1  UNL A   1      39.250  30.529  29.587  1.00  0.00    +0.000 S 
ATOM     12  C11 UNL A   1      38.453  29.242  28.470  1.00  0.00    +0.000 C 
ATOM     13  C12 UNL A   1      38.677  27.837  29.042  1.00  0.00    +0.000 C 
ATOM     14  C13 UNL A   1      36.999  29.312  27.939  1.00  0.00    +0.000 C 
ATOM     15  C14 UNL A   1      39.253  29.406  27.147  1.00  0.00    +0.000 C 
ATOM    115  H11 UNL A   1      38.124  27.731  29.952  1.00  0.00    +0.000 H 
ATOM    116  H12 UNL A   1      39.719  27.695  29.239  1.00  0.00    +0.000 H 
ATOM    117  H13 UNL A   1      38.345  27.107  28.334  1.00  0.00    +0.000 H 
ATOM    118  H14 UNL A   1      36.315  29.211  28.755  1.00  0.00    +0.000 H 
ATOM    119  H15 UNL A   1      36.837  28.521  27.237  1.00  0.00    +0.000 H 
ATOM    120  H16 UNL A   1      36.842  30.254  27.456  1.00  0.00    +0.000 H 
ATOM    121  H17 UNL A   1      40.301  29.376  27.358  1.00  0.00    +0.000 H 
ATOM    122  H18 UNL A   1      39.007  30.344  26.695  1.00  0.00    +0.000 H 
ATOM    123  H19 UNL A   1      39.002  28.611  26.477  1.00  0.00    +0.000 H 
ENDBRANCH   10   11
BRANCH   96   97
ATOM     97  C72 UNL A   1      38.378  30.756  34.921  1.00  0.00    +0.000 C 
ATOM    161  H57 UNL A   1      37.426  30.519  35.347  1.00  0.00    +0.000 H 
ATOM    160  H56 UNL A   1      39.155  30.033  35.057  1.00  0.00    +0.000 H 
BRANCH   97   98
ATOM     98  C73 UNL A   1      38.808  32.018  35.663  1.00  0.00    +0.000 C 
ATOM     99  C74 UNL A   1      38.072  32.514  36.760  1.00  0.00    +0.000 C 
ATOM    100  C75 UNL A   1      38.311  33.790  37.284  1.00  0.00    +0.000 C 
ATOM    162  H58 UNL A   1      37.343  31.922  37.187  1.00  0.00    +0.000 H 
ATOM    165  H61 UNL A   1      40.573  32.361  34.550  1.00  0.00    +0.000 H 
ATOM    103  C77 UNL A   1      40.226  34.002  35.840  1.00  0.00    +0.000 C 
ATOM    104  C78 UNL A   1      39.941  32.749  35.268  1.00  0.00    +0.000 C 
ATOM    163  H59 UNL A   1      37.702  34.169  38.026  1.00  0.00    +0.000 H 
ATOM    164  H60 UNL A   1      41.069  34.521  35.548  1.00  0.00    +0.000 H 
ATOM    101  C76 UNL A   1      39.372  34.543  36.798  1.00  0.00    +0.000 C 
ATOM    102 Cl1  UNL A   1      39.599  36.155  37.357  1.00  0.00    +0.000 Cl
ENDBRANCH   97   98
ENDBRANCH   96   97
ENDBRANCH   17   16
ENDBRANCH   18   17
BRANCH   18   19
ATOM     19  C18 UNL A   1      41.375  28.024  34.080  1.00  0.00    +0.000 C 
ATOM    126  H22 UNL A   1      40.962  28.467  34.963  1.00  0.00    +0.000 H 
ATOM    127  H23 UNL A   1      42.444  28.024  34.149  1.00  0.00    +0.000 H 
ATOM    128  H24 UNL A   1      41.024  27.018  33.987  1.00  0.00    +0.000 H 
ENDBRANCH   18   19
BRANCH   18   20
ATOM    129  H25 UNL A   1      42.364  28.823  31.203  1.00  0.00    +0.000 H 
ATOM    130  H26 UNL A   1      40.700  28.926  30.680  1.00  0.00    +0.000 H 
ATOM    131  H27 UNL A   1      41.340  27.409  31.261  1.00  0.00    +0.000 H 
ATOM     20  C19 UNL A   1      41.368  28.471  31.380  1.00  0.00    +0.000 C 
ENDBRANCH   18   20
ENDBRANCH   21   18
ENDBRANCH   23   21
ENDBRANCH   24   23
ENDBRANCH   25   24
ENDBRANCH   26   25
ENDBRANCH   27   26
ENDBRANCH   28   27
ENDBRANCH   29   28
ENDBRANCH   30   29
ENDBRANCH   31   30
ENDBRANCH   33   31
ENDBRANCH   37   36
BRANCH   41   42
ATOM     42  C36 UNL A   1      42.764  24.748  27.612  1.00  0.00    +0.000 C 
ATOM     43  C37 UNL A   1      41.576  24.064  27.933  1.00  0.00    +0.000 C 
ATOM     44  F1  UNL A   1      40.734  24.555  28.855  1.00  0.00    +0.000 F 
ATOM     45  C38 UNL A   1      41.269  22.819  27.375  1.00  0.00    +0.000 C 
ATOM     46  F2  UNL A   1      40.180  22.154  27.786  1.00  0.00    +0.000 F 
ATOM     47  C39 UNL A   1      42.112  22.236  26.446  1.00  0.00    +0.000 C 
ATOM     48  F3  UNL A   1      41.844  21.024  25.946  1.00  0.00    +0.000 F 
ATOM     49  C40 UNL A   1      43.266  22.894  26.076  1.00  0.00    +0.000 C 
ATOM     50  F4  UNL A   1      44.113  22.332  25.203  1.00  0.00    +0.000 F 
ATOM     51  C41 UNL A   1      43.600  24.111  26.669  1.00  0.00    +0.000 C 
ATOM     52  F5  UNL A   1      44.819  24.579  26.372  1.00  0.00    +0.000 F 
ENDBRANCH   41   42
BRANCH   58   59
ATOM     65  F8  UNL A   1      50.283  28.333  34.465  1.00  0.00    +0.000 F 
ATOM     66  C51 UNL A   1      49.676  26.425  33.215  1.00  0.00    +0.000 C 
ATOM     67  F9  UNL A   1      50.316  25.633  34.085  1.00  0.00    +0.000 F 
ATOM     68  C52 UNL A   1      49.013  25.863  32.129  1.00  0.00    +0.000 C 
ATOM     69  F10 UNL A   1      49.042  24.530  31.977  1.00  0.00    +0.000 F 
ATOM     59  C47 UNL A   1      48.279  26.655  31.233  1.00  0.00    +0.000 C 
ATOM     60  C48 UNL A   1      48.243  28.039  31.470  1.00  0.00    +0.000 C 
ATOM     61  F6  UNL A   1      47.492  28.848  30.710  1.00  0.00    +0.000 F 
ATOM     62  C49 UNL A   1      48.943  28.605  32.537  1.00  0.00    +0.000 C 
ATOM     63  F7  UNL A   1      48.904  29.930  32.739  1.00  0.00    +0.000 F 
ATOM     64  C50 UNL A   1      49.649  27.796  33.414  1.00  0.00    +0.000 C 
ENDBRANCH   58   59
BRANCH   73   74
ATOM     74  C56 UNL A   1      50.674  27.559  25.457  1.00  0.00    +0.000 C 
ATOM     75  C57 UNL A   1      50.204  27.533  24.132  1.00  0.00    +0.000 C 
ATOM     76  F11 UNL A   1      48.896  27.370  23.885  1.00  0.00    +0.000 F 
ATOM     77  C58 UNL A   1      51.056  27.757  23.046  1.00  0.00    +0.000 C 
ATOM     78  F12 UNL A   1      50.559  27.801  21.803  1.00  0.00    +0.000 F 
ATOM     79  C59 UNL A   1      52.404  28.003  23.253  1.00  0.00    +0.000 C 
ATOM     80  F13 UNL A   1      53.207  28.290  22.221  1.00  0.00    +0.000 F 
ATOM     81  C60 UNL A   1      52.905  27.994  24.542  1.00  0.00    +0.000 C 
ATOM     82  F14 UNL A   1      54.200  28.265  24.758  1.00  0.00    +0.000 F 
ATOM     83  C61 UNL A   1      52.054  27.776  25.627  1.00  0.00    +0.000 C 
ATOM     84  F15 UNL A   1      52.589  27.881  26.852  1.00  0.00    +0.000 F 
ENDBRANCH   73   74
TORSDOF 25
ENDMDL
