MODEL 1
REMARK VINA RESULT:      -9.5      0.000      0.000
ROOT
ATOM    129  H39 UNL A   1       0.883   8.512  36.779  1.00  0.00    +0.000 H 
ATOM    130  H40 UNL A   1      -2.984   6.235  34.511  1.00  0.00    +0.000 H 
ATOM    131  H41 UNL A   1      -1.565   4.103  34.515  1.00  0.00    +0.000 H 
ATOM    132  H42 UNL A   1       6.073   9.071  38.753  1.00  0.00    +0.000 H 
ATOM    133  H43 UNL A   1       4.557  11.107  39.091  1.00  0.00    +0.000 H 
ATOM     31  C26 UNL A   1       1.971  10.815  37.933  1.00  0.00    +0.000 C 
ATOM     32  C27 UNL A   1       3.063   9.787  38.008  1.00  0.00    +0.000 C 
ATOM     33  N3  UNL A   1       3.070   8.553  37.572  1.00  0.00    +0.000 N 
ATOM     34  C28 UNL A   1       4.331   8.055  37.870  1.00  0.00    +0.000 C 
ATOM     35  C29 UNL A   1       4.811   6.804  37.675  1.00  0.00    +0.000 C 
ATOM     47  C36 UNL A   1       4.057   5.728  37.091  1.00  0.00    +0.000 C 
ATOM     48  C37 UNL A   1       4.444   4.416  36.885  1.00  0.00    +0.000 C 
ATOM     49  C38 UNL A   1       3.390   3.741  36.261  1.00  0.00    +0.000 C 
ATOM     50  C39 UNL A   1       2.332   4.623  36.114  1.00  0.00    +0.000 C 
ATOM     51  N4  UNL A   1       2.757   5.840  36.622  1.00  0.00    +0.000 N 
ATOM     52  C40 UNL A   1       1.031   4.375  35.549  1.00  0.00    +0.000 C 
ATOM     64  C47 UNL A   1       0.035   5.289  35.454  1.00  0.00    +0.000 C 
ATOM     65  N5  UNL A   1       0.029   6.616  35.860  1.00  0.00    +0.000 N 
ATOM     66  C48 UNL A   1      -1.153   7.085  35.544  1.00  0.00    +0.000 C 
ATOM     67  C49 UNL A   1      -1.717   8.460  35.768  1.00  0.00    +0.000 C 
ATOM     79  C56 UNL A   1      -0.955   9.398  36.363  1.00  0.00    +0.000 C 
ATOM     80  C57 UNL A   1      -1.366  10.769  36.650  1.00  0.00    +0.000 C 
ATOM     81  C58 UNL A   1      -0.343  11.423  37.224  1.00  0.00    +0.000 C 
ATOM     82  C59 UNL A   1       0.785  10.504  37.375  1.00  0.00    +0.000 C 
ATOM     83  N6  UNL A   1       0.334   9.327  36.831  1.00  0.00    +0.000 N 
ATOM     84  C60 UNL A   1      -2.029   6.108  34.880  1.00  0.00    +0.000 C 
ATOM     85  C61 UNL A   1      -1.268   5.022  34.879  1.00  0.00    +0.000 C 
ATOM     86  C62 UNL A   1       5.080   9.133  38.479  1.00  0.00    +0.000 C 
ATOM     87  C63 UNL A   1       4.324  10.209  38.640  1.00  0.00    +0.000 C 
ATOM    124  H34 UNL A   1       5.354   4.005  37.147  1.00  0.00    +0.000 H 
ATOM    125  H35 UNL A   1       3.399   2.754  35.961  1.00  0.00    +0.000 H 
ATOM    126  H36 UNL A   1       2.215   6.663  36.646  1.00  0.00    +0.000 H 
ATOM    127  H37 UNL A   1      -2.294  11.171  36.444  1.00  0.00    +0.000 H 
ATOM    128  H38 UNL A   1      -0.351  12.413  37.512  1.00  0.00    +0.000 H 
ENDROOT
BRANCH   31   30
ATOM    134  H44 UNL A   1       1.602  11.761  40.411  1.00  0.00    +0.000 H 
ATOM    135  H45 UNL A   1       1.884  14.029  41.221  1.00  0.00    +0.000 H 
ATOM    123  H33 UNL A   1       2.849  12.990  36.577  1.00  0.00    +0.000 H 
ATOM     88  C64 UNL A   1       1.944  12.498  39.774  1.00  0.00    +0.000 C 
ATOM     89  C65 UNL A   1       2.141  13.792  40.252  1.00  0.00    +0.000 C 
ATOM    122  H32 UNL A   1       3.304  15.212  37.441  1.00  0.00    +0.000 H 
ATOM     27  C22 UNL A   1       2.688  14.767  39.413  1.00  0.00    +0.000 C 
ATOM     28  C23 UNL A   1       2.937  14.480  38.068  1.00  0.00    +0.000 C 
ATOM     29  C24 UNL A   1       2.685  13.198  37.575  1.00  0.00    +0.000 C 
ATOM     30  C25 UNL A   1       2.210  12.191  38.431  1.00  0.00    +0.000 C 
BRANCH   27   25
ATOM     25  C21 UNL A   1       2.988  16.125  39.917  1.00  0.00    +0.000 C 
ATOM     26  O3  UNL A   1       2.999  17.074  39.137  1.00  0.00    +0.000 O 
BRANCH   25   24
ATOM    121  H31 UNL A   1       2.478  16.327  41.842  1.00  0.00    +0.000 H 
ATOM     24  N2  UNL A   1       3.262  16.320  41.246  1.00  0.00    +0.000 N 
BRANCH   24   23
ATOM    119  H29 UNL A   1       4.671  17.561  42.101  1.00  0.00    +0.000 H 
ATOM     23  C20 UNL A   1       4.544  16.517  41.900  1.00  0.00    +0.000 C 
ATOM    120  H30 UNL A   1       4.544  15.944  42.803  1.00  0.00    +0.000 H 
BRANCH   23   22
ATOM    118  H28 UNL A   1       6.460  16.797  41.103  1.00  0.00    +0.000 H 
ATOM    117  H27 UNL A   1       5.347  15.878  40.048  1.00  0.00    +0.000 H 
ATOM     22  C19 UNL A   1       5.709  16.037  41.041  1.00  0.00    +0.000 C 
BRANCH   22   21
ATOM    115  H25 UNL A   1       7.065  14.429  40.764  1.00  0.00    +0.000 H 
ATOM    116  H26 UNL A   1       6.832  14.974  42.456  1.00  0.00    +0.000 H 
ATOM     21  C18 UNL A   1       6.373  14.741  41.517  1.00  0.00    +0.000 C 
BRANCH   21   20
ATOM    113  H23 UNL A   1       5.535  13.288  42.820  1.00  0.00    +0.000 H 
ATOM    114  H24 UNL A   1       4.437  13.931  41.560  1.00  0.00    +0.000 H 
ATOM     20  C17 UNL A   1       5.418  13.573  41.795  1.00  0.00    +0.000 C 
BRANCH   20   19
ATOM     19  C16 UNL A   1       5.636  12.330  40.929  1.00  0.00    +0.000 C 
ATOM    111  H21 UNL A   1       5.051  11.532  41.334  1.00  0.00    +0.000 H 
ATOM    112  H22 UNL A   1       5.345  12.595  39.934  1.00  0.00    +0.000 H 
BRANCH   19   18
ATOM     18  C15 UNL A   1       7.089  11.867  40.852  1.00  0.00    +0.000 C 
ATOM    109  H19 UNL A   1       7.707  12.573  41.366  1.00  0.00    +0.000 H 
ATOM    110  H20 UNL A   1       7.156  10.899  41.305  1.00  0.00    +0.000 H 
BRANCH   18   17
ATOM     17  N1  UNL A   1       7.543  11.755  39.478  1.00  0.00    +0.000 N 
ATOM    108  H18 UNL A   1       7.328  10.894  39.052  1.00  0.00    +0.000 H 
BRANCH   17   15
ATOM     15  C14 UNL A   1       8.214  12.630  38.666  1.00  0.00    +0.000 C 
ATOM     16  O2  UNL A   1       9.369  12.904  39.007  1.00  0.00    +0.000 O 
BRANCH   15   13
ATOM      2  C2  UNL A   1       8.603  16.321  33.842  1.00  0.00    +0.000 C 
ATOM      3  C3  UNL A   1       8.905  15.757  35.107  1.00  0.00    +0.000 C 
ATOM      5  C5  UNL A   1       8.209  14.611  35.538  1.00  0.00    +0.000 C 
ATOM      6  C6  UNL A   1       7.258  13.988  34.710  1.00  0.00    +0.000 C 
ATOM      7  C7  UNL A   1       6.919  14.569  33.470  1.00  0.00    +0.000 C 
ATOM    101  H11 UNL A   1       6.608  12.006  34.374  1.00  0.00    +0.000 H 
ATOM      9  C9  UNL A   1       7.595  15.728  33.060  1.00  0.00    +0.000 C 
ATOM    102  H12 UNL A   1       5.561  12.964  35.416  1.00  0.00    +0.000 H 
ATOM     11  C10 UNL A   1       6.573  12.727  35.165  1.00  0.00    +0.000 C 
ATOM     12  C11 UNL A   1       7.248  12.147  36.390  1.00  0.00    +0.000 C 
ATOM     13  C12 UNL A   1       7.544  13.252  37.407  1.00  0.00    +0.000 C 
ATOM    103  H13 UNL A   1       8.166  11.680  36.099  1.00  0.00    +0.000 H 
ATOM    104  H14 UNL A   1       6.596  11.427  36.838  1.00  0.00    +0.000 H 
ATOM     90  O4  UNL A   1       8.508  14.143  36.797  1.00  0.00    +0.000 O 
BRANCH    2    1
ATOM      1  C1  UNL A   1       9.380  17.523  33.368  1.00  0.00    +0.000 C 
ATOM     91  H1  UNL A   1       8.788  18.079  32.672  1.00  0.00    +0.000 H 
ATOM     92  H2  UNL A   1      10.282  17.201  32.893  1.00  0.00    +0.000 H 
ATOM     93  H3  UNL A   1       9.621  18.144  34.206  1.00  0.00    +0.000 H 
ENDBRANCH    2    1
BRANCH    3    4
ATOM      4  C4  UNL A   1       9.949  16.391  35.995  1.00  0.00    +0.000 C 
ATOM     94  H4  UNL A   1       9.468  16.903  36.802  1.00  0.00    +0.000 H 
ATOM     95  H5  UNL A   1      10.526  17.090  35.424  1.00  0.00    +0.000 H 
ATOM     96  H6  UNL A   1      10.594  15.633  36.387  1.00  0.00    +0.000 H 
ENDBRANCH    3    4
BRANCH    7    8
ATOM     97  H7  UNL A   1       5.491  13.052  33.074  1.00  0.00    +0.000 H 
ATOM     98  H8  UNL A   1       6.256  13.711  31.648  1.00  0.00    +0.000 H 
ATOM     99  H9  UNL A   1       5.038  14.636  32.494  1.00  0.00    +0.000 H 
ATOM      8  C8  UNL A   1       5.848  13.947  32.610  1.00  0.00    +0.000 C 
ENDBRANCH    7    8
BRANCH    9   10
ATOM     10  O1  UNL A   1       7.227  16.260  31.853  1.00  0.00    +0.000 O 
ATOM    100  H10 UNL A   1       6.552  16.910  31.813  1.00  0.00    +0.000 H 
ENDBRANCH    9   10
BRANCH   13   14
ATOM    105  H15 UNL A   1       5.539  13.494  38.146  1.00  0.00    +0.000 H 
ATOM    106  H16 UNL A   1       6.063  14.777  37.081  1.00  0.00    +0.000 H 
ATOM    107  H17 UNL A   1       6.660  14.706  38.722  1.00  0.00    +0.000 H 
ATOM     14  C13 UNL A   1       6.361  14.123  37.875  1.00  0.00    +0.000 C 
ENDBRANCH   13   14
ENDBRANCH   15   13
ENDBRANCH   17   15
ENDBRANCH   18   17
ENDBRANCH   19   18
ENDBRANCH   20   19
ENDBRANCH   21   20
ENDBRANCH   22   21
ENDBRANCH   23   22
ENDBRANCH   24   23
ENDBRANCH   25   24
ENDBRANCH   27   25
ENDBRANCH   31   30
BRANCH   35   36
ATOM     36  C30 UNL A   1       6.218   6.527  38.111  1.00  0.00    +0.000 C 
ATOM     37  C31 UNL A   1       6.491   5.876  39.324  1.00  0.00    +0.000 C 
ATOM     38  F1  UNL A   1       5.489   5.542  40.150  1.00  0.00    +0.000 F 
ATOM     39  C32 UNL A   1       7.801   5.596  39.707  1.00  0.00    +0.000 C 
ATOM     40  F2  UNL A   1       8.039   5.008  40.888  1.00  0.00    +0.000 F 
ATOM     41  C33 UNL A   1       8.857   5.932  38.874  1.00  0.00    +0.000 C 
ATOM     42  F3  UNL A   1      10.115   5.653  39.240  1.00  0.00    +0.000 F 
ATOM     43  C34 UNL A   1       8.609   6.562  37.664  1.00  0.00    +0.000 C 
ATOM     44  F4  UNL A   1       9.628   6.878  36.853  1.00  0.00    +0.000 F 
ATOM     45  C35 UNL A   1       7.302   6.868  37.289  1.00  0.00    +0.000 C 
ATOM     46  F5  UNL A   1       7.095   7.487  36.118  1.00  0.00    +0.000 F 
ENDBRANCH   35   36
BRANCH   52   53
ATOM     53  C41 UNL A   1       0.752   2.993  35.036  1.00  0.00    +0.000 C 
ATOM     54  C42 UNL A   1       0.014   2.071  35.791  1.00  0.00    +0.000 C 
ATOM     55  F6  UNL A   1      -0.390   2.383  37.031  1.00  0.00    +0.000 F 
ATOM     56  C43 UNL A   1      -0.291   0.812  35.280  1.00  0.00    +0.000 C 
ATOM     57  F7  UNL A   1      -0.972  -0.066  36.030  1.00  0.00    +0.000 F 
ATOM     58  C44 UNL A   1       0.113   0.464  33.999  1.00  0.00    +0.000 C 
ATOM     59  F8  UNL A   1      -0.194  -0.744  33.505  1.00  0.00    +0.000 F 
ATOM     60  C45 UNL A   1       0.838   1.364  33.234  1.00  0.00    +0.000 C 
ATOM     61  F9  UNL A   1       1.218   1.034  31.993  1.00  0.00    +0.000 F 
ATOM     62  C46 UNL A   1       1.165   2.615  33.751  1.00  0.00    +0.000 C 
ATOM     63  F10 UNL A   1       1.867   3.465  32.988  1.00  0.00    +0.000 F 
ENDBRANCH   52   53
BRANCH   67   68
ATOM     68  C50 UNL A   1      -3.112   8.786  35.379  1.00  0.00    +0.000 C 
ATOM     69  C51 UNL A   1      -3.387   9.384  34.141  1.00  0.00    +0.000 C 
ATOM     70  F11 UNL A   1      -2.379   9.704  33.316  1.00  0.00    +0.000 F 
ATOM     71  C52 UNL A   1      -4.693   9.679  33.759  1.00  0.00    +0.000 C 
ATOM     72  F12 UNL A   1      -4.925  10.276  32.583  1.00  0.00    +0.000 F 
ATOM     73  C53 UNL A   1      -5.751   9.362  34.597  1.00  0.00    +0.000 C 
ATOM     74  F13 UNL A   1      -7.009   9.636  34.225  1.00  0.00    +0.000 F 
ATOM     75  C54 UNL A   1      -5.504   8.764  35.824  1.00  0.00    +0.000 C 
ATOM     76  F14 UNL A   1      -6.526   8.446  36.632  1.00  0.00    +0.000 F 
ATOM     77  C55 UNL A   1      -4.196   8.489  36.217  1.00  0.00    +0.000 C 
ATOM     78  F15 UNL A   1      -3.985   7.914  37.410  1.00  0.00    +0.000 F 
ENDBRANCH   67   68
TORSDOF 20
ENDMDL
MODEL 2
REMARK VINA RESULT:      -9.4     30.919     38.138
ROOT
ATOM    129  H39 UNL A   1      22.107  37.836  47.464  1.00  0.00    +0.000 H 
ATOM    130  H40 UNL A   1      19.082  33.820  47.458  1.00  0.00    +0.000 H 
ATOM    131  H41 UNL A   1      17.346  35.285  48.640  1.00  0.00    +0.000 H 
ATOM    132  H42 UNL A   1      23.788  42.997  48.764  1.00  0.00    +0.000 H 
ATOM    133  H43 UNL A   1      25.393  41.675  47.270  1.00  0.00    +0.000 H 
ATOM     31  C26 UNL A   1      24.550  39.002  46.764  1.00  0.00    +0.000 C 
ATOM     32  C27 UNL A   1      23.806  40.073  47.509  1.00  0.00    +0.000 C 
ATOM     33  N3  UNL A   1      22.628  40.019  48.077  1.00  0.00    +0.000 N 
ATOM     34  C28 UNL A   1      22.429  41.269  48.649  1.00  0.00    +0.000 C 
ATOM     35  C29 UNL A   1      21.336  41.734  49.297  1.00  0.00    +0.000 C 
ATOM     47  C36 UNL A   1      20.138  40.970  49.521  1.00  0.00    +0.000 C 
ATOM     48  C37 UNL A   1      18.964  41.366  50.136  1.00  0.00    +0.000 C 
ATOM     49  C38 UNL A   1      18.086  40.277  50.148  1.00  0.00    +0.000 C 
ATOM     50  C39 UNL A   1      18.700  39.214  49.505  1.00  0.00    +0.000 C 
ATOM     51  N4  UNL A   1      19.960  39.651  49.131  1.00  0.00    +0.000 N 
ATOM     52  C40 UNL A   1      18.177  37.896  49.255  1.00  0.00    +0.000 C 
ATOM     64  C47 UNL A   1      18.834  36.908  48.600  1.00  0.00    +0.000 C 
ATOM     65  N5  UNL A   1      20.104  36.928  48.041  1.00  0.00    +0.000 N 
ATOM     66  C48 UNL A   1      20.294  35.735  47.534  1.00  0.00    +0.000 C 
ATOM     67  C49 UNL A   1      21.487  35.201  46.792  1.00  0.00    +0.000 C 
ATOM     79  C56 UNL A   1      22.552  36.000  46.590  1.00  0.00    +0.000 C 
ATOM     80  C57 UNL A   1      23.774  35.624  45.886  1.00  0.00    +0.000 C 
ATOM     81  C58 UNL A   1      24.625  36.663  45.899  1.00  0.00    +0.000 C 
ATOM     82  C59 UNL A   1      23.992  37.789  46.585  1.00  0.00    +0.000 C 
ATOM     83  N6  UNL A   1      22.767  37.303  46.967  1.00  0.00    +0.000 N 
ATOM     84  C60 UNL A   1      19.168  34.811  47.733  1.00  0.00    +0.000 C 
ATOM     85  C61 UNL A   1      18.292  35.586  48.360  1.00  0.00    +0.000 C 
ATOM     86  C62 UNL A   1      23.626  42.044  48.403  1.00  0.00    +0.000 C 
ATOM     87  C63 UNL A   1      24.485  41.370  47.654  1.00  0.00    +0.000 C 
ATOM    124  H34 UNL A   1      18.768  42.304  50.519  1.00  0.00    +0.000 H 
ATOM    125  H35 UNL A   1      17.143  40.266  50.565  1.00  0.00    +0.000 H 
ATOM    126  H36 UNL A   1      20.631  39.106  48.657  1.00  0.00    +0.000 H 
ATOM    127  H37 UNL A   1      23.955  34.707  45.448  1.00  0.00    +0.000 H 
ATOM    128  H38 UNL A   1      25.573  36.666  45.491  1.00  0.00    +0.000 H 
ENDROOT
BRANCH   31   30
ATOM    134  H44 UNL A   1      25.409  41.077  45.306  1.00  0.00    +0.000 H 
ATOM    135  H45 UNL A   1      27.619  41.468  44.386  1.00  0.00    +0.000 H 
ATOM    123  H33 UNL A   1      26.786  37.501  47.060  1.00  0.00    +0.000 H 
ATOM     88  C64 UNL A   1      26.174  40.411  45.499  1.00  0.00    +0.000 C 
ATOM     89  C65 UNL A   1      27.451  40.657  45.001  1.00  0.00    +0.000 C 
ATOM    122  H32 UNL A   1      29.036  37.994  46.293  1.00  0.00    +0.000 H 
ATOM     27  C22 UNL A   1      28.506  39.803  45.337  1.00  0.00    +0.000 C 
ATOM     28  C23 UNL A   1      28.263  38.644  46.079  1.00  0.00    +0.000 C 
ATOM     29  C24 UNL A   1      26.971  38.367  46.530  1.00  0.00    +0.000 C 
ATOM     30  C25 UNL A   1      25.922  39.261  46.264  1.00  0.00    +0.000 C 
BRANCH   27   25
ATOM     25  C21 UNL A   1      29.887  40.086  44.894  1.00  0.00    +0.000 C 
ATOM     26  O3  UNL A   1      30.212  39.862  43.730  1.00  0.00    +0.000 O 
BRANCH   25   24
ATOM    121  H31 UNL A   1      31.457  39.938  46.129  1.00  0.00    +0.000 H 
ATOM     24  N2  UNL A   1      30.805  40.589  45.781  1.00  0.00    +0.000 N 
BRANCH   24   23
ATOM    119  H29 UNL A   1      31.974  42.103  46.552  1.00  0.00    +0.000 H 
ATOM     23  C20 UNL A   1      30.951  41.945  46.282  1.00  0.00    +0.000 C 
ATOM    120  H30 UNL A   1      30.645  42.615  45.507  1.00  0.00    +0.000 H 
BRANCH   23   22
ATOM    118  H28 UNL A   1      30.679  42.757  48.192  1.00  0.00    +0.000 H 
ATOM    117  H27 UNL A   1      29.745  41.264  47.883  1.00  0.00    +0.000 H 
ATOM     22  C19 UNL A   1      30.074  42.208  47.502  1.00  0.00    +0.000 C 
BRANCH   22   21
ATOM    115  H25 UNL A   1      29.135  44.097  47.285  1.00  0.00    +0.000 H 
ATOM    116  H26 UNL A   1      28.473  42.773  46.274  1.00  0.00    +0.000 H 
ATOM     21  C18 UNL A   1      28.837  43.071  47.235  1.00  0.00    +0.000 C 
BRANCH   21   20
ATOM    113  H23 UNL A   1      26.822  42.540  47.644  1.00  0.00    +0.000 H 
ATOM    114  H24 UNL A   1      28.007  42.157  48.932  1.00  0.00    +0.000 H 
ATOM     20  C17 UNL A   1      27.669  42.870  48.209  1.00  0.00    +0.000 C 
BRANCH   20   19
ATOM     19  C16 UNL A   1      27.256  44.114  48.999  1.00  0.00    +0.000 C 
ATOM    111  H21 UNL A   1      28.060  44.818  48.963  1.00  0.00    +0.000 H 
ATOM    112  H22 UNL A   1      26.360  44.483  48.545  1.00  0.00    +0.000 H 
BRANCH   19   18
ATOM     18  C15 UNL A   1      26.923  43.843  50.465  1.00  0.00    +0.000 C 
ATOM    109  H19 UNL A   1      27.832  43.817  51.029  1.00  0.00    +0.000 H 
ATOM    110  H20 UNL A   1      26.280  44.626  50.812  1.00  0.00    +0.000 H 
BRANCH   18   17
ATOM     17  N1  UNL A   1      26.228  42.580  50.632  1.00  0.00    +0.000 N 
ATOM    108  H18 UNL A   1      25.770  42.262  49.821  1.00  0.00    +0.000 H 
BRANCH   17   15
ATOM     15  C14 UNL A   1      26.096  41.749  51.712  1.00  0.00    +0.000 C 
ATOM     16  O2  UNL A   1      26.237  42.277  52.819  1.00  0.00    +0.000 O 
BRANCH   15   13
ATOM      2  C2  UNL A   1      22.049  37.223  51.277  1.00  0.00    +0.000 C 
ATOM      3  C3  UNL A   1      22.582  38.500  51.587  1.00  0.00    +0.000 C 
ATOM      5  C5  UNL A   1      23.895  38.816  51.192  1.00  0.00    +0.000 C 
ATOM      6  C6  UNL A   1      24.667  37.905  50.449  1.00  0.00    +0.000 C 
ATOM      7  C7  UNL A   1      24.162  36.617  50.177  1.00  0.00    +0.000 C 
ATOM    101  H11 UNL A   1      26.144  38.043  48.945  1.00  0.00    +0.000 H 
ATOM      9  C9  UNL A   1      22.863  36.296  50.600  1.00  0.00    +0.000 C 
ATOM    102  H12 UNL A   1      26.762  37.754  50.567  1.00  0.00    +0.000 H 
ATOM     11  C10 UNL A   1      26.045  38.290  49.982  1.00  0.00    +0.000 C 
ATOM     12  C11 UNL A   1      26.292  39.773  50.162  1.00  0.00    +0.000 C 
ATOM     13  C12 UNL A   1      25.811  40.228  51.540  1.00  0.00    +0.000 C 
ATOM    103  H13 UNL A   1      25.760  40.313  49.406  1.00  0.00    +0.000 H 
ATOM    104  H14 UNL A   1      27.342  39.963  50.078  1.00  0.00    +0.000 H 
ATOM     90  O4  UNL A   1      24.374  40.050  51.569  1.00  0.00    +0.000 O 
BRANCH    2    1
ATOM      1  C1  UNL A   1      20.627  36.905  51.667  1.00  0.00    +0.000 C 
ATOM     91  H1  UNL A   1      20.200  36.241  50.944  1.00  0.00    +0.000 H 
ATOM     92  H2  UNL A   1      20.057  37.808  51.704  1.00  0.00    +0.000 H 
ATOM     93  H3  UNL A   1      20.618  36.437  52.629  1.00  0.00    +0.000 H 
ENDBRANCH    2    1
BRANCH    3    4
ATOM      4  C4  UNL A   1      21.754  39.505  52.353  1.00  0.00    +0.000 C 
ATOM     94  H4  UNL A   1      22.402  40.148  52.912  1.00  0.00    +0.000 H 
ATOM     95  H5  UNL A   1      21.098  38.991  53.024  1.00  0.00    +0.000 H 
ATOM     96  H6  UNL A   1      21.177  40.089  51.667  1.00  0.00    +0.000 H 
ENDBRANCH    3    4
BRANCH    7    8
ATOM     97  H7  UNL A   1      24.731  35.587  48.412  1.00  0.00    +0.000 H 
ATOM     98  H8  UNL A   1      24.866  34.639  49.874  1.00  0.00    +0.000 H 
ATOM     99  H9  UNL A   1      26.043  35.883  49.527  1.00  0.00    +0.000 H 
ATOM      8  C8  UNL A   1      25.012  35.609  49.444  1.00  0.00    +0.000 C 
ENDBRANCH    7    8
BRANCH    9   10
ATOM     10  O1  UNL A   1      22.419  35.031  50.320  1.00  0.00    +0.000 O 
ATOM    100  H10 UNL A   1      23.033  34.329  50.230  1.00  0.00    +0.000 H 
ENDBRANCH    9   10
BRANCH   13   14
ATOM    105  H15 UNL A   1      26.172  38.446  52.687  1.00  0.00    +0.000 H 
ATOM    106  H16 UNL A   1      25.918  39.876  53.659  1.00  0.00    +0.000 H 
ATOM    107  H17 UNL A   1      27.436  39.646  52.823  1.00  0.00    +0.000 H 
ATOM     14  C13 UNL A   1      26.378  39.493  52.771  1.00  0.00    +0.000 C 
ENDBRANCH   13   14
ENDBRANCH   15   13
ENDBRANCH   17   15
ENDBRANCH   18   17
ENDBRANCH   19   18
ENDBRANCH   20   19
ENDBRANCH   21   20
ENDBRANCH   22   21
ENDBRANCH   23   22
ENDBRANCH   24   23
ENDBRANCH   25   24
ENDBRANCH   27   25
ENDBRANCH   31   30
BRANCH   35   36
ATOM     36  C30 UNL A   1      21.379  43.144  49.805  1.00  0.00    +0.000 C 
ATOM     37  C31 UNL A   1      21.950  43.454  51.049  1.00  0.00    +0.000 C 
ATOM     38  F1  UNL A   1      22.419  42.477  51.837  1.00  0.00    +0.000 F 
ATOM     39  C32 UNL A   1      22.013  44.771  51.499  1.00  0.00    +0.000 C 
ATOM     40  F2  UNL A   1      22.529  45.038  52.707  1.00  0.00    +0.000 F 
ATOM     41  C33 UNL A   1      21.535  45.802  50.706  1.00  0.00    +0.000 C 
ATOM     42  F3  UNL A   1      21.605  47.068  51.137  1.00  0.00    +0.000 F 
ATOM     43  C34 UNL A   1      20.979  45.519  49.467  1.00  0.00    +0.000 C 
ATOM     44  F4  UNL A   1      20.526  46.516  48.694  1.00  0.00    +0.000 F 
ATOM     45  C35 UNL A   1      20.891  44.201  49.023  1.00  0.00    +0.000 C 
ATOM     46  F5  UNL A   1      20.339  43.959  47.826  1.00  0.00    +0.000 F 
ENDBRANCH   35   36
BRANCH   52   53
ATOM     53  C41 UNL A   1      16.792  37.597  49.745  1.00  0.00    +0.000 C 
ATOM     54  C42 UNL A   1      16.508  37.500  51.115  1.00  0.00    +0.000 C 
ATOM     55  F6  UNL A   1      17.496  37.593  52.016  1.00  0.00    +0.000 F 
ATOM     56  C43 UNL A   1      15.206  37.283  51.560  1.00  0.00    +0.000 C 
ATOM     57  F7  UNL A   1      14.962  37.163  52.872  1.00  0.00    +0.000 F 
ATOM     58  C44 UNL A   1      14.165  37.185  50.648  1.00  0.00    +0.000 C 
ATOM     59  F8  UNL A   1      12.912  36.990  51.081  1.00  0.00    +0.000 F 
ATOM     60  C45 UNL A   1      14.424  37.286  49.289  1.00  0.00    +0.000 C 
ATOM     61  F9  UNL A   1      13.418  37.204  48.409  1.00  0.00    +0.000 F 
ATOM     62  C46 UNL A   1      15.727  37.479  48.840  1.00  0.00    +0.000 C 
ATOM     63  F10 UNL A   1      15.947  37.572  47.520  1.00  0.00    +0.000 F 
ENDBRANCH   52   53
BRANCH   67   68
ATOM     68  C50 UNL A   1      21.492  33.820  46.247  1.00  0.00    +0.000 C 
ATOM     69  C51 UNL A   1      20.969  33.552  44.974  1.00  0.00    +0.000 C 
ATOM     70  F11 UNL A   1      20.419  34.542  44.257  1.00  0.00    +0.000 F 
ATOM     71  C52 UNL A   1      20.983  32.263  44.447  1.00  0.00    +0.000 C 
ATOM     72  F12 UNL A   1      20.451  32.030  43.241  1.00  0.00    +0.000 F 
ATOM     73  C53 UNL A   1      21.541  31.221  45.173  1.00  0.00    +0.000 C 
ATOM     74  F13 UNL A   1      21.565  29.983  44.661  1.00  0.00    +0.000 F 
ATOM     75  C54 UNL A   1      22.071  31.463  46.431  1.00  0.00    +0.000 C 
ATOM     76  F14 UNL A   1      22.622  30.461  47.130  1.00  0.00    +0.000 F 
ATOM     77  C55 UNL A   1      22.037  32.749  46.969  1.00  0.00    +0.000 C 
ATOM     78  F15 UNL A   1      22.554  32.954  48.189  1.00  0.00    +0.000 F 
ENDBRANCH   67   68
TORSDOF 20
ENDMDL
MODEL 3
REMARK VINA RESULT:      -9.4     55.720     64.721
ROOT
ATOM    129  H39 UNL A   1      48.368  53.034  18.194  1.00  0.00    +0.000 H 
ATOM    130  H40 UNL A   1      49.872  57.546  16.563  1.00  0.00    +0.000 H 
ATOM    131  H41 UNL A   1      51.887  57.297  18.123  1.00  0.00    +0.000 H 
ATOM    132  H42 UNL A   1      48.396  48.458  21.390  1.00  0.00    +0.000 H 
ATOM    133  H43 UNL A   1      46.578  48.514  19.587  1.00  0.00    +0.000 H 
ATOM     31  C26 UNL A   1      46.524  50.936  18.088  1.00  0.00    +0.000 C 
ATOM     32  C27 UNL A   1      47.514  50.532  19.142  1.00  0.00    +0.000 C 
ATOM     33  N3  UNL A   1      48.552  51.186  19.596  1.00  0.00    +0.000 N 
ATOM     34  C28 UNL A   1      49.106  50.378  20.580  1.00  0.00    +0.000 C 
ATOM     35  C29 UNL A   1      50.231  50.583  21.304  1.00  0.00    +0.000 C 
ATOM     47  C36 UNL A   1      51.082  51.736  21.174  1.00  0.00    +0.000 C 
ATOM     48  C37 UNL A   1      52.263  52.016  21.838  1.00  0.00    +0.000 C 
ATOM     49  C38 UNL A   1      52.723  53.264  21.405  1.00  0.00    +0.000 C 
ATOM     50  C39 UNL A   1      51.848  53.743  20.443  1.00  0.00    +0.000 C 
ATOM     51  N4  UNL A   1      50.844  52.798  20.315  1.00  0.00    +0.000 N 
ATOM     52  C40 UNL A   1      51.923  54.974  19.698  1.00  0.00    +0.000 C 
ATOM     64  C47 UNL A   1      51.033  55.368  18.755  1.00  0.00    +0.000 C 
ATOM     65  N5  UNL A   1      49.897  54.714  18.301  1.00  0.00    +0.000 N 
ATOM     66  C48 UNL A   1      49.364  55.500  17.398  1.00  0.00    +0.000 C 
ATOM     67  C49 UNL A   1      48.131  55.286  16.565  1.00  0.00    +0.000 C 
ATOM     79  C56 UNL A   1      47.415  54.157  16.723  1.00  0.00    +0.000 C 
ATOM     80  C57 UNL A   1      46.204  53.810  15.986  1.00  0.00    +0.000 C 
ATOM     81  C58 UNL A   1      45.749  52.624  16.422  1.00  0.00    +0.000 C 
ATOM     82  C59 UNL A   1      46.659  52.112  17.447  1.00  0.00    +0.000 C 
ATOM     83  N6  UNL A   1      47.614  53.091  17.565  1.00  0.00    +0.000 N 
ATOM     84  C60 UNL A   1      50.097  56.758  17.189  1.00  0.00    +0.000 C 
ATOM     85  C61 UNL A   1      51.123  56.612  18.017  1.00  0.00    +0.000 C 
ATOM     86  C62 UNL A   1      48.262  49.208  20.694  1.00  0.00    +0.000 C 
ATOM     87  C63 UNL A   1      47.296  49.228  19.788  1.00  0.00    +0.000 C 
ATOM    124  H34 UNL A   1      52.725  51.409  22.532  1.00  0.00    +0.000 H 
ATOM    125  H35 UNL A   1      53.569  53.747  21.745  1.00  0.00    +0.000 H 
ATOM    126  H36 UNL A   1      50.074  52.870  19.704  1.00  0.00    +0.000 H 
ATOM    127  H37 UNL A   1      45.766  54.384  15.248  1.00  0.00    +0.000 H 
ATOM    128  H38 UNL A   1      44.896  52.149  16.088  1.00  0.00    +0.000 H 
ENDROOT
BRANCH   31   30
ATOM    134  H44 UNL A   1      44.069  51.013  19.157  1.00  0.00    +0.000 H 
ATOM    135  H45 UNL A   1      42.196  49.528  18.752  1.00  0.00    +0.000 H 
ATOM    123  H33 UNL A   1      46.365  48.861  16.354  1.00  0.00    +0.000 H 
ATOM     88  C64 UNL A   1      44.154  50.253  18.463  1.00  0.00    +0.000 C 
ATOM     89  C65 UNL A   1      43.064  49.425  18.205  1.00  0.00    +0.000 C 
ATOM    122  H32 UNL A   1      44.429  47.497  15.821  1.00  0.00    +0.000 H 
ATOM     27  C22 UNL A   1      43.149  48.454  17.202  1.00  0.00    +0.000 C 
ATOM     28  C23 UNL A   1      44.357  48.239  16.533  1.00  0.00    +0.000 C 
ATOM     29  C24 UNL A   1      45.467  49.032  16.833  1.00  0.00    +0.000 C 
ATOM     30  C25 UNL A   1      45.366  50.061  17.782  1.00  0.00    +0.000 C 
BRANCH   27   25
ATOM     25  C21 UNL A   1      41.982  47.619  16.848  1.00  0.00    +0.000 C 
ATOM     26  O3  UNL A   1      41.309  47.902  15.859  1.00  0.00    +0.000 O 
BRANCH   25   24
ATOM    121  H31 UNL A   1      41.619  46.711  18.595  1.00  0.00    +0.000 H 
ATOM     24  N2  UNL A   1      41.647  46.540  17.626  1.00  0.00    +0.000 N 
BRANCH   24   23
ATOM    119  H29 UNL A   1      40.731  45.218  16.333  1.00  0.00    +0.000 H 
ATOM     23  C20 UNL A   1      41.327  45.182  17.222  1.00  0.00    +0.000 C 
ATOM    120  H30 UNL A   1      42.247  44.664  17.054  1.00  0.00    +0.000 H 
BRANCH   23   22
ATOM    118  H28 UNL A   1      39.717  43.977  17.807  1.00  0.00    +0.000 H 
ATOM    117  H27 UNL A   1      40.274  45.126  19.059  1.00  0.00    +0.000 H 
ATOM     22  C19 UNL A   1      40.554  44.427  18.299  1.00  0.00    +0.000 C 
BRANCH   22   21
ATOM    115  H25 UNL A   1      40.627  42.506  19.195  1.00  0.00    +0.000 H 
ATOM    116  H26 UNL A   1      42.081  42.992  18.267  1.00  0.00    +0.000 H 
ATOM     21  C18 UNL A   1      41.325  43.283  18.966  1.00  0.00    +0.000 C 
BRANCH   21   20
ATOM    113  H23 UNL A   1      42.963  44.167  19.988  1.00  0.00    +0.000 H 
ATOM    114  H24 UNL A   1      41.384  44.244  20.830  1.00  0.00    +0.000 H 
ATOM     20  C17 UNL A   1      42.065  43.650  20.258  1.00  0.00    +0.000 C 
BRANCH   20   19
ATOM     19  C16 UNL A   1      42.450  42.467  21.150  1.00  0.00    +0.000 C 
ATOM    111  H21 UNL A   1      41.806  41.646  20.914  1.00  0.00    +0.000 H 
ATOM    112  H22 UNL A   1      43.480  42.257  20.953  1.00  0.00    +0.000 H 
BRANCH   19   18
ATOM     18  C15 UNL A   1      42.338  42.748  22.646  1.00  0.00    +0.000 C 
ATOM    109  H19 UNL A   1      41.667  43.568  22.797  1.00  0.00    +0.000 H 
ATOM    110  H20 UNL A   1      41.974  41.863  23.127  1.00  0.00    +0.000 H 
BRANCH   18   17
ATOM     17  N1  UNL A   1      43.626  43.080  23.227  1.00  0.00    +0.000 N 
ATOM    108  H18 UNL A   1      44.002  42.377  23.803  1.00  0.00    +0.000 H 
BRANCH   17   15
ATOM     15  C14 UNL A   1      44.415  44.194  23.116  1.00  0.00    +0.000 C 
ATOM     16  O2  UNL A   1      43.999  45.208  23.684  1.00  0.00    +0.000 O 
BRANCH   15   13
ATOM      2  C2  UNL A   1      47.414  45.600  18.009  1.00  0.00    +0.000 C 
ATOM      3  C3  UNL A   1      46.324  45.333  18.875  1.00  0.00    +0.000 C 
ATOM      5  C5  UNL A   1      46.567  45.109  20.244  1.00  0.00    +0.000 C 
ATOM      6  C6  UNL A   1      47.867  45.198  20.773  1.00  0.00    +0.000 C 
ATOM      7  C7  UNL A   1      48.961  45.417  19.910  1.00  0.00    +0.000 C 
ATOM    101  H11 UNL A   1      48.718  45.810  22.606  1.00  0.00    +0.000 H 
ATOM      9  C9  UNL A   1      48.716  45.610  18.542  1.00  0.00    +0.000 C 
ATOM    102  H12 UNL A   1      48.561  44.068  22.406  1.00  0.00    +0.000 H 
ATOM     11  C10 UNL A   1      48.094  45.017  22.250  1.00  0.00    +0.000 C 
ATOM     12  C11 UNL A   1      46.786  45.038  23.013  1.00  0.00    +0.000 C 
ATOM     13  C12 UNL A   1      45.741  44.176  22.302  1.00  0.00    +0.000 C 
ATOM    103  H13 UNL A   1      46.430  46.046  23.074  1.00  0.00    +0.000 H 
ATOM    104  H14 UNL A   1      46.950  44.647  23.995  1.00  0.00    +0.000 H 
ATOM     90  O4  UNL A   1      45.474  44.801  21.023  1.00  0.00    +0.000 O 
BRANCH    2    1
ATOM      1  C1  UNL A   1      47.144  45.881  16.552  1.00  0.00    +0.000 C 
ATOM     91  H1  UNL A   1      47.784  45.274  15.947  1.00  0.00    +0.000 H 
ATOM     92  H2  UNL A   1      47.332  46.914  16.347  1.00  0.00    +0.000 H 
ATOM     93  H3  UNL A   1      46.122  45.654  16.329  1.00  0.00    +0.000 H 
ENDBRANCH    2    1
BRANCH    3    4
ATOM      4  C4  UNL A   1      44.916  45.270  18.332  1.00  0.00    +0.000 C 
ATOM     94  H4  UNL A   1      44.517  44.290  18.487  1.00  0.00    +0.000 H 
ATOM     95  H5  UNL A   1      44.927  45.488  17.284  1.00  0.00    +0.000 H 
ATOM     96  H6  UNL A   1      44.304  45.987  18.838  1.00  0.00    +0.000 H 
ENDBRANCH    3    4
BRANCH    7    8
ATOM     97  H7  UNL A   1      50.984  46.047  19.832  1.00  0.00    +0.000 H 
ATOM     98  H8  UNL A   1      50.754  44.444  20.489  1.00  0.00    +0.000 H 
ATOM     99  H9  UNL A   1      50.354  45.847  21.450  1.00  0.00    +0.000 H 
ATOM      8  C8  UNL A   1      50.365  45.441  20.460  1.00  0.00    +0.000 C 
ENDBRANCH    7    8
BRANCH    9   10
ATOM     10  O1  UNL A   1      49.810  45.812  17.744  1.00  0.00    +0.000 O 
ATOM    100  H10 UNL A   1      50.661  45.897  18.128  1.00  0.00    +0.000 H 
ENDBRANCH    9   10
BRANCH   13   14
ATOM    105  H15 UNL A   1      47.086  42.660  21.583  1.00  0.00    +0.000 H 
ATOM    106  H16 UNL A   1      45.397  42.289  21.330  1.00  0.00    +0.000 H 
ATOM    107  H17 UNL A   1      46.092  42.149  22.928  1.00  0.00    +0.000 H 
ATOM     14  C13 UNL A   1      46.108  42.707  22.014  1.00  0.00    +0.000 C 
ENDBRANCH   13   14
ENDBRANCH   15   13
ENDBRANCH   17   15
ENDBRANCH   18   17
ENDBRANCH   19   18
ENDBRANCH   20   19
ENDBRANCH   21   20
ENDBRANCH   22   21
ENDBRANCH   23   22
ENDBRANCH   24   23
ENDBRANCH   25   24
ENDBRANCH   27   25
ENDBRANCH   31   30
BRANCH   35   36
ATOM     36  C30 UNL A   1      50.616  49.530  22.300  1.00  0.00    +0.000 C 
ATOM     37  C31 UNL A   1      51.539  48.523  21.976  1.00  0.00    +0.000 C 
ATOM     38  F1  UNL A   1      52.052  48.452  20.739  1.00  0.00    +0.000 F 
ATOM     39  C32 UNL A   1      51.913  47.566  22.915  1.00  0.00    +0.000 C 
ATOM     40  F2  UNL A   1      52.766  46.591  22.571  1.00  0.00    +0.000 F 
ATOM     41  C33 UNL A   1      51.397  47.614  24.201  1.00  0.00    +0.000 C 
ATOM     42  F3  UNL A   1      51.766  46.698  25.107  1.00  0.00    +0.000 F 
ATOM     43  C34 UNL A   1      50.495  48.609  24.547  1.00  0.00    +0.000 C 
ATOM     44  F4  UNL A   1      50.003  48.663  25.793  1.00  0.00    +0.000 F 
ATOM     45  C35 UNL A   1      50.098  49.553  23.603  1.00  0.00    +0.000 C 
ATOM     46  F5  UNL A   1      49.216  50.497  23.964  1.00  0.00    +0.000 F 
ENDBRANCH   35   36
BRANCH   52   53
ATOM     53  C41 UNL A   1      53.081  55.883  19.979  1.00  0.00    +0.000 C 
ATOM     54  C42 UNL A   1      52.979  56.928  20.908  1.00  0.00    +0.000 C 
ATOM     55  F6  UNL A   1      51.808  57.186  21.507  1.00  0.00    +0.000 F 
ATOM     56  C43 UNL A   1      54.079  57.728  21.206  1.00  0.00    +0.000 C 
ATOM     57  F7  UNL A   1      53.952  58.741  22.074  1.00  0.00    +0.000 F 
ATOM     58  C44 UNL A   1      55.304  57.482  20.602  1.00  0.00    +0.000 C 
ATOM     59  F8  UNL A   1      56.364  58.245  20.901  1.00  0.00    +0.000 F 
ATOM     60  C45 UNL A   1      55.427  56.448  19.685  1.00  0.00    +0.000 C 
ATOM     61  F9  UNL A   1      56.612  56.202  19.111  1.00  0.00    +0.000 F 
ATOM     62  C46 UNL A   1      54.324  55.662  19.368  1.00  0.00    +0.000 C 
ATOM     63  F10 UNL A   1      54.472  54.670  18.478  1.00  0.00    +0.000 F 
ENDBRANCH   52   53
BRANCH   67   68
ATOM     68  C50 UNL A   1      47.714  56.284  15.548  1.00  0.00    +0.000 C 
ATOM     69  C51 UNL A   1      48.029  56.100  14.195  1.00  0.00    +0.000 C 
ATOM     70  F11 UNL A   1      48.751  55.035  13.817  1.00  0.00    +0.000 F 
ATOM     71  C52 UNL A   1      47.629  57.021  13.231  1.00  0.00    +0.000 C 
ATOM     72  F12 UNL A   1      47.968  56.835  11.949  1.00  0.00    +0.000 F 
ATOM     73  C53 UNL A   1      46.886  58.133  13.598  1.00  0.00    +0.000 C 
ATOM     74  F13 UNL A   1      46.492  59.015  12.669  1.00  0.00    +0.000 F 
ATOM     75  C54 UNL A   1      46.556  58.334  14.930  1.00  0.00    +0.000 C 
ATOM     76  F14 UNL A   1      45.828  59.401  15.287  1.00  0.00    +0.000 F 
ATOM     77  C55 UNL A   1      46.976  57.424  15.898  1.00  0.00    +0.000 C 
ATOM     78  F15 UNL A   1      46.646  57.643  17.180  1.00  0.00    +0.000 F 
ENDBRANCH   67   68
TORSDOF 20
ENDMDL
MODEL 4
REMARK VINA RESULT:      -9.4     40.390     47.393
ROOT
ATOM    129  H39 UNL A   1      48.076  11.343  49.525  1.00  0.00    +0.000 H 
ATOM    130  H40 UNL A   1      49.598   8.653  53.491  1.00  0.00    +0.000 H 
ATOM    131  H41 UNL A   1      51.199  10.580  54.022  1.00  0.00    +0.000 H 
ATOM    132  H42 UNL A   1      48.142  15.516  45.820  1.00  0.00    +0.000 H 
ATOM    133  H43 UNL A   1      46.288  13.784  45.473  1.00  0.00    +0.000 H 
ATOM     31  C26 UNL A   1      46.398  11.604  47.304  1.00  0.00    +0.000 C 
ATOM     32  C27 UNL A   1      47.261  12.833  47.288  1.00  0.00    +0.000 C 
ATOM     33  N3  UNL A   1      48.234  13.172  48.096  1.00  0.00    +0.000 N 
ATOM     34  C28 UNL A   1      48.715  14.384  47.619  1.00  0.00    +0.000 C 
ATOM     35  C29 UNL A   1      49.679  15.174  48.147  1.00  0.00    +0.000 C 
ATOM     47  C36 UNL A   1      50.410  14.871  49.348  1.00  0.00    +0.000 C 
ATOM     48  C37 UNL A   1      51.380  15.626  49.981  1.00  0.00    +0.000 C 
ATOM     49  C38 UNL A   1      51.827  14.916  51.100  1.00  0.00    +0.000 C 
ATOM     50  C39 UNL A   1      51.106  13.736  51.186  1.00  0.00    +0.000 C 
ATOM     51  N4  UNL A   1      50.245  13.718  50.101  1.00  0.00    +0.000 N 
ATOM     52  C40 UNL A   1      51.200  12.699  52.181  1.00  0.00    +0.000 C 
ATOM     64  C47 UNL A   1      50.445  11.574  52.208  1.00  0.00    +0.000 C 
ATOM     65  N5  UNL A   1      49.449  11.172  51.329  1.00  0.00    +0.000 N 
ATOM     66  C48 UNL A   1      49.026  10.013  51.769  1.00  0.00    +0.000 C 
ATOM     67  C49 UNL A   1      47.944   9.128  51.216  1.00  0.00    +0.000 C 
ATOM     79  C56 UNL A   1      47.280   9.509  50.109  1.00  0.00    +0.000 C 
ATOM     80  C57 UNL A   1      46.207   8.760  49.462  1.00  0.00    +0.000 C 
ATOM     81  C58 UNL A   1      45.798   9.431  48.372  1.00  0.00    +0.000 C 
ATOM     82  C59 UNL A   1      46.560  10.675  48.265  1.00  0.00    +0.000 C 
ATOM     83  N6  UNL A   1      47.420  10.634  49.334  1.00  0.00    +0.000 N 
ATOM     84  C60 UNL A   1      49.723   9.536  52.973  1.00  0.00    +0.000 C 
ATOM     85  C61 UNL A   1      50.555  10.540  53.217  1.00  0.00    +0.000 C 
ATOM     86  C62 UNL A   1      47.962  14.699  46.423  1.00  0.00    +0.000 C 
ATOM     87  C63 UNL A   1      47.013  13.800  46.207  1.00  0.00    +0.000 C 
ATOM    124  H34 UNL A   1      51.717  16.554  49.680  1.00  0.00    +0.000 H 
ATOM    125  H35 UNL A   1      52.568  15.219  51.751  1.00  0.00    +0.000 H 
ATOM    126  H36 UNL A   1      49.609  12.994  49.896  1.00  0.00    +0.000 H 
ATOM    127  H37 UNL A   1      45.824   7.859  49.789  1.00  0.00    +0.000 H 
ATOM    128  H38 UNL A   1      45.066   9.119  47.717  1.00  0.00    +0.000 H 
ENDROOT
BRANCH   31   30
ATOM    134  H44 UNL A   1      46.699  10.257  45.009  1.00  0.00    +0.000 H 
ATOM    135  H45 UNL A   1      45.111   9.980  43.198  1.00  0.00    +0.000 H 
ATOM    123  H33 UNL A   1      43.841  12.486  47.159  1.00  0.00    +0.000 H 
ATOM     88  C64 UNL A   1      45.750  10.655  45.090  1.00  0.00    +0.000 C 
ATOM     89  C65 UNL A   1      44.828  10.462  44.064  1.00  0.00    +0.000 C 
ATOM    122  H32 UNL A   1      42.199  12.047  45.425  1.00  0.00    +0.000 H 
ATOM     27  C22 UNL A   1      43.516  10.925  44.212  1.00  0.00    +0.000 C 
ATOM     28  C23 UNL A   1      43.157  11.674  45.336  1.00  0.00    +0.000 C 
ATOM     29  C24 UNL A   1      44.099  11.915  46.338  1.00  0.00    +0.000 C 
ATOM     30  C25 UNL A   1      45.395  11.387  46.233  1.00  0.00    +0.000 C 
BRANCH   27   25
ATOM     25  C21 UNL A   1      42.494  10.660  43.178  1.00  0.00    +0.000 C 
ATOM     26  O3  UNL A   1      42.737   9.870  42.269  1.00  0.00    +0.000 O 
BRANCH   25   24
ATOM    121  H31 UNL A   1      40.578  10.833  43.736  1.00  0.00    +0.000 H 
ATOM     24  N2  UNL A   1      41.282  11.300  43.229  1.00  0.00    +0.000 N 
BRANCH   24   23
ATOM    119  H29 UNL A   1      40.062  12.403  41.984  1.00  0.00    +0.000 H 
ATOM     23  C20 UNL A   1      40.889  12.570  42.642  1.00  0.00    +0.000 C 
ATOM    120  H30 UNL A   1      40.625  13.232  43.439  1.00  0.00    +0.000 H 
BRANCH   23   22
ATOM    118  H28 UNL A   1      42.400  12.458  41.198  1.00  0.00    +0.000 H 
ATOM    117  H27 UNL A   1      42.750  13.575  42.549  1.00  0.00    +0.000 H 
ATOM     22  C19 UNL A   1      42.023  13.216  41.852  1.00  0.00    +0.000 C 
BRANCH   22   21
ATOM    115  H25 UNL A   1      40.695  14.113  40.463  1.00  0.00    +0.000 H 
ATOM    116  H26 UNL A   1      41.505  15.231  41.606  1.00  0.00    +0.000 H 
ATOM     21  C18 UNL A   1      41.603  14.385  40.958  1.00  0.00    +0.000 C 
BRANCH   21   20
ATOM    113  H23 UNL A   1      43.561  14.351  40.136  1.00  0.00    +0.000 H 
ATOM    114  H24 UNL A   1      42.221  14.453  38.953  1.00  0.00    +0.000 H 
ATOM     20  C17 UNL A   1      42.620  14.795  39.885  1.00  0.00    +0.000 C 
BRANCH   20   19
ATOM     19  C16 UNL A   1      42.834  16.302  39.727  1.00  0.00    +0.000 C 
ATOM    111  H21 UNL A   1      42.156  16.661  38.983  1.00  0.00    +0.000 H 
ATOM    112  H22 UNL A   1      42.664  16.738  40.690  1.00  0.00    +0.000 H 
BRANCH   19   18
ATOM     18  C15 UNL A   1      44.251  16.695  39.313  1.00  0.00    +0.000 C 
ATOM    109  H19 UNL A   1      44.539  16.110  38.465  1.00  0.00    +0.000 H 
ATOM    110  H20 UNL A   1      44.252  17.739  39.076  1.00  0.00    +0.000 H 
BRANCH   18   17
ATOM     17  N1  UNL A   1      45.203  16.472  40.385  1.00  0.00    +0.000 N 
ATOM    108  H18 UNL A   1      45.638  15.590  40.362  1.00  0.00    +0.000 H 
BRANCH   17   15
ATOM     15  C14 UNL A   1      45.610  17.269  41.422  1.00  0.00    +0.000 C 
ATOM     16  O2  UNL A   1      46.049  18.379  41.109  1.00  0.00    +0.000 O 
BRANCH   15   13
ATOM      2  C2  UNL A   1      45.266  18.630  47.345  1.00  0.00    +0.000 C 
ATOM      3  C3  UNL A   1      45.509  18.797  45.959  1.00  0.00    +0.000 C 
ATOM      5  C5  UNL A   1      45.178  17.758  45.068  1.00  0.00    +0.000 C 
ATOM      6  C6  UNL A   1      44.561  16.580  45.526  1.00  0.00    +0.000 C 
ATOM      7  C7  UNL A   1      44.359  16.387  46.908  1.00  0.00    +0.000 C 
ATOM    101  H11 UNL A   1      43.152  15.209  44.755  1.00  0.00    +0.000 H 
ATOM      9  C9  UNL A   1      44.719  17.414  47.795  1.00  0.00    +0.000 C 
ATOM    102  H12 UNL A   1      44.830  14.685  44.652  1.00  0.00    +0.000 H 
ATOM     11  C10 UNL A   1      44.158  15.511  44.547  1.00  0.00    +0.000 C 
ATOM     12  C11 UNL A   1      44.236  16.014  43.121  1.00  0.00    +0.000 C 
ATOM     13  C12 UNL A   1      45.540  16.783  42.899  1.00  0.00    +0.000 C 
ATOM    103  H13 UNL A   1      43.407  16.663  42.930  1.00  0.00    +0.000 H 
ATOM    104  H14 UNL A   1      44.208  15.177  42.455  1.00  0.00    +0.000 H 
ATOM     90  O4  UNL A   1      45.488  17.959  43.742  1.00  0.00    +0.000 O 
BRANCH    2    1
ATOM      1  C1  UNL A   1      45.584  19.762  48.290  1.00  0.00    +0.000 C 
ATOM     91  H1  UNL A   1      45.374  19.458  49.294  1.00  0.00    +0.000 H 
ATOM     92  H2  UNL A   1      44.986  20.613  48.042  1.00  0.00    +0.000 H 
ATOM     93  H3  UNL A   1      46.620  20.017  48.204  1.00  0.00    +0.000 H 
ENDBRANCH    2    1
BRANCH    3    4
ATOM      4  C4  UNL A   1      46.136  20.071  45.443  1.00  0.00    +0.000 C 
ATOM     94  H4  UNL A   1      47.146  19.877  45.149  1.00  0.00    +0.000 H 
ATOM     95  H5  UNL A   1      46.127  20.812  46.216  1.00  0.00    +0.000 H 
ATOM     96  H6  UNL A   1      45.582  20.427  44.601  1.00  0.00    +0.000 H 
ENDBRANCH    3    4
BRANCH    7    8
ATOM     97  H7  UNL A   1      43.445  14.501  46.585  1.00  0.00    +0.000 H 
ATOM     98  H8  UNL A   1      42.928  15.311  48.044  1.00  0.00    +0.000 H 
ATOM     99  H9  UNL A   1      44.503  14.559  47.974  1.00  0.00    +0.000 H 
ATOM      8  C8  UNL A   1      43.766  15.096  47.414  1.00  0.00    +0.000 C 
ENDBRANCH    7    8
BRANCH    9   10
ATOM     10  O1  UNL A   1      44.511  17.178  49.127  1.00  0.00    +0.000 O 
ATOM    100  H10 UNL A   1      45.166  16.737  49.633  1.00  0.00    +0.000 H 
ENDBRANCH    9   10
BRANCH   13   14
ATOM    105  H15 UNL A   1      46.986  15.228  42.561  1.00  0.00    +0.000 H 
ATOM    106  H16 UNL A   1      46.830  15.700  44.237  1.00  0.00    +0.000 H 
ATOM    107  H17 UNL A   1      47.679  16.735  43.114  1.00  0.00    +0.000 H 
ATOM     14  C13 UNL A   1      46.860  16.056  43.227  1.00  0.00    +0.000 C 
ENDBRANCH   13   14
ENDBRANCH   15   13
ENDBRANCH   17   15
ENDBRANCH   18   17
ENDBRANCH   19   18
ENDBRANCH   20   19
ENDBRANCH   21   20
ENDBRANCH   22   21
ENDBRANCH   23   22
ENDBRANCH   24   23
ENDBRANCH   25   24
ENDBRANCH   27   25
ENDBRANCH   31   30
BRANCH   35   36
ATOM     36  C30 UNL A   1      49.994  16.454  47.432  1.00  0.00    +0.000 C 
ATOM     37  C31 UNL A   1      50.994  16.513  46.449  1.00  0.00    +0.000 C 
ATOM     38  F1  UNL A   1      51.732  15.428  46.172  1.00  0.00    +0.000 F 
ATOM     39  C32 UNL A   1      51.260  17.699  45.769  1.00  0.00    +0.000 C 
ATOM     40  F2  UNL A   1      52.246  17.741  44.862  1.00  0.00    +0.000 F 
ATOM     41  C33 UNL A   1      50.515  18.836  46.036  1.00  0.00    +0.000 C 
ATOM     42  F3  UNL A   1      50.766  19.974  45.374  1.00  0.00    +0.000 F 
ATOM     43  C34 UNL A   1      49.512  18.797  46.993  1.00  0.00    +0.000 C 
ATOM     44  F4  UNL A   1      48.783  19.893  47.245  1.00  0.00    +0.000 F 
ATOM     45  C35 UNL A   1      49.259  17.619  47.694  1.00  0.00    +0.000 C 
ATOM     46  F5  UNL A   1      48.290  17.615  48.621  1.00  0.00    +0.000 F 
ENDBRANCH   35   36
BRANCH   52   53
ATOM     53  C41 UNL A   1      52.202  12.885  53.280  1.00  0.00    +0.000 C 
ATOM     54  C42 UNL A   1      51.846  13.477  54.500  1.00  0.00    +0.000 C 
ATOM     55  F6  UNL A   1      50.610  13.966  54.677  1.00  0.00    +0.000 F 
ATOM     56  C43 UNL A   1      52.770  13.590  55.536  1.00  0.00    +0.000 C 
ATOM     57  F7  UNL A   1      52.417  14.187  56.683  1.00  0.00    +0.000 F 
ATOM     58  C44 UNL A   1      54.055  13.090  55.381  1.00  0.00    +0.000 C 
ATOM     59  F8  UNL A   1      54.938  13.187  56.384  1.00  0.00    +0.000 F 
ATOM     60  C45 UNL A   1      54.425  12.495  54.184  1.00  0.00    +0.000 C 
ATOM     61  F9  UNL A   1      55.662  12.001  54.038  1.00  0.00    +0.000 F 
ATOM     62  C46 UNL A   1      53.512  12.402  53.139  1.00  0.00    +0.000 C 
ATOM     63  F10 UNL A   1      53.898  11.822  51.993  1.00  0.00    +0.000 F 
ENDBRANCH   52   53
BRANCH   67   68
ATOM     68  C50 UNL A   1      47.574   7.860  51.894  1.00  0.00    +0.000 C 
ATOM     69  C51 UNL A   1      48.310   6.689  51.671  1.00  0.00    +0.000 C 
ATOM     70  F11 UNL A   1      49.334   6.699  50.805  1.00  0.00    +0.000 F 
ATOM     71  C52 UNL A   1      47.981   5.498  52.314  1.00  0.00    +0.000 C 
ATOM     72  F12 UNL A   1      48.684   4.387  52.062  1.00  0.00    +0.000 F 
ATOM     73  C53 UNL A   1      46.923   5.461  53.210  1.00  0.00    +0.000 C 
ATOM     74  F13 UNL A   1      46.613   4.318  53.837  1.00  0.00    +0.000 F 
ATOM     75  C54 UNL A   1      46.184   6.609  53.452  1.00  0.00    +0.000 C 
ATOM     76  F14 UNL A   1      45.168   6.580  54.326  1.00  0.00    +0.000 F 
ATOM     77  C55 UNL A   1      46.498   7.796  52.791  1.00  0.00    +0.000 C 
ATOM     78  F15 UNL A   1      45.765   8.890  53.042  1.00  0.00    +0.000 F 
ENDBRANCH   67   68
TORSDOF 20
ENDMDL
MODEL 5
REMARK VINA RESULT:      -9.4     31.307     37.601
ROOT
ATOM    129  H39 UNL A   1      21.562  39.574  48.680  1.00  0.00    +0.000 H 
ATOM    130  H40 UNL A   1      18.104  42.287  51.121  1.00  0.00    +0.000 H 
ATOM    131  H41 UNL A   1      16.598  40.218  51.024  1.00  0.00    +0.000 H 
ATOM    132  H42 UNL A   1      23.624  35.218  45.866  1.00  0.00    +0.000 H 
ATOM    133  H43 UNL A   1      25.275  37.134  46.264  1.00  0.00    +0.000 H 
ATOM     31  C26 UNL A   1      24.124  39.386  47.575  1.00  0.00    +0.000 C 
ATOM     32  C27 UNL A   1      23.473  38.065  47.279  1.00  0.00    +0.000 C 
ATOM     33  N3  UNL A   1      22.259  37.661  47.555  1.00  0.00    +0.000 N 
ATOM     34  C28 UNL A   1      22.165  36.376  47.039  1.00  0.00    +0.000 C 
ATOM     35  C29 UNL A   1      21.128  35.508  47.122  1.00  0.00    +0.000 C 
ATOM     47  C36 UNL A   1      19.885  35.791  47.787  1.00  0.00    +0.000 C 
ATOM     48  C37 UNL A   1      18.788  34.964  47.955  1.00  0.00    +0.000 C 
ATOM     49  C38 UNL A   1      17.801  35.679  48.641  1.00  0.00    +0.000 C 
ATOM     50  C39 UNL A   1      18.298  36.939  48.934  1.00  0.00    +0.000 C 
ATOM     51  N4  UNL A   1      19.574  36.996  48.399  1.00  0.00    +0.000 N 
ATOM     52  C40 UNL A   1      17.653  38.012  49.646  1.00  0.00    +0.000 C 
ATOM     64  C47 UNL A   1      18.212  39.218  49.910  1.00  0.00    +0.000 C 
ATOM     65  N5  UNL A   1      19.476  39.684  49.577  1.00  0.00    +0.000 N 
ATOM     66  C48 UNL A   1      19.542  40.908  50.039  1.00  0.00    +0.000 C 
ATOM     67  C49 UNL A   1      20.686  41.882  49.980  1.00  0.00    +0.000 C 
ATOM     79  C56 UNL A   1      21.832  41.519  49.373  1.00  0.00    +0.000 C 
ATOM     80  C57 UNL A   1      23.024  42.351  49.243  1.00  0.00    +0.000 C 
ATOM     81  C58 UNL A   1      23.961  41.672  48.561  1.00  0.00    +0.000 C 
ATOM     82  C59 UNL A   1      23.445  40.343  48.236  1.00  0.00    +0.000 C 
ATOM     83  N6  UNL A   1      22.172  40.343  48.751  1.00  0.00    +0.000 N 
ATOM     84  C60 UNL A   1      18.314  41.367  50.704  1.00  0.00    +0.000 C 
ATOM     85  C61 UNL A   1      17.547  40.287  50.626  1.00  0.00    +0.000 C 
ATOM     86  C62 UNL A   1      23.425  36.084  46.390  1.00  0.00    +0.000 C 
ATOM     87  C63 UNL A   1      24.288  37.074  46.560  1.00  0.00    +0.000 C 
ATOM    124  H34 UNL A   1      18.712  33.987  47.631  1.00  0.00    +0.000 H 
ATOM    125  H35 UNL A   1      16.863  35.328  48.886  1.00  0.00    +0.000 H 
ATOM    126  H36 UNL A   1      20.173  37.777  48.447  1.00  0.00    +0.000 H 
ATOM    127  H37 UNL A   1      23.130  43.308  49.615  1.00  0.00    +0.000 H 
ATOM    128  H38 UNL A   1      24.895  42.030  48.306  1.00  0.00    +0.000 H 
ENDROOT
BRANCH   31   30
ATOM    134  H44 UNL A   1      26.436  38.845  48.813  1.00  0.00    +0.000 H 
ATOM    135  H45 UNL A   1      28.692  39.377  48.104  1.00  0.00    +0.000 H 
ATOM    123  H33 UNL A   1      24.930  40.572  45.277  1.00  0.00    +0.000 H 
ATOM     88  C64 UNL A   1      26.595  39.307  47.904  1.00  0.00    +0.000 C 
ATOM     89  C65 UNL A   1      27.895  39.578  47.482  1.00  0.00    +0.000 C 
ATOM    122  H32 UNL A   1      27.198  40.934  44.491  1.00  0.00    +0.000 H 
ATOM     27  C22 UNL A   1      28.115  40.122  46.213  1.00  0.00    +0.000 C 
ATOM     28  C23 UNL A   1      27.033  40.497  45.411  1.00  0.00    +0.000 C 
ATOM     29  C24 UNL A   1      25.730  40.278  45.859  1.00  0.00    +0.000 C 
ATOM     30  C25 UNL A   1      25.502  39.659  47.098  1.00  0.00    +0.000 C 
BRANCH   27   25
ATOM     25  C21 UNL A   1      29.486  40.340  45.705  1.00  0.00    +0.000 C 
ATOM     26  O3  UNL A   1      29.992  41.457  45.779  1.00  0.00    +0.000 O 
BRANCH   25   24
ATOM    121  H31 UNL A   1      31.032  39.074  45.590  1.00  0.00    +0.000 H 
ATOM     24  N2  UNL A   1      30.185  39.302  45.143  1.00  0.00    +0.000 N 
BRANCH   24   23
ATOM    119  H29 UNL A   1      28.824  38.651  43.737  1.00  0.00    +0.000 H 
ATOM     23  C20 UNL A   1      29.852  38.492  43.984  1.00  0.00    +0.000 C 
ATOM    120  H30 UNL A   1      30.496  38.786  43.183  1.00  0.00    +0.000 H 
BRANCH   23   22
ATOM    118  H28 UNL A   1      30.508  36.928  45.213  1.00  0.00    +0.000 H 
ATOM    117  H27 UNL A   1      30.699  36.622  43.462  1.00  0.00    +0.000 H 
ATOM     22  C19 UNL A   1      30.071  37.004  44.239  1.00  0.00    +0.000 C 
BRANCH   22   21
ATOM    115  H25 UNL A   1      28.353  36.185  43.302  1.00  0.00    +0.000 H 
ATOM    116  H26 UNL A   1      29.098  35.181  44.587  1.00  0.00    +0.000 H 
ATOM     21  C18 UNL A   1      28.794  36.159  44.276  1.00  0.00    +0.000 C 
BRANCH   21   20
ATOM    113  H23 UNL A   1      27.909  37.643  45.511  1.00  0.00    +0.000 H 
ATOM    114  H24 UNL A   1      26.786  36.429  44.822  1.00  0.00    +0.000 H 
ATOM     20  C17 UNL A   1      27.733  36.611  45.287  1.00  0.00    +0.000 C 
BRANCH   20   19
ATOM     19  C16 UNL A   1      27.714  35.836  46.607  1.00  0.00    +0.000 C 
ATOM    111  H21 UNL A   1      26.810  36.076  47.124  1.00  0.00    +0.000 H 
ATOM    112  H22 UNL A   1      27.785  34.798  46.354  1.00  0.00    +0.000 H 
BRANCH   19   18
ATOM     18  C15 UNL A   1      28.891  36.142  47.530  1.00  0.00    +0.000 C 
ATOM    109  H19 UNL A   1      29.684  35.454  47.323  1.00  0.00    +0.000 H 
ATOM    110  H20 UNL A   1      29.202  37.151  47.351  1.00  0.00    +0.000 H 
BRANCH   18   17
ATOM     17  N1  UNL A   1      28.519  36.026  48.928  1.00  0.00    +0.000 N 
ATOM    108  H18 UNL A   1      28.863  36.750  49.499  1.00  0.00    +0.000 H 
BRANCH   17   15
ATOM     15  C14 UNL A   1      27.773  35.093  49.598  1.00  0.00    +0.000 C 
ATOM     16  O2  UNL A   1      28.216  33.940  49.587  1.00  0.00    +0.000 O 
BRANCH   15   13
ATOM      2  C2  UNL A   1      24.071  39.399  51.790  1.00  0.00    +0.000 C 
ATOM      3  C3  UNL A   1      25.263  38.783  51.332  1.00  0.00    +0.000 C 
ATOM      5  C5  UNL A   1      25.212  37.474  50.817  1.00  0.00    +0.000 C 
ATOM      6  C6  UNL A   1      23.989  36.788  50.702  1.00  0.00    +0.000 C 
ATOM      7  C7  UNL A   1      22.807  37.376  51.198  1.00  0.00    +0.000 C 
ATOM    101  H11 UNL A   1      23.163  35.377  49.365  1.00  0.00    +0.000 H 
ATOM      9  C9  UNL A   1      22.869  38.670  51.738  1.00  0.00    +0.000 C 
ATOM    102  H12 UNL A   1      23.780  34.701  50.869  1.00  0.00    +0.000 H 
ATOM     11  C10 UNL A   1      23.950  35.414  50.090  1.00  0.00    +0.000 C 
ATOM     12  C11 UNL A   1      25.261  35.078  49.411  1.00  0.00    +0.000 C 
ATOM     13  C12 UNL A   1      26.439  35.469  50.305  1.00  0.00    +0.000 C 
ATOM    103  H13 UNL A   1      25.327  35.613  48.486  1.00  0.00    +0.000 H 
ATOM    104  H14 UNL A   1      25.298  34.024  49.228  1.00  0.00    +0.000 H 
ATOM     90  O4  UNL A   1      26.410  36.911  50.439  1.00  0.00    +0.000 O 
BRANCH    2    1
ATOM      1  C1  UNL A   1      24.125  40.817  52.301  1.00  0.00    +0.000 C 
ATOM     91  H1  UNL A   1      23.752  40.849  53.303  1.00  0.00    +0.000 H 
ATOM     92  H2  UNL A   1      23.525  41.445  51.677  1.00  0.00    +0.000 H 
ATOM     93  H3  UNL A   1      25.138  41.162  52.287  1.00  0.00    +0.000 H 
ENDBRANCH    2    1
BRANCH    3    4
ATOM      4  C4  UNL A   1      26.580  39.518  51.413  1.00  0.00    +0.000 C 
ATOM     94  H4  UNL A   1      26.670  40.183  50.579  1.00  0.00    +0.000 H 
ATOM     95  H5  UNL A   1      27.385  38.812  51.393  1.00  0.00    +0.000 H 
ATOM     96  H6  UNL A   1      26.621  40.080  52.322  1.00  0.00    +0.000 H 
ENDBRANCH    3    4
BRANCH    7    8
ATOM     97  H7  UNL A   1      21.482  36.006  50.267  1.00  0.00    +0.000 H 
ATOM     98  H8  UNL A   1      20.689  37.310  51.118  1.00  0.00    +0.000 H 
ATOM     99  H9  UNL A   1      21.416  35.998  52.013  1.00  0.00    +0.000 H 
ATOM      8  C8  UNL A   1      21.504  36.617  51.145  1.00  0.00    +0.000 C 
ENDBRANCH    7    8
BRANCH    9   10
ATOM     10  O1  UNL A   1      21.697  39.195  52.213  1.00  0.00    +0.000 O 
ATOM    100  H10 UNL A   1      21.139  39.687  51.643  1.00  0.00    +0.000 H 
ENDBRANCH    9   10
BRANCH   13   14
ATOM    105  H15 UNL A   1      27.483  34.860  52.083  1.00  0.00    +0.000 H 
ATOM    106  H16 UNL A   1      26.072  33.895  51.723  1.00  0.00    +0.000 H 
ATOM    107  H17 UNL A   1      25.886  35.503  52.383  1.00  0.00    +0.000 H 
ATOM     14  C13 UNL A   1      26.473  34.888  51.733  1.00  0.00    +0.000 C 
ENDBRANCH   13   14
ENDBRANCH   15   13
ENDBRANCH   17   15
ENDBRANCH   18   17
ENDBRANCH   19   18
ENDBRANCH   20   19
ENDBRANCH   21   20
ENDBRANCH   22   21
ENDBRANCH   23   22
ENDBRANCH   24   23
ENDBRANCH   25   24
ENDBRANCH   27   25
ENDBRANCH   31   30
BRANCH   35   36
ATOM     36  C30 UNL A   1      21.299  34.162  46.485  1.00  0.00    +0.000 C 
ATOM     37  C31 UNL A   1      21.858  33.086  47.193  1.00  0.00    +0.000 C 
ATOM     38  F1  UNL A   1      22.307  33.263  48.444  1.00  0.00    +0.000 F 
ATOM     39  C32 UNL A   1      21.986  31.831  46.604  1.00  0.00    +0.000 C 
ATOM     40  F2  UNL A   1      22.558  30.829  47.286  1.00  0.00    +0.000 F 
ATOM     41  C33 UNL A   1      21.532  31.619  45.311  1.00  0.00    +0.000 C 
ATOM     42  F3  UNL A   1      21.647  30.408  44.750  1.00  0.00    +0.000 F 
ATOM     43  C34 UNL A   1      20.963  32.664  44.599  1.00  0.00    +0.000 C 
ATOM     44  F4  UNL A   1      20.514  32.459  43.353  1.00  0.00    +0.000 F 
ATOM     45  C35 UNL A   1      20.857  33.928  45.175  1.00  0.00    +0.000 C 
ATOM     46  F5  UNL A   1      20.312  34.921  44.457  1.00  0.00    +0.000 F 
ENDBRANCH   35   36
BRANCH   52   53
ATOM     53  C41 UNL A   1      16.260  37.772  50.144  1.00  0.00    +0.000 C 
ATOM     54  C42 UNL A   1      15.179  37.652  49.259  1.00  0.00    +0.000 C 
ATOM     55  F6  UNL A   1      15.361  37.832  47.943  1.00  0.00    +0.000 F 
ATOM     56  C43 UNL A   1      13.899  37.368  49.730  1.00  0.00    +0.000 C 
ATOM     57  F7  UNL A   1      12.875  37.287  48.870  1.00  0.00    +0.000 F 
ATOM     58  C44 UNL A   1      13.683  37.175  51.087  1.00  0.00    +0.000 C 
ATOM     59  F8  UNL A   1      12.453  36.889  51.535  1.00  0.00    +0.000 F 
ATOM     60  C45 UNL A   1      14.740  37.283  51.978  1.00  0.00    +0.000 C 
ATOM     61  F9  UNL A   1      14.534  37.085  53.287  1.00  0.00    +0.000 F 
ATOM     62  C46 UNL A   1      16.016  37.590  51.513  1.00  0.00    +0.000 C 
ATOM     63  F10 UNL A   1      17.019  37.688  52.398  1.00  0.00    +0.000 F 
ENDBRANCH   52   53
BRANCH   67   68
ATOM     68  C50 UNL A   1      20.583  43.221  50.613  1.00  0.00    +0.000 C 
ATOM     69  C51 UNL A   1      20.162  44.332  49.869  1.00  0.00    +0.000 C 
ATOM     70  F11 UNL A   1      19.891  44.197  48.563  1.00  0.00    +0.000 F 
ATOM     71  C52 UNL A   1      20.046  45.589  50.457  1.00  0.00    +0.000 C 
ATOM     72  F12 UNL A   1      19.669  46.639  49.716  1.00  0.00    +0.000 F 
ATOM     73  C53 UNL A   1      20.327  45.755  51.804  1.00  0.00    +0.000 C 
ATOM     74  F13 UNL A   1      20.205  46.963  52.372  1.00  0.00    +0.000 F 
ATOM     75  C54 UNL A   1      20.738  44.669  52.563  1.00  0.00    +0.000 C 
ATOM     76  F14 UNL A   1      20.999  44.824  53.868  1.00  0.00    +0.000 F 
ATOM     77  C55 UNL A   1      20.877  43.415  51.970  1.00  0.00    +0.000 C 
ATOM     78  F15 UNL A   1      21.279  42.383  52.725  1.00  0.00    +0.000 F 
ENDBRANCH   67   68
TORSDOF 20
ENDMDL
MODEL 6
REMARK VINA RESULT:      -9.3     30.938     38.024
ROOT
ATOM    129  H39 UNL A   1      22.277  39.244  47.917  1.00  0.00    +0.000 H 
ATOM    130  H40 UNL A   1      19.053  42.236  50.352  1.00  0.00    +0.000 H 
ATOM    131  H41 UNL A   1      17.482  40.219  50.489  1.00  0.00    +0.000 H 
ATOM    132  H42 UNL A   1      24.036  34.635  45.308  1.00  0.00    +0.000 H 
ATOM    133  H43 UNL A   1      25.765  36.516  45.474  1.00  0.00    +0.000 H 
ATOM     31  C26 UNL A   1      24.762  38.892  46.684  1.00  0.00    +0.000 C 
ATOM     32  C27 UNL A   1      24.055  37.576  46.521  1.00  0.00    +0.000 C 
ATOM     33  N3  UNL A   1      22.848  37.234  46.893  1.00  0.00    +0.000 N 
ATOM     34  C28 UNL A   1      22.684  35.920  46.477  1.00  0.00    +0.000 C 
ATOM     35  C29 UNL A   1      21.629  35.097  46.681  1.00  0.00    +0.000 C 
ATOM     47  C36 UNL A   1      20.436  35.467  47.393  1.00  0.00    +0.000 C 
ATOM     48  C37 UNL A   1      19.328  34.692  47.683  1.00  0.00    +0.000 C 
ATOM     49  C38 UNL A   1      18.405  35.486  48.371  1.00  0.00    +0.000 C 
ATOM     50  C39 UNL A   1      18.955  36.746  48.544  1.00  0.00    +0.000 C 
ATOM     51  N4  UNL A   1      20.199  36.722  47.935  1.00  0.00    +0.000 N 
ATOM     52  C40 UNL A   1      18.387  37.887  49.213  1.00  0.00    +0.000 C 
ATOM     64  C47 UNL A   1      18.996  39.089  49.359  1.00  0.00    +0.000 C 
ATOM     65  N5  UNL A   1      20.252  39.487  48.922  1.00  0.00    +0.000 N 
ATOM     66  C48 UNL A   1      20.383  40.737  49.291  1.00  0.00    +0.000 C 
ATOM     67  C49 UNL A   1      21.550  41.665  49.097  1.00  0.00    +0.000 C 
ATOM     79  C56 UNL A   1      22.646  41.221  48.454  1.00  0.00    +0.000 C 
ATOM     80  C57 UNL A   1      23.853  42.001  48.196  1.00  0.00    +0.000 C 
ATOM     81  C58 UNL A   1      24.727  41.245  47.512  1.00  0.00    +0.000 C 
ATOM     82  C59 UNL A   1      24.152  39.915  47.313  1.00  0.00    +0.000 C 
ATOM     83  N6  UNL A   1      22.913  39.994  47.898  1.00  0.00    +0.000 N 
ATOM     84  C60 UNL A   1      19.210  41.283  49.990  1.00  0.00    +0.000 C 
ATOM     85  C61 UNL A   1      18.408  40.228  50.033  1.00  0.00    +0.000 C 
ATOM     86  C62 UNL A   1      23.895  35.541  45.780  1.00  0.00    +0.000 C 
ATOM     87  C63 UNL A   1      24.796  36.510  45.829  1.00  0.00    +0.000 C 
ATOM    124  H34 UNL A   1      19.203  33.698  47.434  1.00  0.00    +0.000 H 
ATOM    125  H35 UNL A   1      17.472  35.186  48.694  1.00  0.00    +0.000 H 
ATOM    126  H36 UNL A   1      20.823  37.483  47.892  1.00  0.00    +0.000 H 
ATOM    127  H37 UNL A   1      24.010  42.978  48.492  1.00  0.00    +0.000 H 
ATOM    128  H38 UNL A   1      25.654  41.552  47.180  1.00  0.00    +0.000 H 
ENDROOT
BRANCH   31   30
ATOM    134  H44 UNL A   1      25.693  40.998  45.318  1.00  0.00    +0.000 H 
ATOM    135  H45 UNL A   1      27.866  41.288  44.281  1.00  0.00    +0.000 H 
ATOM    123  H33 UNL A   1      26.883  37.208  46.724  1.00  0.00    +0.000 H 
ATOM     88  C64 UNL A   1      26.412  40.264  45.413  1.00  0.00    +0.000 C 
ATOM     89  C65 UNL A   1      27.672  40.449  44.848  1.00  0.00    +0.000 C 
ATOM    122  H32 UNL A   1      29.114  37.585  45.843  1.00  0.00    +0.000 H 
ATOM     27  C22 UNL A   1      28.673  39.495  45.052  1.00  0.00    +0.000 C 
ATOM     28  C23 UNL A   1      28.384  38.305  45.727  1.00  0.00    +0.000 C 
ATOM     29  C24 UNL A   1      27.105  38.095  46.244  1.00  0.00    +0.000 C 
ATOM     30  C25 UNL A   1      26.116  39.083  46.111  1.00  0.00    +0.000 C 
BRANCH   27   25
ATOM     25  C21 UNL A   1      30.043  39.705  44.538  1.00  0.00    +0.000 C 
ATOM     26  O3  UNL A   1      30.456  39.018  43.607  1.00  0.00    +0.000 O 
BRANCH   25   24
ATOM    121  H31 UNL A   1      31.007  41.460  44.558  1.00  0.00    +0.000 H 
ATOM     24  N2  UNL A   1      30.853  40.656  45.105  1.00  0.00    +0.000 N 
BRANCH   24   23
ATOM    119  H29 UNL A   1      31.451  39.661  46.810  1.00  0.00    +0.000 H 
ATOM     23  C20 UNL A   1      31.513  40.647  46.399  1.00  0.00    +0.000 C 
ATOM    120  H30 UNL A   1      32.530  40.944  46.251  1.00  0.00    +0.000 H 
BRANCH   23   22
ATOM    118  H28 UNL A   1      31.677  42.022  47.970  1.00  0.00    +0.000 H 
ATOM    117  H27 UNL A   1      30.148  41.097  47.954  1.00  0.00    +0.000 H 
ATOM     22  C19 UNL A   1      30.877  41.628  47.379  1.00  0.00    +0.000 C 
BRANCH   22   21
ATOM    115  H25 UNL A   1      30.756  43.706  46.973  1.00  0.00    +0.000 H 
ATOM    116  H26 UNL A   1      30.147  42.620  45.684  1.00  0.00    +0.000 H 
ATOM     21  C18 UNL A   1      30.188  42.833  46.732  1.00  0.00    +0.000 C 
BRANCH   21   20
ATOM    113  H23 UNL A   1      28.683  44.057  47.597  1.00  0.00    +0.000 H 
ATOM    114  H24 UNL A   1      28.141  42.961  46.289  1.00  0.00    +0.000 H 
ATOM     20  C17 UNL A   1      28.738  43.078  47.169  1.00  0.00    +0.000 C 
BRANCH   20   19
ATOM     19  C16 UNL A   1      28.186  42.082  48.192  1.00  0.00    +0.000 C 
ATOM    111  H21 UNL A   1      27.252  41.710  47.828  1.00  0.00    +0.000 H 
ATOM    112  H22 UNL A   1      28.924  41.315  48.303  1.00  0.00    +0.000 H 
BRANCH   19   18
ATOM     18  C15 UNL A   1      27.957  42.674  49.581  1.00  0.00    +0.000 C 
ATOM    109  H19 UNL A   1      28.827  42.502  50.180  1.00  0.00    +0.000 H 
ATOM    110  H20 UNL A   1      27.768  43.722  49.471  1.00  0.00    +0.000 H 
BRANCH   18   17
ATOM     17  N1  UNL A   1      26.808  42.074  50.236  1.00  0.00    +0.000 N 
ATOM    108  H18 UNL A   1      25.947  42.284  49.809  1.00  0.00    +0.000 H 
BRANCH   17   15
ATOM     15  C14 UNL A   1      26.706  41.268  51.337  1.00  0.00    +0.000 C 
ATOM     16  O2  UNL A   1      26.975  41.797  52.420  1.00  0.00    +0.000 O 
BRANCH   15   13
ATOM      2  C2  UNL A   1      22.306  37.067  51.119  1.00  0.00    +0.000 C 
ATOM      3  C3  UNL A   1      22.944  38.306  51.380  1.00  0.00    +0.000 C 
ATOM      5  C5  UNL A   1      24.269  38.505  50.949  1.00  0.00    +0.000 C 
ATOM      6  C6  UNL A   1      24.950  37.515  50.218  1.00  0.00    +0.000 C 
ATOM      7  C7  UNL A   1      24.339  36.265  49.995  1.00  0.00    +0.000 C 
ATOM    101  H11 UNL A   1      26.399  37.494  48.681  1.00  0.00    +0.000 H 
ATOM      9  C9  UNL A   1      23.028  36.060  50.453  1.00  0.00    +0.000 C 
ATOM    102  H12 UNL A   1      27.029  37.202  50.299  1.00  0.00    +0.000 H 
ATOM     11  C10 UNL A   1      26.343  37.777  49.712  1.00  0.00    +0.000 C 
ATOM     12  C11 UNL A   1      26.710  39.240  49.843  1.00  0.00    +0.000 C 
ATOM     13  C12 UNL A   1      26.297  39.771  51.217  1.00  0.00    +0.000 C 
ATOM    103  H13 UNL A   1      26.206  39.799  49.082  1.00  0.00    +0.000 H 
ATOM    104  H14 UNL A   1      27.769  39.344  49.733  1.00  0.00    +0.000 H 
ATOM     90  O4  UNL A   1      24.852  39.708  51.280  1.00  0.00    +0.000 O 
BRANCH    2    1
ATOM      1  C1  UNL A   1      20.872  36.874  51.546  1.00  0.00    +0.000 C 
ATOM     91  H1  UNL A   1      20.274  36.639  50.691  1.00  0.00    +0.000 H 
ATOM     92  H2  UNL A   1      20.511  37.772  51.999  1.00  0.00    +0.000 H 
ATOM     93  H3  UNL A   1      20.816  36.071  52.251  1.00  0.00    +0.000 H 
ENDBRANCH    2    1
BRANCH    3    4
ATOM      4  C4  UNL A   1      22.216  39.395  52.132  1.00  0.00    +0.000 C 
ATOM     94  H4  UNL A   1      22.823  39.734  52.945  1.00  0.00    +0.000 H 
ATOM     95  H5  UNL A   1      21.293  39.010  52.514  1.00  0.00    +0.000 H 
ATOM     96  H6  UNL A   1      22.015  40.212  51.472  1.00  0.00    +0.000 H 
ENDBRANCH    3    4
BRANCH    7    8
ATOM     97  H7  UNL A   1      25.113  35.385  48.227  1.00  0.00    +0.000 H 
ATOM     98  H8  UNL A   1      24.600  34.235  49.438  1.00  0.00    +0.000 H 
ATOM     99  H9  UNL A   1      26.091  35.120  49.650  1.00  0.00    +0.000 H 
ATOM      8  C8  UNL A   1      25.090  35.172  49.275  1.00  0.00    +0.000 C 
ENDBRANCH    7    8
BRANCH    9   10
ATOM     10  O1  UNL A   1      22.480  34.827  50.220  1.00  0.00    +0.000 O 
ATOM    100  H10 UNL A   1      23.037  34.089  50.066  1.00  0.00    +0.000 H 
ENDBRANCH    9   10
BRANCH   13   14
ATOM    105  H15 UNL A   1      27.882  38.853  52.344  1.00  0.00    +0.000 H 
ATOM    106  H16 UNL A   1      26.324  38.090  52.558  1.00  0.00    +0.000 H 
ATOM    107  H17 UNL A   1      26.661  39.621  53.331  1.00  0.00    +0.000 H 
ATOM     14  C13 UNL A   1      26.832  39.027  52.457  1.00  0.00    +0.000 C 
ENDBRANCH   13   14
ENDBRANCH   15   13
ENDBRANCH   17   15
ENDBRANCH   18   17
ENDBRANCH   19   18
ENDBRANCH   20   19
ENDBRANCH   21   20
ENDBRANCH   22   21
ENDBRANCH   23   22
ENDBRANCH   24   23
ENDBRANCH   25   24
ENDBRANCH   27   25
ENDBRANCH   31   30
BRANCH   35   36
ATOM     36  C30 UNL A   1      21.721  33.704  46.133  1.00  0.00    +0.000 C 
ATOM     37  C31 UNL A   1      22.346  32.676  46.856  1.00  0.00    +0.000 C 
ATOM     38  F1  UNL A   1      22.929  32.939  48.035  1.00  0.00    +0.000 F 
ATOM     39  C32 UNL A   1      22.401  31.379  46.353  1.00  0.00    +0.000 C 
ATOM     40  F2  UNL A   1      23.037  30.422  47.044  1.00  0.00    +0.000 F 
ATOM     41  C33 UNL A   1      21.809  31.078  45.136  1.00  0.00    +0.000 C 
ATOM     42  F3  UNL A   1      21.855  29.827  44.659  1.00  0.00    +0.000 F 
ATOM     43  C34 UNL A   1      21.174  32.075  44.412  1.00  0.00    +0.000 C 
ATOM     44  F4  UNL A   1      20.591  31.784  43.240  1.00  0.00    +0.000 F 
ATOM     45  C35 UNL A   1      21.139  33.380  44.899  1.00  0.00    +0.000 C 
ATOM     46  F5  UNL A   1      20.526  34.325  44.171  1.00  0.00    +0.000 F 
ENDBRANCH   35   36
BRANCH   52   53
ATOM     53  C41 UNL A   1      17.019  37.730  49.806  1.00  0.00    +0.000 C 
ATOM     54  C42 UNL A   1      15.885  37.581  48.995  1.00  0.00    +0.000 C 
ATOM     55  F6  UNL A   1      15.995  37.657  47.661  1.00  0.00    +0.000 F 
ATOM     56  C43 UNL A   1      14.628  37.375  49.557  1.00  0.00    +0.000 C 
ATOM     57  F7  UNL A   1      13.552  37.265  48.765  1.00  0.00    +0.000 F 
ATOM     58  C44 UNL A   1      14.486  37.289  50.935  1.00  0.00    +0.000 C 
ATOM     59  F8  UNL A   1      13.277  37.077  51.473  1.00  0.00    +0.000 F 
ATOM     60  C45 UNL A   1      15.596  37.428  51.755  1.00  0.00    +0.000 C 
ATOM     61  F9  UNL A   1      15.462  37.333  53.084  1.00  0.00    +0.000 F 
ATOM     62  C46 UNL A   1      16.850  37.657  51.197  1.00  0.00    +0.000 C 
ATOM     63  F10 UNL A   1      17.906  37.788  52.014  1.00  0.00    +0.000 F 
ENDBRANCH   52   53
BRANCH   67   68
ATOM     68  C50 UNL A   1      21.525  43.047  49.637  1.00  0.00    +0.000 C 
ATOM     69  C51 UNL A   1      20.950  44.092  48.901  1.00  0.00    +0.000 C 
ATOM     70  F11 UNL A   1      20.455  43.853  47.677  1.00  0.00    +0.000 F 
ATOM     71  C52 UNL A   1      20.906  45.389  49.405  1.00  0.00    +0.000 C 
ATOM     72  F12 UNL A   1      20.377  46.374  48.668  1.00  0.00    +0.000 F 
ATOM     73  C53 UNL A   1      21.416  45.663  50.665  1.00  0.00    +0.000 C 
ATOM     74  F13 UNL A   1      21.365  46.909  51.155  1.00  0.00    +0.000 F 
ATOM     75  C54 UNL A   1      21.984  44.644  51.416  1.00  0.00    +0.000 C 
ATOM     76  F14 UNL A   1      22.467  44.902  52.639  1.00  0.00    +0.000 F 
ATOM     77  C55 UNL A   1      22.048  43.350  50.902  1.00  0.00    +0.000 C 
ATOM     78  F15 UNL A   1      22.605  42.384  51.648  1.00  0.00    +0.000 F 
ENDBRANCH   67   68
TORSDOF 20
ENDMDL
MODEL 7
REMARK VINA RESULT:      -9.3     53.202     59.388
ROOT
ATOM    129  H39 UNL A   1      55.325  19.974  12.829  1.00  0.00    +0.000 H 
ATOM    130  H40 UNL A   1      60.018  18.177  12.641  1.00  0.00    +0.000 H 
ATOM    131  H41 UNL A   1      60.241  18.858  15.099  1.00  0.00    +0.000 H 
ATOM    132  H42 UNL A   1      50.933  22.645  15.000  1.00  0.00    +0.000 H 
ATOM    133  H43 UNL A   1      50.558  21.654  12.670  1.00  0.00    +0.000 H 
ATOM     31  C26 UNL A   1      52.879  20.433  11.556  1.00  0.00    +0.000 C 
ATOM     32  C27 UNL A   1      52.720  21.017  12.930  1.00  0.00    +0.000 C 
ATOM     33  N3  UNL A   1      53.591  21.091  13.904  1.00  0.00    +0.000 N 
ATOM     34  C28 UNL A   1      52.943  21.748  14.941  1.00  0.00    +0.000 C 
ATOM     35  C29 UNL A   1      53.400  22.013  16.187  1.00  0.00    +0.000 C 
ATOM     47  C36 UNL A   1      54.705  21.646  16.668  1.00  0.00    +0.000 C 
ATOM     48  C37 UNL A   1      55.247  21.839  17.927  1.00  0.00    +0.000 C 
ATOM     49  C38 UNL A   1      56.554  21.344  17.921  1.00  0.00    +0.000 C 
ATOM     50  C39 UNL A   1      56.813  20.806  16.671  1.00  0.00    +0.000 C 
ATOM     51  N4  UNL A   1      55.673  21.004  15.910  1.00  0.00    +0.000 N 
ATOM     52  C40 UNL A   1      58.015  20.164  16.204  1.00  0.00    +0.000 C 
ATOM     64  C47 UNL A   1      58.189  19.644  14.964  1.00  0.00    +0.000 C 
ATOM     65  N5  UNL A   1      57.296  19.607  13.902  1.00  0.00    +0.000 N 
ATOM     66  C48 UNL A   1      57.930  19.015  12.919  1.00  0.00    +0.000 C 
ATOM     67  C49 UNL A   1      57.438  18.689  11.536  1.00  0.00    +0.000 C 
ATOM     79  C56 UNL A   1      56.185  19.033  11.182  1.00  0.00    +0.000 C 
ATOM     80  C57 UNL A   1      55.571  18.779   9.883  1.00  0.00    +0.000 C 
ATOM     81  C58 UNL A   1      54.325  19.280   9.881  1.00  0.00    +0.000 C 
ATOM     82  C59 UNL A   1      54.042  19.860  11.194  1.00  0.00    +0.000 C 
ATOM     83  N6  UNL A   1      55.205  19.674  11.899  1.00  0.00    +0.000 N 
ATOM     84  C60 UNL A   1      59.310  18.626  13.242  1.00  0.00    +0.000 C 
ATOM     85  C61 UNL A   1      59.406  19.003  14.510  1.00  0.00    +0.000 C 
ATOM     86  C62 UNL A   1      51.622  22.096  14.463  1.00  0.00    +0.000 C 
ATOM     87  C63 UNL A   1      51.414  21.617  13.246  1.00  0.00    +0.000 C 
ATOM    124  H34 UNL A   1      54.768  22.274  18.731  1.00  0.00    +0.000 H 
ATOM    125  H35 UNL A   1      57.214  21.373  18.713  1.00  0.00    +0.000 H 
ATOM    126  H36 UNL A   1      55.564  20.729  14.971  1.00  0.00    +0.000 H 
ATOM    127  H37 UNL A   1      56.021  18.293   9.091  1.00  0.00    +0.000 H 
ATOM    128  H38 UNL A   1      53.671  19.259   9.083  1.00  0.00    +0.000 H 
ENDROOT
BRANCH   31   30
ATOM    134  H44 UNL A   1      52.407  22.380   9.779  1.00  0.00    +0.000 H 
ATOM    135  H45 UNL A   1      50.545  22.608   8.243  1.00  0.00    +0.000 H 
ATOM    123  H33 UNL A   1      50.824  18.719  11.137  1.00  0.00    +0.000 H 
ATOM     88  C64 UNL A   1      51.687  21.642   9.728  1.00  0.00    +0.000 C 
ATOM     89  C65 UNL A   1      50.639  21.758   8.819  1.00  0.00    +0.000 C 
ATOM    122  H32 UNL A   1      49.065  18.864   9.470  1.00  0.00    +0.000 H 
ATOM     27  C22 UNL A   1      49.713  20.718   8.688  1.00  0.00    +0.000 C 
ATOM     28  C23 UNL A   1      49.772  19.613   9.542  1.00  0.00    +0.000 C 
ATOM     29  C24 UNL A   1      50.791  19.525  10.493  1.00  0.00    +0.000 C 
ATOM     30  C25 UNL A   1      51.770  20.527  10.576  1.00  0.00    +0.000 C 
BRANCH   27   25
ATOM     25  C21 UNL A   1      48.641  20.775   7.673  1.00  0.00    +0.000 C 
ATOM     26  O3  UNL A   1      48.257  21.864   7.253  1.00  0.00    +0.000 O 
BRANCH   25   24
ATOM    121  H31 UNL A   1      48.188  18.828   7.786  1.00  0.00    +0.000 H 
ATOM     24  N2  UNL A   1      48.071  19.617   7.208  1.00  0.00    +0.000 N 
BRANCH   24   23
ATOM    119  H29 UNL A   1      46.586  20.162   5.884  1.00  0.00    +0.000 H 
ATOM     23  C20 UNL A   1      47.319  19.389   5.986  1.00  0.00    +0.000 C 
ATOM    120  H30 UNL A   1      48.010  19.396   5.170  1.00  0.00    +0.000 H 
BRANCH   23   22
ATOM    118  H28 UNL A   1      45.683  18.188   6.500  1.00  0.00    +0.000 H 
ATOM    117  H27 UNL A   1      47.250  17.328   6.468  1.00  0.00    +0.000 H 
ATOM     22  C19 UNL A   1      46.610  18.038   5.988  1.00  0.00    +0.000 C 
BRANCH   22   21
ATOM    115  H25 UNL A   1      45.403  16.852   4.709  1.00  0.00    +0.000 H 
ATOM    116  H26 UNL A   1      46.071  18.351   3.988  1.00  0.00    +0.000 H 
ATOM     21  C18 UNL A   1      46.252  17.494   4.602  1.00  0.00    +0.000 C 
BRANCH   21   20
ATOM    113  H23 UNL A   1      46.992  16.404   2.937  1.00  0.00    +0.000 H 
ATOM    114  H24 UNL A   1      48.207  17.350   3.852  1.00  0.00    +0.000 H 
ATOM     20  C17 UNL A   1      47.359  16.699   3.898  1.00  0.00    +0.000 C 
BRANCH   20   19
ATOM     19  C16 UNL A   1      47.829  15.441   4.632  1.00  0.00    +0.000 C 
ATOM    111  H21 UNL A   1      47.376  15.429   5.601  1.00  0.00    +0.000 H 
ATOM    112  H22 UNL A   1      47.539  14.607   4.028  1.00  0.00    +0.000 H 
BRANCH   19   18
ATOM     18  C15 UNL A   1      49.342  15.348   4.811  1.00  0.00    +0.000 C 
ATOM    109  H19 UNL A   1      49.560  14.616   5.560  1.00  0.00    +0.000 H 
ATOM    110  H20 UNL A   1      49.773  15.072   3.870  1.00  0.00    +0.000 H 
BRANCH   18   17
ATOM     17  N1  UNL A   1      49.914  16.619   5.214  1.00  0.00    +0.000 N 
ATOM    108  H18 UNL A   1      49.884  17.313   4.517  1.00  0.00    +0.000 H 
BRANCH   17   15
ATOM     15  C14 UNL A   1      50.484  17.030   6.389  1.00  0.00    +0.000 C 
ATOM     16  O2  UNL A   1      49.755  16.990   7.385  1.00  0.00    +0.000 O 
BRANCH   15   13
ATOM      2  C2  UNL A   1      55.970  17.430   3.781  1.00  0.00    +0.000 C 
ATOM      3  C3  UNL A   1      54.664  16.950   4.056  1.00  0.00    +0.000 C 
ATOM      5  C5  UNL A   1      53.852  17.641   4.974  1.00  0.00    +0.000 C 
ATOM      6  C6  UNL A   1      54.295  18.830   5.582  1.00  0.00    +0.000 C 
ATOM      7  C7  UNL A   1      55.608  19.288   5.350  1.00  0.00    +0.000 C 
ATOM    101  H11 UNL A   1      53.394  20.622   6.242  1.00  0.00    +0.000 H 
ATOM      9  C9  UNL A   1      56.425  18.577   4.457  1.00  0.00    +0.000 C 
ATOM    102  H12 UNL A   1      53.737  19.453   7.512  1.00  0.00    +0.000 H 
ATOM     11  C10 UNL A   1      53.384  19.586   6.511  1.00  0.00    +0.000 C 
ATOM     12  C11 UNL A   1      51.964  19.068   6.430  1.00  0.00    +0.000 C 
ATOM     13  C12 UNL A   1      51.954  17.539   6.448  1.00  0.00    +0.000 C 
ATOM    103  H13 UNL A   1      51.514  19.414   5.522  1.00  0.00    +0.000 H 
ATOM    104  H14 UNL A   1      51.414  19.430   7.273  1.00  0.00    +0.000 H 
ATOM     90  O4  UNL A   1      52.616  17.095   5.240  1.00  0.00    +0.000 O 
BRANCH    2    1
ATOM      1  C1  UNL A   1      56.820  16.709   2.766  1.00  0.00    +0.000 C 
ATOM     91  H1  UNL A   1      56.425  16.877   1.786  1.00  0.00    +0.000 H 
ATOM     92  H2  UNL A   1      56.817  15.661   2.978  1.00  0.00    +0.000 H 
ATOM     93  H3  UNL A   1      57.823  17.079   2.814  1.00  0.00    +0.000 H 
ENDBRANCH    2    1
BRANCH    3    4
ATOM      4  C4  UNL A   1      54.157  15.696   3.385  1.00  0.00    +0.000 C 
ATOM     94  H4  UNL A   1      53.139  15.837   3.087  1.00  0.00    +0.000 H 
ATOM     95  H5  UNL A   1      54.216  14.875   4.069  1.00  0.00    +0.000 H 
ATOM     96  H6  UNL A   1      54.755  15.485   2.522  1.00  0.00    +0.000 H 
ENDBRANCH    3    4
BRANCH    7    8
ATOM     97  H7  UNL A   1      56.577  20.240   6.978  1.00  0.00    +0.000 H 
ATOM     98  H8  UNL A   1      55.298  21.182   6.251  1.00  0.00    +0.000 H 
ATOM     99  H9  UNL A   1      56.833  21.017   5.434  1.00  0.00    +0.000 H 
ATOM      8  C8  UNL A   1      56.116  20.521   6.055  1.00  0.00    +0.000 C 
ENDBRANCH    7    8
BRANCH    9   10
ATOM     10  O1  UNL A   1      57.694  19.056   4.269  1.00  0.00    +0.000 O 
ATOM    100  H10 UNL A   1      57.927  19.904   4.595  1.00  0.00    +0.000 H 
ENDBRANCH    9   10
BRANCH   13   14
ATOM    105  H15 UNL A   1      53.639  16.535   7.329  1.00  0.00    +0.000 H 
ATOM    106  H16 UNL A   1      52.092  15.973   7.916  1.00  0.00    +0.000 H 
ATOM    107  H17 UNL A   1      52.725  17.510   8.455  1.00  0.00    +0.000 H 
ATOM     14  C13 UNL A   1      52.656  16.836   7.627  1.00  0.00    +0.000 C 
ENDBRANCH   13   14
ENDBRANCH   15   13
ENDBRANCH   17   15
ENDBRANCH   18   17
ENDBRANCH   19   18
ENDBRANCH   20   19
ENDBRANCH   21   20
ENDBRANCH   22   21
ENDBRANCH   23   22
ENDBRANCH   24   23
ENDBRANCH   25   24
ENDBRANCH   27   25
ENDBRANCH   31   30
BRANCH   35   36
ATOM     36  C30 UNL A   1      52.476  22.728  17.127  1.00  0.00    +0.000 C 
ATOM     37  C31 UNL A   1      52.366  24.128  17.117  1.00  0.00    +0.000 C 
ATOM     38  F1  UNL A   1      53.137  24.859  16.299  1.00  0.00    +0.000 F 
ATOM     39  C32 UNL A   1      51.484  24.782  17.973  1.00  0.00    +0.000 C 
ATOM     40  F2  UNL A   1      51.424  26.121  17.973  1.00  0.00    +0.000 F 
ATOM     41  C33 UNL A   1      50.675  24.052  18.830  1.00  0.00    +0.000 C 
ATOM     42  F3  UNL A   1      49.820  24.683  19.646  1.00  0.00    +0.000 F 
ATOM     43  C34 UNL A   1      50.757  22.668  18.846  1.00  0.00    +0.000 C 
ATOM     44  F4  UNL A   1      49.969  21.960  19.667  1.00  0.00    +0.000 F 
ATOM     45  C35 UNL A   1      51.657  22.010  18.010  1.00  0.00    +0.000 C 
ATOM     46  F5  UNL A   1      51.721  20.672  18.056  1.00  0.00    +0.000 F 
ENDBRANCH   35   36
BRANCH   52   53
ATOM     53  C41 UNL A   1      59.157  20.049  17.168  1.00  0.00    +0.000 C 
ATOM     54  C42 UNL A   1      59.985  21.144  17.452  1.00  0.00    +0.000 C 
ATOM     55  F6  UNL A   1      59.817  22.303  16.799  1.00  0.00    +0.000 F 
ATOM     56  C43 UNL A   1      61.005  21.043  18.394  1.00  0.00    +0.000 C 
ATOM     57  F7  UNL A   1      61.803  22.093  18.629  1.00  0.00    +0.000 F 
ATOM     58  C44 UNL A   1      61.198  19.855  19.086  1.00  0.00    +0.000 C 
ATOM     59  F8  UNL A   1      62.172  19.765  20.002  1.00  0.00    +0.000 F 
ATOM     60  C45 UNL A   1      60.386  18.762  18.824  1.00  0.00    +0.000 C 
ATOM     61  F9  UNL A   1      60.564  17.620  19.501  1.00  0.00    +0.000 F 
ATOM     62  C46 UNL A   1      59.381  18.853  17.866  1.00  0.00    +0.000 C 
ATOM     63  F10 UNL A   1      58.611  17.780  17.634  1.00  0.00    +0.000 F 
ENDBRANCH   52   53
BRANCH   67   68
ATOM     68  C50 UNL A   1      58.301  17.963  10.571  1.00  0.00    +0.000 C 
ATOM     69  C51 UNL A   1      58.299  16.562  10.524  1.00  0.00    +0.000 C 
ATOM     70  F11 UNL A   1      57.544  15.867  11.388  1.00  0.00    +0.000 F 
ATOM     71  C52 UNL A   1      59.092  15.871   9.612  1.00  0.00    +0.000 C 
ATOM     72  F12 UNL A   1      59.093  14.532   9.608  1.00  0.00    +0.000 F 
ATOM     73  C53 UNL A   1      59.885  16.568   8.713  1.00  0.00    +0.000 C 
ATOM     74  F13 UNL A   1      60.641  15.903   7.828  1.00  0.00    +0.000 F 
ATOM     75  C54 UNL A   1      59.899  17.954   8.735  1.00  0.00    +0.000 C 
ATOM     76  F14 UNL A   1      60.655  18.631   7.860  1.00  0.00    +0.000 F 
ATOM     77  C55 UNL A   1      59.123  18.646   9.664  1.00  0.00    +0.000 C 
ATOM     78  F15 UNL A   1      59.157  19.987   9.665  1.00  0.00    +0.000 F 
ENDBRANCH   67   68
TORSDOF 20
ENDMDL
MODEL 8
REMARK VINA RESULT:      -9.2     40.438     47.504
ROOT
ATOM    129  H39 UNL A   1      48.101  11.326  49.530  1.00  0.00    +0.000 H 
ATOM    130  H40 UNL A   1      49.567   8.665  53.536  1.00  0.00    +0.000 H 
ATOM    131  H41 UNL A   1      51.202  10.570  54.044  1.00  0.00    +0.000 H 
ATOM    132  H42 UNL A   1      48.249  15.446  45.767  1.00  0.00    +0.000 H 
ATOM    133  H43 UNL A   1      46.366  13.743  45.440  1.00  0.00    +0.000 H 
ATOM     31  C26 UNL A   1      46.433  11.587  47.302  1.00  0.00    +0.000 C 
ATOM     32  C27 UNL A   1      47.318  12.800  47.270  1.00  0.00    +0.000 C 
ATOM     33  N3  UNL A   1      48.294  13.132  48.076  1.00  0.00    +0.000 N 
ATOM     34  C28 UNL A   1      48.798  14.329  47.583  1.00  0.00    +0.000 C 
ATOM     35  C29 UNL A   1      49.775  15.109  48.102  1.00  0.00    +0.000 C 
ATOM     47  C36 UNL A   1      50.498  14.809  49.309  1.00  0.00    +0.000 C 
ATOM     48  C37 UNL A   1      51.481  15.556  49.934  1.00  0.00    +0.000 C 
ATOM     49  C38 UNL A   1      51.913  14.853  51.063  1.00  0.00    +0.000 C 
ATOM     50  C39 UNL A   1      51.171  13.687  51.163  1.00  0.00    +0.000 C 
ATOM     51  N4  UNL A   1      50.311  13.670  50.078  1.00  0.00    +0.000 N 
ATOM     52  C40 UNL A   1      51.244  12.663  52.173  1.00  0.00    +0.000 C 
ATOM     64  C47 UNL A   1      50.469  11.552  52.214  1.00  0.00    +0.000 C 
ATOM     65  N5  UNL A   1      49.468  11.156  51.339  1.00  0.00    +0.000 N 
ATOM     66  C48 UNL A   1      49.023  10.011  51.794  1.00  0.00    +0.000 C 
ATOM     67  C49 UNL A   1      47.926   9.138  51.251  1.00  0.00    +0.000 C 
ATOM     79  C56 UNL A   1      47.271   9.516  50.137  1.00  0.00    +0.000 C 
ATOM     80  C57 UNL A   1      46.186   8.777  49.498  1.00  0.00    +0.000 C 
ATOM     81  C58 UNL A   1      45.792   9.440  48.399  1.00  0.00    +0.000 C 
ATOM     82  C59 UNL A   1      46.576  10.669  48.276  1.00  0.00    +0.000 C 
ATOM     83  N6  UNL A   1      47.433  10.627  49.347  1.00  0.00    +0.000 N 
ATOM     84  C60 UNL A   1      49.709   9.538  53.006  1.00  0.00    +0.000 C 
ATOM     85  C61 UNL A   1      50.559  10.531  53.237  1.00  0.00    +0.000 C 
ATOM     86  C62 UNL A   1      48.054  14.640  46.382  1.00  0.00    +0.000 C 
ATOM     87  C63 UNL A   1      47.089  13.756  46.176  1.00  0.00    +0.000 C 
ATOM    124  H34 UNL A   1      51.835  16.473  49.621  1.00  0.00    +0.000 H 
ATOM    125  H35 UNL A   1      52.658  15.152  51.712  1.00  0.00    +0.000 H 
ATOM    126  H36 UNL A   1      49.663  12.955  49.881  1.00  0.00    +0.000 H 
ATOM    127  H37 UNL A   1      45.787   7.888  49.837  1.00  0.00    +0.000 H 
ATOM    128  H38 UNL A   1      45.055   9.133  47.746  1.00  0.00    +0.000 H 
ENDROOT
BRANCH   31   30
ATOM    134  H44 UNL A   1      46.754  10.318  44.966  1.00  0.00    +0.000 H 
ATOM    135  H45 UNL A   1      45.160  10.049  43.158  1.00  0.00    +0.000 H 
ATOM    123  H33 UNL A   1      43.850  12.399  47.201  1.00  0.00    +0.000 H 
ATOM     88  C64 UNL A   1      45.795  10.686  45.065  1.00  0.00    +0.000 C 
ATOM     89  C65 UNL A   1      44.870  10.497  44.040  1.00  0.00    +0.000 C 
ATOM    122  H32 UNL A   1      42.208  11.965  45.466  1.00  0.00    +0.000 H 
ATOM     27  C22 UNL A   1      43.547  10.917  44.211  1.00  0.00    +0.000 C 
ATOM     28  C23 UNL A   1      43.176  11.622  45.359  1.00  0.00    +0.000 C 
ATOM     29  C24 UNL A   1      44.118  11.861  46.361  1.00  0.00    +0.000 C 
ATOM     30  C25 UNL A   1      45.428  11.373  46.232  1.00  0.00    +0.000 C 
BRANCH   27   25
ATOM     25  C21 UNL A   1      42.524  10.654  43.177  1.00  0.00    +0.000 C 
ATOM     26  O3  UNL A   1      42.665   9.706  42.409  1.00  0.00    +0.000 O 
BRANCH   25   24
ATOM    121  H31 UNL A   1      40.807  11.447  43.834  1.00  0.00    +0.000 H 
ATOM     24  N2  UNL A   1      41.428  11.471  43.070  1.00  0.00    +0.000 N 
BRANCH   24   23
ATOM    119  H29 UNL A   1      40.983  11.804  41.083  1.00  0.00    +0.000 H 
ATOM     23  C20 UNL A   1      41.053  12.368  41.990  1.00  0.00    +0.000 C 
ATOM    120  H30 UNL A   1      40.115  12.814  42.244  1.00  0.00    +0.000 H 
BRANCH   23   22
ATOM    118  H28 UNL A   1      42.943  13.033  41.382  1.00  0.00    +0.000 H 
ATOM    117  H27 UNL A   1      42.237  13.954  42.742  1.00  0.00    +0.000 H 
ATOM     22  C19 UNL A   1      42.067  13.490  41.793  1.00  0.00    +0.000 C 
BRANCH   22   21
ATOM    115  H25 UNL A   1      40.884  14.169  40.169  1.00  0.00    +0.000 H 
ATOM    116  H26 UNL A   1      41.315  15.405  41.394  1.00  0.00    +0.000 H 
ATOM     21  C18 UNL A   1      41.645  14.577  40.801  1.00  0.00    +0.000 C 
BRANCH   21   20
ATOM    113  H23 UNL A   1      43.458  14.329  39.723  1.00  0.00    +0.000 H 
ATOM    114  H24 UNL A   1      42.281  15.478  39.016  1.00  0.00    +0.000 H 
ATOM     20  C17 UNL A   1      42.762  15.122  39.903  1.00  0.00    +0.000 C 
BRANCH   20   19
ATOM     19  C16 UNL A   1      43.537  16.313  40.473  1.00  0.00    +0.000 C 
ATOM    111  H21 UNL A   1      42.915  17.180  40.409  1.00  0.00    +0.000 H 
ATOM    112  H22 UNL A   1      43.793  16.058  41.480  1.00  0.00    +0.000 H 
BRANCH   19   18
ATOM     18  C15 UNL A   1      44.849  16.611  39.750  1.00  0.00    +0.000 C 
ATOM    109  H19 UNL A   1      45.010  15.864  39.000  1.00  0.00    +0.000 H 
ATOM    110  H20 UNL A   1      44.775  17.584  39.310  1.00  0.00    +0.000 H 
BRANCH   18   17
ATOM     17  N1  UNL A   1      45.976  16.612  40.663  1.00  0.00    +0.000 N 
ATOM    108  H18 UNL A   1      46.364  15.722  40.826  1.00  0.00    +0.000 H 
BRANCH   17   15
ATOM     15  C14 UNL A   1      46.600  17.626  41.339  1.00  0.00    +0.000 C 
ATOM     16  O2  UNL A   1      47.586  18.119  40.781  1.00  0.00    +0.000 O 
BRANCH   15   13
ATOM      2  C2  UNL A   1      44.123  16.273  46.732  1.00  0.00    +0.000 C 
ATOM      3  C3  UNL A   1      44.479  16.140  45.366  1.00  0.00    +0.000 C 
ATOM      5  C5  UNL A   1      45.328  17.097  44.777  1.00  0.00    +0.000 C 
ATOM      6  C6  UNL A   1      45.869  18.150  45.535  1.00  0.00    +0.000 C 
ATOM      7  C7  UNL A   1      45.483  18.315  46.881  1.00  0.00    +0.000 C 
ATOM    101  H11 UNL A   1      47.677  19.243  45.536  1.00  0.00    +0.000 H 
ATOM      9  C9  UNL A   1      44.613  17.376  47.455  1.00  0.00    +0.000 C 
ATOM    102  H12 UNL A   1      46.319  20.055  44.764  1.00  0.00    +0.000 H 
ATOM     11  C10 UNL A   1      46.826  19.123  44.898  1.00  0.00    +0.000 C 
ATOM     12  C11 UNL A   1      47.290  18.631  43.544  1.00  0.00    +0.000 C 
ATOM     13  C12 UNL A   1      46.103  18.103  42.735  1.00  0.00    +0.000 C 
ATOM    103  H13 UNL A   1      48.002  17.843  43.680  1.00  0.00    +0.000 H 
ATOM    104  H14 UNL A   1      47.739  19.444  43.014  1.00  0.00    +0.000 H 
ATOM     90  O4  UNL A   1      45.593  16.943  43.434  1.00  0.00    +0.000 O 
BRANCH    2    1
ATOM      1  C1  UNL A   1      43.248  15.224  47.370  1.00  0.00    +0.000 C 
ATOM     91  H1  UNL A   1      42.302  15.196  46.869  1.00  0.00    +0.000 H 
ATOM     92  H2  UNL A   1      43.098  15.462  48.401  1.00  0.00    +0.000 H 
ATOM     93  H3  UNL A   1      43.722  14.268  47.289  1.00  0.00    +0.000 H 
ENDBRANCH    2    1
BRANCH    3    4
ATOM      4  C4  UNL A   1      43.937  14.995  44.546  1.00  0.00    +0.000 C 
ATOM     94  H4  UNL A   1      42.976  15.258  44.156  1.00  0.00    +0.000 H 
ATOM     95  H5  UNL A   1      43.844  14.125  45.163  1.00  0.00    +0.000 H 
ATOM     96  H6  UNL A   1      44.605  14.787  43.736  1.00  0.00    +0.000 H 
ENDBRANCH    3    4
BRANCH    7    8
ATOM     97  H7  UNL A   1      46.970  19.764  47.317  1.00  0.00    +0.000 H 
ATOM     98  H8  UNL A   1      46.075  19.208  48.711  1.00  0.00    +0.000 H 
ATOM     99  H9  UNL A   1      45.331  20.312  47.579  1.00  0.00    +0.000 H 
ATOM      8  C8  UNL A   1      46.003  19.485  47.680  1.00  0.00    +0.000 C 
ENDBRANCH    7    8
BRANCH    9   10
ATOM     10  O1  UNL A   1      44.261  17.583  48.763  1.00  0.00    +0.000 O 
ATOM    100  H10 UNL A   1      43.536  17.116  49.132  1.00  0.00    +0.000 H 
ENDBRANCH    9   10
BRANCH   13   14
ATOM    105  H15 UNL A   1      44.177  18.888  43.279  1.00  0.00    +0.000 H 
ATOM    106  H16 UNL A   1      44.475  18.870  41.557  1.00  0.00    +0.000 H 
ATOM    107  H17 UNL A   1      45.249  20.070  42.566  1.00  0.00    +0.000 H 
ATOM     14  C13 UNL A   1      44.910  19.056  42.518  1.00  0.00    +0.000 C 
ENDBRANCH   13   14
ENDBRANCH   15   13
ENDBRANCH   17   15
ENDBRANCH   18   17
ENDBRANCH   19   18
ENDBRANCH   20   19
ENDBRANCH   21   20
ENDBRANCH   22   21
ENDBRANCH   23   22
ENDBRANCH   24   23
ENDBRANCH   25   24
ENDBRANCH   27   25
ENDBRANCH   31   30
BRANCH   35   36
ATOM     36  C30 UNL A   1      50.115  16.373  47.370  1.00  0.00    +0.000 C 
ATOM     37  C31 UNL A   1      49.451  17.577  47.650  1.00  0.00    +0.000 C 
ATOM     38  F1  UNL A   1      48.452  17.605  48.544  1.00  0.00    +0.000 F 
ATOM     39  C32 UNL A   1      49.792  18.753  46.986  1.00  0.00    +0.000 C 
ATOM     40  F2  UNL A   1      49.119  19.883  47.243  1.00  0.00    +0.000 F 
ATOM     41  C33 UNL A   1      50.820  18.754  46.056  1.00  0.00    +0.000 C 
ATOM     42  F3  UNL A   1      51.153  19.889  45.426  1.00  0.00    +0.000 F 
ATOM     43  C34 UNL A   1      51.499  17.578  45.775  1.00  0.00    +0.000 C 
ATOM     44  F4  UNL A   1      52.499  17.579  44.883  1.00  0.00    +0.000 F 
ATOM     45  C35 UNL A   1      51.143  16.394  46.417  1.00  0.00    +0.000 C 
ATOM     46  F5  UNL A   1      51.811  15.271  46.116  1.00  0.00    +0.000 F 
ENDBRANCH   35   36
BRANCH   52   53
ATOM     53  C41 UNL A   1      52.248  12.846  53.272  1.00  0.00    +0.000 C 
ATOM     54  C42 UNL A   1      53.568  12.395  53.137  1.00  0.00    +0.000 C 
ATOM     55  F6  UNL A   1      53.940  11.713  52.044  1.00  0.00    +0.000 F 
ATOM     56  C43 UNL A   1      54.507  12.625  54.139  1.00  0.00    +0.000 C 
ATOM     57  F7  UNL A   1      55.757  12.159  54.003  1.00  0.00    +0.000 F 
ATOM     58  C44 UNL A   1      54.151  13.330  55.280  1.00  0.00    +0.000 C 
ATOM     59  F8  UNL A   1      55.060  13.562  56.236  1.00  0.00    +0.000 F 
ATOM     60  C45 UNL A   1      52.851  13.791  55.430  1.00  0.00    +0.000 C 
ATOM     61  F9  UNL A   1      52.509  14.482  56.525  1.00  0.00    +0.000 F 
ATOM     62  C46 UNL A   1      51.904  13.542  54.440  1.00  0.00    +0.000 C 
ATOM     63  F10 UNL A   1      50.655  13.999  54.613  1.00  0.00    +0.000 F 
ENDBRANCH   52   53
BRANCH   67   68
ATOM     68  C50 UNL A   1      47.532   7.886  51.946  1.00  0.00    +0.000 C 
ATOM     69  C51 UNL A   1      48.230   6.693  51.719  1.00  0.00    +0.000 C 
ATOM     70  F11 UNL A   1      49.238   6.666  50.834  1.00  0.00    +0.000 F 
ATOM     71  C52 UNL A   1      47.878   5.517  52.377  1.00  0.00    +0.000 C 
ATOM     72  F12 UNL A   1      48.544   4.384  52.121  1.00  0.00    +0.000 F 
ATOM     73  C53 UNL A   1      46.837   5.518  53.292  1.00  0.00    +0.000 C 
ATOM     74  F13 UNL A   1      46.505   4.389  53.934  1.00  0.00    +0.000 F 
ATOM     75  C54 UNL A   1      46.135   6.688  53.539  1.00  0.00    +0.000 C 
ATOM     76  F14 UNL A   1      45.135   6.695  54.431  1.00  0.00    +0.000 F 
ATOM     77  C55 UNL A   1      46.472   7.860  52.863  1.00  0.00    +0.000 C 
ATOM     78  F15 UNL A   1      45.775   8.977  53.118  1.00  0.00    +0.000 F 
ENDBRANCH   67   68
TORSDOF 20
ENDMDL
MODEL 9
REMARK VINA RESULT:      -9.2     40.121     44.795
ROOT
ATOM    129  H39 UNL A   1      40.659  29.892  32.741  1.00  0.00    +0.000 H 
ATOM    130  H40 UNL A   1      37.244  33.339  34.058  1.00  0.00    +0.000 H 
ATOM    131  H41 UNL A   1      36.254  33.069  31.712  1.00  0.00    +0.000 H 
ATOM    132  H42 UNL A   1      43.439  26.459  29.331  1.00  0.00    +0.000 H 
ATOM    133  H43 UNL A   1      44.222  26.438  31.768  1.00  0.00    +0.000 H 
ATOM     31  C26 UNL A   1      42.865  28.316  33.425  1.00  0.00    +0.000 C 
ATOM     32  C27 UNL A   1      42.589  27.997  31.984  1.00  0.00    +0.000 C 
ATOM     33  N3  UNL A   1      41.681  28.496  31.185  1.00  0.00    +0.000 N 
ATOM     34  C28 UNL A   1      41.878  27.879  29.957  1.00  0.00    +0.000 C 
ATOM     35  C29 UNL A   1      41.153  28.011  28.821  1.00  0.00    +0.000 C 
ATOM     47  C36 UNL A   1      40.002  28.863  28.688  1.00  0.00    +0.000 C 
ATOM     48  C37 UNL A   1      39.181  29.037  27.588  1.00  0.00    +0.000 C 
ATOM     49  C38 UNL A   1      38.206  29.985  27.915  1.00  0.00    +0.000 C 
ATOM     50  C39 UNL A   1      38.398  30.373  29.231  1.00  0.00    +0.000 C 
ATOM     51  N4  UNL A   1      39.506  29.681  29.691  1.00  0.00    +0.000 N 
ATOM     52  C40 UNL A   1      37.628  31.309  30.010  1.00  0.00    +0.000 C 
ATOM     64  C47 UNL A   1      37.867  31.626  31.306  1.00  0.00    +0.000 C 
ATOM     65  N5  UNL A   1      38.859  31.149  32.151  1.00  0.00    +0.000 N 
ATOM     66  C48 UNL A   1      38.684  31.762  33.295  1.00  0.00    +0.000 C 
ATOM     67  C49 UNL A   1      39.458  31.617  34.575  1.00  0.00    +0.000 C 
ATOM     79  C56 UNL A   1      40.499  30.764  34.625  1.00  0.00    +0.000 C 
ATOM     80  C57 UNL A   1      41.337  30.515  35.794  1.00  0.00    +0.000 C 
ATOM     81  C58 UNL A   1      42.289  29.624  35.470  1.00  0.00    +0.000 C 
ATOM     82  C59 UNL A   1      42.104  29.214  34.078  1.00  0.00    +0.000 C 
ATOM     83  N6  UNL A   1      41.023  29.947  33.654  1.00  0.00    +0.000 N 
ATOM     84  C60 UNL A   1      37.567  32.718  33.300  1.00  0.00    +0.000 C 
ATOM     85  C61 UNL A   1      37.083  32.572  32.073  1.00  0.00    +0.000 C 
ATOM     86  C62 UNL A   1      43.022  27.005  30.100  1.00  0.00    +0.000 C 
ATOM     87  C63 UNL A   1      43.464  26.998  31.349  1.00  0.00    +0.000 C 
ATOM    124  H34 UNL A   1      39.271  28.550  26.683  1.00  0.00    +0.000 H 
ATOM    125  H35 UNL A   1      37.470  30.337  27.283  1.00  0.00    +0.000 H 
ATOM    126  H36 UNL A   1      39.885  29.759  30.597  1.00  0.00    +0.000 H 
ATOM    127  H37 UNL A   1      41.219  30.954  36.721  1.00  0.00    +0.000 H 
ATOM    128  H38 UNL A   1      43.030  29.283  36.100  1.00  0.00    +0.000 H 
ENDROOT
BRANCH   31   30
ATOM    134  H44 UNL A   1      45.386  29.198  33.614  1.00  0.00    +0.000 H 
ATOM    135  H45 UNL A   1      47.293  28.119  34.654  1.00  0.00    +0.000 H 
ATOM    123  H33 UNL A   1      42.939  25.973  34.783  1.00  0.00    +0.000 H 
ATOM     88  C64 UNL A   1      45.267  28.295  34.098  1.00  0.00    +0.000 C 
ATOM     89  C65 UNL A   1      46.356  27.696  34.727  1.00  0.00    +0.000 C 
ATOM    122  H32 UNL A   1      44.809  24.992  35.980  1.00  0.00    +0.000 H 
ATOM     27  C22 UNL A   1      46.175  26.518  35.459  1.00  0.00    +0.000 C 
ATOM     28  C23 UNL A   1      44.931  25.881  35.471  1.00  0.00    +0.000 C 
ATOM     29  C24 UNL A   1      43.853  26.453  34.793  1.00  0.00    +0.000 C 
ATOM     30  C25 UNL A   1      44.008  27.676  34.122  1.00  0.00    +0.000 C 
BRANCH   27   25
ATOM     25  C21 UNL A   1      47.294  25.906  36.207  1.00  0.00    +0.000 C 
ATOM     26  O3  UNL A   1      47.658  26.402  37.271  1.00  0.00    +0.000 O 
BRANCH   25   24
ATOM    121  H31 UNL A   1      47.432  23.950  35.803  1.00  0.00    +0.000 H 
ATOM     24  N2  UNL A   1      47.928  24.795  35.711  1.00  0.00    +0.000 N 
BRANCH   24   23
ATOM    119  H29 UNL A   1      49.983  24.660  35.826  1.00  0.00    +0.000 H 
ATOM     23  C20 UNL A   1      49.227  24.690  35.069  1.00  0.00    +0.000 C 
ATOM    120  H30 UNL A   1      49.230  23.798  34.479  1.00  0.00    +0.000 H 
BRANCH   23   22
ATOM    118  H28 UNL A   1      50.570  25.992  34.130  1.00  0.00    +0.000 H 
ATOM    117  H27 UNL A   1      48.983  26.719  34.515  1.00  0.00    +0.000 H 
ATOM     22  C19 UNL A   1      49.508  25.866  34.140  1.00  0.00    +0.000 C 
BRANCH   22   21
ATOM    115  H25 UNL A   1      48.177  25.095  32.680  1.00  0.00    +0.000 H 
ATOM    116  H26 UNL A   1      48.997  26.632  32.257  1.00  0.00    +0.000 H 
ATOM     21  C18 UNL A   1      49.089  25.654  32.682  1.00  0.00    +0.000 C 
BRANCH   21   20
ATOM    113  H23 UNL A   1      51.071  25.034  32.241  1.00  0.00    +0.000 H 
ATOM    114  H24 UNL A   1      49.774  23.889  31.777  1.00  0.00    +0.000 H 
ATOM     20  C17 UNL A   1      50.102  24.907  31.805  1.00  0.00    +0.000 C 
BRANCH   20   19
ATOM     19  C16 UNL A   1      50.173  25.371  30.348  1.00  0.00    +0.000 C 
ATOM    111  H21 UNL A   1      51.111  25.059  29.942  1.00  0.00    +0.000 H 
ATOM    112  H22 UNL A   1      49.336  24.934  29.846  1.00  0.00    +0.000 H 
BRANCH   19   18
ATOM     18  C15 UNL A   1      50.052  26.883  30.165  1.00  0.00    +0.000 C 
ATOM    109  H19 UNL A   1      50.036  27.350  31.128  1.00  0.00    +0.000 H 
ATOM    110  H20 UNL A   1      50.892  27.218  29.591  1.00  0.00    +0.000 H 
BRANCH   18   17
ATOM     17  N1  UNL A   1      48.842  27.240  29.448  1.00  0.00    +0.000 N 
ATOM    108  H18 UNL A   1      48.269  27.885  29.922  1.00  0.00    +0.000 H 
BRANCH   17   15
ATOM     15  C14 UNL A   1      48.355  26.847  28.231  1.00  0.00    +0.000 C 
ATOM     16  O2  UNL A   1      49.050  27.136  27.252  1.00  0.00    +0.000 O 
BRANCH   15   13
ATOM      2  C2  UNL A   1      44.940  22.698  25.371  1.00  0.00    +0.000 C 
ATOM      3  C3  UNL A   1      45.988  23.626  25.594  1.00  0.00    +0.000 C 
ATOM      5  C5  UNL A   1      46.106  24.246  26.853  1.00  0.00    +0.000 C 
ATOM      6  C6  UNL A   1      45.233  23.920  27.906  1.00  0.00    +0.000 C 
ATOM      7  C7  UNL A   1      44.161  23.033  27.678  1.00  0.00    +0.000 C 
ATOM    101  H11 UNL A   1      45.380  23.784  30.009  1.00  0.00    +0.000 H 
ATOM      9  C9  UNL A   1      44.030  22.441  26.413  1.00  0.00    +0.000 C 
ATOM    102  H12 UNL A   1      44.638  25.264  29.411  1.00  0.00    +0.000 H 
ATOM     11  C10 UNL A   1      45.419  24.549  29.261  1.00  0.00    +0.000 C 
ATOM     12  C11 UNL A   1      46.749  25.265  29.357  1.00  0.00    +0.000 C 
ATOM     13  C12 UNL A   1      46.994  26.102  28.100  1.00  0.00    +0.000 C 
ATOM    103  H13 UNL A   1      47.532  24.542  29.458  1.00  0.00    +0.000 H 
ATOM    104  H14 UNL A   1      46.735  25.912  30.209  1.00  0.00    +0.000 H 
ATOM     90  O4  UNL A   1      47.110  25.178  26.990  1.00  0.00    +0.000 O 
BRANCH    2    1
ATOM      1  C1  UNL A   1      44.843  22.005  24.035  1.00  0.00    +0.000 C 
ATOM     91  H1  UNL A   1      43.871  22.168  23.618  1.00  0.00    +0.000 H 
ATOM     92  H2  UNL A   1      45.004  20.956  24.164  1.00  0.00    +0.000 H 
ATOM     93  H3  UNL A   1      45.585  22.401  23.374  1.00  0.00    +0.000 H 
ENDBRANCH    2    1
BRANCH    3    4
ATOM      4  C4  UNL A   1      46.957  23.961  24.486  1.00  0.00    +0.000 C 
ATOM     94  H4  UNL A   1      47.909  23.522  24.700  1.00  0.00    +0.000 H 
ATOM     95  H5  UNL A   1      47.065  25.024  24.415  1.00  0.00    +0.000 H 
ATOM     96  H6  UNL A   1      46.588  23.577  23.559  1.00  0.00    +0.000 H 
ENDBRANCH    3    4
BRANCH    7    8
ATOM     97  H7  UNL A   1      43.618  22.972  29.727  1.00  0.00    +0.000 H 
ATOM     98  H8  UNL A   1      42.921  21.695  28.760  1.00  0.00    +0.000 H 
ATOM     99  H9  UNL A   1      42.294  23.322  28.642  1.00  0.00    +0.000 H 
ATOM      8  C8  UNL A   1      43.177  22.734  28.782  1.00  0.00    +0.000 C 
ENDBRANCH    7    8
BRANCH    9   10
ATOM     10  O1  UNL A   1      42.969  21.592  26.237  1.00  0.00    +0.000 O 
ATOM    100  H10 UNL A   1      42.178  21.907  25.843  1.00  0.00    +0.000 H 
ENDBRANCH    9   10
BRANCH   13   14
ATOM    105  H15 UNL A   1      45.386  27.442  28.587  1.00  0.00    +0.000 H 
ATOM    106  H16 UNL A   1      45.233  26.693  27.016  1.00  0.00    +0.000 H 
ATOM    107  H17 UNL A   1      46.385  27.985  27.260  1.00  0.00    +0.000 H 
ATOM     14  C13 UNL A   1      45.918  27.135  27.711  1.00  0.00    +0.000 C 
ENDBRANCH   13   14
ENDBRANCH   15   13
ENDBRANCH   17   15
ENDBRANCH   18   17
ENDBRANCH   19   18
ENDBRANCH   20   19
ENDBRANCH   21   20
ENDBRANCH   22   21
ENDBRANCH   23   22
ENDBRANCH   24   23
ENDBRANCH   25   24
ENDBRANCH   27   25
ENDBRANCH   31   30
BRANCH   35   36
ATOM     36  C30 UNL A   1      41.578  27.205  27.631  1.00  0.00    +0.000 C 
ATOM     37  C31 UNL A   1      42.513  27.702  26.710  1.00  0.00    +0.000 C 
ATOM     38  F1  UNL A   1      43.002  28.943  26.849  1.00  0.00    +0.000 F 
ATOM     39  C32 UNL A   1      42.924  26.936  25.622  1.00  0.00    +0.000 C 
ATOM     40  F2  UNL A   1      43.789  27.447  24.735  1.00  0.00    +0.000 F 
ATOM     41  C33 UNL A   1      42.435  25.650  25.452  1.00  0.00    +0.000 C 
ATOM     42  F3  UNL A   1      42.839  24.910  24.411  1.00  0.00    +0.000 F 
ATOM     43  C34 UNL A   1      41.520  25.133  26.358  1.00  0.00    +0.000 C 
ATOM     44  F4  UNL A   1      41.054  23.887  26.201  1.00  0.00    +0.000 F 
ATOM     45  C35 UNL A   1      41.086  25.907  27.433  1.00  0.00    +0.000 C 
ATOM     46  F5  UNL A   1      40.195  25.383  28.286  1.00  0.00    +0.000 F 
ENDBRANCH   35   36
BRANCH   52   53
ATOM     53  C41 UNL A   1      36.464  31.974  29.339  1.00  0.00    +0.000 C 
ATOM     54  C42 UNL A   1      35.320  31.249  28.975  1.00  0.00    +0.000 C 
ATOM     55  F6  UNL A   1      35.280  29.920  29.149  1.00  0.00    +0.000 F 
ATOM     56  C43 UNL A   1      34.221  31.888  28.408  1.00  0.00    +0.000 C 
ATOM     57  F7  UNL A   1      33.149  31.172  28.040  1.00  0.00    +0.000 F 
ATOM     58  C44 UNL A   1      34.235  33.263  28.219  1.00  0.00    +0.000 C 
ATOM     59  F8  UNL A   1      33.170  33.877  27.685  1.00  0.00    +0.000 F 
ATOM     60  C45 UNL A   1      35.354  33.999  28.578  1.00  0.00    +0.000 C 
ATOM     61  F9  UNL A   1      35.364  35.327  28.408  1.00  0.00    +0.000 F 
ATOM     62  C46 UNL A   1      36.464  33.360  29.124  1.00  0.00    +0.000 C 
ATOM     63  F10 UNL A   1      37.532  34.096  29.462  1.00  0.00    +0.000 F 
ENDBRANCH   52   53
BRANCH   67   68
ATOM     68  C50 UNL A   1      39.070  32.373  35.793  1.00  0.00    +0.000 C 
ATOM     69  C51 UNL A   1      39.480  33.701  35.971  1.00  0.00    +0.000 C 
ATOM     70  F11 UNL A   1      40.267  34.285  35.055  1.00  0.00    +0.000 F 
ATOM     71  C52 UNL A   1      39.107  34.424  37.101  1.00  0.00    +0.000 C 
ATOM     72  F12 UNL A   1      39.537  35.682  37.260  1.00  0.00    +0.000 F 
ATOM     73  C53 UNL A   1      38.299  33.840  38.065  1.00  0.00    +0.000 C 
ATOM     74  F13 UNL A   1      37.932  34.539  39.148  1.00  0.00    +0.000 F 
ATOM     75  C54 UNL A   1      37.874  32.529  37.907  1.00  0.00    +0.000 C 
ATOM     76  F14 UNL A   1      37.083  31.965  38.831  1.00  0.00    +0.000 F 
ATOM     77  C55 UNL A   1      38.266  31.797  36.787  1.00  0.00    +0.000 C 
ATOM     78  F15 UNL A   1      37.844  30.531  36.661  1.00  0.00    +0.000 F 
ENDBRANCH   67   68
TORSDOF 20
ENDMDL
MODEL 10
REMARK VINA RESULT:      -9.1     50.507     58.522
ROOT
ATOM    129  H39 UNL A   1      56.265  18.650  12.784  1.00  0.00    +0.000 H 
ATOM    130  H40 UNL A   1      60.921  16.838  13.351  1.00  0.00    +0.000 H 
ATOM    131  H41 UNL A   1      61.046  18.190  15.522  1.00  0.00    +0.000 H 
ATOM    132  H42 UNL A   1      51.838  21.866  13.882  1.00  0.00    +0.000 H 
ATOM    133  H43 UNL A   1      51.549  20.254  11.914  1.00  0.00    +0.000 H 
ATOM     31  C26 UNL A   1      53.890  18.748  11.312  1.00  0.00    +0.000 C 
ATOM     32  C27 UNL A   1      53.681  19.701  12.454  1.00  0.00    +0.000 C 
ATOM     33  N3  UNL A   1      54.509  20.042  13.408  1.00  0.00    +0.000 N 
ATOM     34  C28 UNL A   1      53.828  20.973  14.182  1.00  0.00    +0.000 C 
ATOM     35  C29 UNL A   1      54.233  21.579  15.322  1.00  0.00    +0.000 C 
ATOM     47  C36 UNL A   1      55.506  21.354  15.953  1.00  0.00    +0.000 C 
ATOM     48  C37 UNL A   1      55.994  21.894  17.130  1.00  0.00    +0.000 C 
ATOM     49  C38 UNL A   1      57.289  21.407  17.331  1.00  0.00    +0.000 C 
ATOM     50  C39 UNL A   1      57.593  20.533  16.300  1.00  0.00    +0.000 C 
ATOM     51  N4  UNL A   1      56.493  20.514  15.459  1.00  0.00    +0.000 N 
ATOM     52  C40 UNL A   1      58.800  19.774  16.096  1.00  0.00    +0.000 C 
ATOM     64  C47 UNL A   1      59.020  18.921  15.066  1.00  0.00    +0.000 C 
ATOM     65  N5  UNL A   1      58.176  18.589  14.015  1.00  0.00    +0.000 N 
ATOM     66  C48 UNL A   1      58.841  17.737  13.275  1.00  0.00    +0.000 C 
ATOM     67  C49 UNL A   1      58.406  17.034  12.019  1.00  0.00    +0.000 C 
ATOM     79  C56 UNL A   1      57.179  17.272  11.519  1.00  0.00    +0.000 C 
ATOM     80  C57 UNL A   1      56.619  16.663  10.316  1.00  0.00    +0.000 C 
ATOM     81  C58 UNL A   1      55.386  17.153  10.110  1.00  0.00    +0.000 C 
ATOM     82  C59 UNL A   1      55.056  18.086  11.187  1.00  0.00    +0.000 C 
ATOM     83  N6  UNL A   1      56.181  18.100  11.974  1.00  0.00    +0.000 N 
ATOM     84  C60 UNL A   1      60.196  17.445  13.764  1.00  0.00    +0.000 C 
ATOM     85  C61 UNL A   1      60.242  18.168  14.875  1.00  0.00    +0.000 C 
ATOM     86  C62 UNL A   1      52.538  21.181  13.559  1.00  0.00    +0.000 C 
ATOM     87  C63 UNL A   1      52.376  20.376  12.519  1.00  0.00    +0.000 C 
ATOM    124  H34 UNL A   1      55.489  22.544  17.752  1.00  0.00    +0.000 H 
ATOM    125  H35 UNL A   1      57.913  21.656  18.114  1.00  0.00    +0.000 H 
ATOM    126  H36 UNL A   1      56.422  19.983  14.632  1.00  0.00    +0.000 H 
ATOM    127  H37 UNL A   1      57.095  15.968   9.720  1.00  0.00    +0.000 H 
ATOM    128  H38 UNL A   1      54.769  16.910   9.319  1.00  0.00    +0.000 H 
ENDROOT
BRANCH   31   30
ATOM    134  H44 UNL A   1      53.425  20.234   9.134  1.00  0.00    +0.000 H 
ATOM    135  H45 UNL A   1      51.635  20.023   7.512  1.00  0.00    +0.000 H 
ATOM    123  H33 UNL A   1      51.937  16.875  11.197  1.00  0.00    +0.000 H 
ATOM     88  C64 UNL A   1      52.742  19.466   9.218  1.00  0.00    +0.000 C 
ATOM     89  C65 UNL A   1      51.737  19.324   8.264  1.00  0.00    +0.000 C 
ATOM    122  H32 UNL A   1      50.261  16.560   9.469  1.00  0.00    +0.000 H 
ATOM     27  C22 UNL A   1      50.865  18.233   8.327  1.00  0.00    +0.000 C 
ATOM     28  C23 UNL A   1      50.930  17.343   9.403  1.00  0.00    +0.000 C 
ATOM     29  C24 UNL A   1      51.901  17.519  10.390  1.00  0.00    +0.000 C 
ATOM     30  C25 UNL A   1      52.829  18.567  10.292  1.00  0.00    +0.000 C 
BRANCH   27   25
ATOM     25  C21 UNL A   1      49.845  18.010   7.281  1.00  0.00    +0.000 C 
ATOM     26  O3  UNL A   1      49.921  17.020   6.558  1.00  0.00    +0.000 O 
BRANCH   25   24
ATOM    121  H31 UNL A   1      48.131  18.898   7.813  1.00  0.00    +0.000 H 
ATOM     24  N2  UNL A   1      48.824  18.910   7.113  1.00  0.00    +0.000 N 
BRANCH   24   23
ATOM    119  H29 UNL A   1      48.030  20.688   6.430  1.00  0.00    +0.000 H 
ATOM     23  C20 UNL A   1      48.619  19.879   6.050  1.00  0.00    +0.000 C 
ATOM    120  H30 UNL A   1      49.580  20.216   5.724  1.00  0.00    +0.000 H 
BRANCH   23   22
ATOM    118  H28 UNL A   1      48.048  18.215   4.915  1.00  0.00    +0.000 H 
ATOM    117  H27 UNL A   1      48.320  19.701   3.961  1.00  0.00    +0.000 H 
ATOM     22  C19 UNL A   1      47.903  19.272   4.847  1.00  0.00    +0.000 C 
BRANCH   22   21
ATOM    115  H25 UNL A   1      46.029  19.462   5.823  1.00  0.00    +0.000 H 
ATOM    116  H26 UNL A   1      46.241  20.442   4.337  1.00  0.00    +0.000 H 
ATOM     21  C18 UNL A   1      46.388  19.497   4.816  1.00  0.00    +0.000 C 
BRANCH   21   20
ATOM    113  H23 UNL A   1      46.243  17.675   3.734  1.00  0.00    +0.000 H 
ATOM    114  H24 UNL A   1      44.767  18.180   4.614  1.00  0.00    +0.000 H 
ATOM     20  C17 UNL A   1      45.586  18.479   3.995  1.00  0.00    +0.000 C 
BRANCH   20   19
ATOM     19  C16 UNL A   1      44.967  19.023   2.705  1.00  0.00    +0.000 C 
ATOM    111  H21 UNL A   1      45.734  19.517   2.147  1.00  0.00    +0.000 H 
ATOM    112  H22 UNL A   1      44.551  18.184   2.187  1.00  0.00    +0.000 H 
BRANCH   19   18
ATOM     18  C15 UNL A   1      43.824  20.011   2.926  1.00  0.00    +0.000 C 
ATOM    109  H19 UNL A   1      43.573  20.026   3.966  1.00  0.00    +0.000 H 
ATOM    110  H20 UNL A   1      44.149  20.977   2.598  1.00  0.00    +0.000 H 
BRANCH   18   17
ATOM     17  N1  UNL A   1      42.646  19.647   2.162  1.00  0.00    +0.000 N 
ATOM    108  H18 UNL A   1      41.935  19.223   2.695  1.00  0.00    +0.000 H 
BRANCH   17   15
ATOM     15  C14 UNL A   1      42.341  19.787   0.835  1.00  0.00    +0.000 C 
ATOM     16  O2  UNL A   1      43.282  19.647   0.048  1.00  0.00    +0.000 O 
BRANCH   15   13
ATOM      2  C2  UNL A   1      36.506  20.825   2.225  1.00  0.00    +0.000 C 
ATOM      3  C3  UNL A   1      37.841  20.366   2.363  1.00  0.00    +0.000 C 
ATOM      5  C5  UNL A   1      38.788  20.683   1.371  1.00  0.00    +0.000 C 
ATOM      6  C6  UNL A   1      38.443  21.492   0.273  1.00  0.00    +0.000 C 
ATOM      7  C7  UNL A   1      37.108  21.913   0.105  1.00  0.00    +0.000 C 
ATOM    101  H11 UNL A   1      39.432  22.924  -0.923  1.00  0.00    +0.000 H 
ATOM      9  C9  UNL A   1      36.162  21.569   1.082  1.00  0.00    +0.000 C 
ATOM    102  H12 UNL A   1      39.302  21.322  -1.640  1.00  0.00    +0.000 H 
ATOM     11  C10 UNL A   1      39.489  21.871  -0.741  1.00  0.00    +0.000 C 
ATOM     12  C11 UNL A   1      40.880  21.528  -0.251  1.00  0.00    +0.000 C 
ATOM     13  C12 UNL A   1      40.898  20.126   0.360  1.00  0.00    +0.000 C 
ATOM    103  H13 UNL A   1      41.177  22.241   0.491  1.00  0.00    +0.000 H 
ATOM    104  H14 UNL A   1      41.557  21.557  -1.078  1.00  0.00    +0.000 H 
ATOM     90  O4  UNL A   1      40.052  20.163   1.534  1.00  0.00    +0.000 O 
BRANCH    2    1
ATOM      1  C1  UNL A   1      35.507  20.517   3.311  1.00  0.00    +0.000 C 
ATOM     91  H1  UNL A   1      35.777  21.042   4.204  1.00  0.00    +0.000 H 
ATOM     92  H2  UNL A   1      35.500  19.465   3.503  1.00  0.00    +0.000 H 
ATOM     93  H3  UNL A   1      34.532  20.829   2.997  1.00  0.00    +0.000 H 
ENDBRANCH    2    1
BRANCH    3    4
ATOM      4  C4  UNL A   1      38.238  19.527   3.554  1.00  0.00    +0.000 C 
ATOM     94  H4  UNL A   1      37.630  19.789   4.395  1.00  0.00    +0.000 H 
ATOM     95  H5  UNL A   1      39.267  19.706   3.790  1.00  0.00    +0.000 H 
ATOM     96  H6  UNL A   1      38.100  18.491   3.325  1.00  0.00    +0.000 H 
ENDBRANCH    3    4
BRANCH    7    8
ATOM     97  H7  UNL A   1      36.791  22.109  -1.983  1.00  0.00    +0.000 H 
ATOM     98  H8  UNL A   1      37.370  23.562  -1.203  1.00  0.00    +0.000 H 
ATOM     99  H9  UNL A   1      35.708  23.063  -0.997  1.00  0.00    +0.000 H 
ATOM      8  C8  UNL A   1      36.716  22.720  -1.108  1.00  0.00    +0.000 C 
ENDBRANCH    7    8
BRANCH    9   10
ATOM     10  O1  UNL A   1      34.877  21.994   0.871  1.00  0.00    +0.000 O 
ATOM    100  H10 UNL A   1      34.177  21.642   1.386  1.00  0.00    +0.000 H 
ENDBRANCH    9   10
BRANCH   13   14
ATOM    105  H15 UNL A   1      39.624  19.313  -1.169  1.00  0.00    +0.000 H 
ATOM    106  H16 UNL A   1      40.007  18.185   0.110  1.00  0.00    +0.000 H 
ATOM    107  H17 UNL A   1      41.208  18.576  -1.099  1.00  0.00    +0.000 H 
ATOM     14  C13 UNL A   1      40.396  18.961  -0.517  1.00  0.00    +0.000 C 
ENDBRANCH   13   14
ENDBRANCH   15   13
ENDBRANCH   17   15
ENDBRANCH   18   17
ENDBRANCH   19   18
ENDBRANCH   20   19
ENDBRANCH   21   20
ENDBRANCH   22   21
ENDBRANCH   23   22
ENDBRANCH   24   23
ENDBRANCH   25   24
ENDBRANCH   27   25
ENDBRANCH   31   30
BRANCH   35   36
ATOM     36  C30 UNL A   1      53.283  22.540  15.972  1.00  0.00    +0.000 C 
ATOM     37  C31 UNL A   1      52.449  22.139  17.028  1.00  0.00    +0.000 C 
ATOM     38  F1  UNL A   1      52.448  20.863  17.438  1.00  0.00    +0.000 F 
ATOM     39  C32 UNL A   1      51.591  23.045  17.645  1.00  0.00    +0.000 C 
ATOM     40  F2  UNL A   1      50.776  22.631  18.626  1.00  0.00    +0.000 F 
ATOM     41  C33 UNL A   1      51.570  24.371  17.241  1.00  0.00    +0.000 C 
ATOM     42  F3  UNL A   1      50.750  25.243  17.842  1.00  0.00    +0.000 F 
ATOM     43  C34 UNL A   1      52.396  24.792  16.209  1.00  0.00    +0.000 C 
ATOM     44  F4  UNL A   1      52.385  26.075  15.824  1.00  0.00    +0.000 F 
ATOM     45  C35 UNL A   1      53.238  23.883  15.571  1.00  0.00    +0.000 C 
ATOM     46  F5  UNL A   1      54.017  24.317  14.570  1.00  0.00    +0.000 F 
ENDBRANCH   35   36
BRANCH   52   53
ATOM     53  C41 UNL A   1      59.894  19.930  17.109  1.00  0.00    +0.000 C 
ATOM     54  C42 UNL A   1      60.883  20.914  16.969  1.00  0.00    +0.000 C 
ATOM     55  F6  UNL A   1      60.915  21.688  15.874  1.00  0.00    +0.000 F 
ATOM     56  C43 UNL A   1      61.859  21.089  17.947  1.00  0.00    +0.000 C 
ATOM     57  F7  UNL A   1      62.813  22.016  17.779  1.00  0.00    +0.000 F 
ATOM     58  C44 UNL A   1      61.848  20.304  19.091  1.00  0.00    +0.000 C 
ATOM     59  F8  UNL A   1      62.781  20.484  20.036  1.00  0.00    +0.000 F 
ATOM     60  C45 UNL A   1      60.875  19.330  19.251  1.00  0.00    +0.000 C 
ATOM     61  F9  UNL A   1      60.856  18.579  20.361  1.00  0.00    +0.000 F 
ATOM     62  C46 UNL A   1      59.912  19.136  18.265  1.00  0.00    +0.000 C 
ATOM     63  F10 UNL A   1      58.983  18.186  18.447  1.00  0.00    +0.000 F 
ENDBRANCH   52   53
BRANCH   67   68
ATOM     68  C50 UNL A   1      59.296  16.055  11.345  1.00  0.00    +0.000 C 
ATOM     69  C51 UNL A   1      60.147  16.460  10.307  1.00  0.00    +0.000 C 
ATOM     70  F11 UNL A   1      60.129  17.733   9.887  1.00  0.00    +0.000 F 
ATOM     71  C52 UNL A   1      60.997  15.553   9.679  1.00  0.00    +0.000 C 
ATOM     72  F12 UNL A   1      61.780  15.960   8.671  1.00  0.00    +0.000 F 
ATOM     73  C53 UNL A   1      61.030  14.229  10.092  1.00  0.00    +0.000 C 
ATOM     74  F13 UNL A   1      61.855  13.359   9.495  1.00  0.00    +0.000 F 
ATOM     75  C54 UNL A   1      60.202  13.807  11.121  1.00  0.00    +0.000 C 
ATOM     76  F14 UNL A   1      60.239  12.531  11.530  1.00  0.00    +0.000 F 
ATOM     77  C55 UNL A   1      59.334  14.709  11.734  1.00  0.00    +0.000 C 
ATOM     78  F15 UNL A   1      58.542  14.274  12.725  1.00  0.00    +0.000 F 
ENDBRANCH   67   68
TORSDOF 20
ENDMDL
