MODEL 1
REMARK VINA RESULT:     -10.7      0.000      0.000
ROOT
ATOM     27  C22 UNL A   1      37.949  29.906  29.867  1.00  0.00    +0.000 C 
ATOM     28  C23 UNL A   1      38.180  30.432  31.256  1.00  0.00    +0.000 C 
ATOM     29  N3  UNL A   1      39.209  30.257  32.048  1.00  0.00    +0.000 N 
ATOM     30  C24 UNL A   1      38.937  30.995  33.192  1.00  0.00    +0.000 C 
ATOM     31  C25 UNL A   1      39.672  31.098  34.326  1.00  0.00    +0.000 C 
ATOM     43  C32 UNL A   1      40.915  30.409  34.553  1.00  0.00    +0.000 C 
ATOM     44  C33 UNL A   1      41.698  30.396  35.694  1.00  0.00    +0.000 C 
ATOM     45  C34 UNL A   1      42.829  29.614  35.441  1.00  0.00    +0.000 C 
ATOM     46  C35 UNL A   1      42.728  29.102  34.157  1.00  0.00    +0.000 C 
ATOM     47  N4  UNL A   1      41.553  29.604  33.620  1.00  0.00    +0.000 N 
ATOM     48  C36 UNL A   1      43.634  28.220  33.470  1.00  0.00    +0.000 C 
ATOM     60  C43 UNL A   1      43.474  27.780  32.199  1.00  0.00    +0.000 C 
ATOM     61  N5  UNL A   1      42.440  28.040  31.309  1.00  0.00    +0.000 N 
ATOM     62  C44 UNL A   1      42.744  27.399  30.208  1.00  0.00    +0.000 C 
ATOM     63  C45 UNL A   1      41.964  27.287  28.924  1.00  0.00    +0.000 C 
ATOM     75  C52 UNL A   1      40.764  27.891  28.830  1.00  0.00    +0.000 C 
ATOM     76  C53 UNL A   1      39.887  27.858  27.663  1.00  0.00    +0.000 C 
ATOM     77  C54 UNL A   1      38.794  28.594  27.916  1.00  0.00    +0.000 C 
ATOM     78  C55 UNL A   1      38.877  29.126  29.277  1.00  0.00    +0.000 C 
ATOM     79  N6  UNL A   1      40.080  28.656  29.744  1.00  0.00    +0.000 N 
ATOM     80  C56 UNL A   1      44.030  26.689  30.263  1.00  0.00    +0.000 C 
ATOM     81  C57 UNL A   1      44.408  26.914  31.513  1.00  0.00    +0.000 C 
ATOM     82  C58 UNL A   1      37.667  31.654  32.979  1.00  0.00    +0.000 C 
ATOM     83  C59 UNL A   1      37.127  31.289  31.825  1.00  0.00    +0.000 C 
ATOM    116  H27 UNL A   1      41.484  30.879  36.581  1.00  0.00    +0.000 H 
ATOM    117  H28 UNL A   1      43.608  29.447  36.097  1.00  0.00    +0.000 H 
ATOM    118  H29 UNL A   1      41.221  29.418  32.713  1.00  0.00    +0.000 H 
ATOM    119  H30 UNL A   1      40.079  27.349  26.785  1.00  0.00    +0.000 H 
ATOM    120  H31 UNL A   1      38.018  28.758  27.255  1.00  0.00    +0.000 H 
ATOM    121  H32 UNL A   1      40.420  28.849  30.647  1.00  0.00    +0.000 H 
ATOM    122  H33 UNL A   1      44.513  26.155  29.523  1.00  0.00    +0.000 H 
ATOM    123  H34 UNL A   1      45.260  26.522  31.942  1.00  0.00    +0.000 H 
ATOM    124  H35 UNL A   1      37.237  32.321  33.640  1.00  0.00    +0.000 H 
ATOM    125  H36 UNL A   1      36.209  31.539  31.429  1.00  0.00    +0.000 H 
ENDROOT
BRANCH   27   26
ATOM    114  H25 UNL A   1      35.265  32.911  27.599  1.00  0.00    +0.000 H 
ATOM    115  H26 UNL A   1      37.317  32.282  28.732  1.00  0.00    +0.000 H 
ATOM     84  C60 UNL A   1      35.714  29.339  28.897  1.00  0.00    +0.000 C 
ATOM     85  C61 UNL A   1      34.569  29.680  28.178  1.00  0.00    +0.000 C 
ATOM     23  C18 UNL A   1      34.380  30.998  27.753  1.00  0.00    +0.000 C 
ATOM     24  C19 UNL A   1      35.389  31.946  27.946  1.00  0.00    +0.000 C 
ATOM     25  C20 UNL A   1      36.564  31.587  28.611  1.00  0.00    +0.000 C 
ATOM     26  C21 UNL A   1      36.725  30.287  29.116  1.00  0.00    +0.000 C 
ATOM    126  H37 UNL A   1      35.819  28.382  29.271  1.00  0.00    +0.000 H 
ATOM    127  H38 UNL A   1      33.863  28.961  27.960  1.00  0.00    +0.000 H 
BRANCH   23   21
ATOM     21  C17 UNL A   1      33.138  31.417  27.067  1.00  0.00    +0.000 C 
ATOM     22  O3  UNL A   1      32.801  32.598  27.087  1.00  0.00    +0.000 O 
BRANCH   21   20
ATOM    113  H24 UNL A   1      31.447  30.379  26.804  1.00  0.00    +0.000 H 
ATOM     20  N2  UNL A   1      32.351  30.491  26.430  1.00  0.00    +0.000 N 
BRANCH   20   19
ATOM     19  C16 UNL A   1      32.656  29.653  25.284  1.00  0.00    +0.000 C 
ATOM    111  H22 UNL A   1      32.032  29.948  24.466  1.00  0.00    +0.000 H 
ATOM    112  H23 UNL A   1      33.693  29.783  25.054  1.00  0.00    +0.000 H 
BRANCH   19   18
ATOM     18  C15 UNL A   1      32.426  28.171  25.564  1.00  0.00    +0.000 C 
ATOM    109  H20 UNL A   1      32.097  28.072  26.577  1.00  0.00    +0.000 H 
ATOM    110  H21 UNL A   1      31.703  27.844  24.845  1.00  0.00    +0.000 H 
BRANCH   18   17
ATOM     17  C14 UNL A   1      33.649  27.271  25.373  1.00  0.00    +0.000 C 
ATOM    107  H18 UNL A   1      33.889  27.258  24.330  1.00  0.00    +0.000 H 
ATOM    108  H19 UNL A   1      34.418  27.687  25.989  1.00  0.00    +0.000 H 
BRANCH   17   16
ATOM    105  H16 UNL A   1      33.423  25.818  26.904  1.00  0.00    +0.000 H 
ATOM    106  H17 UNL A   1      32.597  25.457  25.356  1.00  0.00    +0.000 H 
ATOM     16  C13 UNL A   1      33.481  25.819  25.835  1.00  0.00    +0.000 C 
BRANCH   16   15
ATOM    103  H14 UNL A   1      34.625  24.814  24.354  1.00  0.00    +0.000 H 
ATOM     15  C12 UNL A   1      34.606  24.865  25.422  1.00  0.00    +0.000 C 
ATOM    104  H15 UNL A   1      35.507  25.260  25.841  1.00  0.00    +0.000 H 
BRANCH   15   14
ATOM    102  H13 UNL A   1      33.555  23.386  26.520  1.00  0.00    +0.000 H 
ATOM    101  H12 UNL A   1      35.309  23.225  26.583  1.00  0.00    +0.000 H 
ATOM     14  C11 UNL A   1      34.466  23.445  25.962  1.00  0.00    +0.000 C 
BRANCH   14   13
ATOM    100  H11 UNL A   1      35.276  22.192  24.528  1.00  0.00    +0.000 H 
ATOM     13  N1  UNL A   1      34.404  22.471  24.892  1.00  0.00    +0.000 N 
BRANCH   13   11
ATOM     11  C10 UNL A   1      33.319  21.882  24.314  1.00  0.00    +0.000 C 
ATOM     12  O2  UNL A   1      32.693  21.058  24.990  1.00  0.00    +0.000 O 
BRANCH   11    9
ATOM      9  C8  UNL A   1      32.870  22.226  22.888  1.00  0.00    +0.000 C 
ATOM     96  H7  UNL A   1      33.709  22.196  22.223  1.00  0.00    +0.000 H 
BRANCH    9    8
ATOM    129  H40 UNL A   1      33.047  26.590  21.209  1.00  0.00    +0.000 H 
ATOM    130  H41 UNL A   1      31.285  28.248  21.664  1.00  0.00    +0.000 H 
ATOM      3  C2  UNL A   1      29.687  27.956  23.004  1.00  0.00    +0.000 C 
ATOM      4  C3  UNL A   1      29.047  27.049  23.845  1.00  0.00    +0.000 C 
ATOM      5  C4  UNL A   1      29.572  25.764  24.003  1.00  0.00    +0.000 C 
ATOM      6  C5  UNL A   1      30.736  25.375  23.323  1.00  0.00    +0.000 C 
ATOM      7  C6  UNL A   1      31.263  24.079  23.451  1.00  0.00    +0.000 C 
ATOM      8  C7  UNL A   1      32.426  23.678  22.765  1.00  0.00    +0.000 C 
ATOM     86  C62 UNL A   1      33.086  24.628  21.977  1.00  0.00    +0.000 C 
ATOM     87  C63 UNL A   1      32.561  25.914  21.818  1.00  0.00    +0.000 C 
ATOM     88  C64 UNL A   1      31.384  26.298  22.475  1.00  0.00    +0.000 C 
ATOM     89  C65 UNL A   1      30.835  27.580  22.309  1.00  0.00    +0.000 C 
ATOM     93  H4  UNL A   1      28.189  27.324  24.347  1.00  0.00    +0.000 H 
ATOM     94  H5  UNL A   1      29.098  25.094  24.630  1.00  0.00    +0.000 H 
ATOM     95  H6  UNL A   1      30.784  23.401  24.064  1.00  0.00    +0.000 H 
ATOM    128  H39 UNL A   1      33.970  24.375  21.508  1.00  0.00    +0.000 H 
BRANCH    3    2
ATOM      2  O1  UNL A   1      29.203  29.212  22.763  1.00  0.00    +0.000 O 
BRANCH    2    1
ATOM      1  C1  UNL A   1      27.779  29.245  22.713  1.00  0.00    +0.000 C 
ATOM     90  H1  UNL A   1      27.447  28.908  21.753  1.00  0.00    +0.000 H 
ATOM     91  H2  UNL A   1      27.439  30.246  22.876  1.00  0.00    +0.000 H 
ATOM     92  H3  UNL A   1      27.381  28.605  23.474  1.00  0.00    +0.000 H 
ENDBRANCH    2    1
ENDBRANCH    3    2
ENDBRANCH    9    8
BRANCH    9   10
ATOM     97  H8  UNL A   1      31.005  21.568  22.068  1.00  0.00    +0.000 H 
ATOM     10  C9  UNL A   1      31.955  21.141  22.312  1.00  0.00    +0.000 C 
ATOM     99  H10 UNL A   1      32.399  20.731  21.429  1.00  0.00    +0.000 H 
ATOM     98  H9  UNL A   1      31.822  20.366  23.038  1.00  0.00    +0.000 H 
ENDBRANCH    9   10
ENDBRANCH   11    9
ENDBRANCH   13   11
ENDBRANCH   14   13
ENDBRANCH   15   14
ENDBRANCH   16   15
ENDBRANCH   17   16
ENDBRANCH   18   17
ENDBRANCH   19   18
ENDBRANCH   20   19
ENDBRANCH   21   20
ENDBRANCH   23   21
ENDBRANCH   27   26
BRANCH   31   32
ATOM     33  C27 UNL A   1      38.360  31.474  36.461  1.00  0.00    +0.000 C 
ATOM     34  F1  UNL A   1      37.984  30.187  36.456  1.00  0.00    +0.000 F 
ATOM     35  C28 UNL A   1      37.928  32.295  37.499  1.00  0.00    +0.000 C 
ATOM     36  F2  UNL A   1      37.144  31.796  38.464  1.00  0.00    +0.000 F 
ATOM     37  C29 UNL A   1      38.305  33.629  37.535  1.00  0.00    +0.000 C 
ATOM     38  F3  UNL A   1      37.902  34.415  38.544  1.00  0.00    +0.000 F 
ATOM     39  C30 UNL A   1      39.097  34.151  36.522  1.00  0.00    +0.000 C 
ATOM     40  F4  UNL A   1      39.473  35.436  36.563  1.00  0.00    +0.000 F 
ATOM     41  C31 UNL A   1      39.507  33.339  35.468  1.00  0.00    +0.000 C 
ATOM     42  F5  UNL A   1      40.268  33.873  34.501  1.00  0.00    +0.000 F 
ATOM     32  C26 UNL A   1      39.152  31.982  35.421  1.00  0.00    +0.000 C 
ENDBRANCH   31   32
BRANCH   48   49
ATOM     49  C37 UNL A   1      44.834  27.724  34.224  1.00  0.00    +0.000 C 
ATOM     50  C38 UNL A   1      46.045  28.430  34.229  1.00  0.00    +0.000 C 
ATOM     51  F6  UNL A   1      46.172  29.559  33.516  1.00  0.00    +0.000 F 
ATOM     52  C39 UNL A   1      47.146  27.953  34.935  1.00  0.00    +0.000 C 
ATOM     53  F7  UNL A   1      48.310  28.616  34.885  1.00  0.00    +0.000 F 
ATOM     54  C40 UNL A   1      47.047  26.783  35.674  1.00  0.00    +0.000 C 
ATOM     55  F8  UNL A   1      48.107  26.328  36.356  1.00  0.00    +0.000 F 
ATOM     56  C41 UNL A   1      45.851  26.082  35.702  1.00  0.00    +0.000 C 
ATOM     57  F9  UNL A   1      45.750  24.959  36.425  1.00  0.00    +0.000 F 
ATOM     58  C42 UNL A   1      44.757  26.540  34.973  1.00  0.00    +0.000 C 
ATOM     59  F10 UNL A   1      43.618  25.833  35.005  1.00  0.00    +0.000 F 
ENDBRANCH   48   49
BRANCH   63   64
ATOM     65  C47 UNL A   1      43.357  27.079  26.843  1.00  0.00    +0.000 C 
ATOM     66  F11 UNL A   1      43.718  28.364  26.974  1.00  0.00    +0.000 F 
ATOM     67  C48 UNL A   1      43.806  26.364  25.736  1.00  0.00    +0.000 C 
ATOM     68  F12 UNL A   1      44.578  26.965  24.822  1.00  0.00    +0.000 F 
ATOM     69  C49 UNL A   1      43.430  25.040  25.566  1.00  0.00    +0.000 C 
ATOM     70  F13 UNL A   1      43.856  24.354  24.496  1.00  0.00    +0.000 F 
ATOM     71  C50 UNL A   1      42.603  24.432  26.498  1.00  0.00    +0.000 C 
ATOM     72  F14 UNL A   1      42.249  23.150  26.343  1.00  0.00    +0.000 F 
ATOM     73  C51 UNL A   1      42.130  25.157  27.591  1.00  0.00    +0.000 C 
ATOM     74  F15 UNL A   1      41.312  24.550  28.464  1.00  0.00    +0.000 F 
ATOM     64  C46 UNL A   1      42.496  26.496  27.784  1.00  0.00    +0.000 C 
ENDBRANCH   63   64
TORSDOF 19
ENDMDL
MODEL 2
REMARK VINA RESULT:     -10.3      1.569      3.933
ROOT
ATOM     27  C22 UNL A   1      38.073  30.032  29.832  1.00  0.00    +0.000 C 
ATOM     28  C23 UNL A   1      38.291  30.527  31.235  1.00  0.00    +0.000 C 
ATOM     29  N3  UNL A   1      39.329  30.367  32.019  1.00  0.00    +0.000 N 
ATOM     30  C24 UNL A   1      39.035  31.063  33.184  1.00  0.00    +0.000 C 
ATOM     31  C25 UNL A   1      39.770  31.160  34.318  1.00  0.00    +0.000 C 
ATOM     43  C32 UNL A   1      41.038  30.509  34.522  1.00  0.00    +0.000 C 
ATOM     44  C33 UNL A   1      41.825  30.492  35.661  1.00  0.00    +0.000 C 
ATOM     45  C34 UNL A   1      42.982  29.758  35.382  1.00  0.00    +0.000 C 
ATOM     46  C35 UNL A   1      42.894  29.280  34.085  1.00  0.00    +0.000 C 
ATOM     47  N4  UNL A   1      41.700  29.754  33.566  1.00  0.00    +0.000 N 
ATOM     48  C36 UNL A   1      43.828  28.450  33.371  1.00  0.00    +0.000 C 
ATOM     60  C43 UNL A   1      43.679  28.040  32.088  1.00  0.00    +0.000 C 
ATOM     61  N5  UNL A   1      42.634  28.288  31.209  1.00  0.00    +0.000 N 
ATOM     62  C44 UNL A   1      42.956  27.689  30.089  1.00  0.00    +0.000 C 
ATOM     63  C45 UNL A   1      42.176  27.586  28.806  1.00  0.00    +0.000 C 
ATOM     75  C52 UNL A   1      40.955  28.149  28.732  1.00  0.00    +0.000 C 
ATOM     76  C53 UNL A   1      40.076  28.117  27.567  1.00  0.00    +0.000 C 
ATOM     77  C54 UNL A   1      38.957  28.806  27.843  1.00  0.00    +0.000 C 
ATOM     78  C55 UNL A   1      39.027  29.303  29.218  1.00  0.00    +0.000 C 
ATOM     79  N6  UNL A   1      40.247  28.863  29.668  1.00  0.00    +0.000 N 
ATOM     80  C56 UNL A   1      44.267  27.025  30.121  1.00  0.00    +0.000 C 
ATOM     81  C57 UNL A   1      44.641  27.227  31.376  1.00  0.00    +0.000 C 
ATOM     82  C58 UNL A   1      37.741  31.681  32.994  1.00  0.00    +0.000 C 
ATOM     83  C59 UNL A   1      37.211  31.329  31.831  1.00  0.00    +0.000 C 
ATOM    116  H27 UNL A   1      41.597  30.943  36.561  1.00  0.00    +0.000 H 
ATOM    117  H28 UNL A   1      43.769  29.602  36.031  1.00  0.00    +0.000 H 
ATOM    118  H29 UNL A   1      41.371  29.582  32.655  1.00  0.00    +0.000 H 
ATOM    119  H30 UNL A   1      40.281  27.640  26.674  1.00  0.00    +0.000 H 
ATOM    120  H31 UNL A   1      38.173  28.961  27.189  1.00  0.00    +0.000 H 
ATOM    121  H32 UNL A   1      40.583  29.043  30.576  1.00  0.00    +0.000 H 
ATOM    122  H33 UNL A   1      44.766  26.529  29.365  1.00  0.00    +0.000 H 
ATOM    123  H34 UNL A   1      45.509  26.854  31.792  1.00  0.00    +0.000 H 
ATOM    124  H35 UNL A   1      37.290  32.313  33.674  1.00  0.00    +0.000 H 
ATOM    125  H36 UNL A   1      36.282  31.558  31.444  1.00  0.00    +0.000 H 
ENDROOT
BRANCH   27   26
ATOM    114  H25 UNL A   1      35.216  33.024  27.768  1.00  0.00    +0.000 H 
ATOM    115  H26 UNL A   1      37.296  32.443  28.878  1.00  0.00    +0.000 H 
ATOM     84  C60 UNL A   1      35.891  29.398  28.788  1.00  0.00    +0.000 C 
ATOM     85  C61 UNL A   1      34.732  29.719  28.082  1.00  0.00    +0.000 C 
ATOM     23  C18 UNL A   1      34.460  31.051  27.758  1.00  0.00    +0.000 C 
ATOM     24  C19 UNL A   1      35.401  32.045  28.040  1.00  0.00    +0.000 C 
ATOM     25  C20 UNL A   1      36.591  31.713  28.692  1.00  0.00    +0.000 C 
ATOM     26  C21 UNL A   1      36.834  30.390  29.095  1.00  0.00    +0.000 C 
ATOM    126  H37 UNL A   1      36.056  28.424  29.088  1.00  0.00    +0.000 H 
ATOM    127  H38 UNL A   1      34.078  28.974  27.798  1.00  0.00    +0.000 H 
BRANCH   23   21
ATOM     21  C17 UNL A   1      33.199  31.440  27.089  1.00  0.00    +0.000 C 
ATOM     22  O3  UNL A   1      32.761  32.579  27.233  1.00  0.00    +0.000 O 
BRANCH   21   20
ATOM    113  H24 UNL A   1      32.650  30.599  25.358  1.00  0.00    +0.000 H 
ATOM     20  N2  UNL A   1      32.507  30.531  26.330  1.00  0.00    +0.000 N 
BRANCH   20   19
ATOM     19  C16 UNL A   1      31.595  29.482  26.750  1.00  0.00    +0.000 C 
ATOM    111  H22 UNL A   1      31.876  29.153  27.729  1.00  0.00    +0.000 H 
ATOM    112  H23 UNL A   1      30.606  29.889  26.741  1.00  0.00    +0.000 H 
BRANCH   19   18
ATOM     18  C15 UNL A   1      31.609  28.281  25.809  1.00  0.00    +0.000 C 
ATOM    109  H20 UNL A   1      32.592  27.858  25.827  1.00  0.00    +0.000 H 
ATOM    110  H21 UNL A   1      30.850  27.617  26.167  1.00  0.00    +0.000 H 
BRANCH   18   17
ATOM     17  C14 UNL A   1      31.252  28.586  24.352  1.00  0.00    +0.000 C 
ATOM    107  H18 UNL A   1      30.806  29.558  24.319  1.00  0.00    +0.000 H 
ATOM    108  H19 UNL A   1      32.168  28.511  23.804  1.00  0.00    +0.000 H 
BRANCH   17   16
ATOM    105  H16 UNL A   1      29.360  28.110  23.515  1.00  0.00    +0.000 H 
ATOM    106  H17 UNL A   1      30.768  27.271  22.792  1.00  0.00    +0.000 H 
ATOM     16  C13 UNL A   1      30.285  27.600  23.687  1.00  0.00    +0.000 C 
BRANCH   16   15
ATOM    103  H14 UNL A   1      30.512  26.392  25.421  1.00  0.00    +0.000 H 
ATOM     15  C12 UNL A   1      29.983  26.333  24.493  1.00  0.00    +0.000 C 
ATOM    104  H15 UNL A   1      28.921  26.298  24.615  1.00  0.00    +0.000 H 
BRANCH   15   14
ATOM    102  H13 UNL A   1      30.957  25.273  22.935  1.00  0.00    +0.000 H 
ATOM    101  H12 UNL A   1      29.493  24.496  23.535  1.00  0.00    +0.000 H 
ATOM     14  C11 UNL A   1      30.379  25.031  23.803  1.00  0.00    +0.000 C 
BRANCH   14   13
ATOM    100  H11 UNL A   1      30.777  23.340  24.928  1.00  0.00    +0.000 H 
ATOM     13  N1  UNL A   1      31.189  24.195  24.666  1.00  0.00    +0.000 N 
BRANCH   13   11
ATOM     11  C10 UNL A   1      32.435  24.417  25.170  1.00  0.00    +0.000 C 
ATOM     12  O2  UNL A   1      32.559  24.419  26.399  1.00  0.00    +0.000 O 
BRANCH   11    9
ATOM      9  C8  UNL A   1      33.651  24.644  24.261  1.00  0.00    +0.000 C 
ATOM     96  H7  UNL A   1      33.428  24.321  23.265  1.00  0.00    +0.000 H 
BRANCH    9    8
ATOM    129  H40 UNL A   1      36.124  20.672  24.181  1.00  0.00    +0.000 H 
ATOM    130  H41 UNL A   1      38.391  20.513  25.130  1.00  0.00    +0.000 H 
ATOM      3  C2  UNL A   1      39.327  22.033  26.248  1.00  0.00    +0.000 C 
ATOM      4  C3  UNL A   1      39.228  23.343  26.711  1.00  0.00    +0.000 C 
ATOM      5  C4  UNL A   1      38.080  24.088  26.434  1.00  0.00    +0.000 C 
ATOM      6  C5  UNL A   1      37.025  23.535  25.692  1.00  0.00    +0.000 C 
ATOM      7  C6  UNL A   1      35.875  24.280  25.382  1.00  0.00    +0.000 C 
ATOM      8  C7  UNL A   1      34.816  23.733  24.631  1.00  0.00    +0.000 C 
ATOM     86  C62 UNL A   1      34.912  22.395  24.233  1.00  0.00    +0.000 C 
ATOM     87  C63 UNL A   1      36.061  21.648  24.510  1.00  0.00    +0.000 C 
ATOM     88  C64 UNL A   1      37.128  22.206  25.228  1.00  0.00    +0.000 C 
ATOM     89  C65 UNL A   1      38.295  21.474  25.495  1.00  0.00    +0.000 C 
ATOM     93  H4  UNL A   1      39.999  23.760  27.255  1.00  0.00    +0.000 H 
ATOM     94  H5  UNL A   1      38.006  25.058  26.780  1.00  0.00    +0.000 H 
ATOM     95  H6  UNL A   1      35.804  25.254  25.714  1.00  0.00    +0.000 H 
ATOM    128  H39 UNL A   1      34.126  21.956  23.728  1.00  0.00    +0.000 H 
BRANCH    3    2
ATOM      2  O1  UNL A   1      40.440  21.261  26.438  1.00  0.00    +0.000 O 
BRANCH    2    1
ATOM      1  C1  UNL A   1      40.956  21.371  27.763  1.00  0.00    +0.000 C 
ATOM     90  H1  UNL A   1      41.037  22.404  28.030  1.00  0.00    +0.000 H 
ATOM     91  H2  UNL A   1      41.923  20.915  27.808  1.00  0.00    +0.000 H 
ATOM     92  H3  UNL A   1      40.296  20.876  28.445  1.00  0.00    +0.000 H 
ENDBRANCH    2    1
ENDBRANCH    3    2
ENDBRANCH    9    8
BRANCH    9   10
ATOM     97  H8  UNL A   1      33.747  26.656  24.984  1.00  0.00    +0.000 H 
ATOM     10  C9  UNL A   1      33.936  26.136  24.069  1.00  0.00    +0.000 C 
ATOM     99  H10 UNL A   1      34.959  26.271  23.787  1.00  0.00    +0.000 H 
ATOM     98  H9  UNL A   1      33.300  26.524  23.300  1.00  0.00    +0.000 H 
ENDBRANCH    9   10
ENDBRANCH   11    9
ENDBRANCH   13   11
ENDBRANCH   14   13
ENDBRANCH   15   14
ENDBRANCH   16   15
ENDBRANCH   17   16
ENDBRANCH   18   17
ENDBRANCH   19   18
ENDBRANCH   20   19
ENDBRANCH   21   20
ENDBRANCH   23   21
ENDBRANCH   27   26
BRANCH   31   32
ATOM     33  C27 UNL A   1      38.406  31.439  36.436  1.00  0.00    +0.000 C 
ATOM     34  F1  UNL A   1      38.032  30.154  36.364  1.00  0.00    +0.000 F 
ATOM     35  C28 UNL A   1      37.949  32.213  37.499  1.00  0.00    +0.000 C 
ATOM     36  F2  UNL A   1      37.142  31.671  38.422  1.00  0.00    +0.000 F 
ATOM     37  C29 UNL A   1      38.324  33.544  37.604  1.00  0.00    +0.000 C 
ATOM     38  F3  UNL A   1      37.896  34.283  38.637  1.00  0.00    +0.000 F 
ATOM     39  C30 UNL A   1      39.140  34.111  36.635  1.00  0.00    +0.000 C 
ATOM     40  F4  UNL A   1      39.514  35.393  36.743  1.00  0.00    +0.000 F 
ATOM     41  C31 UNL A   1      39.576  33.347  35.556  1.00  0.00    +0.000 C 
ATOM     42  F5  UNL A   1      40.359  33.924  34.632  1.00  0.00    +0.000 F 
ATOM     32  C26 UNL A   1      39.223  31.994  35.440  1.00  0.00    +0.000 C 
ENDBRANCH   31   32
BRANCH   48   49
ATOM     49  C37 UNL A   1      45.048  27.977  34.107  1.00  0.00    +0.000 C 
ATOM     50  C38 UNL A   1      46.240  28.715  34.113  1.00  0.00    +0.000 C 
ATOM     51  F6  UNL A   1      46.329  29.858  33.416  1.00  0.00    +0.000 F 
ATOM     52  C39 UNL A   1      47.360  28.258  34.802  1.00  0.00    +0.000 C 
ATOM     53  F7  UNL A   1      48.505  28.953  34.752  1.00  0.00    +0.000 F 
ATOM     54  C40 UNL A   1      47.299  27.076  35.525  1.00  0.00    +0.000 C 
ATOM     55  F8  UNL A   1      48.377  26.640  36.191  1.00  0.00    +0.000 F 
ATOM     56  C41 UNL A   1      46.123  26.342  35.552  1.00  0.00    +0.000 C 
ATOM     57  F9  UNL A   1      46.059  25.206  36.260  1.00  0.00    +0.000 F 
ATOM     58  C42 UNL A   1      45.011  26.780  34.840  1.00  0.00    +0.000 C 
ATOM     59  F10 UNL A   1      43.892  26.041  34.871  1.00  0.00    +0.000 F 
ENDBRANCH   48   49
BRANCH   63   64
ATOM     65  C47 UNL A   1      42.451  25.485  27.454  1.00  0.00    +0.000 C 
ATOM     66  F11 UNL A   1      41.663  24.839  28.325  1.00  0.00    +0.000 F 
ATOM     67  C48 UNL A   1      43.023  24.770  26.405  1.00  0.00    +0.000 C 
ATOM     68  F12 UNL A   1      42.786  23.457  26.285  1.00  0.00    +0.000 F 
ATOM     69  C49 UNL A   1      43.859  25.410  25.502  1.00  0.00    +0.000 C 
ATOM     70  F13 UNL A   1      44.414  24.720  24.497  1.00  0.00    +0.000 F 
ATOM     71  C50 UNL A   1      44.128  26.762  25.650  1.00  0.00    +0.000 C 
ATOM     72  F14 UNL A   1      44.925  27.385  24.772  1.00  0.00    +0.000 F 
ATOM     73  C51 UNL A   1      43.580  27.471  26.718  1.00  0.00    +0.000 C 
ATOM     74  F15 UNL A   1      43.876  28.773  26.849  1.00  0.00    +0.000 F 
ATOM     64  C46 UNL A   1      42.732  26.846  27.642  1.00  0.00    +0.000 C 
ENDBRANCH   63   64
TORSDOF 19
ENDMDL
MODEL 3
REMARK VINA RESULT:     -10.1      1.211      3.368
ROOT
ATOM     27  C22 UNL A   1      38.244  29.900  30.114  1.00  0.00    +0.000 C 
ATOM     28  C23 UNL A   1      38.535  30.376  31.510  1.00  0.00    +0.000 C 
ATOM     29  N3  UNL A   1      39.564  30.113  32.277  1.00  0.00    +0.000 N 
ATOM     30  C24 UNL A   1      39.364  30.840  33.443  1.00  0.00    +0.000 C 
ATOM     31  C25 UNL A   1      40.125  30.866  34.564  1.00  0.00    +0.000 C 
ATOM     43  C32 UNL A   1      41.322  30.088  34.751  1.00  0.00    +0.000 C 
ATOM     44  C33 UNL A   1      42.122  29.995  35.877  1.00  0.00    +0.000 C 
ATOM     45  C34 UNL A   1      43.192  29.144  35.583  1.00  0.00    +0.000 C 
ATOM     46  C35 UNL A   1      43.033  28.671  34.290  1.00  0.00    +0.000 C 
ATOM     47  N4  UNL A   1      41.886  29.265  33.789  1.00  0.00    +0.000 N 
ATOM     48  C36 UNL A   1      43.864  27.746  33.566  1.00  0.00    +0.000 C 
ATOM     60  C43 UNL A   1      43.651  27.348  32.289  1.00  0.00    +0.000 C 
ATOM     61  N5  UNL A   1      42.622  27.699  31.425  1.00  0.00    +0.000 N 
ATOM     62  C44 UNL A   1      42.862  27.066  30.304  1.00  0.00    +0.000 C 
ATOM     63  C45 UNL A   1      42.052  27.038  29.034  1.00  0.00    +0.000 C 
ATOM     75  C52 UNL A   1      40.895  27.724  28.977  1.00  0.00    +0.000 C 
ATOM     76  C53 UNL A   1      39.998  27.778  27.827  1.00  0.00    +0.000 C 
ATOM     77  C54 UNL A   1      38.962  28.581  28.118  1.00  0.00    +0.000 C 
ATOM     78  C55 UNL A   1      39.106  29.074  29.489  1.00  0.00    +0.000 C 
ATOM     79  N6  UNL A   1      40.282  28.511  29.921  1.00  0.00    +0.000 N 
ATOM     80  C56 UNL A   1      44.097  26.269  30.318  1.00  0.00    +0.000 C 
ATOM     81  C57 UNL A   1      44.512  26.437  31.565  1.00  0.00    +0.000 C 
ATOM     82  C58 UNL A   1      38.138  31.589  33.270  1.00  0.00    +0.000 C 
ATOM     83  C59 UNL A   1      37.554  31.289  32.119  1.00  0.00    +0.000 C 
ATOM    116  H27 UNL A   1      41.958  30.471  36.778  1.00  0.00    +0.000 H 
ATOM    117  H28 UNL A   1      43.970  28.909  36.220  1.00  0.00    +0.000 H 
ATOM    118  H29 UNL A   1      41.525  29.123  32.884  1.00  0.00    +0.000 H 
ATOM    119  H30 UNL A   1      40.138  27.280  26.934  1.00  0.00    +0.000 H 
ATOM    120  H31 UNL A   1      38.187  28.813  27.476  1.00  0.00    +0.000 H 
ATOM    121  H32 UNL A   1      40.650  28.660  30.822  1.00  0.00    +0.000 H 
ATOM    122  H33 UNL A   1      44.528  25.721  29.557  1.00  0.00    +0.000 H 
ATOM    123  H34 UNL A   1      45.343  25.978  31.969  1.00  0.00    +0.000 H 
ATOM    124  H35 UNL A   1      37.767  32.267  33.954  1.00  0.00    +0.000 H 
ATOM    125  H36 UNL A   1      36.648  31.611  31.746  1.00  0.00    +0.000 H 
ENDROOT
BRANCH   27   26
ATOM    114  H25 UNL A   1      34.027  29.353  28.299  1.00  0.00    +0.000 H 
ATOM    115  H26 UNL A   1      35.946  28.577  29.567  1.00  0.00    +0.000 H 
ATOM     84  C60 UNL A   1      36.984  31.701  28.921  1.00  0.00    +0.000 C 
ATOM     85  C61 UNL A   1      35.849  32.170  28.260  1.00  0.00    +0.000 C 
ATOM     23  C18 UNL A   1      34.793  31.298  27.984  1.00  0.00    +0.000 C 
ATOM     24  C19 UNL A   1      34.824  29.987  28.471  1.00  0.00    +0.000 C 
ATOM     25  C20 UNL A   1      35.935  29.536  29.187  1.00  0.00    +0.000 C 
ATOM     26  C21 UNL A   1      37.036  30.382  29.396  1.00  0.00    +0.000 C 
ATOM    126  H37 UNL A   1      37.792  32.329  29.060  1.00  0.00    +0.000 H 
ATOM    127  H38 UNL A   1      35.789  33.160  27.976  1.00  0.00    +0.000 H 
BRANCH   23   21
ATOM     21  C17 UNL A   1      33.612  31.736  27.207  1.00  0.00    +0.000 C 
ATOM     22  O3  UNL A   1      33.128  32.846  27.411  1.00  0.00    +0.000 O 
BRANCH   21   20
ATOM    113  H24 UNL A   1      33.680  30.378  25.739  1.00  0.00    +0.000 H 
ATOM     20  N2  UNL A   1      33.044  30.900  26.280  1.00  0.00    +0.000 N 
BRANCH   20   19
ATOM     19  C16 UNL A   1      31.642  30.673  25.979  1.00  0.00    +0.000 C 
ATOM    111  H22 UNL A   1      31.091  30.653  26.897  1.00  0.00    +0.000 H 
ATOM    112  H23 UNL A   1      31.314  31.466  25.340  1.00  0.00    +0.000 H 
BRANCH   19   18
ATOM     18  C15 UNL A   1      31.406  29.358  25.241  1.00  0.00    +0.000 C 
ATOM    109  H20 UNL A   1      30.353  29.169  25.230  1.00  0.00    +0.000 H 
ATOM    110  H21 UNL A   1      31.829  29.488  24.266  1.00  0.00    +0.000 H 
BRANCH   18   17
ATOM     17  C14 UNL A   1      32.100  28.135  25.844  1.00  0.00    +0.000 C 
ATOM    107  H18 UNL A   1      32.631  27.638  25.059  1.00  0.00    +0.000 H 
ATOM    108  H19 UNL A   1      32.730  28.510  26.623  1.00  0.00    +0.000 H 
BRANCH   17   16
ATOM    105  H16 UNL A   1      31.641  26.787  27.417  1.00  0.00    +0.000 H 
ATOM    106  H17 UNL A   1      30.242  27.609  26.660  1.00  0.00    +0.000 H 
ATOM     16  C13 UNL A   1      31.176  27.110  26.510  1.00  0.00    +0.000 C 
BRANCH   16   15
ATOM    103  H14 UNL A   1      31.767  25.534  25.214  1.00  0.00    +0.000 H 
ATOM     15  C12 UNL A   1      30.860  25.868  25.672  1.00  0.00    +0.000 C 
ATOM    104  H15 UNL A   1      30.438  25.150  26.343  1.00  0.00    +0.000 H 
BRANCH   15   14
ATOM    102  H13 UNL A   1      29.426  27.076  24.680  1.00  0.00    +0.000 H 
ATOM    101  H12 UNL A   1      29.056  25.353  24.666  1.00  0.00    +0.000 H 
ATOM     14  C11 UNL A   1      29.826  26.089  24.571  1.00  0.00    +0.000 C 
BRANCH   14   13
ATOM    100  H11 UNL A   1      30.336  25.099  22.827  1.00  0.00    +0.000 H 
ATOM     13  N1  UNL A   1      30.418  25.983  23.254  1.00  0.00    +0.000 N 
BRANCH   13   11
ATOM     11  C10 UNL A   1      31.073  26.924  22.517  1.00  0.00    +0.000 C 
ATOM     12  O2  UNL A   1      30.438  27.933  22.192  1.00  0.00    +0.000 O 
BRANCH   11    9
ATOM      9  C8  UNL A   1      32.543  26.761  22.109  1.00  0.00    +0.000 C 
ATOM     96  H7  UNL A   1      32.613  26.600  21.053  1.00  0.00    +0.000 H 
BRANCH    9    8
ATOM    129  H40 UNL A   1      33.597  22.202  22.057  1.00  0.00    +0.000 H 
ATOM    130  H41 UNL A   1      35.140  21.189  23.687  1.00  0.00    +0.000 H 
ATOM      3  C2  UNL A   1      35.935  22.189  25.361  1.00  0.00    +0.000 C 
ATOM      4  C3  UNL A   1      36.034  23.408  26.028  1.00  0.00    +0.000 C 
ATOM      5  C4  UNL A   1      35.360  24.525  25.531  1.00  0.00    +0.000 C 
ATOM      6  C5  UNL A   1      34.584  24.436  24.364  1.00  0.00    +0.000 C 
ATOM      7  C6  UNL A   1      33.921  25.556  23.836  1.00  0.00    +0.000 C 
ATOM      8  C7  UNL A   1      33.148  25.476  22.661  1.00  0.00    +0.000 C 
ATOM     86  C62 UNL A   1      33.012  24.227  22.046  1.00  0.00    +0.000 C 
ATOM     87  C63 UNL A   1      33.687  23.107  22.543  1.00  0.00    +0.000 C 
ATOM     88  C64 UNL A   1      34.484  23.199  23.693  1.00  0.00    +0.000 C 
ATOM     89  C65 UNL A   1      35.182  22.088  24.191  1.00  0.00    +0.000 C 
ATOM     93  H4  UNL A   1      36.604  23.484  26.885  1.00  0.00    +0.000 H 
ATOM     94  H5  UNL A   1      35.431  25.427  26.028  1.00  0.00    +0.000 H 
ATOM     95  H6  UNL A   1      34.002  26.462  24.322  1.00  0.00    +0.000 H 
ATOM    128  H39 UNL A   1      32.407  24.131  21.215  1.00  0.00    +0.000 H 
BRANCH    3    2
ATOM      2  O1  UNL A   1      36.607  21.067  25.761  1.00  0.00    +0.000 O 
BRANCH    2    1
ATOM      1  C1  UNL A   1      37.546  20.619  24.786  1.00  0.00    +0.000 C 
ATOM     90  H1  UNL A   1      37.525  21.277  23.942  1.00  0.00    +0.000 H 
ATOM     91  H2  UNL A   1      37.288  19.629  24.472  1.00  0.00    +0.000 H 
ATOM     92  H3  UNL A   1      38.527  20.615  25.212  1.00  0.00    +0.000 H 
ENDBRANCH    2    1
ENDBRANCH    3    2
ENDBRANCH    9    8
BRANCH    9   10
ATOM     97  H8  UNL A   1      32.671  28.897  22.144  1.00  0.00    +0.000 H 
ATOM     10  C9  UNL A   1      33.324  28.064  22.297  1.00  0.00    +0.000 C 
ATOM     99  H10 UNL A   1      33.723  28.101  23.290  1.00  0.00    +0.000 H 
ATOM     98  H9  UNL A   1      34.126  28.104  21.589  1.00  0.00    +0.000 H 
ENDBRANCH    9   10
ENDBRANCH   11    9
ENDBRANCH   13   11
ENDBRANCH   14   13
ENDBRANCH   15   14
ENDBRANCH   16   15
ENDBRANCH   17   16
ENDBRANCH   18   17
ENDBRANCH   19   18
ENDBRANCH   20   19
ENDBRANCH   21   20
ENDBRANCH   23   21
ENDBRANCH   27   26
BRANCH   31   32
ATOM     33  C27 UNL A   1      40.245  33.029  35.879  1.00  0.00    +0.000 C 
ATOM     34  F1  UNL A   1      41.248  33.449  35.095  1.00  0.00    +0.000 F 
ATOM     35  C28 UNL A   1      39.791  33.866  36.895  1.00  0.00    +0.000 C 
ATOM     36  F2  UNL A   1      40.363  35.064  37.080  1.00  0.00    +0.000 F 
ATOM     37  C29 UNL A   1      38.751  33.461  37.719  1.00  0.00    +0.000 C 
ATOM     38  F3  UNL A   1      38.304  34.275  38.686  1.00  0.00    +0.000 F 
ATOM     39  C30 UNL A   1      38.176  32.211  37.542  1.00  0.00    +0.000 C 
ATOM     40  F4  UNL A   1      37.162  31.824  38.328  1.00  0.00    +0.000 F 
ATOM     41  C31 UNL A   1      38.646  31.360  36.544  1.00  0.00    +0.000 C 
ATOM     42  F5  UNL A   1      38.074  30.156  36.401  1.00  0.00    +0.000 F 
ATOM     32  C26 UNL A   1      39.686  31.757  35.689  1.00  0.00    +0.000 C 
ENDBRANCH   31   32
BRANCH   48   49
ATOM     49  C37 UNL A   1      45.040  27.152  34.285  1.00  0.00    +0.000 C 
ATOM     50  C38 UNL A   1      46.298  27.771  34.279  1.00  0.00    +0.000 C 
ATOM     51  F6  UNL A   1      46.490  28.904  33.587  1.00  0.00    +0.000 F 
ATOM     52  C39 UNL A   1      47.376  27.203  34.952  1.00  0.00    +0.000 C 
ATOM     53  F7  UNL A   1      48.583  27.785  34.892  1.00  0.00    +0.000 F 
ATOM     54  C40 UNL A   1      47.210  26.028  35.670  1.00  0.00    +0.000 C 
ATOM     55  F8  UNL A   1      48.248  25.486  36.320  1.00  0.00    +0.000 F 
ATOM     56  C41 UNL A   1      45.969  25.412  35.709  1.00  0.00    +0.000 C 
ATOM     57  F9  UNL A   1      45.802  24.283  36.411  1.00  0.00    +0.000 F 
ATOM     58  C42 UNL A   1      44.896  25.960  35.012  1.00  0.00    +0.000 C 
ATOM     59  F10 UNL A   1      43.711  25.333  35.054  1.00  0.00    +0.000 F 
ENDBRANCH   48   49
BRANCH   63   64
ATOM     65  C47 UNL A   1      43.385  26.788  26.918  1.00  0.00    +0.000 C 
ATOM     66  F11 UNL A   1      43.829  28.044  27.067  1.00  0.00    +0.000 F 
ATOM     67  C48 UNL A   1      43.763  26.070  25.786  1.00  0.00    +0.000 C 
ATOM     68  F12 UNL A   1      44.552  26.641  24.867  1.00  0.00    +0.000 F 
ATOM     69  C49 UNL A   1      43.300  24.776  25.598  1.00  0.00    +0.000 C 
ATOM     70  F13 UNL A   1      43.659  24.088  24.505  1.00  0.00    +0.000 F 
ATOM     71  C50 UNL A   1      42.456  24.202  26.536  1.00  0.00    +0.000 C 
ATOM     72  F14 UNL A   1      42.018  22.948  26.363  1.00  0.00    +0.000 F 
ATOM     73  C51 UNL A   1      42.054  24.931  27.654  1.00  0.00    +0.000 C 
ATOM     74  F15 UNL A   1      41.218  24.358  28.533  1.00  0.00    +0.000 F 
ATOM     64  C46 UNL A   1      42.509  26.240  27.866  1.00  0.00    +0.000 C 
ENDBRANCH   63   64
TORSDOF 19
ENDMDL
MODEL 4
REMARK VINA RESULT:     -10.0     20.234     27.731
ROOT
ATOM     27  C22 UNL A   1      24.720  38.834  46.597  1.00  0.00    +0.000 C 
ATOM     28  C23 UNL A   1      23.972  39.897  47.353  1.00  0.00    +0.000 C 
ATOM     29  N3  UNL A   1      22.788  39.840  47.910  1.00  0.00    +0.000 N 
ATOM     30  C24 UNL A   1      22.594  41.074  48.517  1.00  0.00    +0.000 C 
ATOM     31  C25 UNL A   1      21.503  41.527  49.181  1.00  0.00    +0.000 C 
ATOM     43  C32 UNL A   1      20.291  40.772  49.362  1.00  0.00    +0.000 C 
ATOM     44  C33 UNL A   1      19.108  41.171  49.960  1.00  0.00    +0.000 C 
ATOM     45  C34 UNL A   1      18.219  40.091  49.933  1.00  0.00    +0.000 C 
ATOM     46  C35 UNL A   1      18.832  39.036  49.278  1.00  0.00    +0.000 C 
ATOM     47  N4  UNL A   1      20.106  39.464  48.939  1.00  0.00    +0.000 N 
ATOM     48  C36 UNL A   1      18.296  37.734  48.980  1.00  0.00    +0.000 C 
ATOM     60  C43 UNL A   1      18.972  36.743  48.351  1.00  0.00    +0.000 C 
ATOM     61  N5  UNL A   1      20.266  36.751  47.846  1.00  0.00    +0.000 N 
ATOM     62  C44 UNL A   1      20.464  35.559  47.342  1.00  0.00    +0.000 C 
ATOM     63  C45 UNL A   1      21.672  35.017  46.625  1.00  0.00    +0.000 C 
ATOM     75  C52 UNL A   1      22.730  35.823  46.418  1.00  0.00    +0.000 C 
ATOM     76  C53 UNL A   1      23.959  35.447  45.725  1.00  0.00    +0.000 C 
ATOM     77  C54 UNL A   1      24.804  36.490  45.736  1.00  0.00    +0.000 C 
ATOM     78  C55 UNL A   1      24.162  37.621  46.410  1.00  0.00    +0.000 C 
ATOM     79  N6  UNL A   1      22.933  37.132  46.779  1.00  0.00    +0.000 N 
ATOM     80  C56 UNL A   1      19.326  34.642  47.507  1.00  0.00    +0.000 C 
ATOM     81  C57 UNL A   1      18.428  35.429  48.082  1.00  0.00    +0.000 C 
ATOM     82  C58 UNL A   1      23.797  41.847  48.298  1.00  0.00    +0.000 C 
ATOM     83  C59 UNL A   1      24.654  41.189  47.530  1.00  0.00    +0.000 C 
ATOM    116  H27 UNL A   1      18.915  42.103  50.356  1.00  0.00    +0.000 H 
ATOM    117  H28 UNL A   1      17.269  40.082  50.335  1.00  0.00    +0.000 H 
ATOM    118  H29 UNL A   1      20.779  38.921  48.470  1.00  0.00    +0.000 H 
ATOM    119  H30 UNL A   1      24.148  34.527  45.297  1.00  0.00    +0.000 H 
ATOM    120  H31 UNL A   1      25.754  36.494  45.333  1.00  0.00    +0.000 H 
ATOM    121  H32 UNL A   1      22.262  37.670  47.258  1.00  0.00    +0.000 H 
ATOM    122  H33 UNL A   1      19.246  33.648  47.243  1.00  0.00    +0.000 H 
ATOM    123  H34 UNL A   1      17.464  35.141  48.311  1.00  0.00    +0.000 H 
ATOM    124  H35 UNL A   1      23.965  42.788  48.688  1.00  0.00    +0.000 H 
ATOM    125  H36 UNL A   1      25.562  41.501  47.154  1.00  0.00    +0.000 H 
ENDROOT
BRANCH   27   26
ATOM    114  H25 UNL A   1      27.962  41.454  44.597  1.00  0.00    +0.000 H 
ATOM    115  H26 UNL A   1      25.737  41.088  45.494  1.00  0.00    +0.000 H 
ATOM     84  C60 UNL A   1      27.077  38.096  46.204  1.00  0.00    +0.000 C 
ATOM     85  C61 UNL A   1      28.376  38.334  45.759  1.00  0.00    +0.000 C 
ATOM     23  C18 UNL A   1      28.686  39.539  45.123  1.00  0.00    +0.000 C 
ATOM     24  C19 UNL A   1      27.723  40.550  45.035  1.00  0.00    +0.000 C 
ATOM     25  C20 UNL A   1      26.438  40.333  45.537  1.00  0.00    +0.000 C 
ATOM     26  C21 UNL A   1      26.096  39.094  46.103  1.00  0.00    +0.000 C 
ATOM    126  H37 UNL A   1      26.833  37.178  46.610  1.00  0.00    +0.000 H 
ATOM    127  H38 UNL A   1      29.109  37.622  45.901  1.00  0.00    +0.000 H 
BRANCH   23   21
ATOM     21  C17 UNL A   1      30.030  39.792  44.558  1.00  0.00    +0.000 C 
ATOM     22  O3  UNL A   1      30.747  40.655  45.058  1.00  0.00    +0.000 O 
BRANCH   21   20
ATOM    113  H24 UNL A   1      30.152  39.415  42.597  1.00  0.00    +0.000 H 
ATOM     20  N2  UNL A   1      30.468  39.083  43.469  1.00  0.00    +0.000 N 
BRANCH   20   19
ATOM     19  C16 UNL A   1      31.331  37.917  43.412  1.00  0.00    +0.000 C 
ATOM    111  H22 UNL A   1      32.350  38.244  43.373  1.00  0.00    +0.000 H 
ATOM    112  H23 UNL A   1      31.139  37.329  44.285  1.00  0.00    +0.000 H 
BRANCH   19   18
ATOM     18  C15 UNL A   1      31.054  37.041  42.194  1.00  0.00    +0.000 C 
ATOM    109  H20 UNL A   1      30.380  37.569  41.553  1.00  0.00    +0.000 H 
ATOM    110  H21 UNL A   1      32.008  36.847  41.747  1.00  0.00    +0.000 H 
BRANCH   18   17
ATOM     17  C14 UNL A   1      30.444  35.671  42.498  1.00  0.00    +0.000 C 
ATOM    107  H18 UNL A   1      30.185  35.212  41.567  1.00  0.00    +0.000 H 
ATOM    108  H19 UNL A   1      31.186  35.136  43.053  1.00  0.00    +0.000 H 
BRANCH   17   16
ATOM    105  H16 UNL A   1      29.508  35.662  44.403  1.00  0.00    +0.000 H 
ATOM    106  H17 UNL A   1      28.655  36.571  43.118  1.00  0.00    +0.000 H 
ATOM     16  C13 UNL A   1      29.192  35.685  43.382  1.00  0.00    +0.000 C 
BRANCH   16   15
ATOM    103  H14 UNL A   1      27.243  34.929  43.001  1.00  0.00    +0.000 H 
ATOM     15  C12 UNL A   1      28.219  34.522  43.161  1.00  0.00    +0.000 C 
ATOM    104  H15 UNL A   1      28.590  33.974  42.321  1.00  0.00    +0.000 H 
BRANCH   15   14
ATOM    102  H13 UNL A   1      29.133  33.307  44.639  1.00  0.00    +0.000 H 
ATOM    101  H12 UNL A   1      27.634  32.650  43.986  1.00  0.00    +0.000 H 
ATOM     14  C11 UNL A   1      28.137  33.533  44.319  1.00  0.00    +0.000 C 
BRANCH   14   13
ATOM    100  H11 UNL A   1      27.245  35.056  45.397  1.00  0.00    +0.000 H 
ATOM     13  N1  UNL A   1      27.416  34.088  45.445  1.00  0.00    +0.000 N 
BRANCH   13   11
ATOM     11  C10 UNL A   1      26.938  33.469  46.561  1.00  0.00    +0.000 C 
ATOM     12  O2  UNL A   1      26.004  32.673  46.414  1.00  0.00    +0.000 O 
BRANCH   11    9
ATOM      9  C8  UNL A   1      27.531  33.729  47.952  1.00  0.00    +0.000 C 
ATOM     96  H7  UNL A   1      27.341  32.892  48.593  1.00  0.00    +0.000 H 
BRANCH    9    8
ATOM    129  H40 UNL A   1      27.081  38.019  49.766  1.00  0.00    +0.000 H 
ATOM    130  H41 UNL A   1      24.925  38.884  50.581  1.00  0.00    +0.000 H 
ATOM      3  C2  UNL A   1      23.167  37.737  50.758  1.00  0.00    +0.000 C 
ATOM      4  C3  UNL A   1      22.575  36.501  50.511  1.00  0.00    +0.000 C 
ATOM      5  C4  UNL A   1      23.331  35.473  49.944  1.00  0.00    +0.000 C 
ATOM      6  C5  UNL A   1      24.682  35.672  49.616  1.00  0.00    +0.000 C 
ATOM      7  C6  UNL A   1      25.450  34.657  49.020  1.00  0.00    +0.000 C 
ATOM      8  C7  UNL A   1      26.803  34.851  48.682  1.00  0.00    +0.000 C 
ATOM     86  C62 UNL A   1      27.392  36.080  48.999  1.00  0.00    +0.000 C 
ATOM     87  C63 UNL A   1      26.635  37.110  49.567  1.00  0.00    +0.000 C 
ATOM     88  C64 UNL A   1      25.279  36.924  49.871  1.00  0.00    +0.000 C 
ATOM     89  C65 UNL A   1      24.503  37.955  50.423  1.00  0.00    +0.000 C 
ATOM     93  H4  UNL A   1      21.582  36.346  50.745  1.00  0.00    +0.000 H 
ATOM     94  H5  UNL A   1      22.892  34.556  49.764  1.00  0.00    +0.000 H 
ATOM     95  H6  UNL A   1      25.010  33.744  48.826  1.00  0.00    +0.000 H 
ATOM    128  H39 UNL A   1      28.395  36.229  48.810  1.00  0.00    +0.000 H 
BRANCH    3    2
ATOM      2  O1  UNL A   1      22.476  38.803  51.265  1.00  0.00    +0.000 O 
BRANCH    2    1
ATOM      1  C1  UNL A   1      21.363  38.399  52.060  1.00  0.00    +0.000 C 
ATOM     90  H1  UNL A   1      20.890  37.553  51.608  1.00  0.00    +0.000 H 
ATOM     91  H2  UNL A   1      20.663  39.205  52.129  1.00  0.00    +0.000 H 
ATOM     92  H3  UNL A   1      21.703  38.137  53.041  1.00  0.00    +0.000 H 
ENDBRANCH    2    1
ENDBRANCH    3    2
ENDBRANCH    9    8
BRANCH    9   10
ATOM     97  H8  UNL A   1      29.445  33.820  48.907  1.00  0.00    +0.000 H 
ATOM     10  C9  UNL A   1      29.062  33.770  47.910  1.00  0.00    +0.000 C 
ATOM     99  H10 UNL A   1      29.430  32.887  47.430  1.00  0.00    +0.000 H 
ATOM     98  H9  UNL A   1      29.379  34.633  47.361  1.00  0.00    +0.000 H 
ENDBRANCH    9   10
ENDBRANCH   11    9
ENDBRANCH   13   11
ENDBRANCH   14   13
ENDBRANCH   15   14
ENDBRANCH   16   15
ENDBRANCH   17   16
ENDBRANCH   18   17
ENDBRANCH   19   18
ENDBRANCH   20   19
ENDBRANCH   21   20
ENDBRANCH   23   21
ENDBRANCH   27   26
BRANCH   31   32
ATOM     33  C27 UNL A   1      22.015  43.146  51.063  1.00  0.00    +0.000 C 
ATOM     34  F1  UNL A   1      22.345  42.117  51.857  1.00  0.00    +0.000 F 
ATOM     35  C28 UNL A   1      22.110  44.440  51.566  1.00  0.00    +0.000 C 
ATOM     36  F2  UNL A   1      22.517  44.638  52.828  1.00  0.00    +0.000 F 
ATOM     37  C29 UNL A   1      21.782  45.524  50.767  1.00  0.00    +0.000 C 
ATOM     38  F3  UNL A   1      21.890  46.771  51.248  1.00  0.00    +0.000 F 
ATOM     39  C30 UNL A   1      21.338  45.317  49.469  1.00  0.00    +0.000 C 
ATOM     40  F4  UNL A   1      21.033  46.365  48.691  1.00  0.00    +0.000 F 
ATOM     41  C31 UNL A   1      21.215  44.022  48.971  1.00  0.00    +0.000 C 
ATOM     42  F5  UNL A   1      20.778  43.853  47.715  1.00  0.00    +0.000 F 
ATOM     32  C26 UNL A   1      21.558  42.912  49.758  1.00  0.00    +0.000 C 
ENDBRANCH   31   32
BRANCH   48   49
ATOM     49  C37 UNL A   1      16.873  37.457  49.369  1.00  0.00    +0.000 C 
ATOM     50  C38 UNL A   1      15.867  37.279  48.409  1.00  0.00    +0.000 C 
ATOM     51  F6  UNL A   1      16.152  37.395  47.103  1.00  0.00    +0.000 F 
ATOM     52  C39 UNL A   1      14.553  37.023  48.791  1.00  0.00    +0.000 C 
ATOM     53  F7  UNL A   1      13.597  36.907  47.859  1.00  0.00    +0.000 F 
ATOM     54  C40 UNL A   1      14.228  36.907  50.134  1.00  0.00    +0.000 C 
ATOM     55  F8  UNL A   1      12.963  36.656  50.499  1.00  0.00    +0.000 F 
ATOM     56  C41 UNL A   1      15.212  37.056  51.099  1.00  0.00    +0.000 C 
ATOM     57  F9  UNL A   1      14.902  36.931  52.397  1.00  0.00    +0.000 F 
ATOM     58  C42 UNL A   1      16.521  37.342  50.722  1.00  0.00    +0.000 C 
ATOM     59  F10 UNL A   1      17.449  37.497  51.678  1.00  0.00    +0.000 F 
ENDBRANCH   48   49
BRANCH   63   64
ATOM     65  C47 UNL A   1      22.304  32.596  46.859  1.00  0.00    +0.000 C 
ATOM     66  F11 UNL A   1      22.882  32.876  48.036  1.00  0.00    +0.000 F 
ATOM     67  C48 UNL A   1      22.381  31.296  46.364  1.00  0.00    +0.000 C 
ATOM     68  F12 UNL A   1      23.031  30.355  47.060  1.00  0.00    +0.000 F 
ATOM     69  C49 UNL A   1      21.810  30.985  45.139  1.00  0.00    +0.000 C 
ATOM     70  F13 UNL A   1      21.890  29.736  44.660  1.00  0.00    +0.000 F 
ATOM     71  C50 UNL A   1      21.167  31.971  44.407  1.00  0.00    +0.000 C 
ATOM     72  F14 UNL A   1      20.604  31.670  43.230  1.00  0.00    +0.000 F 
ATOM     73  C51 UNL A   1      21.117  33.278  44.888  1.00  0.00    +0.000 C 
ATOM     74  F15 UNL A   1      20.509  34.217  44.147  1.00  0.00    +0.000 F 
ATOM     64  C46 UNL A   1      21.686  33.617  46.123  1.00  0.00    +0.000 C 
ENDBRANCH   63   64
TORSDOF 19
ENDMDL
MODEL 5
REMARK VINA RESULT:     -10.0     20.017     25.924
ROOT
ATOM     27  C22 UNL A   1      53.759  19.486  11.794  1.00  0.00    +0.000 C 
ATOM     28  C23 UNL A   1      55.127  18.868  11.720  1.00  0.00    +0.000 C 
ATOM     29  N3  UNL A   1      56.090  18.877  12.608  1.00  0.00    +0.000 N 
ATOM     30  C24 UNL A   1      57.118  18.121  12.061  1.00  0.00    +0.000 C 
ATOM     31  C25 UNL A   1      58.349  17.874  12.571  1.00  0.00    +0.000 C 
ATOM     43  C32 UNL A   1      58.828  18.396  13.824  1.00  0.00    +0.000 C 
ATOM     44  C33 UNL A   1      60.083  18.257  14.393  1.00  0.00    +0.000 C 
ATOM     45  C34 UNL A   1      60.077  18.908  15.630  1.00  0.00    +0.000 C 
ATOM     46  C35 UNL A   1      58.833  19.492  15.811  1.00  0.00    +0.000 C 
ATOM     47  N4  UNL A   1      58.074  19.163  14.700  1.00  0.00    +0.000 N 
ATOM     48  C36 UNL A   1      58.371  20.291  16.915  1.00  0.00    +0.000 C 
ATOM     60  C43 UNL A   1      57.125  20.810  17.028  1.00  0.00    +0.000 C 
ATOM     61  N5  UNL A   1      56.058  20.722  16.144  1.00  0.00    +0.000 N 
ATOM     62  C44 UNL A   1      55.071  21.375  16.704  1.00  0.00    +0.000 C 
ATOM     63  C45 UNL A   1      53.686  21.644  16.176  1.00  0.00    +0.000 C 
ATOM     75  C52 UNL A   1      53.351  21.195  14.952  1.00  0.00    +0.000 C 
ATOM     76  C53 UNL A   1      52.059  21.392  14.301  1.00  0.00    +0.000 C 
ATOM     77  C54 UNL A   1      52.073  20.782  13.106  1.00  0.00    +0.000 C 
ATOM     78  C55 UNL A   1      53.388  20.176  12.891  1.00  0.00    +0.000 C 
ATOM     79  N6  UNL A   1      54.081  20.474  14.039  1.00  0.00    +0.000 N 
ATOM     80  C56 UNL A   1      55.390  21.921  18.031  1.00  0.00    +0.000 C 
ATOM     81  C57 UNL A   1      56.667  21.590  18.158  1.00  0.00    +0.000 C 
ATOM     82  C58 UNL A   1      56.651  17.632  10.782  1.00  0.00    +0.000 C 
ATOM     83  C59 UNL A   1      55.451  18.117  10.496  1.00  0.00    +0.000 C 
ATOM    116  H27 UNL A   1      60.885  17.759  13.975  1.00  0.00    +0.000 H 
ATOM    117  H28 UNL A   1      60.864  18.947  16.296  1.00  0.00    +0.000 H 
ATOM    118  H29 UNL A   1      57.139  19.433  14.553  1.00  0.00    +0.000 H 
ATOM    119  H30 UNL A   1      51.263  21.917  14.697  1.00  0.00    +0.000 H 
ATOM    120  H31 UNL A   1      51.282  20.746  12.443  1.00  0.00    +0.000 H 
ATOM    121  H32 UNL A   1      55.014  20.197  14.192  1.00  0.00    +0.000 H 
ATOM    122  H33 UNL A   1      54.781  22.429  18.691  1.00  0.00    +0.000 H 
ATOM    123  H34 UNL A   1      57.259  21.855  18.960  1.00  0.00    +0.000 H 
ATOM    124  H35 UNL A   1      57.182  16.990  10.173  1.00  0.00    +0.000 H 
ATOM    125  H36 UNL A   1      54.890  17.999   9.639  1.00  0.00    +0.000 H 
ENDROOT
BRANCH   27   26
ATOM    114  H25 UNL A   1      50.463  17.143   9.552  1.00  0.00    +0.000 H 
ATOM    115  H26 UNL A   1      51.966  17.491  11.427  1.00  0.00    +0.000 H 
ATOM     84  C60 UNL A   1      52.707  20.242   9.655  1.00  0.00    +0.000 C 
ATOM     85  C61 UNL A   1      51.788  20.080   8.618  1.00  0.00    +0.000 C 
ATOM     23  C18 UNL A   1      51.008  18.922   8.551  1.00  0.00    +0.000 C 
ATOM     24  C19 UNL A   1      51.066  17.981   9.583  1.00  0.00    +0.000 C 
ATOM     25  C20 UNL A   1      51.942  18.174  10.654  1.00  0.00    +0.000 C 
ATOM     26  C21 UNL A   1      52.789  19.293  10.685  1.00  0.00    +0.000 C 
ATOM    126  H37 UNL A   1      53.331  21.064   9.663  1.00  0.00    +0.000 H 
ATOM    127  H38 UNL A   1      51.683  20.815   7.901  1.00  0.00    +0.000 H 
BRANCH   23   21
ATOM     21  C17 UNL A   1      50.088  18.675   7.419  1.00  0.00    +0.000 C 
ATOM     22  O3  UNL A   1      49.720  17.529   7.174  1.00  0.00    +0.000 O 
BRANCH   21   20
ATOM    113  H24 UNL A   1      50.315  20.023   5.958  1.00  0.00    +0.000 H 
ATOM     20  N2  UNL A   1      49.665  19.714   6.630  1.00  0.00    +0.000 N 
BRANCH   20   19
ATOM     19  C16 UNL A   1      48.398  20.424   6.640  1.00  0.00    +0.000 C 
ATOM    111  H22 UNL A   1      48.084  20.553   7.655  1.00  0.00    +0.000 H 
ATOM    112  H23 UNL A   1      48.550  21.364   6.152  1.00  0.00    +0.000 H 
BRANCH   19   18
ATOM     18  C15 UNL A   1      47.303  19.680   5.882  1.00  0.00    +0.000 C 
ATOM    109  H20 UNL A   1      46.924  18.909   6.520  1.00  0.00    +0.000 H 
ATOM    110  H21 UNL A   1      46.572  20.418   5.622  1.00  0.00    +0.000 H 
BRANCH   18   17
ATOM     17  C14 UNL A   1      47.740  19.035   4.565  1.00  0.00    +0.000 C 
ATOM    107  H18 UNL A   1      47.244  19.547   3.767  1.00  0.00    +0.000 H 
ATOM    108  H19 UNL A   1      48.806  19.119   4.537  1.00  0.00    +0.000 H 
BRANCH   17   16
ATOM    105  H16 UNL A   1      48.349  17.035   4.200  1.00  0.00    +0.000 H 
ATOM    106  H17 UNL A   1      46.998  17.241   5.356  1.00  0.00    +0.000 H 
ATOM     16  C13 UNL A   1      47.434  17.540   4.427  1.00  0.00    +0.000 C 
BRANCH   16   15
ATOM    103  H14 UNL A   1      46.941  16.766   2.511  1.00  0.00    +0.000 H 
ATOM     15  C12 UNL A   1      46.412  17.175   3.346  1.00  0.00    +0.000 C 
ATOM    104  H15 UNL A   1      45.732  16.482   3.794  1.00  0.00    +0.000 H 
BRANCH   15   14
ATOM    102  H13 UNL A   1      45.663  18.395   1.781  1.00  0.00    +0.000 H 
ATOM    101  H12 UNL A   1      45.921  19.246   3.303  1.00  0.00    +0.000 H 
ATOM     14  C11 UNL A   1      45.569  18.345   2.846  1.00  0.00    +0.000 C 
BRANCH   14   13
ATOM    100  H11 UNL A   1      43.925  17.276   3.505  1.00  0.00    +0.000 H 
ATOM     13  N1  UNL A   1      44.169  18.169   3.170  1.00  0.00    +0.000 N 
BRANCH   13   11
ATOM     11  C10 UNL A   1      43.139  19.057   3.081  1.00  0.00    +0.000 C 
ATOM     12  O2  UNL A   1      43.401  20.251   3.259  1.00  0.00    +0.000 O 
BRANCH   11    9
ATOM      9  C8  UNL A   1      41.706  18.611   2.759  1.00  0.00    +0.000 C 
ATOM     96  H7  UNL A   1      41.723  17.685   2.223  1.00  0.00    +0.000 H 
BRANCH    9    8
ATOM    129  H40 UNL A   1      41.428  21.116  -1.183  1.00  0.00    +0.000 H 
ATOM    130  H41 UNL A   1      39.323  22.140  -1.947  1.00  0.00    +0.000 H 
ATOM      3  C2  UNL A   1      37.543  22.191  -0.823  1.00  0.00    +0.000 C 
ATOM      4  C3  UNL A   1      36.910  21.767   0.344  1.00  0.00    +0.000 C 
ATOM      5  C4  UNL A   1      37.621  21.012   1.279  1.00  0.00    +0.000 C 
ATOM      6  C5  UNL A   1      38.965  20.672   1.057  1.00  0.00    +0.000 C 
ATOM      7  C6  UNL A   1      39.686  19.891   1.976  1.00  0.00    +0.000 C 
ATOM      8  C7  UNL A   1      41.032  19.540   1.757  1.00  0.00    +0.000 C 
ATOM     86  C62 UNL A   1      41.663  20.032   0.609  1.00  0.00    +0.000 C 
ATOM     87  C63 UNL A   1      40.952  20.788  -0.329  1.00  0.00    +0.000 C 
ATOM     88  C64 UNL A   1      39.602  21.106  -0.123  1.00  0.00    +0.000 C 
ATOM     89  C65 UNL A   1      38.872  21.848  -1.066  1.00  0.00    +0.000 C 
ATOM     93  H4  UNL A   1      35.922  22.009   0.514  1.00  0.00    +0.000 H 
ATOM     94  H5  UNL A   1      37.152  20.701   2.145  1.00  0.00    +0.000 H 
ATOM     95  H6  UNL A   1      39.216  19.567   2.835  1.00  0.00    +0.000 H 
ATOM    128  H39 UNL A   1      42.663  19.833   0.452  1.00  0.00    +0.000 H 
BRANCH    3    2
ATOM      2  O1  UNL A   1      36.897  22.890  -1.805  1.00  0.00    +0.000 O 
BRANCH    2    1
ATOM      1  C1  UNL A   1      35.645  23.414  -1.365  1.00  0.00    +0.000 C 
ATOM     90  H1  UNL A   1      35.641  24.477  -1.485  1.00  0.00    +0.000 H 
ATOM     91  H2  UNL A   1      35.501  23.171  -0.333  1.00  0.00    +0.000 H 
ATOM     92  H3  UNL A   1      34.856  22.984  -1.946  1.00  0.00    +0.000 H 
ENDBRANCH    2    1
ENDBRANCH    3    2
ENDBRANCH    9    8
BRANCH    9   10
ATOM     97  H8  UNL A   1      40.228  19.011   4.255  1.00  0.00    +0.000 H 
ATOM     10  C9  UNL A   1      40.936  18.242   4.031  1.00  0.00    +0.000 C 
ATOM     99  H10 UNL A   1      40.420  17.316   3.880  1.00  0.00    +0.000 H 
ATOM     98  H9  UNL A   1      41.622  18.139   4.845  1.00  0.00    +0.000 H 
ENDBRANCH    9   10
ENDBRANCH   11    9
ENDBRANCH   13   11
ENDBRANCH   14   13
ENDBRANCH   15   14
ENDBRANCH   16   15
ENDBRANCH   17   16
ENDBRANCH   18   17
ENDBRANCH   19   18
ENDBRANCH   20   19
ENDBRANCH   21   20
ENDBRANCH   23   21
ENDBRANCH   27   26
BRANCH   31   32
ATOM     33  C27 UNL A   1      59.312  15.614  11.946  1.00  0.00    +0.000 C 
ATOM     34  F1  UNL A   1      58.561  15.033  12.893  1.00  0.00    +0.000 F 
ATOM     35  C28 UNL A   1      60.140  14.816  11.163  1.00  0.00    +0.000 C 
ATOM     36  F2  UNL A   1      60.182  13.492  11.368  1.00  0.00    +0.000 F 
ATOM     37  C29 UNL A   1      60.924  15.388  10.172  1.00  0.00    +0.000 C 
ATOM     38  F3  UNL A   1      61.709  14.616   9.407  1.00  0.00    +0.000 F 
ATOM     39  C30 UNL A   1      60.898  16.761   9.976  1.00  0.00    +0.000 C 
ATOM     40  F4  UNL A   1      61.645  17.313   9.010  1.00  0.00    +0.000 F 
ATOM     41  C31 UNL A   1      60.092  17.565  10.777  1.00  0.00    +0.000 C 
ATOM     42  F5  UNL A   1      60.092  18.890  10.568  1.00  0.00    +0.000 F 
ATOM     32  C26 UNL A   1      59.278  17.006  11.774  1.00  0.00    +0.000 C 
ENDBRANCH   31   32
BRANCH   48   49
ATOM     49  C37 UNL A   1      59.347  20.600  18.012  1.00  0.00    +0.000 C 
ATOM     50  C38 UNL A   1      59.597  19.696  19.055  1.00  0.00    +0.000 C 
ATOM     51  F6  UNL A   1      58.927  18.535  19.116  1.00  0.00    +0.000 F 
ATOM     52  C39 UNL A   1      60.507  20.002  20.063  1.00  0.00    +0.000 C 
ATOM     53  F7  UNL A   1      60.692  19.146  21.078  1.00  0.00    +0.000 F 
ATOM     54  C40 UNL A   1      61.208  21.199  20.030  1.00  0.00    +0.000 C 
ATOM     55  F8  UNL A   1      62.086  21.489  20.999  1.00  0.00    +0.000 F 
ATOM     56  C41 UNL A   1      60.994  22.096  18.995  1.00  0.00    +0.000 C 
ATOM     57  F9  UNL A   1      61.679  23.247  18.955  1.00  0.00    +0.000 F 
ATOM     58  C42 UNL A   1      60.063  21.808  18.002  1.00  0.00    +0.000 C 
ATOM     59  F10 UNL A   1      59.865  22.702  17.023  1.00  0.00    +0.000 F 
ENDBRANCH   48   49
BRANCH   63   64
ATOM     65  C47 UNL A   1      51.919  21.793  17.956  1.00  0.00    +0.000 C 
ATOM     66  F11 UNL A   1      52.050  20.476  18.175  1.00  0.00    +0.000 F 
ATOM     67  C48 UNL A   1      50.954  22.501  18.669  1.00  0.00    +0.000 C 
ATOM     68  F12 UNL A   1      50.173  21.862  19.549  1.00  0.00    +0.000 F 
ATOM     69  C49 UNL A   1      50.785  23.859  18.447  1.00  0.00    +0.000 C 
ATOM     70  F13 UNL A   1      49.852  24.539  19.127  1.00  0.00    +0.000 F 
ATOM     71  C50 UNL A   1      51.575  24.509  17.510  1.00  0.00    +0.000 C 
ATOM     72  F14 UNL A   1      51.421  25.823  17.303  1.00  0.00    +0.000 F 
ATOM     73  C51 UNL A   1      52.519  23.794  16.776  1.00  0.00    +0.000 C 
ATOM     74  F15 UNL A   1      53.253  24.444  15.860  1.00  0.00    +0.000 F 
ATOM     64  C46 UNL A   1      52.709  22.421  16.983  1.00  0.00    +0.000 C 
ENDBRANCH   63   64
TORSDOF 19
ENDMDL
MODEL 6
REMARK VINA RESULT:     -10.0     17.584     22.600
ROOT
ATOM     27  C22 UNL A   1      25.791  36.288  45.517  1.00  0.00    +0.000 C 
ATOM     28  C23 UNL A   1      25.696  37.458  46.457  1.00  0.00    +0.000 C 
ATOM     29  N3  UNL A   1      26.609  38.343  46.772  1.00  0.00    +0.000 N 
ATOM     30  C24 UNL A   1      25.990  39.233  47.641  1.00  0.00    +0.000 C 
ATOM     31  C25 UNL A   1      26.528  40.296  48.286  1.00  0.00    +0.000 C 
ATOM     43  C32 UNL A   1      27.908  40.692  48.187  1.00  0.00    +0.000 C 
ATOM     44  C33 UNL A   1      28.561  41.714  48.855  1.00  0.00    +0.000 C 
ATOM     45  C34 UNL A   1      29.889  41.744  48.417  1.00  0.00    +0.000 C 
ATOM     46  C35 UNL A   1      30.074  40.712  47.511  1.00  0.00    +0.000 C 
ATOM     47  N4  UNL A   1      28.849  40.080  47.373  1.00  0.00    +0.000 N 
ATOM     48  C36 UNL A   1      31.278  40.330  46.823  1.00  0.00    +0.000 C 
ATOM     60  C43 UNL A   1      31.372  39.316  45.929  1.00  0.00    +0.000 C 
ATOM     61  N5  UNL A   1      30.389  38.433  45.504  1.00  0.00    +0.000 N 
ATOM     62  C44 UNL A   1      30.965  37.646  44.630  1.00  0.00    +0.000 C 
ATOM     63  C45 UNL A   1      30.389  36.475  43.877  1.00  0.00    +0.000 C 
ATOM     75  C52 UNL A   1      29.111  36.116  44.099  1.00  0.00    +0.000 C 
ATOM     76  C53 UNL A   1      28.422  34.998  43.461  1.00  0.00    +0.000 C 
ATOM     77  C54 UNL A   1      27.153  34.960  43.897  1.00  0.00    +0.000 C 
ATOM     78  C55 UNL A   1      26.947  36.033  44.871  1.00  0.00    +0.000 C 
ATOM     79  N6  UNL A   1      28.164  36.666  44.928  1.00  0.00    +0.000 N 
ATOM     80  C56 UNL A   1      32.376  37.968  44.372  1.00  0.00    +0.000 C 
ATOM     81  C57 UNL A   1      32.586  38.960  45.225  1.00  0.00    +0.000 C 
ATOM     82  C58 UNL A   1      24.613  38.808  47.772  1.00  0.00    +0.000 C 
ATOM     83  C59 UNL A   1      24.397  37.680  47.111  1.00  0.00    +0.000 C 
ATOM    116  H27 UNL A   1      28.142  42.345  49.556  1.00  0.00    +0.000 H 
ATOM    117  H28 UNL A   1      30.608  42.421  48.716  1.00  0.00    +0.000 H 
ATOM    118  H29 UNL A   1      28.672  39.312  46.785  1.00  0.00    +0.000 H 
ATOM    119  H30 UNL A   1      28.844  34.342  42.784  1.00  0.00    +0.000 H 
ATOM    120  H31 UNL A   1      26.437  34.280  43.594  1.00  0.00    +0.000 H 
ATOM    121  H32 UNL A   1      28.341  37.442  45.508  1.00  0.00    +0.000 H 
ATOM    122  H33 UNL A   1      33.032  37.535  43.703  1.00  0.00    +0.000 H 
ATOM    123  H34 UNL A   1      33.497  39.421  45.368  1.00  0.00    +0.000 H 
ATOM    124  H35 UNL A   1      23.894  39.316  48.311  1.00  0.00    +0.000 H 
ATOM    125  H36 UNL A   1      23.541  37.106  47.066  1.00  0.00    +0.000 H 
ENDROOT
BRANCH   27   26
ATOM    114  H25 UNL A   1      21.785  35.345  43.410  1.00  0.00    +0.000 H 
ATOM    115  H26 UNL A   1      23.777  36.689  43.752  1.00  0.00    +0.000 H 
ATOM     84  C60 UNL A   1      24.426  34.238  45.950  1.00  0.00    +0.000 C 
ATOM     85  C61 UNL A   1      23.320  33.428  45.697  1.00  0.00    +0.000 C 
ATOM     23  C18 UNL A   1      22.328  33.858  44.811  1.00  0.00    +0.000 C 
ATOM     24  C19 UNL A   1      22.500  35.045  44.093  1.00  0.00    +0.000 C 
ATOM     25  C20 UNL A   1      23.640  35.826  44.301  1.00  0.00    +0.000 C 
ATOM     26  C21 UNL A   1      24.600  35.442  45.251  1.00  0.00    +0.000 C 
ATOM    126  H37 UNL A   1      25.121  33.952  46.658  1.00  0.00    +0.000 H 
ATOM    127  H38 UNL A   1      23.234  32.511  46.162  1.00  0.00    +0.000 H 
BRANCH   23   21
ATOM     21  C17 UNL A   1      21.098  33.067  44.585  1.00  0.00    +0.000 C 
ATOM     22  O3  UNL A   1      21.131  32.094  43.836  1.00  0.00    +0.000 O 
BRANCH   21   20
ATOM    113  H24 UNL A   1      19.712  32.945  46.023  1.00  0.00    +0.000 H 
ATOM     20  N2  UNL A   1      19.921  33.428  45.190  1.00  0.00    +0.000 N 
BRANCH   20   19
ATOM     19  C16 UNL A   1      18.940  34.416  44.782  1.00  0.00    +0.000 C 
ATOM    111  H22 UNL A   1      18.645  34.983  45.641  1.00  0.00    +0.000 H 
ATOM    112  H23 UNL A   1      19.394  35.037  44.038  1.00  0.00    +0.000 H 
BRANCH   19   18
ATOM     18  C15 UNL A   1      17.695  33.787  44.162  1.00  0.00    +0.000 C 
ATOM    109  H20 UNL A   1      17.363  33.004  44.811  1.00  0.00    +0.000 H 
ATOM    110  H21 UNL A   1      16.987  34.583  44.052  1.00  0.00    +0.000 H 
BRANCH   18   17
ATOM     17  C14 UNL A   1      17.888  33.196  42.764  1.00  0.00    +0.000 C 
ATOM    107  H18 UNL A   1      17.209  33.690  42.101  1.00  0.00    +0.000 H 
ATOM    108  H19 UNL A   1      18.918  33.348  42.521  1.00  0.00    +0.000 H 
BRANCH   17   16
ATOM    105  H16 UNL A   1      17.106  31.509  41.740  1.00  0.00    +0.000 H 
ATOM    106  H17 UNL A   1      18.615  31.232  42.663  1.00  0.00    +0.000 H 
ATOM     16  C13 UNL A   1      17.648  31.687  42.645  1.00  0.00    +0.000 C 
BRANCH   16   15
ATOM    103  H14 UNL A   1      17.565  30.645  44.495  1.00  0.00    +0.000 H 
ATOM     15  C12 UNL A   1      16.864  31.054  43.798  1.00  0.00    +0.000 C 
ATOM    104  H15 UNL A   1      16.260  31.832  44.216  1.00  0.00    +0.000 H 
BRANCH   15   14
ATOM    102  H13 UNL A   1      15.426  30.236  42.472  1.00  0.00    +0.000 H 
ATOM    101  H12 UNL A   1      15.188  29.793  44.161  1.00  0.00    +0.000 H 
ATOM     14  C11 UNL A   1      15.906  29.942  43.382  1.00  0.00    +0.000 C 
BRANCH   14   13
ATOM    100  H11 UNL A   1      17.587  28.751  43.198  1.00  0.00    +0.000 H 
ATOM     13  N1  UNL A   1      16.605  28.697  43.143  1.00  0.00    +0.000 N 
BRANCH   13   11
ATOM     11  C10 UNL A   1      16.107  27.462  42.854  1.00  0.00    +0.000 C 
ATOM     12  O2  UNL A   1      16.508  26.513  43.537  1.00  0.00    +0.000 O 
BRANCH   11    9
ATOM      9  C8  UNL A   1      15.079  27.240  41.737  1.00  0.00    +0.000 C 
ATOM     96  H7  UNL A   1      14.199  27.819  41.930  1.00  0.00    +0.000 H 
BRANCH    9    8
ATOM    129  H40 UNL A   1      12.713  23.616  43.517  1.00  0.00    +0.000 H 
ATOM    130  H41 UNL A   1      12.217  21.594  42.202  1.00  0.00    +0.000 H 
ATOM      3  C2  UNL A   1      12.983  21.202  40.280  1.00  0.00    +0.000 C 
ATOM      4  C3  UNL A   1      13.729  21.706  39.218  1.00  0.00    +0.000 C 
ATOM      5  C4  UNL A   1      14.306  22.974  39.319  1.00  0.00    +0.000 C 
ATOM      6  C5  UNL A   1      14.142  23.748  40.479  1.00  0.00    +0.000 C 
ATOM      7  C6  UNL A   1      14.694  25.035  40.587  1.00  0.00    +0.000 C 
ATOM      8  C7  UNL A   1      14.527  25.820  41.745  1.00  0.00    +0.000 C 
ATOM     86  C62 UNL A   1      13.828  25.265  42.822  1.00  0.00    +0.000 C 
ATOM     87  C63 UNL A   1      13.250  23.995  42.721  1.00  0.00    +0.000 C 
ATOM     88  C64 UNL A   1      13.389  23.231  41.554  1.00  0.00    +0.000 C 
ATOM     89  C65 UNL A   1      12.797  21.964  41.432  1.00  0.00    +0.000 C 
ATOM     93  H4  UNL A   1      13.852  21.147  38.360  1.00  0.00    +0.000 H 
ATOM     94  H5  UNL A   1      14.861  23.346  38.532  1.00  0.00    +0.000 H 
ATOM     95  H6  UNL A   1      15.237  25.415  39.797  1.00  0.00    +0.000 H 
ATOM    128  H39 UNL A   1      13.738  25.798  43.701  1.00  0.00    +0.000 H 
BRANCH    3    2
ATOM      2  O1  UNL A   1      12.348  19.991  40.232  1.00  0.00    +0.000 O 
BRANCH    2    1
ATOM      1  C1  UNL A   1      13.190  18.920  40.653  1.00  0.00    +0.000 C 
ATOM     90  H1  UNL A   1      12.765  18.449  41.514  1.00  0.00    +0.000 H 
ATOM     91  H2  UNL A   1      14.159  19.303  40.896  1.00  0.00    +0.000 H 
ATOM     92  H3  UNL A   1      13.278  18.204  39.861  1.00  0.00    +0.000 H 
ENDBRANCH    2    1
ENDBRANCH    3    2
ENDBRANCH    9    8
BRANCH    9   10
ATOM     97  H8  UNL A   1      14.995  27.397  39.604  1.00  0.00    +0.000 H 
ATOM     10  C9  UNL A   1      15.566  27.817  40.404  1.00  0.00    +0.000 C 
ATOM     99  H10 UNL A   1      15.444  28.881  40.410  1.00  0.00    +0.000 H 
ATOM     98  H9  UNL A   1      16.600  27.577  40.270  1.00  0.00    +0.000 H 
ENDBRANCH    9   10
ENDBRANCH   11    9
ENDBRANCH   13   11
ENDBRANCH   14   13
ENDBRANCH   15   14
ENDBRANCH   16   15
ENDBRANCH   17   16
ENDBRANCH   18   17
ENDBRANCH   19   18
ENDBRANCH   20   19
ENDBRANCH   21   20
ENDBRANCH   23   21
ENDBRANCH   27   26
BRANCH   31   32
ATOM     33  C27 UNL A   1      25.481  40.822  50.533  1.00  0.00    +0.000 C 
ATOM     34  F1  UNL A   1      26.091  39.754  51.067  1.00  0.00    +0.000 F 
ATOM     35  C28 UNL A   1      24.683  41.617  51.351  1.00  0.00    +0.000 C 
ATOM     36  F2  UNL A   1      24.530  41.303  52.645  1.00  0.00    +0.000 F 
ATOM     37  C29 UNL A   1      24.043  42.731  50.829  1.00  0.00    +0.000 C 
ATOM     38  F3  UNL A   1      23.289  43.506  51.622  1.00  0.00    +0.000 F 
ATOM     39  C30 UNL A   1      24.183  43.042  49.484  1.00  0.00    +0.000 C 
ATOM     40  F4  UNL A   1      23.576  44.126  48.982  1.00  0.00    +0.000 F 
ATOM     41  C31 UNL A   1      24.958  42.232  48.657  1.00  0.00    +0.000 C 
ATOM     42  F5  UNL A   1      25.069  42.554  47.360  1.00  0.00    +0.000 F 
ATOM     32  C26 UNL A   1      25.627  41.110  49.168  1.00  0.00    +0.000 C 
ENDBRANCH   31   32
BRANCH   48   49
ATOM     49  C37 UNL A   1      32.534  41.090  47.135  1.00  0.00    +0.000 C 
ATOM     50  C38 UNL A   1      33.514  40.576  47.997  1.00  0.00    +0.000 C 
ATOM     51  F6  UNL A   1      33.327  39.393  48.602  1.00  0.00    +0.000 F 
ATOM     52  C39 UNL A   1      34.671  41.298  48.273  1.00  0.00    +0.000 C 
ATOM     53  F7  UNL A   1      35.571  40.811  49.140  1.00  0.00    +0.000 F 
ATOM     54  C40 UNL A   1      34.888  42.527  47.669  1.00  0.00    +0.000 C 
ATOM     55  F8  UNL A   1      36.005  43.218  47.933  1.00  0.00    +0.000 F 
ATOM     56  C41 UNL A   1      33.944  43.043  46.795  1.00  0.00    +0.000 C 
ATOM     57  F9  UNL A   1      34.156  44.225  46.200  1.00  0.00    +0.000 F 
ATOM     58  C42 UNL A   1      32.771  42.339  46.539  1.00  0.00    +0.000 C 
ATOM     59  F10 UNL A   1      31.867  42.870  45.703  1.00  0.00    +0.000 F 
ENDBRANCH   48   49
BRANCH   63   64
ATOM     65  C47 UNL A   1      31.344  36.102  41.583  1.00  0.00    +0.000 C 
ATOM     66  F11 UNL A   1      30.698  37.196  41.152  1.00  0.00    +0.000 F 
ATOM     67  C48 UNL A   1      32.074  35.348  40.667  1.00  0.00    +0.000 C 
ATOM     68  F12 UNL A   1      32.115  35.718  39.380  1.00  0.00    +0.000 F 
ATOM     69  C49 UNL A   1      32.734  34.201  41.082  1.00  0.00    +0.000 C 
ATOM     70  F13 UNL A   1      33.431  33.472  40.200  1.00  0.00    +0.000 F 
ATOM     71  C50 UNL A   1      32.660  33.805  42.409  1.00  0.00    +0.000 C 
ATOM     72  F14 UNL A   1      33.307  32.704  42.814  1.00  0.00    +0.000 F 
ATOM     73  C51 UNL A   1      31.905  34.543  43.318  1.00  0.00    +0.000 C 
ATOM     74  F15 UNL A   1      31.833  34.122  44.590  1.00  0.00    +0.000 F 
ATOM     64  C46 UNL A   1      31.230  35.705  42.923  1.00  0.00    +0.000 C 
ENDBRANCH   63   64
TORSDOF 19
ENDMDL
MODEL 7
REMARK VINA RESULT:      -9.9     17.173     22.265
ROOT
ATOM     27  C22 UNL A   1      25.856  36.402  45.610  1.00  0.00    +0.000 C 
ATOM     28  C23 UNL A   1      25.790  37.583  46.538  1.00  0.00    +0.000 C 
ATOM     29  N3  UNL A   1      26.719  38.460  46.830  1.00  0.00    +0.000 N 
ATOM     30  C24 UNL A   1      26.125  39.367  47.697  1.00  0.00    +0.000 C 
ATOM     31  C25 UNL A   1      26.686  40.430  48.322  1.00  0.00    +0.000 C 
ATOM     43  C32 UNL A   1      28.070  40.807  48.198  1.00  0.00    +0.000 C 
ATOM     44  C33 UNL A   1      28.747  41.827  48.845  1.00  0.00    +0.000 C 
ATOM     45  C34 UNL A   1      30.068  41.835  48.386  1.00  0.00    +0.000 C 
ATOM     46  C35 UNL A   1      30.225  40.791  47.489  1.00  0.00    +0.000 C 
ATOM     47  N4  UNL A   1      28.990  40.174  47.377  1.00  0.00    +0.000 N 
ATOM     48  C36 UNL A   1      31.414  40.385  46.787  1.00  0.00    +0.000 C 
ATOM     60  C43 UNL A   1      31.481  39.360  45.904  1.00  0.00    +0.000 C 
ATOM     61  N5  UNL A   1      30.480  38.486  45.503  1.00  0.00    +0.000 N 
ATOM     62  C44 UNL A   1      31.033  37.681  44.630  1.00  0.00    +0.000 C 
ATOM     63  C45 UNL A   1      30.431  36.510  43.899  1.00  0.00    +0.000 C 
ATOM     75  C52 UNL A   1      29.151  36.170  44.144  1.00  0.00    +0.000 C 
ATOM     76  C53 UNL A   1      28.438  35.054  43.530  1.00  0.00    +0.000 C 
ATOM     77  C54 UNL A   1      27.175  35.038  43.985  1.00  0.00    +0.000 C 
ATOM     78  C55 UNL A   1      26.998  36.125  44.950  1.00  0.00    +0.000 C 
ATOM     79  N6  UNL A   1      28.224  36.742  44.981  1.00  0.00    +0.000 N 
ATOM     80  C56 UNL A   1      32.444  37.982  44.347  1.00  0.00    +0.000 C 
ATOM     81  C57 UNL A   1      32.679  38.981  45.185  1.00  0.00    +0.000 C 
ATOM     82  C58 UNL A   1      24.745  38.962  47.854  1.00  0.00    +0.000 C 
ATOM     83  C59 UNL A   1      24.504  37.830  47.209  1.00  0.00    +0.000 C 
ATOM    116  H27 UNL A   1      28.346  42.471  49.545  1.00  0.00    +0.000 H 
ATOM    117  H28 UNL A   1      30.801  42.506  48.667  1.00  0.00    +0.000 H 
ATOM    118  H29 UNL A   1      28.795  39.401  46.800  1.00  0.00    +0.000 H 
ATOM    119  H30 UNL A   1      28.840  34.386  42.854  1.00  0.00    +0.000 H 
ATOM    120  H31 UNL A   1      26.446  34.365  43.701  1.00  0.00    +0.000 H 
ATOM    121  H32 UNL A   1      28.420  37.522  45.550  1.00  0.00    +0.000 H 
ATOM    122  H33 UNL A   1      33.084  37.533  43.674  1.00  0.00    +0.000 H 
ATOM    123  H34 UNL A   1      33.599  39.431  45.310  1.00  0.00    +0.000 H 
ATOM    124  H35 UNL A   1      24.041  39.486  48.398  1.00  0.00    +0.000 H 
ATOM    125  H36 UNL A   1      23.640  37.267  47.184  1.00  0.00    +0.000 H 
ENDROOT
BRANCH   27   26
ATOM    114  H25 UNL A   1      23.196  32.688  46.321  1.00  0.00    +0.000 H 
ATOM    115  H26 UNL A   1      25.121  34.085  46.803  1.00  0.00    +0.000 H 
ATOM     84  C60 UNL A   1      23.692  35.978  44.430  1.00  0.00    +0.000 C 
ATOM     85  C61 UNL A   1      22.547  35.213  44.210  1.00  0.00    +0.000 C 
ATOM     23  C18 UNL A   1      22.393  33.985  44.859  1.00  0.00    +0.000 C 
ATOM     24  C19 UNL A   1      23.329  33.578  45.814  1.00  0.00    +0.000 C 
ATOM     25  C20 UNL A   1      24.445  34.375  46.080  1.00  0.00    +0.000 C 
ATOM     26  C21 UNL A   1      24.649  35.569  45.371  1.00  0.00    +0.000 C 
ATOM    126  H37 UNL A   1      23.837  36.849  43.897  1.00  0.00    +0.000 H 
ATOM    127  H38 UNL A   1      21.814  35.554  43.569  1.00  0.00    +0.000 H 
BRANCH   23   21
ATOM     21  C17 UNL A   1      21.235  33.105  44.583  1.00  0.00    +0.000 C 
ATOM     22  O3  UNL A   1      21.370  32.141  43.834  1.00  0.00    +0.000 O 
BRANCH   21   20
ATOM    113  H24 UNL A   1      19.879  33.027  46.053  1.00  0.00    +0.000 H 
ATOM     20  N2  UNL A   1      20.011  33.375  45.141  1.00  0.00    +0.000 N 
BRANCH   20   19
ATOM     19  C16 UNL A   1      18.882  34.097  44.584  1.00  0.00    +0.000 C 
ATOM    111  H22 UNL A   1      18.259  34.434  45.386  1.00  0.00    +0.000 H 
ATOM    112  H23 UNL A   1      19.270  34.917  44.016  1.00  0.00    +0.000 H 
BRANCH   19   18
ATOM     18  C15 UNL A   1      18.043  33.239  43.642  1.00  0.00    +0.000 C 
ATOM    109  H20 UNL A   1      17.177  33.803  43.365  1.00  0.00    +0.000 H 
ATOM    110  H21 UNL A   1      18.680  32.998  42.816  1.00  0.00    +0.000 H 
BRANCH   18   17
ATOM     17  C14 UNL A   1      17.573  31.901  44.218  1.00  0.00    +0.000 C 
ATOM    107  H18 UNL A   1      17.888  31.855  45.240  1.00  0.00    +0.000 H 
ATOM    108  H19 UNL A   1      16.511  31.884  44.091  1.00  0.00    +0.000 H 
BRANCH   17   16
ATOM    105  H16 UNL A   1      17.680  30.631  42.522  1.00  0.00    +0.000 H 
ATOM    106  H17 UNL A   1      19.166  30.733  43.515  1.00  0.00    +0.000 H 
ATOM     16  C13 UNL A   1      18.100  30.652  43.505  1.00  0.00    +0.000 C 
BRANCH   16   15
ATOM    103  H14 UNL A   1      18.527  29.126  44.921  1.00  0.00    +0.000 H 
ATOM     15  C12 UNL A   1      17.773  29.320  44.187  1.00  0.00    +0.000 C 
ATOM    104  H15 UNL A   1      16.795  29.427  44.606  1.00  0.00    +0.000 H 
BRANCH   15   14
ATOM    102  H13 UNL A   1      18.661  27.632  43.259  1.00  0.00    +0.000 H 
ATOM    101  H12 UNL A   1      17.471  28.465  42.261  1.00  0.00    +0.000 H 
ATOM     14  C11 UNL A   1      17.709  28.121  43.245  1.00  0.00    +0.000 C 
BRANCH   14   13
ATOM    100  H11 UNL A   1      17.037  26.420  44.213  1.00  0.00    +0.000 H 
ATOM     13  N1  UNL A   1      16.703  27.167  43.665  1.00  0.00    +0.000 N 
BRANCH   13   11
ATOM     11  C10 UNL A   1      15.364  27.149  43.414  1.00  0.00    +0.000 C 
ATOM     12  O2  UNL A   1      14.752  28.217  43.525  1.00  0.00    +0.000 O 
BRANCH   11    9
ATOM      9  C8  UNL A   1      14.631  25.868  42.997  1.00  0.00    +0.000 C 
ATOM     96  H7  UNL A   1      15.184  25.009  43.319  1.00  0.00    +0.000 H 
BRANCH    9    8
ATOM    129  H40 UNL A   1      14.989  27.275  38.549  1.00  0.00    +0.000 H 
ATOM    130  H41 UNL A   1      15.071  25.688  36.669  1.00  0.00    +0.000 H 
ATOM      3  C2  UNL A   1      14.763  23.612  36.843  1.00  0.00    +0.000 C 
ATOM      4  C3  UNL A   1      14.559  22.553  37.725  1.00  0.00    +0.000 C 
ATOM      5  C4  UNL A   1      14.463  22.803  39.095  1.00  0.00    +0.000 C 
ATOM      6  C5  UNL A   1      14.572  24.110  39.596  1.00  0.00    +0.000 C 
ATOM      7  C6  UNL A   1      14.504  24.376  40.974  1.00  0.00    +0.000 C 
ATOM      8  C7  UNL A   1      14.621  25.684  41.485  1.00  0.00    +0.000 C 
ATOM     86  C62 UNL A   1      14.760  26.737  40.574  1.00  0.00    +0.000 C 
ATOM     87  C63 UNL A   1      14.856  26.487  39.201  1.00  0.00    +0.000 C 
ATOM     88  C64 UNL A   1      14.775  25.180  38.700  1.00  0.00    +0.000 C 
ATOM     89  C65 UNL A   1      14.890  24.914  37.326  1.00  0.00    +0.000 C 
ATOM     93  H4  UNL A   1      14.481  21.589  37.367  1.00  0.00    +0.000 H 
ATOM     94  H5  UNL A   1      14.309  22.018  39.748  1.00  0.00    +0.000 H 
ATOM     95  H6  UNL A   1      14.365  23.592  41.630  1.00  0.00    +0.000 H 
ATOM    128  H39 UNL A   1      14.793  27.709  40.920  1.00  0.00    +0.000 H 
BRANCH    3    2
ATOM      2  O1  UNL A   1      14.916  23.436  35.495  1.00  0.00    +0.000 O 
BRANCH    2    1
ATOM      1  C1  UNL A   1      16.212  23.820  35.042  1.00  0.00    +0.000 C 
ATOM     90  H1  UNL A   1      16.940  23.130  35.415  1.00  0.00    +0.000 H 
ATOM     91  H2  UNL A   1      16.438  24.803  35.398  1.00  0.00    +0.000 H 
ATOM     92  H3  UNL A   1      16.231  23.815  33.972  1.00  0.00    +0.000 H 
ENDBRANCH    2    1
ENDBRANCH    3    2
ENDBRANCH    9    8
BRANCH    9   10
ATOM     97  H8  UNL A   1      12.853  26.669  43.881  1.00  0.00    +0.000 H 
ATOM     10  C9  UNL A   1      13.307  25.709  43.752  1.00  0.00    +0.000 C 
ATOM     99  H10 UNL A   1      12.651  25.076  43.192  1.00  0.00    +0.000 H 
ATOM     98  H9  UNL A   1      13.494  25.271  44.710  1.00  0.00    +0.000 H 
ENDBRANCH    9   10
ENDBRANCH   11    9
ENDBRANCH   13   11
ENDBRANCH   14   13
ENDBRANCH   15   14
ENDBRANCH   16   15
ENDBRANCH   17   16
ENDBRANCH   18   17
ENDBRANCH   19   18
ENDBRANCH   20   19
ENDBRANCH   21   20
ENDBRANCH   23   21
ENDBRANCH   27   26
BRANCH   31   32
ATOM     33  C27 UNL A   1      25.094  42.363  48.710  1.00  0.00    +0.000 C 
ATOM     34  F1  UNL A   1      25.239  42.739  47.431  1.00  0.00    +0.000 F 
ATOM     35  C28 UNL A   1      24.244  43.097  49.532  1.00  0.00    +0.000 C 
ATOM     36  F2  UNL A   1      23.595  44.163  49.043  1.00  0.00    +0.000 F 
ATOM     37  C29 UNL A   1      24.068  42.729  50.858  1.00  0.00    +0.000 C 
ATOM     38  F3  UNL A   1      23.237  43.427  51.645  1.00  0.00    +0.000 F 
ATOM     39  C30 UNL A   1      24.759  41.641  51.370  1.00  0.00    +0.000 C 
ATOM     40  F4  UNL A   1      24.580  41.276  52.647  1.00  0.00    +0.000 F 
ATOM     41  C31 UNL A   1      25.631  40.921  50.557  1.00  0.00    +0.000 C 
ATOM     42  F5  UNL A   1      26.288  39.877  51.082  1.00  0.00    +0.000 F 
ATOM     32  C26 UNL A   1      25.810  41.266  49.209  1.00  0.00    +0.000 C 
ENDBRANCH   31   32
BRANCH   48   49
ATOM     49  C37 UNL A   1      32.685  41.132  47.072  1.00  0.00    +0.000 C 
ATOM     50  C38 UNL A   1      33.668  40.617  47.929  1.00  0.00    +0.000 C 
ATOM     51  F6  UNL A   1      33.472  39.446  48.554  1.00  0.00    +0.000 F 
ATOM     52  C39 UNL A   1      34.839  41.326  48.180  1.00  0.00    +0.000 C 
ATOM     53  F7  UNL A   1      35.743  40.840  49.042  1.00  0.00    +0.000 F 
ATOM     54  C40 UNL A   1      35.065  42.544  47.554  1.00  0.00    +0.000 C 
ATOM     55  F8  UNL A   1      36.195  43.222  47.794  1.00  0.00    +0.000 F 
ATOM     56  C41 UNL A   1      34.117  43.060  46.685  1.00  0.00    +0.000 C 
ATOM     57  F9  UNL A   1      34.338  44.229  46.069  1.00  0.00    +0.000 F 
ATOM     58  C42 UNL A   1      32.931  42.368  46.455  1.00  0.00    +0.000 C 
ATOM     59  F10 UNL A   1      32.024  42.900  45.621  1.00  0.00    +0.000 F 
ENDBRANCH   48   49
BRANCH   63   64
ATOM     65  C47 UNL A   1      31.350  36.102  41.596  1.00  0.00    +0.000 C 
ATOM     66  F11 UNL A   1      30.716  37.202  41.164  1.00  0.00    +0.000 F 
ATOM     67  C48 UNL A   1      32.056  35.329  40.678  1.00  0.00    +0.000 C 
ATOM     68  F12 UNL A   1      32.087  35.687  39.388  1.00  0.00    +0.000 F 
ATOM     69  C49 UNL A   1      32.703  34.175  41.095  1.00  0.00    +0.000 C 
ATOM     70  F13 UNL A   1      33.376  33.427  40.210  1.00  0.00    +0.000 F 
ATOM     71  C50 UNL A   1      32.639  33.790  42.426  1.00  0.00    +0.000 C 
ATOM     72  F14 UNL A   1      33.273  32.683  42.832  1.00  0.00    +0.000 F 
ATOM     73  C51 UNL A   1      31.907  34.548  43.338  1.00  0.00    +0.000 C 
ATOM     74  F15 UNL A   1      31.844  34.139  44.614  1.00  0.00    +0.000 F 
ATOM     64  C46 UNL A   1      31.246  35.719  42.941  1.00  0.00    +0.000 C 
ENDBRANCH   63   64
TORSDOF 19
ENDMDL
MODEL 8
REMARK VINA RESULT:      -9.9     37.103     43.843
ROOT
ATOM     27  C22 UNL A   1       0.960  10.072  37.124  1.00  0.00    +0.000 C 
ATOM     28  C23 UNL A   1       1.108  11.359  37.887  1.00  0.00    +0.000 C 
ATOM     29  N3  UNL A   1       0.224  12.302  38.101  1.00  0.00    +0.000 N 
ATOM     30  C24 UNL A   1       0.858  13.243  38.902  1.00  0.00    +0.000 C 
ATOM     31  C25 UNL A   1       0.381  14.427  39.354  1.00  0.00    +0.000 C 
ATOM     43  C32 UNL A   1      -0.927  14.945  39.048  1.00  0.00    +0.000 C 
ATOM     44  C33 UNL A   1      -1.475  16.166  39.403  1.00  0.00    +0.000 C 
ATOM     45  C34 UNL A   1      -2.783  16.218  38.911  1.00  0.00    +0.000 C 
ATOM     46  C35 UNL A   1      -3.032  15.049  38.210  1.00  0.00    +0.000 C 
ATOM     47  N4  UNL A   1      -1.888  14.274  38.309  1.00  0.00    +0.000 N 
ATOM     48  C36 UNL A   1      -4.225  14.668  37.501  1.00  0.00    +0.000 C 
ATOM     60  C43 UNL A   1      -4.400  13.490  36.855  1.00  0.00    +0.000 C 
ATOM     61  N5  UNL A   1      -3.511  12.434  36.708  1.00  0.00    +0.000 N 
ATOM     62  C44 UNL A   1      -4.145  11.522  36.014  1.00  0.00    +0.000 C 
ATOM     63  C45 UNL A   1      -3.653  10.187  35.521  1.00  0.00    +0.000 C 
ATOM     75  C52 UNL A   1      -2.383   9.820  35.774  1.00  0.00    +0.000 C 
ATOM     76  C53 UNL A   1      -1.760   8.571  35.347  1.00  0.00    +0.000 C 
ATOM     77  C54 UNL A   1      -0.499   8.531  35.805  1.00  0.00    +0.000 C 
ATOM     78  C55 UNL A   1      -0.213   9.769  36.533  1.00  0.00    +0.000 C 
ATOM     79  N6  UNL A   1      -1.389  10.475  36.461  1.00  0.00    +0.000 N 
ATOM     80  C56 UNL A   1      -5.530  11.883  35.676  1.00  0.00    +0.000 C 
ATOM     81  C57 UNL A   1      -5.616  13.110  36.169  1.00  0.00    +0.000 C 
ATOM     82  C58 UNL A   1       2.188  12.741  39.172  1.00  0.00    +0.000 C 
ATOM     83  C59 UNL A   1       2.414  11.611  38.517  1.00  0.00    +0.000 C 
ATOM    116  H27 UNL A   1      -1.000  16.910  39.939  1.00  0.00    +0.000 H 
ATOM    117  H28 UNL A   1      -3.449  16.994  39.048  1.00  0.00    +0.000 H 
ATOM    118  H29 UNL A   1      -1.775  13.380  37.914  1.00  0.00    +0.000 H 
ATOM    119  H30 UNL A   1      -2.217   7.836  34.784  1.00  0.00    +0.000 H 
ATOM    120  H31 UNL A   1       0.164   7.752  35.666  1.00  0.00    +0.000 H 
ATOM    121  H32 UNL A   1      -1.508  11.365  36.864  1.00  0.00    +0.000 H 
ATOM    122  H33 UNL A   1      -6.246  11.328  35.183  1.00  0.00    +0.000 H 
ATOM    123  H34 UNL A   1      -6.446  13.716  36.076  1.00  0.00    +0.000 H 
ATOM    124  H35 UNL A   1       2.871  13.202  39.794  1.00  0.00    +0.000 H 
ATOM    125  H36 UNL A   1       3.280  11.053  38.462  1.00  0.00    +0.000 H 
ENDROOT
BRANCH   27   26
ATOM    114  H25 UNL A   1       4.787   8.301  35.228  1.00  0.00    +0.000 H 
ATOM    115  H26 UNL A   1       3.019   9.958  35.368  1.00  0.00    +0.000 H 
ATOM     84  C60 UNL A   1       2.185   8.087  38.026  1.00  0.00    +0.000 C 
ATOM     85  C61 UNL A   1       3.245   7.183  37.990  1.00  0.00    +0.000 C 
ATOM     23  C18 UNL A   1       4.164   7.226  36.938  1.00  0.00    +0.000 C 
ATOM     24  C19 UNL A   1       4.087   8.247  35.985  1.00  0.00    +0.000 C 
ATOM     25  C20 UNL A   1       3.060   9.191  36.057  1.00  0.00    +0.000 C 
ATOM     26  C21 UNL A   1       2.085   9.104  37.064  1.00  0.00    +0.000 C 
ATOM    126  H37 UNL A   1       1.468   8.009  38.765  1.00  0.00    +0.000 H 
ATOM    127  H38 UNL A   1       3.352   6.482  38.740  1.00  0.00    +0.000 H 
BRANCH   23   21
ATOM     21  C17 UNL A   1       5.249   6.227  36.818  1.00  0.00    +0.000 C 
ATOM     22  O3  UNL A   1       5.095   5.248  36.093  1.00  0.00    +0.000 O 
BRANCH   21   20
ATOM    113  H24 UNL A   1       7.168   5.828  37.218  1.00  0.00    +0.000 H 
ATOM     20  N2  UNL A   1       6.412   6.379  37.528  1.00  0.00    +0.000 N 
BRANCH   20   19
ATOM     19  C16 UNL A   1       6.693   7.233  38.668  1.00  0.00    +0.000 C 
ATOM    111  H22 UNL A   1       5.776   7.435  39.181  1.00  0.00    +0.000 H 
ATOM    112  H23 UNL A   1       7.390   6.717  39.295  1.00  0.00    +0.000 H 
BRANCH   19   18
ATOM     18  C15 UNL A   1       7.329   8.560  38.264  1.00  0.00    +0.000 C 
ATOM    109  H20 UNL A   1       8.182   8.722  38.890  1.00  0.00    +0.000 H 
ATOM    110  H21 UNL A   1       7.571   8.467  37.226  1.00  0.00    +0.000 H 
BRANCH   18   17
ATOM     17  C14 UNL A   1       6.418   9.784  38.379  1.00  0.00    +0.000 C 
ATOM    107  H18 UNL A   1       6.925  10.615  37.934  1.00  0.00    +0.000 H 
ATOM    108  H19 UNL A   1       5.507   9.519  37.885  1.00  0.00    +0.000 H 
BRANCH   17   16
ATOM    105  H16 UNL A   1       6.550   9.549  40.484  1.00  0.00    +0.000 H 
ATOM    106  H17 UNL A   1       6.268  11.219  39.901  1.00  0.00    +0.000 H 
ATOM     16  C13 UNL A   1       6.021  10.183  39.804  1.00  0.00    +0.000 C 
BRANCH   16   15
ATOM    103  H14 UNL A   1       4.010  10.824  39.559  1.00  0.00    +0.000 H 
ATOM     15  C12 UNL A   1       4.526  10.076  40.123  1.00  0.00    +0.000 C 
ATOM    104  H15 UNL A   1       4.234   9.079  39.867  1.00  0.00    +0.000 H 
BRANCH   15   14
ATOM    102  H13 UNL A   1       4.487   9.390  42.129  1.00  0.00    +0.000 H 
ATOM    101  H12 UNL A   1       3.118  10.408  41.684  1.00  0.00    +0.000 H 
ATOM     14  C11 UNL A   1       4.174  10.264  41.595  1.00  0.00    +0.000 C 
BRANCH   14   13
ATOM    100  H11 UNL A   1       5.793  11.256  42.416  1.00  0.00    +0.000 H 
ATOM     13  N1  UNL A   1       4.854  11.409  42.164  1.00  0.00    +0.000 N 
BRANCH   13   11
ATOM     11  C10 UNL A   1       4.387  12.667  42.402  1.00  0.00    +0.000 C 
ATOM     12  O2  UNL A   1       3.246  12.771  42.864  1.00  0.00    +0.000 O 
BRANCH   11    9
ATOM      9  C8  UNL A   1       5.235  13.916  42.124  1.00  0.00    +0.000 C 
ATOM     96  H7  UNL A   1       4.599  14.765  41.981  1.00  0.00    +0.000 H 
BRANCH    9    8
ATOM    129  H40 UNL A   1       8.905  13.212  39.308  1.00  0.00    +0.000 H 
ATOM    130  H41 UNL A   1       8.676  13.060  36.861  1.00  0.00    +0.000 H 
ATOM      3  C2  UNL A   1       6.900  13.453  35.800  1.00  0.00    +0.000 C 
ATOM      4  C3  UNL A   1       5.544  13.752  35.905  1.00  0.00    +0.000 C 
ATOM      5  C4  UNL A   1       4.972  13.931  37.167  1.00  0.00    +0.000 C 
ATOM      6  C5  UNL A   1       5.746  13.809  38.331  1.00  0.00    +0.000 C 
ATOM      7  C6  UNL A   1       5.181  13.960  39.609  1.00  0.00    +0.000 C 
ATOM      8  C7  UNL A   1       5.950  13.831  40.781  1.00  0.00    +0.000 C 
ATOM     86  C62 UNL A   1       7.322  13.594  40.646  1.00  0.00    +0.000 C 
ATOM     87  C63 UNL A   1       7.896  13.415  39.383  1.00  0.00    +0.000 C 
ATOM     88  C64 UNL A   1       7.120  13.509  38.220  1.00  0.00    +0.000 C 
ATOM     89  C65 UNL A   1       7.680  13.313  36.948  1.00  0.00    +0.000 C 
ATOM     93  H4  UNL A   1       4.965  13.841  35.056  1.00  0.00    +0.000 H 
ATOM     94  H5  UNL A   1       3.967  14.156  37.244  1.00  0.00    +0.000 H 
ATOM     95  H6  UNL A   1       4.174  14.170  39.689  1.00  0.00    +0.000 H 
ATOM    128  H39 UNL A   1       7.917  13.550  41.489  1.00  0.00    +0.000 H 
BRANCH    3    2
ATOM      2  O1  UNL A   1       7.517  13.217  34.602  1.00  0.00    +0.000 O 
BRANCH    2    1
ATOM      1  C1  UNL A   1       6.831  13.825  33.510  1.00  0.00    +0.000 C 
ATOM     90  H1  UNL A   1       7.539  14.309  32.870  1.00  0.00    +0.000 H 
ATOM     91  H2  UNL A   1       6.136  14.547  33.883  1.00  0.00    +0.000 H 
ATOM     92  H3  UNL A   1       6.305  13.074  32.958  1.00  0.00    +0.000 H 
ENDBRANCH    2    1
ENDBRANCH    3    2
ENDBRANCH    9    8
BRANCH    9   10
ATOM     97  H8  UNL A   1       5.581  13.947  44.236  1.00  0.00    +0.000 H 
ATOM     10  C9  UNL A   1       6.054  14.320  43.353  1.00  0.00    +0.000 C 
ATOM     99  H10 UNL A   1       7.040  13.910  43.276  1.00  0.00    +0.000 H 
ATOM     98  H9  UNL A   1       6.115  15.387  43.405  1.00  0.00    +0.000 H 
ENDBRANCH    9   10
ENDBRANCH   11    9
ENDBRANCH   13   11
ENDBRANCH   14   13
ENDBRANCH   15   14
ENDBRANCH   16   15
ENDBRANCH   17   16
ENDBRANCH   18   17
ENDBRANCH   19   18
ENDBRANCH   20   19
ENDBRANCH   21   20
ENDBRANCH   23   21
ENDBRANCH   27   26
BRANCH   31   32
ATOM     33  C27 UNL A   1       2.215  16.148  39.674  1.00  0.00    +0.000 C 
ATOM     34  F1  UNL A   1       2.382  16.217  38.345  1.00  0.00    +0.000 F 
ATOM     35  C28 UNL A   1       3.003  16.952  40.492  1.00  0.00    +0.000 C 
ATOM     36  F2  UNL A   1       3.916  17.769  39.947  1.00  0.00    +0.000 F 
ATOM     37  C29 UNL A   1       2.850  16.907  41.870  1.00  0.00    +0.000 C 
ATOM     38  F3  UNL A   1       3.598  17.694  42.656  1.00  0.00    +0.000 F 
ATOM     39  C30 UNL A   1       1.922  16.043  42.434  1.00  0.00    +0.000 C 
ATOM     40  F4  UNL A   1       1.763  16.009  43.764  1.00  0.00    +0.000 F 
ATOM     41  C31 UNL A   1       1.151  15.217  41.619  1.00  0.00    +0.000 C 
ATOM     42  F5  UNL A   1       0.267  14.389  42.194  1.00  0.00    +0.000 F 
ATOM     32  C26 UNL A   1       1.279  15.259  40.223  1.00  0.00    +0.000 C 
ENDBRANCH   31   32
BRANCH   48   49
ATOM     49  C37 UNL A   1      -5.353  15.657  37.446  1.00  0.00    +0.000 C 
ATOM     50  C38 UNL A   1      -5.576  16.461  36.320  1.00  0.00    +0.000 C 
ATOM     51  F6  UNL A   1      -4.749  16.391  35.266  1.00  0.00    +0.000 F 
ATOM     52  C39 UNL A   1      -6.628  17.371  36.290  1.00  0.00    +0.000 C 
ATOM     53  F7  UNL A   1      -6.793  18.167  35.223  1.00  0.00    +0.000 F 
ATOM     54  C40 UNL A   1      -7.496  17.471  37.368  1.00  0.00    +0.000 C 
ATOM     55  F8  UNL A   1      -8.510  18.346  37.334  1.00  0.00    +0.000 F 
ATOM     56  C41 UNL A   1      -7.307  16.669  38.482  1.00  0.00    +0.000 C 
ATOM     57  F9  UNL A   1      -8.151  16.754  39.520  1.00  0.00    +0.000 F 
ATOM     58  C42 UNL A   1      -6.239  15.778  38.529  1.00  0.00    +0.000 C 
ATOM     59  F10 UNL A   1      -6.072  15.027  39.627  1.00  0.00    +0.000 F 
ENDBRANCH   48   49
BRANCH   63   64
ATOM     65  C47 UNL A   1      -4.648   9.422  33.344  1.00  0.00    +0.000 C 
ATOM     66  F11 UNL A   1      -3.921  10.349  32.702  1.00  0.00    +0.000 F 
ATOM     67  C48 UNL A   1      -5.535   8.637  32.611  1.00  0.00    +0.000 C 
ATOM     68  F12 UNL A   1      -5.653   8.821  31.289  1.00  0.00    +0.000 F 
ATOM     69  C49 UNL A   1      -6.314   7.686  33.252  1.00  0.00    +0.000 C 
ATOM     70  F13 UNL A   1      -7.172   6.936  32.548  1.00  0.00    +0.000 F 
ATOM     71  C50 UNL A   1      -6.211   7.523  34.626  1.00  0.00    +0.000 C 
ATOM     72  F14 UNL A   1      -6.954   6.596  35.246  1.00  0.00    +0.000 F 
ATOM     73  C51 UNL A   1      -5.346   8.329  35.363  1.00  0.00    +0.000 C 
ATOM     74  F15 UNL A   1      -5.285   8.165  36.693  1.00  0.00    +0.000 F 
ATOM     64  C46 UNL A   1      -4.548   9.297  34.737  1.00  0.00    +0.000 C 
ENDBRANCH   63   64
TORSDOF 19
ENDMDL
MODEL 9
REMARK VINA RESULT:      -9.9      1.898      4.146
ROOT
ATOM     27  C22 UNL A   1      39.271  29.380  30.038  1.00  0.00    +0.000 C 
ATOM     28  C23 UNL A   1      39.855  29.982  31.286  1.00  0.00    +0.000 C 
ATOM     29  N3  UNL A   1      40.974  29.688  31.901  1.00  0.00    +0.000 N 
ATOM     30  C24 UNL A   1      41.062  30.570  32.970  1.00  0.00    +0.000 C 
ATOM     31  C25 UNL A   1      42.010  30.637  33.935  1.00  0.00    +0.000 C 
ATOM     43  C32 UNL A   1      43.137  29.745  34.029  1.00  0.00    +0.000 C 
ATOM     44  C33 UNL A   1      44.113  29.691  35.008  1.00  0.00    +0.000 C 
ATOM     45  C34 UNL A   1      45.022  28.685  34.664  1.00  0.00    +0.000 C 
ATOM     46  C35 UNL A   1      44.586  28.083  33.495  1.00  0.00    +0.000 C 
ATOM     47  N4  UNL A   1      43.433  28.749  33.112  1.00  0.00    +0.000 N 
ATOM     48  C36 UNL A   1      45.176  26.982  32.781  1.00  0.00    +0.000 C 
ATOM     60  C43 UNL A   1      44.697  26.462  31.625  1.00  0.00    +0.000 C 
ATOM     61  N5  UNL A   1      43.570  26.830  30.902  1.00  0.00    +0.000 N 
ATOM     62  C44 UNL A   1      43.539  26.041  29.857  1.00  0.00    +0.000 C 
ATOM     63  C45 UNL A   1      42.515  25.961  28.755  1.00  0.00    +0.000 C 
ATOM     75  C52 UNL A   1      41.442  26.772  28.795  1.00  0.00    +0.000 C 
ATOM     76  C53 UNL A   1      40.362  26.798  27.813  1.00  0.00    +0.000 C 
ATOM     77  C54 UNL A   1      39.481  27.751  28.155  1.00  0.00    +0.000 C 
ATOM     78  C55 UNL A   1      39.919  28.385  29.401  1.00  0.00    +0.000 C 
ATOM     79  N6  UNL A   1      41.091  27.738  29.707  1.00  0.00    +0.000 N 
ATOM     80  C56 UNL A   1      44.670  25.106  29.778  1.00  0.00    +0.000 C 
ATOM     81  C57 UNL A   1      45.317  25.371  30.904  1.00  0.00    +0.000 C 
ATOM     82  C58 UNL A   1      39.906  31.438  32.899  1.00  0.00    +0.000 C 
ATOM     83  C59 UNL A   1      39.097  31.075  31.914  1.00  0.00    +0.000 C 
ATOM    116  H27 UNL A   1      44.163  30.288  35.848  1.00  0.00    +0.000 H 
ATOM    117  H28 UNL A   1      45.874  28.435  35.191  1.00  0.00    +0.000 H 
ATOM    118  H29 UNL A   1      42.903  28.545  32.308  1.00  0.00    +0.000 H 
ATOM    119  H30 UNL A   1      40.288  26.181  26.988  1.00  0.00    +0.000 H 
ATOM    120  H31 UNL A   1      38.631  27.998  27.625  1.00  0.00    +0.000 H 
ATOM    121  H32 UNL A   1      41.628  27.947  30.505  1.00  0.00    +0.000 H 
ATOM    122  H33 UNL A   1      44.900  24.421  29.041  1.00  0.00    +0.000 H 
ATOM    123  H34 UNL A   1      46.157  24.865  31.225  1.00  0.00    +0.000 H 
ATOM    124  H35 UNL A   1      39.734  32.234  33.533  1.00  0.00    +0.000 H 
ATOM    125  H36 UNL A   1      38.176  31.459  31.655  1.00  0.00    +0.000 H 
ENDROOT
BRANCH   27   26
ATOM    114  H25 UNL A   1      34.709  29.281  29.290  1.00  0.00    +0.000 H 
ATOM    115  H26 UNL A   1      36.744  28.447  30.316  1.00  0.00    +0.000 H 
ATOM     84  C60 UNL A   1      38.033  31.080  28.684  1.00  0.00    +0.000 C 
ATOM     85  C61 UNL A   1      36.851  31.603  28.159  1.00  0.00    +0.000 C 
ATOM     23  C18 UNL A   1      35.647  30.917  28.333  1.00  0.00    +0.000 C 
ATOM     24  C19 UNL A   1      35.606  29.769  29.130  1.00  0.00    +0.000 C 
ATOM     25  C20 UNL A   1      36.780  29.280  29.708  1.00  0.00    +0.000 C 
ATOM     26  C21 UNL A   1      38.008  29.917  29.469  1.00  0.00    +0.000 C 
ATOM    126  H37 UNL A   1      38.931  31.551  28.494  1.00  0.00    +0.000 H 
ATOM    127  H38 UNL A   1      36.867  32.496  27.642  1.00  0.00    +0.000 H 
BRANCH   23   21
ATOM     21  C17 UNL A   1      34.390  31.393  27.715  1.00  0.00    +0.000 C 
ATOM     22  O3  UNL A   1      34.003  32.539  27.930  1.00  0.00    +0.000 O 
BRANCH   21   20
ATOM    113  H24 UNL A   1      34.146  29.815  26.508  1.00  0.00    +0.000 H 
ATOM     20  N2  UNL A   1      33.646  30.556  26.923  1.00  0.00    +0.000 N 
BRANCH   20   19
ATOM     19  C16 UNL A   1      32.230  30.601  26.606  1.00  0.00    +0.000 C 
ATOM    111  H22 UNL A   1      31.671  30.546  27.518  1.00  0.00    +0.000 H 
ATOM    112  H23 UNL A   1      32.043  31.518  26.086  1.00  0.00    +0.000 H 
BRANCH   19   18
ATOM     18  C15 UNL A   1      31.795  29.456  25.697  1.00  0.00    +0.000 C 
ATOM    109  H20 UNL A   1      30.725  29.439  25.675  1.00  0.00    +0.000 H 
ATOM    110  H21 UNL A   1      32.239  29.652  24.743  1.00  0.00    +0.000 H 
BRANCH   18   17
ATOM     17  C14 UNL A   1      32.283  28.067  26.114  1.00  0.00    +0.000 C 
ATOM    107  H18 UNL A   1      32.764  27.620  25.270  1.00  0.00    +0.000 H 
ATOM    108  H19 UNL A   1      32.931  28.223  26.951  1.00  0.00    +0.000 H 
BRANCH   17   16
ATOM    105  H16 UNL A   1      31.539  26.649  27.508  1.00  0.00    +0.000 H 
ATOM    106  H17 UNL A   1      30.312  27.691  26.725  1.00  0.00    +0.000 H 
ATOM     16  C13 UNL A   1      31.196  27.102  26.602  1.00  0.00    +0.000 C 
BRANCH   16   15
ATOM    103  H14 UNL A   1      31.723  25.633  25.161  1.00  0.00    +0.000 H 
ATOM     15  C12 UNL A   1      30.825  25.983  25.625  1.00  0.00    +0.000 C 
ATOM    104  H15 UNL A   1      30.327  25.232  26.201  1.00  0.00    +0.000 H 
BRANCH   15   14
ATOM    102  H13 UNL A   1      29.528  27.397  24.721  1.00  0.00    +0.000 H 
ATOM    101  H12 UNL A   1      29.024  25.720  24.521  1.00  0.00    +0.000 H 
ATOM     14  C11 UNL A   1      29.852  26.396  24.524  1.00  0.00    +0.000 C 
BRANCH   14   13
ATOM    100  H11 UNL A   1      30.346  25.545  22.703  1.00  0.00    +0.000 H 
ATOM     13  N1  UNL A   1      30.482  26.372  23.220  1.00  0.00    +0.000 N 
BRANCH   13   11
ATOM     11  C10 UNL A   1      31.235  27.325  22.602  1.00  0.00    +0.000 C 
ATOM     12  O2  UNL A   1      30.689  28.405  22.349  1.00  0.00    +0.000 O 
BRANCH   11    9
ATOM      9  C8  UNL A   1      32.707  27.090  22.237  1.00  0.00    +0.000 C 
ATOM     96  H7  UNL A   1      32.811  27.001  21.176  1.00  0.00    +0.000 H 
BRANCH    9    8
ATOM    129  H40 UNL A   1      33.411  22.476  21.904  1.00  0.00    +0.000 H 
ATOM    130  H41 UNL A   1      34.839  21.244  23.487  1.00  0.00    +0.000 H 
ATOM      3  C2  UNL A   1      35.673  22.070  25.235  1.00  0.00    +0.000 C 
ATOM      4  C3  UNL A   1      35.851  23.232  25.982  1.00  0.00    +0.000 C 
ATOM      5  C4  UNL A   1      35.275  24.428  25.549  1.00  0.00    +0.000 C 
ATOM      6  C5  UNL A   1      34.519  24.474  24.367  1.00  0.00    +0.000 C 
ATOM      7  C6  UNL A   1      33.953  25.674  23.903  1.00  0.00    +0.000 C 
ATOM      8  C7  UNL A   1      33.201  25.729  22.714  1.00  0.00    +0.000 C 
ATOM     86  C62 UNL A   1      32.982  24.536  22.016  1.00  0.00    +0.000 C 
ATOM     87  C63 UNL A   1      33.560  23.338  22.450  1.00  0.00    +0.000 C 
ATOM     88  C64 UNL A   1      34.338  23.294  23.615  1.00  0.00    +0.000 C 
ATOM     89  C65 UNL A   1      34.939  22.103  24.050  1.00  0.00    +0.000 C 
ATOM     93  H4  UNL A   1      36.408  23.209  26.851  1.00  0.00    +0.000 H 
ATOM     94  H5  UNL A   1      35.404  25.288  26.105  1.00  0.00    +0.000 H 
ATOM     95  H6  UNL A   1      34.094  26.538  24.449  1.00  0.00    +0.000 H 
ATOM    128  H39 UNL A   1      32.389  24.541  21.172  1.00  0.00    +0.000 H 
BRANCH    3    2
ATOM      2  O1  UNL A   1      36.249  20.876  25.572  1.00  0.00    +0.000 O 
BRANCH    2    1
ATOM      1  C1  UNL A   1      37.479  20.654  24.886  1.00  0.00    +0.000 C 
ATOM     90  H1  UNL A   1      38.293  20.747  25.574  1.00  0.00    +0.000 H 
ATOM     91  H2  UNL A   1      37.588  21.379  24.106  1.00  0.00    +0.000 H 
ATOM     92  H3  UNL A   1      37.479  19.671  24.463  1.00  0.00    +0.000 H 
ENDBRANCH    2    1
ENDBRANCH    3    2
ENDBRANCH    9    8
BRANCH    9   10
ATOM     97  H8  UNL A   1      33.657  28.427  23.612  1.00  0.00    +0.000 H 
ATOM     10  C9  UNL A   1      33.565  28.319  22.552  1.00  0.00    +0.000 C 
ATOM     99  H10 UNL A   1      34.537  28.196  22.121  1.00  0.00    +0.000 H 
ATOM     98  H9  UNL A   1      33.101  29.191  22.143  1.00  0.00    +0.000 H 
ENDBRANCH    9   10
ENDBRANCH   11    9
ENDBRANCH   13   11
ENDBRANCH   14   13
ENDBRANCH   15   14
ENDBRANCH   16   15
ENDBRANCH   17   16
ENDBRANCH   18   17
ENDBRANCH   19   18
ENDBRANCH   20   19
ENDBRANCH   21   20
ENDBRANCH   23   21
ENDBRANCH   27   26
BRANCH   31   32
ATOM     33  C27 UNL A   1      42.595  32.904  34.905  1.00  0.00    +0.000 C 
ATOM     34  F1  UNL A   1      43.490  33.092  33.924  1.00  0.00    +0.000 F 
ATOM     35  C28 UNL A   1      42.418  33.907  35.853  1.00  0.00    +0.000 C 
ATOM     36  F2  UNL A   1      43.144  35.032  35.780  1.00  0.00    +0.000 F 
ATOM     37  C29 UNL A   1      41.496  33.744  36.876  1.00  0.00    +0.000 C 
ATOM     38  F3  UNL A   1      41.315  34.718  37.780  1.00  0.00    +0.000 F 
ATOM     39  C30 UNL A   1      40.763  32.570  36.965  1.00  0.00    +0.000 C 
ATOM     40  F4  UNL A   1      39.862  32.417  37.945  1.00  0.00    +0.000 F 
ATOM     41  C31 UNL A   1      40.958  31.553  36.034  1.00  0.00    +0.000 C 
ATOM     42  F5  UNL A   1      40.238  30.427  36.149  1.00  0.00    +0.000 F 
ATOM     32  C26 UNL A   1      41.873  31.704  34.981  1.00  0.00    +0.000 C 
ENDBRANCH   31   32
BRANCH   48   49
ATOM     49  C37 UNL A   1      46.397  26.338  33.371  1.00  0.00    +0.000 C 
ATOM     50  C38 UNL A   1      46.307  25.246  34.245  1.00  0.00    +0.000 C 
ATOM     51  F6  UNL A   1      45.106  24.771  34.610  1.00  0.00    +0.000 F 
ATOM     52  C39 UNL A   1      47.452  24.664  34.781  1.00  0.00    +0.000 C 
ATOM     53  F7  UNL A   1      47.341  23.653  35.655  1.00  0.00    +0.000 F 
ATOM     54  C40 UNL A   1      48.706  25.139  34.428  1.00  0.00    +0.000 C 
ATOM     55  F8  UNL A   1      49.807  24.575  34.942  1.00  0.00    +0.000 F 
ATOM     56  C41 UNL A   1      48.819  26.203  33.547  1.00  0.00    +0.000 C 
ATOM     57  F9  UNL A   1      50.030  26.656  33.195  1.00  0.00    +0.000 F 
ATOM     58  C42 UNL A   1      47.676  26.808  33.032  1.00  0.00    +0.000 C 
ATOM     59  F10 UNL A   1      47.815  27.846  32.195  1.00  0.00    +0.000 F 
ENDBRANCH   48   49
BRANCH   63   64
ATOM     65  C47 UNL A   1      42.079  23.709  27.729  1.00  0.00    +0.000 C 
ATOM     66  F11 UNL A   1      41.352  23.376  28.806  1.00  0.00    +0.000 F 
ATOM     67  C48 UNL A   1      42.277  22.758  26.731  1.00  0.00    +0.000 C 
ATOM     68  F12 UNL A   1      41.749  21.534  26.861  1.00  0.00    +0.000 F 
ATOM     69  C49 UNL A   1      43.042  23.070  25.617  1.00  0.00    +0.000 C 
ATOM     70  F13 UNL A   1      43.238  22.153  24.660  1.00  0.00    +0.000 F 
ATOM     71  C50 UNL A   1      43.614  24.328  25.504  1.00  0.00    +0.000 C 
ATOM     72  F14 UNL A   1      44.343  24.636  24.423  1.00  0.00    +0.000 F 
ATOM     73  C51 UNL A   1      43.441  25.269  26.517  1.00  0.00    +0.000 C 
ATOM     74  F15 UNL A   1      44.025  26.470  26.391  1.00  0.00    +0.000 F 
ATOM     64  C46 UNL A   1      42.671  24.977  27.652  1.00  0.00    +0.000 C 
ENDBRANCH   63   64
TORSDOF 19
ENDMDL
MODEL 10
REMARK VINA RESULT:      -9.9     17.468     22.718
ROOT
ATOM     27  C22 UNL A   1      25.917  36.120  45.577  1.00  0.00    +0.000 C 
ATOM     28  C23 UNL A   1      25.810  37.287  46.519  1.00  0.00    +0.000 C 
ATOM     29  N3  UNL A   1      26.704  38.197  46.816  1.00  0.00    +0.000 N 
ATOM     30  C24 UNL A   1      26.080  39.069  47.698  1.00  0.00    +0.000 C 
ATOM     31  C25 UNL A   1      26.602  40.147  48.332  1.00  0.00    +0.000 C 
ATOM     43  C32 UNL A   1      27.968  40.581  48.203  1.00  0.00    +0.000 C 
ATOM     44  C33 UNL A   1      28.608  41.620  48.857  1.00  0.00    +0.000 C 
ATOM     45  C34 UNL A   1      29.924  41.688  48.390  1.00  0.00    +0.000 C 
ATOM     46  C35 UNL A   1      30.117  40.662  47.479  1.00  0.00    +0.000 C 
ATOM     47  N4  UNL A   1      28.907  39.995  47.368  1.00  0.00    +0.000 N 
ATOM     48  C36 UNL A   1      31.316  40.313  46.764  1.00  0.00    +0.000 C 
ATOM     60  C43 UNL A   1      31.419  39.302  45.868  1.00  0.00    +0.000 C 
ATOM     61  N5  UNL A   1      30.451  38.392  45.464  1.00  0.00    +0.000 N 
ATOM     62  C44 UNL A   1      31.030  37.622  44.577  1.00  0.00    +0.000 C 
ATOM     63  C45 UNL A   1      30.470  36.435  43.836  1.00  0.00    +0.000 C 
ATOM     75  C52 UNL A   1      29.208  36.041  44.086  1.00  0.00    +0.000 C 
ATOM     76  C53 UNL A   1      28.536  34.904  43.463  1.00  0.00    +0.000 C 
ATOM     77  C54 UNL A   1      27.279  34.830  43.927  1.00  0.00    +0.000 C 
ATOM     78  C55 UNL A   1      27.064  35.898  44.905  1.00  0.00    +0.000 C 
ATOM     79  N6  UNL A   1      28.264  36.564  44.936  1.00  0.00    +0.000 N 
ATOM     80  C56 UNL A   1      32.425  37.983  44.288  1.00  0.00    +0.000 C 
ATOM     81  C57 UNL A   1      32.626  38.981  45.137  1.00  0.00    +0.000 C 
ATOM     82  C58 UNL A   1      24.719  38.606  47.860  1.00  0.00    +0.000 C 
ATOM     83  C59 UNL A   1      24.520  37.472  47.202  1.00  0.00    +0.000 C 
ATOM    116  H27 UNL A   1      28.186  42.239  49.568  1.00  0.00    +0.000 H 
ATOM    117  H28 UNL A   1      30.630  42.384  48.673  1.00  0.00    +0.000 H 
ATOM    118  H29 UNL A   1      28.739  39.222  46.783  1.00  0.00    +0.000 H 
ATOM    119  H30 UNL A   1      28.961  34.260  42.776  1.00  0.00    +0.000 H 
ATOM    120  H31 UNL A   1      26.575  34.131  43.639  1.00  0.00    +0.000 H 
ATOM    121  H32 UNL A   1      28.432  37.345  45.513  1.00  0.00    +0.000 H 
ATOM    122  H33 UNL A   1      33.078  37.569  43.605  1.00  0.00    +0.000 H 
ATOM    123  H34 UNL A   1      33.527  39.467  45.260  1.00  0.00    +0.000 H 
ATOM    124  H35 UNL A   1      23.998  39.094  48.414  1.00  0.00    +0.000 H 
ATOM    125  H36 UNL A   1      23.679  36.875  47.176  1.00  0.00    +0.000 H 
ENDROOT
BRANCH   27   26
ATOM    114  H25 UNL A   1      21.887  35.071  43.567  1.00  0.00    +0.000 H 
ATOM    115  H26 UNL A   1      23.848  36.470  43.865  1.00  0.00    +0.000 H 
ATOM     84  C60 UNL A   1      24.622  34.030  46.034  1.00  0.00    +0.000 C 
ATOM     85  C61 UNL A   1      23.533  33.189  45.804  1.00  0.00    +0.000 C 
ATOM     23  C18 UNL A   1      22.508  33.594  44.946  1.00  0.00    +0.000 C 
ATOM     24  C19 UNL A   1      22.628  34.789  44.229  1.00  0.00    +0.000 C 
ATOM     25  C20 UNL A   1      23.749  35.601  44.413  1.00  0.00    +0.000 C 
ATOM     26  C21 UNL A   1      24.743  35.241  45.337  1.00  0.00    +0.000 C 
ATOM    126  H37 UNL A   1      25.342  33.760  46.722  1.00  0.00    +0.000 H 
ATOM    127  H38 UNL A   1      23.486  32.268  46.267  1.00  0.00    +0.000 H 
BRANCH   23   21
ATOM     21  C17 UNL A   1      21.296  32.769  44.747  1.00  0.00    +0.000 C 
ATOM     22  O3  UNL A   1      21.153  32.141  43.701  1.00  0.00    +0.000 O 
BRANCH   21   20
ATOM    113  H24 UNL A   1      20.228  31.852  46.169  1.00  0.00    +0.000 H 
ATOM     20  N2  UNL A   1      20.324  32.720  45.714  1.00  0.00    +0.000 N 
BRANCH   20   19
ATOM     19  C16 UNL A   1      19.417  33.760  46.164  1.00  0.00    +0.000 C 
ATOM    111  H22 UNL A   1      18.606  33.304  46.693  1.00  0.00    +0.000 H 
ATOM    112  H23 UNL A   1      19.972  34.425  46.793  1.00  0.00    +0.000 H 
BRANCH   19   18
ATOM     18  C15 UNL A   1      18.847  34.582  45.011  1.00  0.00    +0.000 C 
ATOM    109  H20 UNL A   1      19.634  35.190  44.618  1.00  0.00    +0.000 H 
ATOM    110  H21 UNL A   1      18.461  33.874  44.308  1.00  0.00    +0.000 H 
BRANCH   18   17
ATOM     17  C14 UNL A   1      17.677  35.498  45.376  1.00  0.00    +0.000 C 
ATOM    107  H18 UNL A   1      17.619  35.549  46.443  1.00  0.00    +0.000 H 
ATOM    108  H19 UNL A   1      17.883  36.437  44.908  1.00  0.00    +0.000 H 
BRANCH   17   16
ATOM    105  H16 UNL A   1      15.776  34.596  45.655  1.00  0.00    +0.000 H 
ATOM    106  H17 UNL A   1      15.835  35.947  44.481  1.00  0.00    +0.000 H 
ATOM     16  C13 UNL A   1      16.306  35.061  44.850  1.00  0.00    +0.000 C 
BRANCH   16   15
ATOM    103  H14 UNL A   1      16.612  34.620  42.794  1.00  0.00    +0.000 H 
ATOM     15  C12 UNL A   1      16.336  34.079  43.675  1.00  0.00    +0.000 C 
ATOM    104  H15 UNL A   1      17.037  33.315  43.937  1.00  0.00    +0.000 H 
BRANCH   15   14
ATOM    102  H13 UNL A   1      14.462  33.954  42.690  1.00  0.00    +0.000 H 
ATOM    101  H12 UNL A   1      14.471  33.281  44.319  1.00  0.00    +0.000 H 
ATOM     14  C11 UNL A   1      15.012  33.372  43.401  1.00  0.00    +0.000 C 
BRANCH   14   13
ATOM    100  H11 UNL A   1      14.412  31.488  42.794  1.00  0.00    +0.000 H 
ATOM     13  N1  UNL A   1      15.217  32.052  42.843  1.00  0.00    +0.000 N 
BRANCH   13   11
ATOM     11  C10 UNL A   1      16.360  31.475  42.375  1.00  0.00    +0.000 C 
ATOM     12  O2  UNL A   1      16.782  31.858  41.278  1.00  0.00    +0.000 O 
BRANCH   11    9
ATOM      9  C8  UNL A   1      17.113  30.400  43.170  1.00  0.00    +0.000 C 
ATOM     96  H7  UNL A   1      18.072  30.224  42.728  1.00  0.00    +0.000 H 
BRANCH    9    8
ATOM    129  H40 UNL A   1      15.252  26.419  44.778  1.00  0.00    +0.000 H 
ATOM    130  H41 UNL A   1      14.057  24.839  43.316  1.00  0.00    +0.000 H 
ATOM      3  C2  UNL A   1      13.955  24.996  41.218  1.00  0.00    +0.000 C 
ATOM      4  C3  UNL A   1      14.274  25.777  40.110  1.00  0.00    +0.000 C 
ATOM      5  C4  UNL A   1      14.981  26.968  40.284  1.00  0.00    +0.000 C 
ATOM      6  C5  UNL A   1      15.374  27.390  41.564  1.00  0.00    +0.000 C 
ATOM      7  C6  UNL A   1      16.064  28.598  41.760  1.00  0.00    +0.000 C 
ATOM      8  C7  UNL A   1      16.454  29.031  43.042  1.00  0.00    +0.000 C 
ATOM     86  C62 UNL A   1      16.179  28.198  44.131  1.00  0.00    +0.000 C 
ATOM     87  C63 UNL A   1      15.470  27.004  43.957  1.00  0.00    +0.000 C 
ATOM     88  C64 UNL A   1      15.053  26.594  42.684  1.00  0.00    +0.000 C 
ATOM     89  C65 UNL A   1      14.324  25.409  42.498  1.00  0.00    +0.000 C 
ATOM     93  H4  UNL A   1      13.986  25.477  39.165  1.00  0.00    +0.000 H 
ATOM     94  H5  UNL A   1      15.219  27.545  39.462  1.00  0.00    +0.000 H 
ATOM     95  H6  UNL A   1      16.290  29.184  40.942  1.00  0.00    +0.000 H 
ATOM    128  H39 UNL A   1      16.503  28.467  45.074  1.00  0.00    +0.000 H 
BRANCH    3    2
ATOM      2  O1  UNL A   1      13.223  23.844  41.128  1.00  0.00    +0.000 O 
BRANCH    2    1
ATOM      1  C1  UNL A   1      12.575  23.516  42.356  1.00  0.00    +0.000 C 
ATOM     90  H1  UNL A   1      12.439  22.456  42.415  1.00  0.00    +0.000 H 
ATOM     91  H2  UNL A   1      11.622  24.001  42.396  1.00  0.00    +0.000 H 
ATOM     92  H3  UNL A   1      13.178  23.846  43.176  1.00  0.00    +0.000 H 
ENDBRANCH    2    1
ENDBRANCH    3    2
ENDBRANCH    9    8
BRANCH    9   10
ATOM     97  H8  UNL A   1      18.060  30.148  45.073  1.00  0.00    +0.000 H 
ATOM     10  C9  UNL A   1      17.480  30.894  44.572  1.00  0.00    +0.000 C 
ATOM     99  H10 UNL A   1      18.050  31.797  44.494  1.00  0.00    +0.000 H 
ATOM     98  H9  UNL A   1      16.586  31.085  45.128  1.00  0.00    +0.000 H 
ENDBRANCH    9   10
ENDBRANCH   11    9
ENDBRANCH   13   11
ENDBRANCH   14   13
ENDBRANCH   15   14
ENDBRANCH   16   15
ENDBRANCH   17   16
ENDBRANCH   18   17
ENDBRANCH   19   18
ENDBRANCH   20   19
ENDBRANCH   21   20
ENDBRANCH   23   21
ENDBRANCH   27   26
BRANCH   31   32
ATOM     33  C27 UNL A   1      25.581  40.634  50.600  1.00  0.00    +0.000 C 
ATOM     34  F1  UNL A   1      26.223  39.576  51.116  1.00  0.00    +0.000 F 
ATOM     35  C28 UNL A   1      24.780  41.407  51.436  1.00  0.00    +0.000 C 
ATOM     36  F2  UNL A   1      24.655  41.081  52.730  1.00  0.00    +0.000 F 
ATOM     37  C29 UNL A   1      24.108  42.511  50.932  1.00  0.00    +0.000 C 
ATOM     38  F3  UNL A   1      23.350  43.264  51.742  1.00  0.00    +0.000 F 
ATOM     39  C30 UNL A   1      24.218  42.833  49.587  1.00  0.00    +0.000 C 
ATOM     40  F4  UNL A   1      23.580  43.907  49.103  1.00  0.00    +0.000 F 
ATOM     41  C31 UNL A   1      24.997  42.045  48.742  1.00  0.00    +0.000 C 
ATOM     42  F5  UNL A   1      25.080  42.379  47.446  1.00  0.00    +0.000 F 
ATOM     32  C26 UNL A   1      25.699  40.935  49.235  1.00  0.00    +0.000 C 
ENDBRANCH   31   32
BRANCH   48   49
ATOM     49  C37 UNL A   1      32.557  41.108  47.050  1.00  0.00    +0.000 C 
ATOM     50  C38 UNL A   1      33.562  40.628  47.902  1.00  0.00    +0.000 C 
ATOM     51  F6  UNL A   1      33.414  39.448  48.522  1.00  0.00    +0.000 F 
ATOM     52  C39 UNL A   1      34.705  41.381  48.153  1.00  0.00    +0.000 C 
ATOM     53  F7  UNL A   1      35.629  40.927  49.011  1.00  0.00    +0.000 F 
ATOM     54  C40 UNL A   1      34.881  42.609  47.532  1.00  0.00    +0.000 C 
ATOM     55  F8  UNL A   1      35.985  43.330  47.772  1.00  0.00    +0.000 F 
ATOM     56  C41 UNL A   1      33.912  43.092  46.667  1.00  0.00    +0.000 C 
ATOM     57  F9  UNL A   1      34.086  44.271  46.056  1.00  0.00    +0.000 F 
ATOM     58  C42 UNL A   1      32.753  42.355  46.437  1.00  0.00    +0.000 C 
ATOM     59  F10 UNL A   1      31.825  42.854  45.608  1.00  0.00    +0.000 F 
ENDBRANCH   48   49
BRANCH   63   64
ATOM     65  C47 UNL A   1      31.385  36.090  41.521  1.00  0.00    +0.000 C 
ATOM     66  F11 UNL A   1      30.701  37.167  41.107  1.00  0.00    +0.000 F 
ATOM     67  C48 UNL A   1      32.116  35.357  40.589  1.00  0.00    +0.000 C 
ATOM     68  F12 UNL A   1      32.120  35.730  39.303  1.00  0.00    +0.000 F 
ATOM     69  C49 UNL A   1      32.815  34.228  40.988  1.00  0.00    +0.000 C 
ATOM     70  F13 UNL A   1      33.512  33.519  40.090  1.00  0.00    +0.000 F 
ATOM     71  C50 UNL A   1      32.780  33.828  42.315  1.00  0.00    +0.000 C 
ATOM     72  F14 UNL A   1      33.465  32.745  42.705  1.00  0.00    +0.000 F 
ATOM     73  C51 UNL A   1      32.025  34.545  43.242  1.00  0.00    +0.000 C 
ATOM     74  F15 UNL A   1      31.991  34.121  44.514  1.00  0.00    +0.000 F 
ATOM     64  C46 UNL A   1      31.310  35.689  42.863  1.00  0.00    +0.000 C 
ENDBRANCH   63   64
TORSDOF 19
ENDMDL
