MODEL 1
REMARK VINA RESULT:     -10.5      0.000      0.000
ROOT
ATOM    129  H33 UNL A   1      39.220  31.327  30.522  1.00  0.00    +0.000 H 
ATOM     25  C20 UNL A   1      39.986  28.857  29.325  1.00  0.00    +0.000 C 
ATOM     26  C21 UNL A   1      40.829  29.766  30.176  1.00  0.00    +0.000 C 
ATOM     27  N3  UNL A   1      42.075  29.628  30.553  1.00  0.00    +0.000 N 
ATOM     28  C22 UNL A   1      42.376  30.768  31.287  1.00  0.00    +0.000 C 
ATOM     29  C23 UNL A   1      43.523  31.074  31.939  1.00  0.00    +0.000 C 
ATOM     41  C30 UNL A   1      44.682  30.221  31.986  1.00  0.00    +0.000 C 
ATOM     42  C31 UNL A   1      45.868  30.412  32.676  1.00  0.00    +0.000 C 
ATOM     43  C32 UNL A   1      46.719  29.340  32.387  1.00  0.00    +0.000 C 
ATOM     44  C33 UNL A   1      46.050  28.460  31.553  1.00  0.00    +0.000 C 
ATOM     45  N4  UNL A   1      44.802  29.014  31.312  1.00  0.00    +0.000 N 
ATOM     46  C34 UNL A   1      46.511  27.207  31.014  1.00  0.00    +0.000 C 
ATOM     58  C41 UNL A   1      45.783  26.389  30.215  1.00  0.00    +0.000 C 
ATOM     59  N5  UNL A   1      44.485  26.553  29.749  1.00  0.00    +0.000 N 
ATOM     60  C42 UNL A   1      44.235  25.506  29.002  1.00  0.00    +0.000 C 
ATOM     61  C43 UNL A   1      42.976  25.145  28.264  1.00  0.00    +0.000 C 
ATOM     73  C50 UNL A   1      41.906  25.958  28.350  1.00  0.00    +0.000 C 
ATOM     74  C51 UNL A   1      40.618  25.735  27.700  1.00  0.00    +0.000 C 
ATOM     75  C52 UNL A   1      39.805  26.767  27.973  1.00  0.00    +0.000 C 
ATOM     76  C53 UNL A   1      40.504  27.708  28.848  1.00  0.00    +0.000 C 
ATOM     77  N6  UNL A   1      41.743  27.144  29.023  1.00  0.00    +0.000 N 
ATOM     78  C54 UNL A   1      45.359  24.566  28.891  1.00  0.00    +0.000 C 
ATOM     79  C55 UNL A   1      46.262  25.132  29.680  1.00  0.00    +0.000 C 
ATOM     80  C56 UNL A   1      41.199  31.609  31.262  1.00  0.00    +0.000 C 
ATOM     81  C57 UNL A   1      40.193  31.007  30.644  1.00  0.00    +0.000 C 
ATOM    120  H24 UNL A   1      46.085  31.208  33.296  1.00  0.00    +0.000 H 
ATOM    121  H25 UNL A   1      47.684  29.226  32.736  1.00  0.00    +0.000 H 
ATOM    122  H26 UNL A   1      44.104  28.611  30.748  1.00  0.00    +0.000 H 
ATOM    123  H27 UNL A   1      40.373  24.915  27.121  1.00  0.00    +0.000 H 
ATOM    124  H28 UNL A   1      38.840  26.877  27.623  1.00  0.00    +0.000 H 
ATOM    125  H29 UNL A   1      42.447  27.551  29.577  1.00  0.00    +0.000 H 
ATOM    126  H30 UNL A   1      45.428  23.694  28.343  1.00  0.00    +0.000 H 
ATOM    127  H31 UNL A   1      47.190  24.728  29.886  1.00  0.00    +0.000 H 
ATOM    128  H32 UNL A   1      41.150  32.555  31.672  1.00  0.00    +0.000 H 
ENDROOT
BRANCH   25   24
ATOM    130  H34 UNL A   1      37.765  28.740  30.823  1.00  0.00    +0.000 H 
ATOM    131  H35 UNL A   1      35.491  29.308  30.207  1.00  0.00    +0.000 H 
ATOM     82  C58 UNL A   1      37.564  29.113  29.882  1.00  0.00    +0.000 C 
ATOM     83  C59 UNL A   1      36.263  29.476  29.544  1.00  0.00    +0.000 C 
ATOM     21  C16 UNL A   1      36.004  30.071  28.305  1.00  0.00    +0.000 C 
ATOM     22  C17 UNL A   1      37.026  30.187  27.358  1.00  0.00    +0.000 C 
ATOM    118  H22 UNL A   1      36.826  30.586  26.427  1.00  0.00    +0.000 H 
ATOM     23  C18 UNL A   1      38.318  29.763  27.674  1.00  0.00    +0.000 C 
ATOM    119  H23 UNL A   1      39.067  29.825  26.967  1.00  0.00    +0.000 H 
ATOM     24  C19 UNL A   1      38.605  29.250  28.950  1.00  0.00    +0.000 C 
BRANCH   21   19
ATOM     19  C15 UNL A   1      34.651  30.558  27.956  1.00  0.00    +0.000 C 
ATOM     20  O3  UNL A   1      34.211  31.566  28.501  1.00  0.00    +0.000 O 
BRANCH   19   18
ATOM     18  N2  UNL A   1      33.887  29.882  27.039  1.00  0.00    +0.000 N 
ATOM    117  H21 UNL A   1      34.378  29.535  26.259  1.00  0.00    +0.000 H 
BRANCH   18   17
ATOM     17  C14 UNL A   1      32.460  29.602  27.050  1.00  0.00    +0.000 C 
ATOM    115  H19 UNL A   1      32.041  29.986  27.957  1.00  0.00    +0.000 H 
ATOM    116  H20 UNL A   1      32.028  30.072  26.191  1.00  0.00    +0.000 H 
BRANCH   17   16
ATOM    113  H17 UNL A   1      31.855  27.776  27.935  1.00  0.00    +0.000 H 
ATOM    114  H18 UNL A   1      31.403  27.995  26.220  1.00  0.00    +0.000 H 
ATOM     16  C13 UNL A   1      32.162  28.108  26.966  1.00  0.00    +0.000 C 
BRANCH   16   15
ATOM    111  H15 UNL A   1      33.827  27.739  25.704  1.00  0.00    +0.000 H 
ATOM     15  C12 UNL A   1      33.340  27.240  26.516  1.00  0.00    +0.000 C 
ATOM    112  H16 UNL A   1      33.962  27.117  27.379  1.00  0.00    +0.000 H 
BRANCH   15   14
ATOM    110  H14 UNL A   1      33.631  25.165  26.576  1.00  0.00    +0.000 H 
ATOM    109  H13 UNL A   1      33.086  25.790  24.988  1.00  0.00    +0.000 H 
ATOM     14  C11 UNL A   1      32.974  25.826  26.052  1.00  0.00    +0.000 C 
BRANCH   14   13
ATOM    107  H11 UNL A   1      31.193  25.959  27.210  1.00  0.00    +0.000 H 
ATOM    108  H12 UNL A   1      30.967  25.488  25.506  1.00  0.00    +0.000 H 
ATOM     13  C10 UNL A   1      31.551  25.367  26.394  1.00  0.00    +0.000 C 
BRANCH   13   12
ATOM    105  H9  UNL A   1      32.426  23.533  27.030  1.00  0.00    +0.000 H 
ATOM    106  H10 UNL A   1      30.792  23.822  27.631  1.00  0.00    +0.000 H 
ATOM     12  C9  UNL A   1      31.448  23.894  26.789  1.00  0.00    +0.000 C 
BRANCH   12   11
ATOM     11  N1  UNL A   1      30.901  23.084  25.724  1.00  0.00    +0.000 N 
ATOM    104  H8  UNL A   1      29.954  23.257  25.514  1.00  0.00    +0.000 H 
BRANCH   11    9
ATOM      9  C8  UNL A   1      31.495  22.117  24.966  1.00  0.00    +0.000 C 
ATOM     10  O2  UNL A   1      31.598  20.998  25.479  1.00  0.00    +0.000 O 
BRANCH    9    8
ATOM    102  H6  UNL A   1      32.298  21.500  23.113  1.00  0.00    +0.000 H 
ATOM    103  H7  UNL A   1      31.449  23.086  23.125  1.00  0.00    +0.000 H 
ATOM      8  C7  UNL A   1      32.133  22.428  23.619  1.00  0.00    +0.000 C 
BRANCH    8    7
ATOM      3  C2  UNL A   1      37.176  22.461  25.491  1.00  0.00    +0.000 C 
ATOM    100  H4  UNL A   1      36.446  20.646  26.268  1.00  0.00    +0.000 H 
ATOM      4  C3  UNL A   1      36.217  21.472  25.694  1.00  0.00    +0.000 C 
ATOM      5  C4  UNL A   1      34.945  21.592  25.122  1.00  0.00    +0.000 C 
ATOM    101  H5  UNL A   1      34.241  20.852  25.268  1.00  0.00    +0.000 H 
ATOM      6  C5  UNL A   1      34.626  22.728  24.348  1.00  0.00    +0.000 C 
ATOM      7  C6  UNL A   1      33.446  23.170  23.656  1.00  0.00    +0.000 C 
ATOM    138  H42 UNL A   1      35.500  25.538  23.173  1.00  0.00    +0.000 H 
ATOM    139  H43 UNL A   1      37.568  24.366  24.638  1.00  0.00    +0.000 H 
ATOM     84  C60 UNL A   1      33.776  24.354  22.992  1.00  0.00    +0.000 C 
ATOM     94  N8  UNL A   1      35.047  24.695  23.406  1.00  0.00    +0.000 N 
ATOM     95  C68 UNL A   1      35.597  23.708  24.185  1.00  0.00    +0.000 C 
ATOM     96  C69 UNL A   1      36.874  23.612  24.756  1.00  0.00    +0.000 C 
BRANCH    3    2
ATOM      2  O1  UNL A   1      38.437  22.413  26.026  1.00  0.00    +0.000 O 
BRANCH    2    1
ATOM      1  C1  UNL A   1      39.140  21.207  25.730  1.00  0.00    +0.000 C 
ATOM     98  H2  UNL A   1      39.537  20.795  26.635  1.00  0.00    +0.000 H 
ATOM     99  H3  UNL A   1      39.940  21.417  25.053  1.00  0.00    +0.000 H 
ATOM     97  H1  UNL A   1      38.469  20.503  25.284  1.00  0.00    +0.000 H 
ENDBRANCH    2    1
ENDBRANCH    3    2
BRANCH   84   85
ATOM     85  C61 UNL A   1      32.957  25.122  22.058  1.00  0.00    +0.000 C 
ATOM     86  O4  UNL A   1      32.958  24.926  20.846  1.00  0.00    +0.000 O 
BRANCH   85   87
ATOM    132  H36 UNL A   1      30.358  25.080  22.772  1.00  0.00    +0.000 H 
ATOM    136  H40 UNL A   1      30.151  29.111  23.984  1.00  0.00    +0.000 H 
ATOM    137  H41 UNL A   1      32.463  29.348  23.391  1.00  0.00    +0.000 H 
ATOM     87  C62 UNL A   1      32.117  26.238  22.572  1.00  0.00    +0.000 C 
ATOM     88  C63 UNL A   1      30.783  26.011  22.901  1.00  0.00    +0.000 C 
ATOM     89  C64 UNL A   1      30.036  27.076  23.409  1.00  0.00    +0.000 C 
ATOM     91  C66 UNL A   1      30.670  28.309  23.593  1.00  0.00    +0.000 C 
ATOM     92  C67 UNL A   1      32.005  28.436  23.241  1.00  0.00    +0.000 C 
ATOM     93  N7  UNL A   1      32.738  27.435  22.717  1.00  0.00    +0.000 N 
BRANCH   89   90
ATOM     90  C65 UNL A   1      28.595  26.909  23.785  1.00  0.00    +0.000 C 
ATOM    133  H37 UNL A   1      28.480  26.025  24.377  1.00  0.00    +0.000 H 
ATOM    134  H38 UNL A   1      28.003  26.825  22.899  1.00  0.00    +0.000 H 
ATOM    135  H39 UNL A   1      28.272  27.760  24.349  1.00  0.00    +0.000 H 
ENDBRANCH   89   90
ENDBRANCH   85   87
ENDBRANCH   84   85
ENDBRANCH    8    7
ENDBRANCH    9    8
ENDBRANCH   11    9
ENDBRANCH   12   11
ENDBRANCH   13   12
ENDBRANCH   14   13
ENDBRANCH   15   14
ENDBRANCH   16   15
ENDBRANCH   17   16
ENDBRANCH   18   17
ENDBRANCH   19   18
ENDBRANCH   21   19
ENDBRANCH   25   24
BRANCH   29   30
ATOM     33  C26 UNL A   1      43.260  33.727  34.668  1.00  0.00    +0.000 C 
ATOM     34  F2  UNL A   1      42.842  33.823  35.938  1.00  0.00    +0.000 F 
ATOM     35  C27 UNL A   1      43.741  34.849  34.010  1.00  0.00    +0.000 C 
ATOM     36  F3  UNL A   1      43.808  36.024  34.650  1.00  0.00    +0.000 F 
ATOM     37  C28 UNL A   1      44.146  34.753  32.688  1.00  0.00    +0.000 C 
ATOM     38  F4  UNL A   1      44.623  35.834  32.055  1.00  0.00    +0.000 F 
ATOM     39  C29 UNL A   1      44.056  33.537  32.016  1.00  0.00    +0.000 C 
ATOM     40  F5  UNL A   1      44.443  33.481  30.732  1.00  0.00    +0.000 F 
ATOM     30  C24 UNL A   1      43.580  32.387  32.662  1.00  0.00    +0.000 C 
ATOM     31  C25 UNL A   1      43.195  32.503  34.007  1.00  0.00    +0.000 C 
ATOM     32  F1  UNL A   1      42.722  31.436  34.668  1.00  0.00    +0.000 F 
ENDBRANCH   29   30
BRANCH   46   47
ATOM     47  C35 UNL A   1      47.895  26.756  31.376  1.00  0.00    +0.000 C 
ATOM     48  C36 UNL A   1      48.128  25.896  32.459  1.00  0.00    +0.000 C 
ATOM     49  F6  UNL A   1      47.108  25.494  33.233  1.00  0.00    +0.000 F 
ATOM     50  C37 UNL A   1      49.418  25.479  32.776  1.00  0.00    +0.000 C 
ATOM     51  F7  UNL A   1      49.622  24.694  33.843  1.00  0.00    +0.000 F 
ATOM     52  C38 UNL A   1      50.492  25.884  31.998  1.00  0.00    +0.000 C 
ATOM     53  F8  UNL A   1      51.732  25.476  32.302  1.00  0.00    +0.000 F 
ATOM     54  C39 UNL A   1      50.282  26.720  30.911  1.00  0.00    +0.000 C 
ATOM     55  F9  UNL A   1      51.318  27.102  30.152  1.00  0.00    +0.000 F 
ATOM     56  C40 UNL A   1      48.998  27.162  30.608  1.00  0.00    +0.000 C 
ATOM     57  F10 UNL A   1      48.828  27.979  29.558  1.00  0.00    +0.000 F 
ENDBRANCH   46   47
BRANCH   61   62
ATOM     65  C46 UNL A   1      42.374  21.520  27.316  1.00  0.00    +0.000 C 
ATOM     66  F12 UNL A   1      41.977  20.386  27.909  1.00  0.00    +0.000 F 
ATOM     67  C47 UNL A   1      42.735  21.514  25.977  1.00  0.00    +0.000 C 
ATOM     68  F13 UNL A   1      42.670  20.377  25.270  1.00  0.00    +0.000 F 
ATOM     69  C48 UNL A   1      43.171  22.685  25.375  1.00  0.00    +0.000 C 
ATOM     70  F14 UNL A   1      43.509  22.684  24.078  1.00  0.00    +0.000 F 
ATOM     71  C49 UNL A   1      43.260  23.861  26.116  1.00  0.00    +0.000 C 
ATOM     72  F15 UNL A   1      43.697  24.975  25.512  1.00  0.00    +0.000 F 
ATOM     62  C44 UNL A   1      42.892  23.894  27.468  1.00  0.00    +0.000 C 
ATOM     63  C45 UNL A   1      42.437  22.702  28.052  1.00  0.00    +0.000 C 
ATOM     64  F11 UNL A   1      42.094  22.680  29.347  1.00  0.00    +0.000 F 
ENDBRANCH   61   62
TORSDOF 21
ENDMDL
MODEL 2
REMARK VINA RESULT:     -10.1     39.397     43.665
ROOT
ATOM    129  H33 UNL A   1      15.144  56.462   4.488  1.00  0.00    +0.000 H 
ATOM     25  C20 UNL A   1      13.896  53.919   4.788  1.00  0.00    +0.000 C 
ATOM     26  C21 UNL A   1      14.884  54.339   3.736  1.00  0.00    +0.000 C 
ATOM     27  N3  UNL A   1      15.386  53.644   2.746  1.00  0.00    +0.000 N 
ATOM     28  C22 UNL A   1      16.213  54.517   2.052  1.00  0.00    +0.000 C 
ATOM     29  C23 UNL A   1      17.002  54.262   0.982  1.00  0.00    +0.000 C 
ATOM     41  C30 UNL A   1      17.126  52.973   0.353  1.00  0.00    +0.000 C 
ATOM     42  C31 UNL A   1      17.950  52.598  -0.695  1.00  0.00    +0.000 C 
ATOM     43  C32 UNL A   1      17.693  51.256  -0.995  1.00  0.00    +0.000 C 
ATOM     44  C33 UNL A   1      16.741  50.782  -0.106  1.00  0.00    +0.000 C 
ATOM     45  N4  UNL A   1      16.400  51.847   0.713  1.00  0.00    +0.000 N 
ATOM     46  C34 UNL A   1      16.184  49.458  -0.010  1.00  0.00    +0.000 C 
ATOM     58  C41 UNL A   1      15.264  49.066   0.906  1.00  0.00    +0.000 C 
ATOM     59  N5  UNL A   1      14.671  49.808   1.919  1.00  0.00    +0.000 N 
ATOM     60  C42 UNL A   1      13.842  48.993   2.523  1.00  0.00    +0.000 C 
ATOM     61  C43 UNL A   1      12.951  49.251   3.708  1.00  0.00    +0.000 C 
ATOM     73  C50 UNL A   1      12.968  50.464   4.292  1.00  0.00    +0.000 C 
ATOM     74  C51 UNL A   1      12.170  50.857   5.450  1.00  0.00    +0.000 C 
ATOM     75  C52 UNL A   1      12.413  52.147   5.732  1.00  0.00    +0.000 C 
ATOM     76  C53 UNL A   1      13.412  52.661   4.795  1.00  0.00    +0.000 C 
ATOM     77  N6  UNL A   1      13.687  51.592   3.980  1.00  0.00    +0.000 N 
ATOM     78  C54 UNL A   1      13.799  47.643   1.946  1.00  0.00    +0.000 C 
ATOM     79  C55 UNL A   1      14.712  47.730   0.989  1.00  0.00    +0.000 C 
ATOM     80  C56 UNL A   1      16.110  55.805   2.705  1.00  0.00    +0.000 C 
ATOM     81  C57 UNL A   1      15.352  55.732   3.790  1.00  0.00    +0.000 C 
ATOM    120  H24 UNL A   1      18.635  53.205  -1.172  1.00  0.00    +0.000 H 
ATOM    121  H25 UNL A   1      18.137  50.711  -1.751  1.00  0.00    +0.000 H 
ATOM    122  H26 UNL A   1      15.740  51.810   1.442  1.00  0.00    +0.000 H 
ATOM    123  H27 UNL A   1      11.522  50.242   5.967  1.00  0.00    +0.000 H 
ATOM    124  H28 UNL A   1      11.967  52.688   6.489  1.00  0.00    +0.000 H 
ATOM    125  H29 UNL A   1      14.337  51.629   3.241  1.00  0.00    +0.000 H 
ATOM    126  H30 UNL A   1      13.212  46.837   2.213  1.00  0.00    +0.000 H 
ATOM    127  H31 UNL A   1      14.994  46.946   0.379  1.00  0.00    +0.000 H 
ATOM    128  H32 UNL A   1      16.566  56.667   2.369  1.00  0.00    +0.000 H 
ENDROOT
BRANCH   25   24
ATOM    130  H34 UNL A   1      14.938  54.531   7.181  1.00  0.00    +0.000 H 
ATOM    131  H35 UNL A   1      14.099  56.078   8.848  1.00  0.00    +0.000 H 
ATOM     82  C58 UNL A   1      14.087  55.083   6.990  1.00  0.00    +0.000 C 
ATOM     83  C59 UNL A   1      13.630  56.000   7.933  1.00  0.00    +0.000 C 
ATOM     21  C16 UNL A   1      12.534  56.816   7.637  1.00  0.00    +0.000 C 
ATOM     22  C17 UNL A   1      11.821  56.627   6.449  1.00  0.00    +0.000 C 
ATOM    118  H22 UNL A   1      10.986  57.199   6.250  1.00  0.00    +0.000 H 
ATOM     23  C18 UNL A   1      12.242  55.661   5.533  1.00  0.00    +0.000 C 
ATOM    119  H23 UNL A   1      11.701  55.504   4.668  1.00  0.00    +0.000 H 
ATOM     24  C19 UNL A   1      13.396  54.901   5.782  1.00  0.00    +0.000 C 
BRANCH   21   19
ATOM     19  C15 UNL A   1      12.086  57.869   8.576  1.00  0.00    +0.000 C 
ATOM     20  O3  UNL A   1      12.800  58.847   8.775  1.00  0.00    +0.000 O 
BRANCH   19   18
ATOM     18  N2  UNL A   1      10.887  57.746   9.231  1.00  0.00    +0.000 N 
ATOM    117  H21 UNL A   1      10.309  58.543   9.200  1.00  0.00    +0.000 H 
BRANCH   18   17
ATOM     17  C14 UNL A   1      10.344  56.613   9.965  1.00  0.00    +0.000 C 
ATOM    115  H19 UNL A   1       9.731  56.982  10.761  1.00  0.00    +0.000 H 
ATOM    116  H20 UNL A   1       9.777  56.020   9.278  1.00  0.00    +0.000 H 
BRANCH   17   16
ATOM    113  H17 UNL A   1      11.456  54.812  10.007  1.00  0.00    +0.000 H 
ATOM    114  H18 UNL A   1      12.348  56.287  10.480  1.00  0.00    +0.000 H 
ATOM     16  C13 UNL A   1      11.438  55.729  10.556  1.00  0.00    +0.000 C 
BRANCH   16   15
ATOM    111  H15 UNL A   1      11.184  56.314  12.580  1.00  0.00    +0.000 H 
ATOM     15  C12 UNL A   1      11.263  55.394  12.040  1.00  0.00    +0.000 C 
ATOM    112  H16 UNL A   1      10.387  54.782  12.103  1.00  0.00    +0.000 H 
BRANCH   15   14
ATOM    110  H14 UNL A   1      11.987  54.128  13.546  1.00  0.00    +0.000 H 
ATOM    109  H13 UNL A   1      13.215  55.237  12.859  1.00  0.00    +0.000 H 
ATOM     14  C11 UNL A   1      12.397  54.574  12.665  1.00  0.00    +0.000 C 
BRANCH   14   13
ATOM    107  H11 UNL A   1      13.103  52.577  12.453  1.00  0.00    +0.000 H 
ATOM    108  H12 UNL A   1      12.175  53.213  11.071  1.00  0.00    +0.000 H 
ATOM     13  C10 UNL A   1      12.922  53.413  11.810  1.00  0.00    +0.000 C 
BRANCH   13   12
ATOM    105  H9  UNL A   1      13.980  53.878  10.022  1.00  0.00    +0.000 H 
ATOM    106  H10 UNL A   1      14.644  54.605  11.487  1.00  0.00    +0.000 H 
ATOM     12  C9  UNL A   1      14.213  53.726  11.055  1.00  0.00    +0.000 C 
BRANCH   12   11
ATOM     11  N1  UNL A   1      15.178  52.655  11.164  1.00  0.00    +0.000 N 
ATOM    104  H8  UNL A   1      15.825  52.750  11.899  1.00  0.00    +0.000 H 
BRANCH   11    9
ATOM      9  C8  UNL A   1      15.328  51.532  10.402  1.00  0.00    +0.000 C 
ATOM     10  O2  UNL A   1      16.291  50.807  10.672  1.00  0.00    +0.000 O 
BRANCH    9    8
ATOM    102  H6  UNL A   1      13.486  50.957   9.546  1.00  0.00    +0.000 H 
ATOM    103  H7  UNL A   1      14.448  52.168   8.626  1.00  0.00    +0.000 H 
ATOM      8  C7  UNL A   1      14.449  51.258   9.189  1.00  0.00    +0.000 C 
BRANCH    8    7
ATOM      3  C2  UNL A   1      17.083  50.264   4.605  1.00  0.00    +0.000 C 
ATOM    100  H4  UNL A   1      17.219  52.361   4.728  1.00  0.00    +0.000 H 
ATOM      4  C3  UNL A   1      16.868  51.509   5.191  1.00  0.00    +0.000 C 
ATOM      5  C4  UNL A   1      16.178  51.610   6.405  1.00  0.00    +0.000 C 
ATOM    101  H5  UNL A   1      16.029  52.534   6.840  1.00  0.00    +0.000 H 
ATOM      6  C5  UNL A   1      15.685  50.446   7.034  1.00  0.00    +0.000 C 
ATOM      7  C6  UNL A   1      14.937  50.197   8.235  1.00  0.00    +0.000 C 
ATOM    138  H42 UNL A   1      15.283  47.303   6.983  1.00  0.00    +0.000 H 
ATOM    139  H43 UNL A   1      16.697  48.180   4.739  1.00  0.00    +0.000 H 
ATOM     84  C60 UNL A   1      14.819  48.811   8.368  1.00  0.00    +0.000 C 
ATOM     94  N8  UNL A   1      15.326  48.262   7.209  1.00  0.00    +0.000 N 
ATOM     95  C68 UNL A   1      15.896  49.222   6.411  1.00  0.00    +0.000 C 
ATOM     96  C69 UNL A   1      16.576  49.100   5.191  1.00  0.00    +0.000 C 
BRANCH    3    2
ATOM      2  O1  UNL A   1      17.742  50.092   3.416  1.00  0.00    +0.000 O 
BRANCH    2    1
ATOM      1  C1  UNL A   1      18.059  48.731   3.128  1.00  0.00    +0.000 C 
ATOM     98  H2  UNL A   1      17.361  48.090   3.626  1.00  0.00    +0.000 H 
ATOM     99  H3  UNL A   1      19.049  48.514   3.470  1.00  0.00    +0.000 H 
ATOM     97  H1  UNL A   1      18.002  48.567   2.073  1.00  0.00    +0.000 H 
ENDBRANCH    2    1
ENDBRANCH    3    2
BRANCH   84   85
ATOM     85  C61 UNL A   1      14.255  48.057   9.483  1.00  0.00    +0.000 C 
ATOM     86  O4  UNL A   1      14.854  47.868  10.538  1.00  0.00    +0.000 O 
BRANCH   85   87
ATOM    132  H36 UNL A   1      11.975  49.162   8.560  1.00  0.00    +0.000 H 
ATOM    136  H40 UNL A   1       9.615  45.685   8.890  1.00  0.00    +0.000 H 
ATOM    137  H41 UNL A   1      11.536  44.532   9.745  1.00  0.00    +0.000 H 
ATOM     87  C62 UNL A   1      12.912  47.431   9.335  1.00  0.00    +0.000 C 
ATOM     88  C63 UNL A   1      11.851  48.171   8.821  1.00  0.00    +0.000 C 
ATOM     89  C64 UNL A   1      10.615  47.539   8.668  1.00  0.00    +0.000 C 
ATOM     91  C66 UNL A   1      10.509  46.187   9.008  1.00  0.00    +0.000 C 
ATOM     92  C67 UNL A   1      11.625  45.532   9.507  1.00  0.00    +0.000 C 
ATOM     93  N7  UNL A   1      12.818  46.127   9.697  1.00  0.00    +0.000 N 
BRANCH   89   90
ATOM     90  C65 UNL A   1       9.426  48.271   8.122  1.00  0.00    +0.000 C 
ATOM    133  H37 UNL A   1       8.831  47.601   7.537  1.00  0.00    +0.000 H 
ATOM    134  H38 UNL A   1       9.758  49.082   7.509  1.00  0.00    +0.000 H 
ATOM    135  H39 UNL A   1       8.840  48.653   8.932  1.00  0.00    +0.000 H 
ENDBRANCH   89   90
ENDBRANCH   85   87
ENDBRANCH   84   85
ENDBRANCH    8    7
ENDBRANCH    9    8
ENDBRANCH   11    9
ENDBRANCH   12   11
ENDBRANCH   13   12
ENDBRANCH   14   13
ENDBRANCH   15   14
ENDBRANCH   16   15
ENDBRANCH   17   16
ENDBRANCH   18   17
ENDBRANCH   19   18
ENDBRANCH   21   19
ENDBRANCH   25   24
BRANCH   29   30
ATOM     33  C26 UNL A   1      18.083  57.234  -1.154  1.00  0.00    +0.000 C 
ATOM     34  F2  UNL A   1      17.636  57.928  -2.210  1.00  0.00    +0.000 F 
ATOM     35  C27 UNL A   1      19.299  57.563  -0.574  1.00  0.00    +0.000 C 
ATOM     36  F3  UNL A   1      20.017  58.587  -1.056  1.00  0.00    +0.000 F 
ATOM     37  C28 UNL A   1      19.773  56.828   0.501  1.00  0.00    +0.000 C 
ATOM     38  F4  UNL A   1      20.942  57.152   1.070  1.00  0.00    +0.000 F 
ATOM     39  C29 UNL A   1      19.039  55.749   0.988  1.00  0.00    +0.000 C 
ATOM     40  F5  UNL A   1      19.532  55.048   2.021  1.00  0.00    +0.000 F 
ATOM     30  C24 UNL A   1      17.803  55.402   0.423  1.00  0.00    +0.000 C 
ATOM     31  C25 UNL A   1      17.333  56.175  -0.650  1.00  0.00    +0.000 C 
ATOM     32  F1  UNL A   1      16.161  55.878  -1.234  1.00  0.00    +0.000 F 
ENDBRANCH   29   30
BRANCH   46   47
ATOM     47  C35 UNL A   1      16.667  48.422  -0.982  1.00  0.00    +0.000 C 
ATOM     48  C36 UNL A   1      15.926  48.084  -2.123  1.00  0.00    +0.000 C 
ATOM     49  F6  UNL A   1      14.732  48.654  -2.347  1.00  0.00    +0.000 F 
ATOM     50  C37 UNL A   1      16.393  47.127  -3.021  1.00  0.00    +0.000 C 
ATOM     51  F7  UNL A   1      15.648  46.787  -4.081  1.00  0.00    +0.000 F 
ATOM     52  C38 UNL A   1      17.621  46.516  -2.812  1.00  0.00    +0.000 C 
ATOM     53  F8  UNL A   1      18.070  45.600  -3.680  1.00  0.00    +0.000 F 
ATOM     54  C39 UNL A   1      18.378  46.849  -1.698  1.00  0.00    +0.000 C 
ATOM     55  F9  UNL A   1      19.569  46.269  -1.502  1.00  0.00    +0.000 F 
ATOM     56  C40 UNL A   1      17.901  47.784  -0.784  1.00  0.00    +0.000 C 
ATOM     57  F10 UNL A   1      18.651  48.077   0.289  1.00  0.00    +0.000 F 
ENDBRANCH   46   47
BRANCH   61   62
ATOM     65  C46 UNL A   1      11.816  46.094   5.482  1.00  0.00    +0.000 C 
ATOM     66  F12 UNL A   1      12.368  45.066   6.139  1.00  0.00    +0.000 F 
ATOM     67  C47 UNL A   1      10.444  46.137   5.284  1.00  0.00    +0.000 C 
ATOM     68  F13 UNL A   1       9.666  45.157   5.766  1.00  0.00    +0.000 F 
ATOM     69  C48 UNL A   1       9.881  47.189   4.578  1.00  0.00    +0.000 C 
ATOM     70  F14 UNL A   1       8.554  47.239   4.397  1.00  0.00    +0.000 F 
ATOM     71  C49 UNL A   1      10.692  48.196   4.057  1.00  0.00    +0.000 C 
ATOM     72  F15 UNL A   1      10.122  49.194   3.369  1.00  0.00    +0.000 F 
ATOM     62  C44 UNL A   1      12.080  48.179   4.252  1.00  0.00    +0.000 C 
ATOM     63  C45 UNL A   1      12.626  47.114   4.983  1.00  0.00    +0.000 C 
ATOM     64  F11 UNL A   1      13.950  47.044   5.178  1.00  0.00    +0.000 F 
ENDBRANCH   61   62
TORSDOF 21
ENDMDL
MODEL 3
REMARK VINA RESULT:     -10.1      1.405      3.870
ROOT
ATOM    129  H33 UNL A   1      39.343  31.309  30.297  1.00  0.00    +0.000 H 
ATOM     25  C20 UNL A   1      40.117  28.818  29.153  1.00  0.00    +0.000 C 
ATOM     26  C21 UNL A   1      40.977  29.781  29.923  1.00  0.00    +0.000 C 
ATOM     27  N3  UNL A   1      42.245  29.692  30.238  1.00  0.00    +0.000 N 
ATOM     28  C22 UNL A   1      42.550  30.866  30.912  1.00  0.00    +0.000 C 
ATOM     29  C23 UNL A   1      43.721  31.228  31.490  1.00  0.00    +0.000 C 
ATOM     41  C30 UNL A   1      44.905  30.409  31.506  1.00  0.00    +0.000 C 
ATOM     42  C31 UNL A   1      46.119  30.659  32.124  1.00  0.00    +0.000 C 
ATOM     43  C32 UNL A   1      46.985  29.600  31.829  1.00  0.00    +0.000 C 
ATOM     44  C33 UNL A   1      46.299  28.671  31.065  1.00  0.00    +0.000 C 
ATOM     45  N4  UNL A   1      45.024  29.181  30.872  1.00  0.00    +0.000 N 
ATOM     46  C34 UNL A   1      46.768  27.412  30.548  1.00  0.00    +0.000 C 
ATOM     58  C41 UNL A   1      46.023  26.544  29.819  1.00  0.00    +0.000 C 
ATOM     59  N5  UNL A   1      44.698  26.655  29.418  1.00  0.00    +0.000 N 
ATOM     60  C42 UNL A   1      44.440  25.574  28.724  1.00  0.00    +0.000 C 
ATOM     61  C43 UNL A   1      43.155  25.151  28.069  1.00  0.00    +0.000 C 
ATOM     73  C50 UNL A   1      42.067  25.937  28.182  1.00  0.00    +0.000 C 
ATOM     74  C51 UNL A   1      40.754  25.654  27.610  1.00  0.00    +0.000 C 
ATOM     75  C52 UNL A   1      39.926  26.674  27.889  1.00  0.00    +0.000 C 
ATOM     76  C53 UNL A   1      40.643  27.666  28.691  1.00  0.00    +0.000 C 
ATOM     77  N6  UNL A   1      41.905  27.143  28.819  1.00  0.00    +0.000 N 
ATOM     78  C54 UNL A   1      45.584  24.661  28.588  1.00  0.00    +0.000 C 
ATOM     79  C55 UNL A   1      46.510  25.281  29.306  1.00  0.00    +0.000 C 
ATOM     80  C56 UNL A   1      41.350  31.674  30.920  1.00  0.00    +0.000 C 
ATOM     81  C57 UNL A   1      40.331  31.021  30.379  1.00  0.00    +0.000 C 
ATOM    120  H24 UNL A   1      46.345  31.483  32.703  1.00  0.00    +0.000 H 
ATOM    121  H25 UNL A   1      47.970  29.526  32.130  1.00  0.00    +0.000 H 
ATOM    122  H26 UNL A   1      44.310  28.739  30.360  1.00  0.00    +0.000 H 
ATOM    123  H27 UNL A   1      40.503  24.807  27.076  1.00  0.00    +0.000 H 
ATOM    124  H28 UNL A   1      38.942  26.744  27.587  1.00  0.00    +0.000 H 
ATOM    125  H29 UNL A   1      42.625  27.590  29.319  1.00  0.00    +0.000 H 
ATOM    126  H30 UNL A   1      45.649  23.772  28.069  1.00  0.00    +0.000 H 
ATOM    127  H31 UNL A   1      47.458  24.911  29.476  1.00  0.00    +0.000 H 
ATOM    128  H32 UNL A   1      41.294  32.633  31.297  1.00  0.00    +0.000 H 
ENDROOT
BRANCH   25   24
ATOM    130  H34 UNL A   1      39.119  29.790  26.863  1.00  0.00    +0.000 H 
ATOM    131  H35 UNL A   1      36.834  30.419  26.352  1.00  0.00    +0.000 H 
ATOM     82  C58 UNL A   1      38.378  29.659  27.570  1.00  0.00    +0.000 C 
ATOM     83  C59 UNL A   1      37.060  29.984  27.259  1.00  0.00    +0.000 C 
ATOM     21  C16 UNL A   1      36.041  29.719  28.180  1.00  0.00    +0.000 C 
ATOM     22  C17 UNL A   1      36.359  29.245  29.457  1.00  0.00    +0.000 C 
ATOM    118  H22 UNL A   1      35.612  29.091  30.152  1.00  0.00    +0.000 H 
ATOM     23  C18 UNL A   1      37.689  28.981  29.790  1.00  0.00    +0.000 C 
ATOM    119  H23 UNL A   1      37.926  28.655  30.740  1.00  0.00    +0.000 H 
ATOM     24  C19 UNL A   1      38.707  29.158  28.838  1.00  0.00    +0.000 C 
BRANCH   21   19
ATOM     19  C15 UNL A   1      34.621  29.959  27.843  1.00  0.00    +0.000 C 
ATOM     20  O3  UNL A   1      34.202  31.110  27.770  1.00  0.00    +0.000 O 
BRANCH   19   18
ATOM     18  N2  UNL A   1      33.774  28.902  27.626  1.00  0.00    +0.000 N 
ATOM    117  H21 UNL A   1      34.184  28.012  27.710  1.00  0.00    +0.000 H 
BRANCH   18   17
ATOM     17  C14 UNL A   1      32.358  28.905  27.289  1.00  0.00    +0.000 C 
ATOM    115  H19 UNL A   1      31.791  29.027  28.189  1.00  0.00    +0.000 H 
ATOM    116  H20 UNL A   1      32.186  29.710  26.606  1.00  0.00    +0.000 H 
BRANCH   17   16
ATOM    113  H17 UNL A   1      31.196  27.136  27.230  1.00  0.00    +0.000 H 
ATOM    114  H18 UNL A   1      31.542  27.890  25.648  1.00  0.00    +0.000 H 
ATOM     16  C13 UNL A   1      31.924  27.610  26.608  1.00  0.00    +0.000 C 
BRANCH   16   15
ATOM    111  H15 UNL A   1      33.459  26.816  25.377  1.00  0.00    +0.000 H 
ATOM     15  C12 UNL A   1      33.052  26.610  26.345  1.00  0.00    +0.000 C 
ATOM    112  H16 UNL A   1      33.755  26.741  27.143  1.00  0.00    +0.000 H 
BRANCH   15   14
ATOM    110  H14 UNL A   1      31.927  25.008  25.595  1.00  0.00    +0.000 H 
ATOM    109  H13 UNL A   1      32.251  24.924  27.355  1.00  0.00    +0.000 H 
ATOM     14  C11 UNL A   1      32.642  25.134  26.381  1.00  0.00    +0.000 C 
BRANCH   14   13
ATOM    107  H11 UNL A   1      33.942  23.560  26.984  1.00  0.00    +0.000 H 
ATOM    108  H12 UNL A   1      33.436  23.525  25.276  1.00  0.00    +0.000 H 
ATOM     13  C10 UNL A   1      33.765  24.128  26.096  1.00  0.00    +0.000 C 
BRANCH   13   12
ATOM    105  H9  UNL A   1      34.877  25.730  25.240  1.00  0.00    +0.000 H 
ATOM    106  H10 UNL A   1      35.706  24.858  26.531  1.00  0.00    +0.000 H 
ATOM     12  C9  UNL A   1      35.083  24.770  25.666  1.00  0.00    +0.000 C 
BRANCH   12   11
ATOM     11  N1  UNL A   1      35.785  23.967  24.690  1.00  0.00    +0.000 N 
ATOM    104  H8  UNL A   1      36.743  24.171  24.594  1.00  0.00    +0.000 H 
BRANCH   11    9
ATOM      9  C8  UNL A   1      35.321  22.970  23.881  1.00  0.00    +0.000 C 
ATOM     10  O2  UNL A   1      35.642  21.817  24.186  1.00  0.00    +0.000 O 
BRANCH    9    8
ATOM    102  H6  UNL A   1      35.051  24.100  22.117  1.00  0.00    +0.000 H 
ATOM    103  H7  UNL A   1      34.614  22.357  22.022  1.00  0.00    +0.000 H 
ATOM      8  C7  UNL A   1      34.574  23.265  22.587  1.00  0.00    +0.000 C 
BRANCH    8    7
ATOM      3  C2  UNL A   1      30.905  27.172  23.041  1.00  0.00    +0.000 C 
ATOM    100  H4  UNL A   1      32.688  28.280  22.885  1.00  0.00    +0.000 H 
ATOM      4  C3  UNL A   1      32.281  27.332  22.897  1.00  0.00    +0.000 C 
ATOM      5  C4  UNL A   1      33.114  26.214  22.769  1.00  0.00    +0.000 C 
ATOM    101  H5  UNL A   1      34.131  26.338  22.652  1.00  0.00    +0.000 H 
ATOM      6  C5  UNL A   1      32.559  24.916  22.799  1.00  0.00    +0.000 C 
ATOM      7  C6  UNL A   1      33.108  23.590  22.721  1.00  0.00    +0.000 C 
ATOM    138  H42 UNL A   1      30.005  23.069  23.120  1.00  0.00    +0.000 H 
ATOM    139  H43 UNL A   1      29.321  25.773  23.257  1.00  0.00    +0.000 H 
ATOM     84  C60 UNL A   1      32.033  22.698  22.725  1.00  0.00    +0.000 C 
ATOM     94  N8  UNL A   1      30.901  23.448  22.967  1.00  0.00    +0.000 N 
ATOM     95  C68 UNL A   1      31.186  24.791  22.968  1.00  0.00    +0.000 C 
ATOM     96  C69 UNL A   1      30.335  25.896  23.108  1.00  0.00    +0.000 C 
BRANCH    3    2
ATOM      2  O1  UNL A   1      30.032  28.220  23.180  1.00  0.00    +0.000 O 
BRANCH    2    1
ATOM      1  C1  UNL A   1      30.610  29.370  23.795  1.00  0.00    +0.000 C 
ATOM     98  H2  UNL A   1      31.598  29.521  23.411  1.00  0.00    +0.000 H 
ATOM     99  H3  UNL A   1      30.658  29.224  24.853  1.00  0.00    +0.000 H 
ATOM     97  H1  UNL A   1      30.010  30.229  23.580  1.00  0.00    +0.000 H 
ENDBRANCH    2    1
ENDBRANCH    3    2
BRANCH   84   85
ATOM     85  C61 UNL A   1      32.063  21.250  22.540  1.00  0.00    +0.000 C 
ATOM     86  O4  UNL A   1      31.802  20.704  21.473  1.00  0.00    +0.000 O 
BRANCH   85   87
ATOM    132  H36 UNL A   1      32.452  18.582  22.581  1.00  0.00    +0.000 H 
ATOM    136  H40 UNL A   1      33.258  18.299  26.708  1.00  0.00    +0.000 H 
ATOM    137  H41 UNL A   1      32.935  20.670  26.875  1.00  0.00    +0.000 H 
ATOM     87  C62 UNL A   1      32.366  20.372  23.704  1.00  0.00    +0.000 C 
ATOM     88  C63 UNL A   1      32.547  19.005  23.517  1.00  0.00    +0.000 C 
ATOM     89  C64 UNL A   1      32.861  18.220  24.630  1.00  0.00    +0.000 C 
ATOM     91  C66 UNL A   1      33.009  18.848  25.870  1.00  0.00    +0.000 C 
ATOM     92  C67 UNL A   1      32.814  20.218  25.956  1.00  0.00    +0.000 C 
ATOM     93  N7  UNL A   1      32.477  20.992  24.906  1.00  0.00    +0.000 N 
BRANCH   89   90
ATOM     90  C65 UNL A   1      33.069  16.741  24.507  1.00  0.00    +0.000 C 
ATOM    133  H37 UNL A   1      33.727  16.407  25.282  1.00  0.00    +0.000 H 
ATOM    134  H38 UNL A   1      33.500  16.519  23.553  1.00  0.00    +0.000 H 
ATOM    135  H39 UNL A   1      32.128  16.239  24.598  1.00  0.00    +0.000 H 
ENDBRANCH   89   90
ENDBRANCH   85   87
ENDBRANCH   84   85
ENDBRANCH    8    7
ENDBRANCH    9    8
ENDBRANCH   11    9
ENDBRANCH   12   11
ENDBRANCH   13   12
ENDBRANCH   14   13
ENDBRANCH   15   14
ENDBRANCH   16   15
ENDBRANCH   17   16
ENDBRANCH   18   17
ENDBRANCH   19   18
ENDBRANCH   21   19
ENDBRANCH   25   24
BRANCH   29   30
ATOM     33  C26 UNL A   1      44.117  34.977  32.078  1.00  0.00    +0.000 C 
ATOM     34  F2  UNL A   1      44.450  36.073  31.382  1.00  0.00    +0.000 F 
ATOM     35  C27 UNL A   1      43.829  35.076  33.431  1.00  0.00    +0.000 C 
ATOM     36  F3  UNL A   1      43.865  36.270  34.039  1.00  0.00    +0.000 F 
ATOM     37  C28 UNL A   1      43.512  33.937  34.155  1.00  0.00    +0.000 C 
ATOM     38  F4  UNL A   1      43.222  34.034  35.460  1.00  0.00    +0.000 F 
ATOM     39  C29 UNL A   1      43.497  32.693  33.530  1.00  0.00    +0.000 C 
ATOM     40  F5  UNL A   1      43.201  31.608  34.261  1.00  0.00    +0.000 F 
ATOM     30  C24 UNL A   1      43.777  32.569  32.161  1.00  0.00    +0.000 C 
ATOM     31  C25 UNL A   1      44.075  33.738  31.444  1.00  0.00    +0.000 C 
ATOM     32  F1  UNL A   1      44.361  33.673  30.134  1.00  0.00    +0.000 F 
ENDBRANCH   29   30
BRANCH   46   47
ATOM     47  C35 UNL A   1      48.182  27.013  30.851  1.00  0.00    +0.000 C 
ATOM     48  C36 UNL A   1      49.252  27.437  30.051  1.00  0.00    +0.000 C 
ATOM     49  F6  UNL A   1      49.024  28.179  28.956  1.00  0.00    +0.000 F 
ATOM     50  C37 UNL A   1      50.560  27.066  30.351  1.00  0.00    +0.000 C 
ATOM     51  F7  UNL A   1      51.563  27.445  29.547  1.00  0.00    +0.000 F 
ATOM     52  C38 UNL A   1      50.825  26.294  31.473  1.00  0.00    +0.000 C 
ATOM     53  F8  UNL A   1      52.086  25.943  31.763  1.00  0.00    +0.000 F 
ATOM     54  C39 UNL A   1      49.783  25.878  32.288  1.00  0.00    +0.000 C 
ATOM     55  F9  UNL A   1      50.038  25.143  33.378  1.00  0.00    +0.000 F 
ATOM     56  C40 UNL A   1      48.472  26.223  31.975  1.00  0.00    +0.000 C 
ATOM     57  F10 UNL A   1      47.483  25.797  32.776  1.00  0.00    +0.000 F 
ENDBRANCH   46   47
BRANCH   61   62
ATOM     65  C46 UNL A   1      42.561  21.487  27.276  1.00  0.00    +0.000 C 
ATOM     66  F12 UNL A   1      42.182  20.376  27.920  1.00  0.00    +0.000 F 
ATOM     67  C47 UNL A   1      42.900  21.431  25.932  1.00  0.00    +0.000 C 
ATOM     68  F13 UNL A   1      42.831  20.266  25.272  1.00  0.00    +0.000 F 
ATOM     69  C48 UNL A   1      43.318  22.579  25.276  1.00  0.00    +0.000 C 
ATOM     70  F14 UNL A   1      43.633  22.529  23.975  1.00  0.00    +0.000 F 
ATOM     71  C49 UNL A   1      43.411  23.785  25.969  1.00  0.00    +0.000 C 
ATOM     72  F15 UNL A   1      43.830  24.876  25.313  1.00  0.00    +0.000 F 
ATOM     62  C44 UNL A   1      43.066  23.869  27.325  1.00  0.00    +0.000 C 
ATOM     63  C45 UNL A   1      42.629  22.699  27.963  1.00  0.00    +0.000 C 
ATOM     64  F11 UNL A   1      42.308  22.726  29.264  1.00  0.00    +0.000 F 
ENDBRANCH   61   62
TORSDOF 21
ENDMDL
MODEL 4
REMARK VINA RESULT:     -10.0     33.568     38.958
ROOT
ATOM    129  H33 UNL A   1       9.400   2.899  23.860  1.00  0.00    +0.000 H 
ATOM     25  C20 UNL A   1      10.675   3.146  21.325  1.00  0.00    +0.000 C 
ATOM     26  C21 UNL A   1       9.738   4.121  21.980  1.00  0.00    +0.000 C 
ATOM     27  N3  UNL A   1       9.309   5.280  21.545  1.00  0.00    +0.000 N 
ATOM     28  C22 UNL A   1       8.433   5.747  22.514  1.00  0.00    +0.000 C 
ATOM     29  C23 UNL A   1       7.772   6.929  22.556  1.00  0.00    +0.000 C 
ATOM     41  C30 UNL A   1       7.877   7.954  21.551  1.00  0.00    +0.000 C 
ATOM     42  C31 UNL A   1       7.300   9.212  21.536  1.00  0.00    +0.000 C 
ATOM     43  C32 UNL A   1       7.649   9.839  20.335  1.00  0.00    +0.000 C 
ATOM     44  C33 UNL A   1       8.478   8.990  19.622  1.00  0.00    +0.000 C 
ATOM     45  N4  UNL A   1       8.608   7.835  20.377  1.00  0.00    +0.000 N 
ATOM     46  C34 UNL A   1       9.107   9.213  18.345  1.00  0.00    +0.000 C 
ATOM     58  C41 UNL A   1       9.926   8.334  17.718  1.00  0.00    +0.000 C 
ATOM     59  N5  UNL A   1      10.335   7.073  18.133  1.00  0.00    +0.000 N 
ATOM     60  C42 UNL A   1      11.107   6.613  17.179  1.00  0.00    +0.000 C 
ATOM     61  C43 UNL A   1      11.846   5.306  17.105  1.00  0.00    +0.000 C 
ATOM     73  C50 UNL A   1      11.764   4.443  18.135  1.00  0.00    +0.000 C 
ATOM     74  C51 UNL A   1      12.431   3.146  18.209  1.00  0.00    +0.000 C 
ATOM     75  C52 UNL A   1      12.090   2.543  19.359  1.00  0.00    +0.000 C 
ATOM     76  C53 UNL A   1      11.207   3.428  20.120  1.00  0.00    +0.000 C 
ATOM     77  N6  UNL A   1      11.072   4.534  19.318  1.00  0.00    +0.000 N 
ATOM     78  C54 UNL A   1      11.257   7.524  16.036  1.00  0.00    +0.000 C 
ATOM     79  C55 UNL A   1      10.549   8.572  16.433  1.00  0.00    +0.000 C 
ATOM     80  C56 UNL A   1       8.352   4.728  23.539  1.00  0.00    +0.000 C 
ATOM     81  C57 UNL A   1       9.189   3.731  23.288  1.00  0.00    +0.000 C 
ATOM    120  H24 UNL A   1       6.714   9.617  22.284  1.00  0.00    +0.000 H 
ATOM    121  H25 UNL A   1       7.339  10.777  20.033  1.00  0.00    +0.000 H 
ATOM    122  H26 UNL A   1       9.139   7.048  20.120  1.00  0.00    +0.000 H 
ATOM    123  H27 UNL A   1      13.062   2.755  17.492  1.00  0.00    +0.000 H 
ATOM    124  H28 UNL A   1      12.402   1.606  19.659  1.00  0.00    +0.000 H 
ATOM    125  H29 UNL A   1      10.531   5.317  19.567  1.00  0.00    +0.000 H 
ATOM    126  H30 UNL A   1      11.777   7.384  15.156  1.00  0.00    +0.000 H 
ATOM    127  H31 UNL A   1      10.454   9.448  15.894  1.00  0.00    +0.000 H 
ATOM    128  H32 UNL A   1       7.724   4.771  24.356  1.00  0.00    +0.000 H 
ENDROOT
BRANCH   25   24
ATOM    130  H34 UNL A   1       9.201   0.907  21.274  1.00  0.00    +0.000 H 
ATOM    131  H35 UNL A   1       9.624  -1.211  22.374  1.00  0.00    +0.000 H 
ATOM     82  C58 UNL A   1      10.064   0.776  21.824  1.00  0.00    +0.000 C 
ATOM     83  C59 UNL A   1      10.324  -0.455  22.422  1.00  0.00    +0.000 C 
ATOM     21  C16 UNL A   1      11.536  -0.665  23.087  1.00  0.00    +0.000 C 
ATOM     22  C17 UNL A   1      12.432   0.394  23.260  1.00  0.00    +0.000 C 
ATOM    118  H22 UNL A   1      13.306   0.251  23.788  1.00  0.00    +0.000 H 
ATOM     23  C18 UNL A   1      12.140   1.647  22.716  1.00  0.00    +0.000 C 
ATOM    119  H23 UNL A   1      12.789   2.435  22.865  1.00  0.00    +0.000 H 
ATOM     24  C19 UNL A   1      10.967   1.840  21.968  1.00  0.00    +0.000 C 
BRANCH   21   19
ATOM     19  C15 UNL A   1      11.884  -1.991  23.645  1.00  0.00    +0.000 C 
ATOM     20  O3  UNL A   1      12.355  -2.853  22.910  1.00  0.00    +0.000 O 
BRANCH   19   18
ATOM     18  N2  UNL A   1      11.670  -2.259  24.973  1.00  0.00    +0.000 N 
ATOM    117  H21 UNL A   1      10.730  -2.412  25.224  1.00  0.00    +0.000 H 
BRANCH   18   17
ATOM     17  C14 UNL A   1      12.627  -2.352  26.065  1.00  0.00    +0.000 C 
ATOM    115  H19 UNL A   1      12.141  -2.061  26.973  1.00  0.00    +0.000 H 
ATOM    116  H20 UNL A   1      12.972  -3.364  26.114  1.00  0.00    +0.000 H 
BRANCH   17   16
ATOM    113  H17 UNL A   1      14.717  -2.013  26.095  1.00  0.00    +0.000 H 
ATOM    114  H18 UNL A   1      13.808  -1.147  24.823  1.00  0.00    +0.000 H 
ATOM     16  C13 UNL A   1      13.840  -1.453  25.848  1.00  0.00    +0.000 C 
BRANCH   16   15
ATOM    111  H15 UNL A   1      12.964   0.387  26.438  1.00  0.00    +0.000 H 
ATOM     15  C12 UNL A   1      13.847  -0.167  26.680  1.00  0.00    +0.000 C 
ATOM    112  H16 UNL A   1      13.892  -0.478  27.703  1.00  0.00    +0.000 H 
BRANCH   15   14
ATOM    110  H14 UNL A   1      14.656   1.723  26.269  1.00  0.00    +0.000 H 
ATOM    109  H13 UNL A   1      15.628   0.351  25.649  1.00  0.00    +0.000 H 
ATOM     14  C11 UNL A   1      15.056   0.749  26.461  1.00  0.00    +0.000 C 
BRANCH   14   13
ATOM    107  H11 UNL A   1      15.502   0.501  28.528  1.00  0.00    +0.000 H 
ATOM    108  H12 UNL A   1      16.897   0.393  27.423  1.00  0.00    +0.000 H 
ATOM     13  C10 UNL A   1      15.991   0.907  27.667  1.00  0.00    +0.000 C 
BRANCH   13   12
ATOM    105  H9  UNL A   1      16.441   2.476  29.034  1.00  0.00    +0.000 H 
ATOM    106  H10 UNL A   1      17.316   2.553  27.503  1.00  0.00    +0.000 H 
ATOM     12  C9  UNL A   1      16.376   2.354  27.973  1.00  0.00    +0.000 C 
BRANCH   12   11
ATOM     11  N1  UNL A   1      15.408   3.294  27.453  1.00  0.00    +0.000 N 
ATOM    104  H8  UNL A   1      15.505   3.505  26.496  1.00  0.00    +0.000 H 
BRANCH   11    9
ATOM      9  C8  UNL A   1      14.382   3.934  28.086  1.00  0.00    +0.000 C 
ATOM     10  O2  UNL A   1      14.316   5.158  27.933  1.00  0.00    +0.000 O 
BRANCH    9    8
ATOM    102  H6  UNL A   1      13.567   2.157  28.884  1.00  0.00    +0.000 H 
ATOM    103  H7  UNL A   1      13.741   3.536  30.026  1.00  0.00    +0.000 H 
ATOM      8  C7  UNL A   1      13.452   3.208  29.049  1.00  0.00    +0.000 C 
BRANCH    8    7
ATOM      3  C2  UNL A   1       8.853   2.170  26.458  1.00  0.00    +0.000 C 
ATOM    100  H4  UNL A   1      10.183   0.840  25.513  1.00  0.00    +0.000 H 
ATOM      4  C3  UNL A   1      10.087   1.562  26.244  1.00  0.00    +0.000 C 
ATOM      5  C4  UNL A   1      11.199   1.923  27.016  1.00  0.00    +0.000 C 
ATOM    101  H5  UNL A   1      12.108   1.462  26.859  1.00  0.00    +0.000 H 
ATOM      6  C5  UNL A   1      11.072   2.920  28.007  1.00  0.00    +0.000 C 
ATOM      7  C6  UNL A   1      11.984   3.532  28.934  1.00  0.00    +0.000 C 
ATOM    138  H42 UNL A   1       9.259   5.060  29.482  1.00  0.00    +0.000 H 
ATOM    139  H43 UNL A   1       7.808   3.667  27.544  1.00  0.00    +0.000 H 
ATOM     84  C60 UNL A   1      11.240   4.410  29.726  1.00  0.00    +0.000 C 
ATOM     94  N8  UNL A   1       9.972   4.448  29.185  1.00  0.00    +0.000 N 
ATOM     95  C68 UNL A   1       9.833   3.525  28.179  1.00  0.00    +0.000 C 
ATOM     96  C69 UNL A   1       8.711   3.184  27.411  1.00  0.00    +0.000 C 
BRANCH    3    2
ATOM      2  O1  UNL A   1       7.728   1.872  25.736  1.00  0.00    +0.000 O 
BRANCH    2    1
ATOM      1  C1  UNL A   1       6.537   2.457  26.261  1.00  0.00    +0.000 C 
ATOM     98  H2  UNL A   1       6.275   1.970  27.178  1.00  0.00    +0.000 H 
ATOM     99  H3  UNL A   1       5.741   2.342  25.556  1.00  0.00    +0.000 H 
ATOM     97  H1  UNL A   1       6.703   3.497  26.447  1.00  0.00    +0.000 H 
ENDBRANCH    2    1
ENDBRANCH    3    2
BRANCH   84   85
ATOM     85  C61 UNL A   1      11.686   5.173  30.889  1.00  0.00    +0.000 C 
ATOM     86  O4  UNL A   1      11.306   4.939  32.032  1.00  0.00    +0.000 O 
BRANCH   85   87
ATOM    132  H36 UNL A   1      11.159   7.557  29.745  1.00  0.00    +0.000 H 
ATOM    136  H40 UNL A   1      14.977   9.224  30.383  1.00  0.00    +0.000 H 
ATOM    137  H41 UNL A   1      15.638   7.167  31.424  1.00  0.00    +0.000 H 
ATOM     87  C62 UNL A   1      12.600   6.332  30.693  1.00  0.00    +0.000 C 
ATOM     88  C63 UNL A   1      12.131   7.494  30.085  1.00  0.00    +0.000 C 
ATOM     89  C64 UNL A   1      13.011   8.570  29.947  1.00  0.00    +0.000 C 
ATOM     91  C66 UNL A   1      14.308   8.442  30.452  1.00  0.00    +0.000 C 
ATOM     92  C67 UNL A   1      14.681   7.246  31.047  1.00  0.00    +0.000 C 
ATOM     93  N7  UNL A   1      13.864   6.181  31.161  1.00  0.00    +0.000 N 
BRANCH   89   90
ATOM     90  C65 UNL A   1      12.579   9.853  29.303  1.00  0.00    +0.000 C 
ATOM    133  H37 UNL A   1      13.104   9.983  28.379  1.00  0.00    +0.000 H 
ATOM    134  H38 UNL A   1      12.797  10.671  29.956  1.00  0.00    +0.000 H 
ATOM    135  H39 UNL A   1      11.526   9.820  29.113  1.00  0.00    +0.000 H 
ENDBRANCH   89   90
ENDBRANCH   85   87
ENDBRANCH   84   85
ENDBRANCH    8    7
ENDBRANCH    9    8
ENDBRANCH   11    9
ENDBRANCH   12   11
ENDBRANCH   13   12
ENDBRANCH   14   13
ENDBRANCH   15   14
ENDBRANCH   16   15
ENDBRANCH   17   16
ENDBRANCH   18   17
ENDBRANCH   19   18
ENDBRANCH   21   19
ENDBRANCH   25   24
BRANCH   29   30
ATOM     33  C26 UNL A   1       4.723   6.993  24.849  1.00  0.00    +0.000 C 
ATOM     34  F2  UNL A   1       3.435   6.622  24.819  1.00  0.00    +0.000 F 
ATOM     35  C27 UNL A   1       5.235   7.624  25.973  1.00  0.00    +0.000 C 
ATOM     36  F3  UNL A   1       4.449   7.844  27.036  1.00  0.00    +0.000 F 
ATOM     37  C28 UNL A   1       6.560   8.032  25.992  1.00  0.00    +0.000 C 
ATOM     38  F4  UNL A   1       7.059   8.631  27.082  1.00  0.00    +0.000 F 
ATOM     39  C29 UNL A   1       7.371   7.824  24.879  1.00  0.00    +0.000 C 
ATOM     40  F5  UNL A   1       8.645   8.244  24.923  1.00  0.00    +0.000 F 
ATOM     30  C24 UNL A   1       6.877   7.181  23.735  1.00  0.00    +0.000 C 
ATOM     31  C25 UNL A   1       5.539   6.758  23.746  1.00  0.00    +0.000 C 
ATOM     32  F1  UNL A   1       5.015   6.148  22.672  1.00  0.00    +0.000 F 
ENDBRANCH   29   30
BRANCH   46   47
ATOM     47  C35 UNL A   1       8.857  10.524  17.660  1.00  0.00    +0.000 C 
ATOM     48  C36 UNL A   1       7.770  10.704  16.793  1.00  0.00    +0.000 C 
ATOM     49  F6  UNL A   1       6.948   9.680  16.518  1.00  0.00    +0.000 F 
ATOM     50  C37 UNL A   1       7.546  11.930  16.172  1.00  0.00    +0.000 C 
ATOM     51  F7  UNL A   1       6.527  12.067  15.313  1.00  0.00    +0.000 F 
ATOM     52  C38 UNL A   1       8.383  13.006  16.433  1.00  0.00    +0.000 C 
ATOM     53  F8  UNL A   1       8.161  14.187  15.839  1.00  0.00    +0.000 F 
ATOM     54  C39 UNL A   1       9.453  12.855  17.301  1.00  0.00    +0.000 C 
ATOM     55  F9  UNL A   1      10.255  13.896  17.562  1.00  0.00    +0.000 F 
ATOM     56  C40 UNL A   1       9.697  11.623  17.901  1.00  0.00    +0.000 C 
ATOM     57  F10 UNL A   1      10.747  11.504  18.727  1.00  0.00    +0.000 F 
ENDBRANCH   46   47
BRANCH   61   62
ATOM     65  C46 UNL A   1      12.929   3.934  13.736  1.00  0.00    +0.000 C 
ATOM     66  F12 UNL A   1      12.399   3.225  12.730  1.00  0.00    +0.000 F 
ATOM     67  C47 UNL A   1      14.260   4.322  13.687  1.00  0.00    +0.000 C 
ATOM     68  F13 UNL A   1      15.013   4.004  12.625  1.00  0.00    +0.000 F 
ATOM     69  C48 UNL A   1      14.810   5.033  14.743  1.00  0.00    +0.000 C 
ATOM     70  F14 UNL A   1      16.092   5.420  14.693  1.00  0.00    +0.000 F 
ATOM     71  C49 UNL A   1      14.034   5.345  15.857  1.00  0.00    +0.000 C 
ATOM     72  F15 UNL A   1      14.595   6.021  16.869  1.00  0.00    +0.000 F 
ATOM     62  C44 UNL A   1      12.684   4.971  15.925  1.00  0.00    +0.000 C 
ATOM     63  C45 UNL A   1      12.144   4.269  14.838  1.00  0.00    +0.000 C 
ATOM     64  F11 UNL A   1      10.863   3.872  14.867  1.00  0.00    +0.000 F 
ENDBRANCH   61   62
TORSDOF 21
ENDMDL
MODEL 5
REMARK VINA RESULT:     -10.0      2.888      5.111
ROOT
ATOM    129  H33 UNL A   1      36.821  31.992  31.755  1.00  0.00    +0.000 H 
ATOM     25  C20 UNL A   1      38.331  30.209  30.125  1.00  0.00    +0.000 C 
ATOM     26  C21 UNL A   1      38.638  30.654  31.528  1.00  0.00    +0.000 C 
ATOM     27  N3  UNL A   1      39.643  30.325  32.301  1.00  0.00    +0.000 N 
ATOM     28  C22 UNL A   1      39.471  31.049  33.473  1.00  0.00    +0.000 C 
ATOM     29  C23 UNL A   1      40.216  31.015  34.603  1.00  0.00    +0.000 C 
ATOM     41  C30 UNL A   1      41.370  30.175  34.790  1.00  0.00    +0.000 C 
ATOM     42  C31 UNL A   1      42.152  30.019  35.922  1.00  0.00    +0.000 C 
ATOM     43  C32 UNL A   1      43.189  29.131  35.618  1.00  0.00    +0.000 C 
ATOM     44  C33 UNL A   1      43.029  28.699  34.312  1.00  0.00    +0.000 C 
ATOM     45  N4  UNL A   1      41.911  29.350  33.814  1.00  0.00    +0.000 N 
ATOM     46  C34 UNL A   1      43.835  27.763  33.571  1.00  0.00    +0.000 C 
ATOM     58  C41 UNL A   1      43.599  27.376  32.293  1.00  0.00    +0.000 C 
ATOM     59  N5  UNL A   1      42.578  27.767  31.437  1.00  0.00    +0.000 N 
ATOM     60  C42 UNL A   1      42.790  27.131  30.311  1.00  0.00    +0.000 C 
ATOM     61  C43 UNL A   1      41.984  27.155  29.042  1.00  0.00    +0.000 C 
ATOM     73  C50 UNL A   1      40.863  27.900  28.987  1.00  0.00    +0.000 C 
ATOM     74  C51 UNL A   1      39.978  28.014  27.832  1.00  0.00    +0.000 C 
ATOM     75  C52 UNL A   1      38.987  28.872  28.123  1.00  0.00    +0.000 C 
ATOM     76  C53 UNL A   1      39.149  29.341  29.499  1.00  0.00    +0.000 C 
ATOM     77  N6  UNL A   1      40.286  28.709  29.935  1.00  0.00    +0.000 N 
ATOM     78  C54 UNL A   1      43.987  26.279  30.318  1.00  0.00    +0.000 C 
ATOM     79  C55 UNL A   1      44.420  26.434  31.561  1.00  0.00    +0.000 C 
ATOM     80  C56 UNL A   1      38.292  31.869  33.294  1.00  0.00    +0.000 C 
ATOM     81  C57 UNL A   1      37.703  31.615  32.134  1.00  0.00    +0.000 C 
ATOM    120  H24 UNL A   1      41.995  30.479  36.832  1.00  0.00    +0.000 H 
ATOM    121  H25 UNL A   1      43.946  28.846  36.260  1.00  0.00    +0.000 H 
ATOM    122  H26 UNL A   1      41.554  29.243  32.904  1.00  0.00    +0.000 H 
ATOM    123  H27 UNL A   1      40.096  27.516  26.935  1.00  0.00    +0.000 H 
ATOM    124  H28 UNL A   1      38.231  29.153  27.478  1.00  0.00    +0.000 H 
ATOM    125  H29 UNL A   1      40.653  28.824  30.841  1.00  0.00    +0.000 H 
ATOM    126  H30 UNL A   1      44.386  25.709  29.556  1.00  0.00    +0.000 H 
ATOM    127  H31 UNL A   1      45.240  25.947  31.957  1.00  0.00    +0.000 H 
ATOM    128  H32 UNL A   1      37.955  32.563  33.980  1.00  0.00    +0.000 H 
ENDROOT
BRANCH   25   24
ATOM    130  H34 UNL A   1      35.978  29.036  29.600  1.00  0.00    +0.000 H 
ATOM    131  H35 UNL A   1      34.093  29.913  28.353  1.00  0.00    +0.000 H 
ATOM     82  C58 UNL A   1      36.012  29.996  29.223  1.00  0.00    +0.000 C 
ATOM     83  C59 UNL A   1      34.911  30.512  28.541  1.00  0.00    +0.000 C 
ATOM     21  C16 UNL A   1      34.917  31.843  28.113  1.00  0.00    +0.000 C 
ATOM     22  C17 UNL A   1      36.071  32.619  28.258  1.00  0.00    +0.000 C 
ATOM    118  H22 UNL A   1      36.091  33.588  27.903  1.00  0.00    +0.000 H 
ATOM     23  C18 UNL A   1      37.197  32.080  28.883  1.00  0.00    +0.000 C 
ATOM    119  H23 UNL A   1      38.058  32.644  28.968  1.00  0.00    +0.000 H 
ATOM     24  C19 UNL A   1      37.166  30.774  29.398  1.00  0.00    +0.000 C 
BRANCH   21   19
ATOM     19  C15 UNL A   1      33.727  32.449  27.477  1.00  0.00    +0.000 C 
ATOM     20  O3  UNL A   1      33.385  33.585  27.789  1.00  0.00    +0.000 O 
BRANCH   19   18
ATOM     18  N2  UNL A   1      33.001  31.740  26.553  1.00  0.00    +0.000 N 
ATOM    117  H21 UNL A   1      33.374  31.734  25.642  1.00  0.00    +0.000 H 
BRANCH   18   17
ATOM     17  C14 UNL A   1      31.761  30.998  26.721  1.00  0.00    +0.000 C 
ATOM    115  H19 UNL A   1      31.785  30.500  27.668  1.00  0.00    +0.000 H 
ATOM    116  H20 UNL A   1      30.952  31.696  26.667  1.00  0.00    +0.000 H 
BRANCH   17   16
ATOM    113  H17 UNL A   1      30.696  30.238  25.056  1.00  0.00    +0.000 H 
ATOM    114  H18 UNL A   1      32.459  29.948  25.048  1.00  0.00    +0.000 H 
ATOM     16  C13 UNL A   1      31.557  29.957  25.624  1.00  0.00    +0.000 C 
BRANCH   16   15
ATOM    111  H15 UNL A   1      30.375  28.462  26.556  1.00  0.00    +0.000 H 
ATOM     15  C12 UNL A   1      31.352  28.525  26.125  1.00  0.00    +0.000 C 
ATOM    112  H16 UNL A   1      31.486  27.892  25.272  1.00  0.00    +0.000 H 
BRANCH   15   14
ATOM    110  H14 UNL A   1      32.013  27.090  27.504  1.00  0.00    +0.000 H 
ATOM    109  H13 UNL A   1      32.409  28.780  27.947  1.00  0.00    +0.000 H 
ATOM     14  C11 UNL A   1      32.364  28.045  27.171  1.00  0.00    +0.000 C 
BRANCH   14   13
ATOM    107  H11 UNL A   1      34.210  28.761  26.390  1.00  0.00    +0.000 H 
ATOM    108  H12 UNL A   1      34.327  27.327  27.441  1.00  0.00    +0.000 H 
ATOM     13  C10 UNL A   1      33.790  27.813  26.655  1.00  0.00    +0.000 C 
BRANCH   13   12
ATOM    105  H9  UNL A   1      34.415  26.015  25.703  1.00  0.00    +0.000 H 
ATOM    106  H10 UNL A   1      32.873  26.658  25.133  1.00  0.00    +0.000 H 
ATOM     12  C9  UNL A   1      33.871  26.897  25.435  1.00  0.00    +0.000 C 
BRANCH   12   11
ATOM     11  N1  UNL A   1      34.535  27.535  24.320  1.00  0.00    +0.000 N 
ATOM    104  H8  UNL A   1      35.502  27.680  24.439  1.00  0.00    +0.000 H 
BRANCH   11    9
ATOM      9  C8  UNL A   1      34.027  27.966  23.129  1.00  0.00    +0.000 C 
ATOM     10  O2  UNL A   1      34.233  29.149  22.837  1.00  0.00    +0.000 O 
BRANCH    9    8
ATOM    102  H6  UNL A   1      33.135  27.483  21.278  1.00  0.00    +0.000 H 
ATOM    103  H7  UNL A   1      33.529  26.099  22.357  1.00  0.00    +0.000 H 
ATOM      8  C7  UNL A   1      33.127  27.087  22.272  1.00  0.00    +0.000 C 
BRANCH    8    7
ATOM      3  C2  UNL A   1      28.408  29.624  22.753  1.00  0.00    +0.000 C 
ATOM    100  H4  UNL A   1      29.606  31.116  21.874  1.00  0.00    +0.000 H 
ATOM      4  C3  UNL A   1      29.584  30.143  22.216  1.00  0.00    +0.000 C 
ATOM      5  C4  UNL A   1      30.736  29.351  22.137  1.00  0.00    +0.000 C 
ATOM    101  H5  UNL A   1      31.601  29.737  21.729  1.00  0.00    +0.000 H 
ATOM      6  C5  UNL A   1      30.711  28.024  22.617  1.00  0.00    +0.000 C 
ATOM      7  C6  UNL A   1      31.689  26.974  22.709  1.00  0.00    +0.000 C 
ATOM    138  H42 UNL A   1      29.109  25.682  24.029  1.00  0.00    +0.000 H 
ATOM    139  H43 UNL A   1      27.511  27.949  23.703  1.00  0.00    +0.000 H 
ATOM     84  C60 UNL A   1      31.035  25.845  23.208  1.00  0.00    +0.000 C 
ATOM     94  N8  UNL A   1      29.764  26.249  23.559  1.00  0.00    +0.000 N 
ATOM     95  C68 UNL A   1      29.530  27.545  23.169  1.00  0.00    +0.000 C 
ATOM     96  C69 UNL A   1      28.368  28.323  23.266  1.00  0.00    +0.000 C 
BRANCH    3    2
ATOM      2  O1  UNL A   1      27.248  30.344  22.869  1.00  0.00    +0.000 O 
BRANCH    2    1
ATOM      1  C1  UNL A   1      27.422  31.618  23.487  1.00  0.00    +0.000 C 
ATOM     98  H2  UNL A   1      26.559  31.847  24.078  1.00  0.00    +0.000 H 
ATOM     99  H3  UNL A   1      27.547  32.366  22.733  1.00  0.00    +0.000 H 
ATOM     97  H1  UNL A   1      28.287  31.594  24.115  1.00  0.00    +0.000 H 
ENDBRANCH    2    1
ENDBRANCH    3    2
BRANCH   84   85
ATOM     85  C61 UNL A   1      31.565  24.493  23.367  1.00  0.00    +0.000 C 
ATOM     86  O4  UNL A   1      31.934  23.801  22.423  1.00  0.00    +0.000 O 
BRANCH   85   87
ATOM    132  H36 UNL A   1      29.515  23.819  24.984  1.00  0.00    +0.000 H 
ATOM    136  H40 UNL A   1      31.884  22.228  28.086  1.00  0.00    +0.000 H 
ATOM    137  H41 UNL A   1      33.833  22.766  26.796  1.00  0.00    +0.000 H 
ATOM     87  C62 UNL A   1      31.614  23.884  24.725  1.00  0.00    +0.000 C 
ATOM     88  C63 UNL A   1      30.432  23.596  25.402  1.00  0.00    +0.000 C 
ATOM     89  C64 UNL A   1      30.519  22.997  26.661  1.00  0.00    +0.000 C 
ATOM     91  C66 UNL A   1      31.785  22.687  27.167  1.00  0.00    +0.000 C 
ATOM     92  C67 UNL A   1      32.905  23.008  26.415  1.00  0.00    +0.000 C 
ATOM     93  N7  UNL A   1      32.850  23.617  25.215  1.00  0.00    +0.000 N 
BRANCH   89   90
ATOM     90  C65 UNL A   1      29.291  22.657  27.450  1.00  0.00    +0.000 C 
ATOM    133  H37 UNL A   1      29.554  22.010  28.260  1.00  0.00    +0.000 H 
ATOM    134  H38 UNL A   1      28.584  22.166  26.816  1.00  0.00    +0.000 H 
ATOM    135  H39 UNL A   1      28.857  23.555  27.839  1.00  0.00    +0.000 H 
ENDBRANCH   89   90
ENDBRANCH   85   87
ENDBRANCH   84   85
ENDBRANCH    8    7
ENDBRANCH    9    8
ENDBRANCH   11    9
ENDBRANCH   12   11
ENDBRANCH   13   12
ENDBRANCH   14   13
ENDBRANCH   15   14
ENDBRANCH   16   15
ENDBRANCH   17   16
ENDBRANCH   18   17
ENDBRANCH   19   18
ENDBRANCH   21   19
ENDBRANCH   25   24
BRANCH   29   30
ATOM     33  C26 UNL A   1      38.372  32.406  37.640  1.00  0.00    +0.000 C 
ATOM     34  F2  UNL A   1      37.326  32.084  38.415  1.00  0.00    +0.000 F 
ATOM     35  C27 UNL A   1      39.073  33.579  37.876  1.00  0.00    +0.000 C 
ATOM     36  F3  UNL A   1      38.720  34.380  38.890  1.00  0.00    +0.000 F 
ATOM     37  C28 UNL A   1      40.137  33.924  37.056  1.00  0.00    +0.000 C 
ATOM     38  F4  UNL A   1      40.823  35.051  37.291  1.00  0.00    +0.000 F 
ATOM     39  C29 UNL A   1      40.491  33.104  35.988  1.00  0.00    +0.000 C 
ATOM     40  F5  UNL A   1      41.516  33.473  35.204  1.00  0.00    +0.000 F 
ATOM     30  C24 UNL A   1      39.801  31.909  35.734  1.00  0.00    +0.000 C 
ATOM     31  C25 UNL A   1      38.741  31.570  36.590  1.00  0.00    +0.000 C 
ATOM     32  F1  UNL A   1      38.042  30.443  36.384  1.00  0.00    +0.000 F 
ENDBRANCH   29   30
BRANCH   46   47
ATOM     47  C35 UNL A   1      45.015  27.151  34.265  1.00  0.00    +0.000 C 
ATOM     48  C36 UNL A   1      44.906  25.948  34.978  1.00  0.00    +0.000 C 
ATOM     49  F6  UNL A   1      43.716  25.338  35.093  1.00  0.00    +0.000 F 
ATOM     50  C37 UNL A   1      46.013  25.387  35.609  1.00  0.00    +0.000 C 
ATOM     51  F7  UNL A   1      45.876  24.261  36.322  1.00  0.00    +0.000 F 
ATOM     52  C38 UNL A   1      47.254  25.999  35.512  1.00  0.00    +0.000 C 
ATOM     53  F8  UNL A   1      48.320  25.454  36.115  1.00  0.00    +0.000 F 
ATOM     54  C39 UNL A   1      47.388  27.180  34.797  1.00  0.00    +0.000 C 
ATOM     55  F9  UNL A   1      48.589  27.766  34.693  1.00  0.00    +0.000 F 
ATOM     56  C40 UNL A   1      46.278  27.759  34.189  1.00  0.00    +0.000 C 
ATOM     57  F10 UNL A   1      46.437  28.908  33.515  1.00  0.00    +0.000 F 
ENDBRANCH   46   47
BRANCH   61   62
ATOM     65  C46 UNL A   1      42.259  24.295  26.563  1.00  0.00    +0.000 C 
ATOM     66  F12 UNL A   1      41.771  23.056  26.410  1.00  0.00    +0.000 F 
ATOM     67  C47 UNL A   1      43.166  24.803  25.644  1.00  0.00    +0.000 C 
ATOM     68  F13 UNL A   1      43.541  24.062  24.592  1.00  0.00    +0.000 F 
ATOM     69  C48 UNL A   1      43.688  26.075  25.822  1.00  0.00    +0.000 C 
ATOM     70  F14 UNL A   1      44.555  26.573  24.930  1.00  0.00    +0.000 F 
ATOM     71  C49 UNL A   1      43.315  26.836  26.928  1.00  0.00    +0.000 C 
ATOM     72  F15 UNL A   1      43.846  28.057  27.082  1.00  0.00    +0.000 F 
ATOM     62  C44 UNL A   1      42.393  26.348  27.864  1.00  0.00    +0.000 C 
ATOM     63  C45 UNL A   1      41.865  25.066  27.655  1.00  0.00    +0.000 C 
ATOM     64  F11 UNL A   1      40.996  24.548  28.535  1.00  0.00    +0.000 F 
ENDBRANCH   61   62
TORSDOF 21
ENDMDL
MODEL 6
REMARK VINA RESULT:      -9.9     33.504     39.013
ROOT
ATOM    129  H33 UNL A   1       9.499   2.483  23.989  1.00  0.00    +0.000 H 
ATOM     25  C20 UNL A   1      10.773   2.901  21.475  1.00  0.00    +0.000 C 
ATOM     26  C21 UNL A   1       9.780   3.796  22.161  1.00  0.00    +0.000 C 
ATOM     27  N3  UNL A   1       9.292   4.946  21.769  1.00  0.00    +0.000 N 
ATOM     28  C22 UNL A   1       8.385   5.326  22.749  1.00  0.00    +0.000 C 
ATOM     29  C23 UNL A   1       7.660   6.467  22.833  1.00  0.00    +0.000 C 
ATOM     41  C30 UNL A   1       7.715   7.536  21.869  1.00  0.00    +0.000 C 
ATOM     42  C31 UNL A   1       7.070   8.761  21.900  1.00  0.00    +0.000 C 
ATOM     43  C32 UNL A   1       7.391   9.454  20.728  1.00  0.00    +0.000 C 
ATOM     44  C33 UNL A   1       8.270   8.680  19.988  1.00  0.00    +0.000 C 
ATOM     45  N4  UNL A   1       8.458   7.505  20.698  1.00  0.00    +0.000 N 
ATOM     46  C34 UNL A   1       8.892   8.988  18.726  1.00  0.00    +0.000 C 
ATOM     58  C41 UNL A   1       9.762   8.180  18.071  1.00  0.00    +0.000 C 
ATOM     59  N5  UNL A   1      10.237   6.928  18.439  1.00  0.00    +0.000 N 
ATOM     60  C42 UNL A   1      11.038   6.549  17.474  1.00  0.00    +0.000 C 
ATOM     61  C43 UNL A   1      11.849   5.288  17.353  1.00  0.00    +0.000 C 
ATOM     73  C50 UNL A   1      11.808   4.382  18.348  1.00  0.00    +0.000 C 
ATOM     74  C51 UNL A   1      12.544   3.121  18.376  1.00  0.00    +0.000 C 
ATOM     75  C52 UNL A   1      12.230   2.455  19.498  1.00  0.00    +0.000 C 
ATOM     76  C53 UNL A   1      11.296   3.259  20.286  1.00  0.00    +0.000 C 
ATOM     77  N6  UNL A   1      11.105   4.387  19.528  1.00  0.00    +0.000 N 
ATOM     78  C54 UNL A   1      11.145   7.512  16.369  1.00  0.00    +0.000 C 
ATOM     79  C55 UNL A   1      10.379   8.504  16.802  1.00  0.00    +0.000 C 
ATOM     80  C56 UNL A   1       8.354   4.264  23.731  1.00  0.00    +0.000 C 
ATOM     81  C57 UNL A   1       9.246   3.325  23.448  1.00  0.00    +0.000 C 
ATOM    120  H24 UNL A   1       6.458   9.103  22.658  1.00  0.00    +0.000 H 
ATOM    121  H25 UNL A   1       7.032  10.384  20.460  1.00  0.00    +0.000 H 
ATOM    122  H26 UNL A   1       9.033   6.759  20.414  1.00  0.00    +0.000 H 
ATOM    123  H27 UNL A   1      13.200   2.795  17.649  1.00  0.00    +0.000 H 
ATOM    124  H28 UNL A   1      12.592   1.525  19.763  1.00  0.00    +0.000 H 
ATOM    125  H29 UNL A   1      10.521   5.130  19.804  1.00  0.00    +0.000 H 
ATOM    126  H30 UNL A   1      11.677   7.437  15.488  1.00  0.00    +0.000 H 
ATOM    127  H31 UNL A   1      10.239   9.393  16.297  1.00  0.00    +0.000 H 
ATOM    128  H32 UNL A   1       7.720   4.240  24.545  1.00  0.00    +0.000 H 
ENDROOT
BRANCH   25   24
ATOM    130  H34 UNL A   1       9.568   0.534  21.113  1.00  0.00    +0.000 H 
ATOM    131  H35 UNL A   1      10.094  -1.605  22.126  1.00  0.00    +0.000 H 
ATOM     82  C58 UNL A   1      10.373   0.451  21.754  1.00  0.00    +0.000 C 
ATOM     83  C59 UNL A   1      10.697  -0.787  22.302  1.00  0.00    +0.000 C 
ATOM     21  C16 UNL A   1      11.843  -0.922  23.093  1.00  0.00    +0.000 C 
ATOM     22  C17 UNL A   1      12.593   0.208  23.435  1.00  0.00    +0.000 C 
ATOM    118  H22 UNL A   1      13.413   0.116  24.054  1.00  0.00    +0.000 H 
ATOM     23  C18 UNL A   1      12.229   1.461  22.937  1.00  0.00    +0.000 C 
ATOM    119  H23 UNL A   1      12.767   2.298  23.210  1.00  0.00    +0.000 H 
ATOM     24  C19 UNL A   1      11.133   1.588  22.068  1.00  0.00    +0.000 C 
BRANCH   21   19
ATOM     19  C15 UNL A   1      12.269  -2.242  23.607  1.00  0.00    +0.000 C 
ATOM     20  O3  UNL A   1      13.443  -2.584  23.499  1.00  0.00    +0.000 O 
BRANCH   19   18
ATOM     18  N2  UNL A   1      11.357  -3.084  24.190  1.00  0.00    +0.000 N 
ATOM    117  H21 UNL A   1      10.747  -3.539  23.565  1.00  0.00    +0.000 H 
BRANCH   18   17
ATOM     17  C14 UNL A   1      11.158  -3.404  25.595  1.00  0.00    +0.000 C 
ATOM    115  H19 UNL A   1      10.151  -3.161  25.864  1.00  0.00    +0.000 H 
ATOM    116  H20 UNL A   1      11.355  -4.448  25.725  1.00  0.00    +0.000 H 
BRANCH   17   16
ATOM    113  H17 UNL A   1      12.909  -3.284  26.780  1.00  0.00    +0.000 H 
ATOM    114  H18 UNL A   1      12.431  -1.778  25.946  1.00  0.00    +0.000 H 
ATOM     16  C13 UNL A   1      12.108  -2.632  26.505  1.00  0.00    +0.000 C 
BRANCH   16   15
ATOM    111  H15 UNL A   1      11.188  -2.924  28.394  1.00  0.00    +0.000 H 
ATOM     15  C12 UNL A   1      11.474  -2.089  27.788  1.00  0.00    +0.000 C 
ATOM    112  H16 UNL A   1      12.214  -1.463  28.242  1.00  0.00    +0.000 H 
BRANCH   15   14
ATOM    110  H14 UNL A   1      10.006  -0.799  28.549  1.00  0.00    +0.000 H 
ATOM    109  H13 UNL A   1       9.459  -1.816  27.179  1.00  0.00    +0.000 H 
ATOM     14  C11 UNL A   1      10.238  -1.206  27.587  1.00  0.00    +0.000 C 
BRANCH   14   13
ATOM    107  H11 UNL A   1      11.350   0.480  26.915  1.00  0.00    +0.000 H 
ATOM    108  H12 UNL A   1      10.430  -0.383  25.656  1.00  0.00    +0.000 H 
ATOM     13  C10 UNL A   1      10.431  -0.002  26.655  1.00  0.00    +0.000 C 
BRANCH   13   12
ATOM    105  H9  UNL A   1       9.435   1.736  25.935  1.00  0.00    +0.000 H 
ATOM    106  H10 UNL A   1       8.377   0.517  26.648  1.00  0.00    +0.000 H 
ATOM     12  C9  UNL A   1       9.310   1.033  26.731  1.00  0.00    +0.000 C 
BRANCH   12   11
ATOM     11  N1  UNL A   1       9.315   1.747  27.989  1.00  0.00    +0.000 N 
ATOM    104  H8  UNL A   1       8.877   1.279  28.736  1.00  0.00    +0.000 H 
BRANCH   11    9
ATOM      9  C8  UNL A   1       9.835   2.971  28.299  1.00  0.00    +0.000 C 
ATOM     10  O2  UNL A   1       9.321   3.564  29.252  1.00  0.00    +0.000 O 
BRANCH    9    8
ATOM    102  H6  UNL A   1      10.979   3.072  26.527  1.00  0.00    +0.000 H 
ATOM    103  H7  UNL A   1      10.552   4.644  27.290  1.00  0.00    +0.000 H 
ATOM      8  C7  UNL A   1      10.892   3.640  27.430  1.00  0.00    +0.000 C 
BRANCH    8    7
ATOM      3  C2  UNL A   1      15.818   1.501  27.741  1.00  0.00    +0.000 C 
ATOM    100  H4  UNL A   1      14.870   0.190  26.393  1.00  0.00    +0.000 H 
ATOM      4  C3  UNL A   1      14.755   1.038  26.971  1.00  0.00    +0.000 C 
ATOM      5  C4  UNL A   1      13.529   1.715  26.976  1.00  0.00    +0.000 C 
ATOM    101  H5  UNL A   1      12.747   1.373  26.396  1.00  0.00    +0.000 H 
ATOM      6  C5  UNL A   1      13.365   2.867  27.775  1.00  0.00    +0.000 C 
ATOM      7  C6  UNL A   1      12.270   3.763  28.029  1.00  0.00    +0.000 C 
ATOM    138  H42 UNL A   1      14.577   4.890  29.892  1.00  0.00    +0.000 H 
ATOM    139  H43 UNL A   1      16.443   2.941  29.171  1.00  0.00    +0.000 H 
ATOM     84  C60 UNL A   1      12.751   4.776  28.862  1.00  0.00    +0.000 C 
ATOM     94  N8  UNL A   1      14.029   4.409  29.229  1.00  0.00    +0.000 N 
ATOM     95  C68 UNL A   1      14.439   3.289  28.550  1.00  0.00    +0.000 C 
ATOM     96  C69 UNL A   1      15.670   2.620  28.567  1.00  0.00    +0.000 C 
BRANCH    3    2
ATOM      2  O1  UNL A   1      17.041   0.884  27.790  1.00  0.00    +0.000 O 
BRANCH    2    1
ATOM      1  C1  UNL A   1      18.049   1.658  28.439  1.00  0.00    +0.000 C 
ATOM     98  H2  UNL A   1      17.838   2.699  28.307  1.00  0.00    +0.000 H 
ATOM     99  H3  UNL A   1      19.003   1.431  28.014  1.00  0.00    +0.000 H 
ATOM     97  H1  UNL A   1      18.058   1.428  29.484  1.00  0.00    +0.000 H 
ENDBRANCH    2    1
ENDBRANCH    3    2
BRANCH   84   85
ATOM     85  C61 UNL A   1      12.060   5.985  29.302  1.00  0.00    +0.000 C 
ATOM     86  O4  UNL A   1      10.968   6.331  28.863  1.00  0.00    +0.000 O 
BRANCH   85   87
ATOM    132  H36 UNL A   1      11.552   6.260  31.935  1.00  0.00    +0.000 H 
ATOM    136  H40 UNL A   1      14.565   9.109  32.689  1.00  0.00    +0.000 H 
ATOM    137  H41 UNL A   1      15.156   9.013  30.366  1.00  0.00    +0.000 H 
ATOM     87  C62 UNL A   1      12.721   6.885  30.287  1.00  0.00    +0.000 C 
ATOM     88  C63 UNL A   1      12.321   6.871  31.620  1.00  0.00    +0.000 C 
ATOM     89  C64 UNL A   1      12.986   7.708  32.520  1.00  0.00    +0.000 C 
ATOM     91  C66 UNL A   1      14.041   8.494  32.046  1.00  0.00    +0.000 C 
ATOM     92  C67 UNL A   1      14.370   8.434  30.701  1.00  0.00    +0.000 C 
ATOM     93  N7  UNL A   1      13.722   7.663  29.806  1.00  0.00    +0.000 N 
BRANCH   89   90
ATOM     90  C65 UNL A   1      12.611   7.749  33.970  1.00  0.00    +0.000 C 
ATOM    133  H37 UNL A   1      13.341   7.218  34.544  1.00  0.00    +0.000 H 
ATOM    134  H38 UNL A   1      11.652   7.294  34.104  1.00  0.00    +0.000 H 
ATOM    135  H39 UNL A   1      12.571   8.766  34.300  1.00  0.00    +0.000 H 
ENDBRANCH   89   90
ENDBRANCH   85   87
ENDBRANCH   84   85
ENDBRANCH    8    7
ENDBRANCH    9    8
ENDBRANCH   11    9
ENDBRANCH   12   11
ENDBRANCH   13   12
ENDBRANCH   14   13
ENDBRANCH   15   14
ENDBRANCH   16   15
ENDBRANCH   17   16
ENDBRANCH   18   17
ENDBRANCH   19   18
ENDBRANCH   21   19
ENDBRANCH   25   24
BRANCH   29   30
ATOM     33  C26 UNL A   1       6.275   7.486  26.238  1.00  0.00    +0.000 C 
ATOM     34  F2  UNL A   1       6.685   8.138  27.336  1.00  0.00    +0.000 F 
ATOM     35  C27 UNL A   1       4.999   6.943  26.192  1.00  0.00    +0.000 C 
ATOM     36  F3  UNL A   1       4.171   7.086  27.235  1.00  0.00    +0.000 F 
ATOM     37  C28 UNL A   1       4.587   6.246  25.067  1.00  0.00    +0.000 C 
ATOM     38  F4  UNL A   1       3.351   5.731  25.016  1.00  0.00    +0.000 F 
ATOM     39  C29 UNL A   1       5.455   6.076  23.992  1.00  0.00    +0.000 C 
ATOM     40  F5  UNL A   1       5.031   5.383  22.923  1.00  0.00    +0.000 F 
ATOM     30  C24 UNL A   1       6.747   6.623  24.013  1.00  0.00    +0.000 C 
ATOM     31  C25 UNL A   1       7.135   7.344  25.153  1.00  0.00    +0.000 C 
ATOM     32  F1  UNL A   1       8.364   7.877  25.228  1.00  0.00    +0.000 F 
ENDBRANCH   29   30
BRANCH   46   47
ATOM     47  C35 UNL A   1       8.575  10.310  18.092  1.00  0.00    +0.000 C 
ATOM     48  C36 UNL A   1       7.488  10.464  17.220  1.00  0.00    +0.000 C 
ATOM     49  F6  UNL A   1       6.729   9.406  16.894  1.00  0.00    +0.000 F 
ATOM     50  C37 UNL A   1       7.200  11.700  16.646  1.00  0.00    +0.000 C 
ATOM     51  F7  UNL A   1       6.184  11.814  15.781  1.00  0.00    +0.000 F 
ATOM     52  C38 UNL A   1       7.972  12.809  16.960  1.00  0.00    +0.000 C 
ATOM     53  F8  UNL A   1       7.690  13.999  16.412  1.00  0.00    +0.000 F 
ATOM     54  C39 UNL A   1       9.041  12.683  17.834  1.00  0.00    +0.000 C 
ATOM     55  F9  UNL A   1       9.780  13.756  18.147  1.00  0.00    +0.000 F 
ATOM     56  C40 UNL A   1       9.349  11.443  18.387  1.00  0.00    +0.000 C 
ATOM     57  F10 UNL A   1      10.396  11.350  19.220  1.00  0.00    +0.000 F 
ENDBRANCH   46   47
BRANCH   61   62
ATOM     65  C46 UNL A   1      14.844   5.303  15.023  1.00  0.00    +0.000 C 
ATOM     66  F12 UNL A   1      16.091   5.791  15.004  1.00  0.00    +0.000 F 
ATOM     67  C47 UNL A   1      14.353   4.608  13.927  1.00  0.00    +0.000 C 
ATOM     68  F13 UNL A   1      15.132   4.408  12.856  1.00  0.00    +0.000 F 
ATOM     69  C48 UNL A   1      13.051   4.128  13.941  1.00  0.00    +0.000 C 
ATOM     70  F14 UNL A   1      12.579   3.446  12.889  1.00  0.00    +0.000 F 
ATOM     71  C49 UNL A   1      12.234   4.356  15.046  1.00  0.00    +0.000 C 
ATOM     72  F15 UNL A   1      10.976   3.892  15.027  1.00  0.00    +0.000 F 
ATOM     62  C44 UNL A   1      12.710   5.048  16.168  1.00  0.00    +0.000 C 
ATOM     63  C45 UNL A   1      14.035   5.508  16.139  1.00  0.00    +0.000 C 
ATOM     64  F11 UNL A   1      14.528   6.193  17.181  1.00  0.00    +0.000 F 
ENDBRANCH   61   62
TORSDOF 21
ENDMDL
MODEL 7
REMARK VINA RESULT:      -9.9      2.883      4.838
ROOT
ATOM    129  H33 UNL A   1      36.343  31.331  31.328  1.00  0.00    +0.000 H 
ATOM     25  C20 UNL A   1      38.050  29.632  29.806  1.00  0.00    +0.000 C 
ATOM     26  C21 UNL A   1      38.314  30.220  31.164  1.00  0.00    +0.000 C 
ATOM     27  N3  UNL A   1      39.361  30.083  31.937  1.00  0.00    +0.000 N 
ATOM     28  C22 UNL A   1      39.112  30.868  33.055  1.00  0.00    +0.000 C 
ATOM     29  C23 UNL A   1      39.868  31.017  34.168  1.00  0.00    +0.000 C 
ATOM     41  C30 UNL A   1      41.123  30.347  34.393  1.00  0.00    +0.000 C 
ATOM     42  C31 UNL A   1      41.931  30.381  35.517  1.00  0.00    +0.000 C 
ATOM     43  C32 UNL A   1      43.070  29.610  35.259  1.00  0.00    +0.000 C 
ATOM     44  C33 UNL A   1      42.951  29.061  33.993  1.00  0.00    +0.000 C 
ATOM     45  N4  UNL A   1      41.753  29.524  33.471  1.00  0.00    +0.000 N 
ATOM     46  C34 UNL A   1      43.862  28.180  33.308  1.00  0.00    +0.000 C 
ATOM     58  C41 UNL A   1      43.663  27.667  32.069  1.00  0.00    +0.000 C 
ATOM     59  N5  UNL A   1      42.590  27.857  31.207  1.00  0.00    +0.000 N 
ATOM     60  C42 UNL A   1      42.868  27.168  30.129  1.00  0.00    +0.000 C 
ATOM     61  C43 UNL A   1      42.051  26.990  28.879  1.00  0.00    +0.000 C 
ATOM     73  C50 UNL A   1      40.844  27.580  28.792  1.00  0.00    +0.000 C 
ATOM     74  C51 UNL A   1      39.938  27.491  27.651  1.00  0.00    +0.000 C 
ATOM     75  C52 UNL A   1      38.848  28.236  27.897  1.00  0.00    +0.000 C 
ATOM     76  C53 UNL A   1      38.965  28.828  29.230  1.00  0.00    +0.000 C 
ATOM     77  N6  UNL A   1      40.179  28.381  29.688  1.00  0.00    +0.000 N 
ATOM     78  C54 UNL A   1      44.164  26.477  30.175  1.00  0.00    +0.000 C 
ATOM     79  C55 UNL A   1      44.589  26.783  31.393  1.00  0.00    +0.000 C 
ATOM     80  C56 UNL A   1      37.836  31.516  32.840  1.00  0.00    +0.000 C 
ATOM     81  C57 UNL A   1      37.271  31.099  31.715  1.00  0.00    +0.000 C 
ATOM    120  H24 UNL A   1      41.727  30.887  36.393  1.00  0.00    +0.000 H 
ATOM    121  H25 UNL A   1      43.864  29.475  35.905  1.00  0.00    +0.000 H 
ATOM    122  H26 UNL A   1      41.402  29.302  32.580  1.00  0.00    +0.000 H 
ATOM    123  H27 UNL A   1      40.108  26.943  26.792  1.00  0.00    +0.000 H 
ATOM    124  H28 UNL A   1      38.056  28.368  27.249  1.00  0.00    +0.000 H 
ATOM    125  H29 UNL A   1      40.539  28.612  30.575  1.00  0.00    +0.000 H 
ATOM    126  H30 UNL A   1      44.624  25.905  29.450  1.00  0.00    +0.000 H 
ATOM    127  H31 UNL A   1      45.468  26.436  31.807  1.00  0.00    +0.000 H 
ATOM    128  H32 UNL A   1      37.421  32.213  33.478  1.00  0.00    +0.000 H 
ENDROOT
BRANCH   25   24
ATOM    130  H34 UNL A   1      37.457  31.942  28.581  1.00  0.00    +0.000 H 
ATOM    131  H35 UNL A   1      35.419  32.565  27.426  1.00  0.00    +0.000 H 
ATOM     82  C58 UNL A   1      36.690  31.259  28.485  1.00  0.00    +0.000 C 
ATOM     83  C59 UNL A   1      35.536  31.606  27.786  1.00  0.00    +0.000 C 
ATOM     21  C16 UNL A   1      34.536  30.652  27.573  1.00  0.00    +0.000 C 
ATOM     22  C17 UNL A   1      34.637  29.389  28.166  1.00  0.00    +0.000 C 
ATOM    118  H22 UNL A   1      33.879  28.699  28.045  1.00  0.00    +0.000 H 
ATOM     23  C18 UNL A   1      35.764  29.064  28.921  1.00  0.00    +0.000 C 
ATOM    119  H23 UNL A   1      35.827  28.141  29.380  1.00  0.00    +0.000 H 
ATOM     24  C19 UNL A   1      36.815  29.986  29.063  1.00  0.00    +0.000 C 
BRANCH   21   19
ATOM     19  C15 UNL A   1      33.346  30.959  26.750  1.00  0.00    +0.000 C 
ATOM     20  O3  UNL A   1      32.647  31.927  27.033  1.00  0.00    +0.000 O 
BRANCH   19   18
ATOM     18  N2  UNL A   1      33.018  30.161  25.684  1.00  0.00    +0.000 N 
ATOM    117  H21 UNL A   1      33.617  30.231  24.906  1.00  0.00    +0.000 H 
BRANCH   18   17
ATOM     17  C14 UNL A   1      31.913  29.226  25.533  1.00  0.00    +0.000 C 
ATOM    115  H19 UNL A   1      32.310  28.264  25.279  1.00  0.00    +0.000 H 
ATOM    116  H20 UNL A   1      31.381  29.196  26.460  1.00  0.00    +0.000 H 
BRANCH   17   16
ATOM    113  H17 UNL A   1      30.103  30.133  24.915  1.00  0.00    +0.000 H 
ATOM    114  H18 UNL A   1      31.481  30.304  23.791  1.00  0.00    +0.000 H 
ATOM     16  C13 UNL A   1      30.935  29.656  24.444  1.00  0.00    +0.000 C 
BRANCH   16   15
ATOM    111  H15 UNL A   1      30.083  27.726  24.218  1.00  0.00    +0.000 H 
ATOM     15  C12 UNL A   1      30.401  28.517  23.571  1.00  0.00    +0.000 C 
ATOM    112  H16 UNL A   1      29.609  28.939  22.987  1.00  0.00    +0.000 H 
BRANCH   15   14
ATOM    110  H14 UNL A   1      32.373  28.159  22.957  1.00  0.00    +0.000 H 
ATOM    109  H13 UNL A   1      31.209  28.378  21.613  1.00  0.00    +0.000 H 
ATOM     14  C11 UNL A   1      31.402  27.935  22.568  1.00  0.00    +0.000 C 
BRANCH   14   13
ATOM    107  H11 UNL A   1      30.912  26.190  21.452  1.00  0.00    +0.000 H 
ATOM    108  H12 UNL A   1      32.366  26.063  22.473  1.00  0.00    +0.000 H 
ATOM     13  C10 UNL A   1      31.357  26.410  22.399  1.00  0.00    +0.000 C 
BRANCH   13   12
ATOM    105  H9  UNL A   1      31.000  25.902  24.435  1.00  0.00    +0.000 H 
ATOM    106  H10 UNL A   1      29.549  26.028  23.436  1.00  0.00    +0.000 H 
ATOM     12  C9  UNL A   1      30.562  25.685  23.483  1.00  0.00    +0.000 C 
BRANCH   12   11
ATOM     11  N1  UNL A   1      30.558  24.252  23.286  1.00  0.00    +0.000 N 
ATOM    104  H8  UNL A   1      29.911  23.925  22.620  1.00  0.00    +0.000 H 
BRANCH   11    9
ATOM      9  C8  UNL A   1      31.314  23.285  23.882  1.00  0.00    +0.000 C 
ATOM     10  O2  UNL A   1      30.976  22.942  25.020  1.00  0.00    +0.000 O 
BRANCH    9    8
ATOM    102  H6  UNL A   1      32.348  22.384  22.277  1.00  0.00    +0.000 H 
ATOM    103  H7  UNL A   1      33.272  23.587  23.243  1.00  0.00    +0.000 H 
ATOM      8  C7  UNL A   1      32.595  22.759  23.248  1.00  0.00    +0.000 C 
BRANCH    8    7
ATOM      3  C2  UNL A   1      33.158  17.447  23.889  1.00  0.00    +0.000 C 
ATOM    100  H4  UNL A   1      31.730  17.540  22.345  1.00  0.00    +0.000 H 
ATOM      4  C3  UNL A   1      32.329  18.095  22.977  1.00  0.00    +0.000 C 
ATOM      5  C4  UNL A   1      32.304  19.493  22.911  1.00  0.00    +0.000 C 
ATOM    101  H5  UNL A   1      31.695  19.967  22.226  1.00  0.00    +0.000 H 
ATOM      6  C5  UNL A   1      33.113  20.253  23.783  1.00  0.00    +0.000 C 
ATOM      7  C6  UNL A   1      33.309  21.661  23.995  1.00  0.00    +0.000 C 
ATOM    138  H42 UNL A   1      35.189  20.329  26.175  1.00  0.00    +0.000 H 
ATOM    139  H43 UNL A   1      34.528  17.703  25.492  1.00  0.00    +0.000 H 
ATOM     84  C60 UNL A   1      34.314  21.797  24.955  1.00  0.00    +0.000 C 
ATOM     94  N8  UNL A   1      34.587  20.527  25.421  1.00  0.00    +0.000 N 
ATOM     95  C68 UNL A   1      33.911  19.577  24.697  1.00  0.00    +0.000 C 
ATOM     96  C69 UNL A   1      33.944  18.178  24.786  1.00  0.00    +0.000 C 
BRANCH    3    2
ATOM      2  O1  UNL A   1      33.228  16.084  24.013  1.00  0.00    +0.000 O 
BRANCH    2    1
ATOM      1  C1  UNL A   1      32.800  15.602  25.286  1.00  0.00    +0.000 C 
ATOM     98  H2  UNL A   1      32.055  14.846  25.149  1.00  0.00    +0.000 H 
ATOM     99  H3  UNL A   1      32.389  16.409  25.854  1.00  0.00    +0.000 H 
ATOM     97  H1  UNL A   1      33.636  15.186  25.809  1.00  0.00    +0.000 H 
ENDBRANCH    2    1
ENDBRANCH    3    2
BRANCH   84   85
ATOM     85  C61 UNL A   1      34.957  23.023  25.421  1.00  0.00    +0.000 C 
ATOM     86  O4  UNL A   1      34.373  24.100  25.497  1.00  0.00    +0.000 O 
BRANCH   85   87
ATOM    132  H36 UNL A   1      36.724  21.006  25.142  1.00  0.00    +0.000 H 
ATOM    136  H40 UNL A   1      40.071  23.128  26.577  1.00  0.00    +0.000 H 
ATOM    137  H41 UNL A   1      38.650  25.031  26.909  1.00  0.00    +0.000 H 
ATOM     87  C62 UNL A   1      36.404  23.000  25.770  1.00  0.00    +0.000 C 
ATOM     88  C63 UNL A   1      37.159  21.854  25.536  1.00  0.00    +0.000 C 
ATOM     89  C64 UNL A   1      38.520  21.883  25.849  1.00  0.00    +0.000 C 
ATOM     91  C66 UNL A   1      39.065  23.068  26.352  1.00  0.00    +0.000 C 
ATOM     92  C67 UNL A   1      38.233  24.160  26.546  1.00  0.00    +0.000 C 
ATOM     93  N7  UNL A   1      36.912  24.148  26.286  1.00  0.00    +0.000 N 
BRANCH   89   90
ATOM     90  C65 UNL A   1      39.397  20.688  25.626  1.00  0.00    +0.000 C 
ATOM    133  H37 UNL A   1      40.111  20.906  24.859  1.00  0.00    +0.000 H 
ATOM    134  H38 UNL A   1      38.796  19.855  25.328  1.00  0.00    +0.000 H 
ATOM    135  H39 UNL A   1      39.912  20.449  26.533  1.00  0.00    +0.000 H 
ENDBRANCH   89   90
ENDBRANCH   85   87
ENDBRANCH   84   85
ENDBRANCH    8    7
ENDBRANCH    9    8
ENDBRANCH   11    9
ENDBRANCH   12   11
ENDBRANCH   13   12
ENDBRANCH   14   13
ENDBRANCH   15   14
ENDBRANCH   16   15
ENDBRANCH   17   16
ENDBRANCH   18   17
ENDBRANCH   19   18
ENDBRANCH   21   19
ENDBRANCH   25   24
BRANCH   29   30
ATOM     33  C26 UNL A   1      39.182  34.149  36.235  1.00  0.00    +0.000 C 
ATOM     34  F2  UNL A   1      39.534  35.443  36.247  1.00  0.00    +0.000 F 
ATOM     35  C27 UNL A   1      38.343  33.652  37.222  1.00  0.00    +0.000 C 
ATOM     36  F3  UNL A   1      37.870  34.467  38.174  1.00  0.00    +0.000 F 
ATOM     37  C28 UNL A   1      38.002  32.308  37.224  1.00  0.00    +0.000 C 
ATOM     38  F4  UNL A   1      37.182  31.828  38.170  1.00  0.00    +0.000 F 
ATOM     39  C29 UNL A   1      38.512  31.455  36.249  1.00  0.00    +0.000 C 
ATOM     40  F5  UNL A   1      38.175  30.157  36.287  1.00  0.00    +0.000 F 
ATOM     30  C24 UNL A   1      39.355  31.938  35.237  1.00  0.00    +0.000 C 
ATOM     31  C25 UNL A   1      39.670  33.306  35.242  1.00  0.00    +0.000 C 
ATOM     32  F1  UNL A   1      40.481  33.815  34.302  1.00  0.00    +0.000 F 
ENDBRANCH   29   30
BRANCH   46   47
ATOM     47  C35 UNL A   1      45.119  27.778  34.022  1.00  0.00    +0.000 C 
ATOM     48  C36 UNL A   1      45.174  26.625  34.818  1.00  0.00    +0.000 C 
ATOM     49  F6  UNL A   1      44.077  25.875  34.998  1.00  0.00    +0.000 F 
ATOM     50  C37 UNL A   1      46.351  26.260  35.466  1.00  0.00    +0.000 C 
ATOM     51  F7  UNL A   1      46.370  25.180  36.258  1.00  0.00    +0.000 F 
ATOM     52  C38 UNL A   1      47.500  27.021  35.304  1.00  0.00    +0.000 C 
ATOM     53  F8  UNL A   1      48.634  26.664  35.924  1.00  0.00    +0.000 F 
ATOM     54  C39 UNL A   1      47.472  28.155  34.506  1.00  0.00    +0.000 C 
ATOM     55  F9  UNL A   1      48.584  28.884  34.339  1.00  0.00    +0.000 F 
ATOM     56  C40 UNL A   1      46.290  28.539  33.880  1.00  0.00    +0.000 C 
ATOM     57  F10 UNL A   1      46.290  29.647  33.124  1.00  0.00    +0.000 F 
ENDBRANCH   46   47
BRANCH   61   62
ATOM     65  C46 UNL A   1      43.861  25.913  25.722  1.00  0.00    +0.000 C 
ATOM     66  F12 UNL A   1      44.646  26.461  24.786  1.00  0.00    +0.000 F 
ATOM     67  C47 UNL A   1      43.488  24.580  25.624  1.00  0.00    +0.000 C 
ATOM     68  F13 UNL A   1      43.928  23.835  24.600  1.00  0.00    +0.000 F 
ATOM     69  C48 UNL A   1      42.653  24.025  26.581  1.00  0.00    +0.000 C 
ATOM     70  F14 UNL A   1      42.301  22.735  26.495  1.00  0.00    +0.000 F 
ATOM     71  C49 UNL A   1      42.177  24.806  27.632  1.00  0.00    +0.000 C 
ATOM     72  F15 UNL A   1      41.360  24.246  28.536  1.00  0.00    +0.000 F 
ATOM     62  C44 UNL A   1      42.547  26.152  27.758  1.00  0.00    +0.000 C 
ATOM     63  C45 UNL A   1      43.406  26.688  26.788  1.00  0.00    +0.000 C 
ATOM     64  F11 UNL A   1      43.771  27.976  26.855  1.00  0.00    +0.000 F 
ENDBRANCH   61   62
TORSDOF 21
ENDMDL
MODEL 8
REMARK VINA RESULT:      -9.8     36.901     42.610
ROOT
ATOM    129  H33 UNL A   1      30.722 -15.290  32.907  1.00  0.00    +0.000 H 
ATOM     25  C20 UNL A   1      29.117 -13.996  30.941  1.00  0.00    +0.000 C 
ATOM     26  C21 UNL A   1      28.840 -14.126  32.413  1.00  0.00    +0.000 C 
ATOM     27  N3  UNL A   1      27.823 -13.680  33.108  1.00  0.00    +0.000 N 
ATOM     28  C22 UNL A   1      28.037 -14.110  34.410  1.00  0.00    +0.000 C 
ATOM     29  C23 UNL A   1      27.297 -13.857  35.515  1.00  0.00    +0.000 C 
ATOM     41  C30 UNL A   1      26.102 -13.053  35.526  1.00  0.00    +0.000 C 
ATOM     42  C31 UNL A   1      25.319 -12.683  36.606  1.00  0.00    +0.000 C 
ATOM     43  C32 UNL A   1      24.237 -11.937  36.127  1.00  0.00    +0.000 C 
ATOM     44  C33 UNL A   1      24.369 -11.805  34.754  1.00  0.00    +0.000 C 
ATOM     45  N4  UNL A   1      25.516 -12.497  34.398  1.00  0.00    +0.000 N 
ATOM     46  C34 UNL A   1      23.514 -11.101  33.835  1.00  0.00    +0.000 C 
ATOM     58  C41 UNL A   1      23.723 -11.001  32.498  1.00  0.00    +0.000 C 
ATOM     59  N5  UNL A   1      24.758 -11.526  31.736  1.00  0.00    +0.000 N 
ATOM     60  C42 UNL A   1      24.510 -11.173  30.499  1.00  0.00    +0.000 C 
ATOM     61  C43 UNL A   1      25.310 -11.444  29.255  1.00  0.00    +0.000 C 
ATOM     73  C50 UNL A   1      26.466 -12.128  29.352  1.00  0.00    +0.000 C 
ATOM     74  C51 UNL A   1      27.351 -12.458  28.238  1.00  0.00    +0.000 C 
ATOM     75  C52 UNL A   1      28.385 -13.179  28.699  1.00  0.00    +0.000 C 
ATOM     76  C53 UNL A   1      28.253 -13.332  30.149  1.00  0.00    +0.000 C 
ATOM     77  N6  UNL A   1      27.088 -12.673  30.449  1.00  0.00    +0.000 N 
ATOM     78  C54 UNL A   1      23.271 -10.399  30.333  1.00  0.00    +0.000 C 
ATOM     79  C55 UNL A   1      22.852 -10.290  31.586  1.00  0.00    +0.000 C 
ATOM     80  C56 UNL A   1      29.255 -14.892  34.402  1.00  0.00    +0.000 C 
ATOM     81  C57 UNL A   1      29.824 -14.879  33.205  1.00  0.00    +0.000 C 
ATOM    120  H24 UNL A   1      25.504 -12.917  37.595  1.00  0.00    +0.000 H 
ATOM    121  H25 UNL A   1      23.470 -11.551  36.700  1.00  0.00    +0.000 H 
ATOM    122  H26 UNL A   1      25.863 -12.581  33.481  1.00  0.00    +0.000 H 
ATOM    123  H27 UNL A   1      27.203 -12.182  27.255  1.00  0.00    +0.000 H 
ATOM    124  H28 UNL A   1      29.151 -13.562  28.123  1.00  0.00    +0.000 H 
ATOM    125  H29 UNL A   1      26.731 -12.597  31.363  1.00  0.00    +0.000 H 
ATOM    126  H30 UNL A   1      22.840 -10.036  29.469  1.00  0.00    +0.000 H 
ATOM    127  H31 UNL A   1      22.012  -9.766  31.875  1.00  0.00    +0.000 H 
ATOM    128  H32 UNL A   1      29.630 -15.396  35.221  1.00  0.00    +0.000 H 
ENDROOT
BRANCH   25   24
ATOM    130  H34 UNL A   1      31.644 -13.104  30.866  1.00  0.00    +0.000 H 
ATOM    131  H35 UNL A   1      33.582 -14.127  29.829  1.00  0.00    +0.000 H 
ATOM     82  C58 UNL A   1      31.556 -14.022  30.404  1.00  0.00    +0.000 C 
ATOM     83  C59 UNL A   1      32.679 -14.626  29.844  1.00  0.00    +0.000 C 
ATOM     21  C16 UNL A   1      32.583 -15.912  29.303  1.00  0.00    +0.000 C 
ATOM     22  C17 UNL A   1      31.337 -16.540  29.210  1.00  0.00    +0.000 C 
ATOM    118  H22 UNL A   1      31.259 -17.471  28.772  1.00  0.00    +0.000 H 
ATOM     23  C18 UNL A   1      30.200 -15.906  29.713  1.00  0.00    +0.000 C 
ATOM    119  H23 UNL A   1      29.277 -16.358  29.622  1.00  0.00    +0.000 H 
ATOM     24  C19 UNL A   1      30.305 -14.654  30.341  1.00  0.00    +0.000 C 
BRANCH   21   19
ATOM     19  C15 UNL A   1      33.778 -16.621  28.793  1.00  0.00    +0.000 C 
ATOM     20  O3  UNL A   1      34.580 -17.105  29.585  1.00  0.00    +0.000 O 
BRANCH   19   18
ATOM     18  N2  UNL A   1      33.995 -16.725  27.442  1.00  0.00    +0.000 N 
ATOM    117  H21 UNL A   1      34.596 -17.456  27.169  1.00  0.00    +0.000 H 
BRANCH   18   17
ATOM     17  C14 UNL A   1      33.469 -15.914  26.354  1.00  0.00    +0.000 C 
ATOM    115  H19 UNL A   1      33.497 -16.490  25.452  1.00  0.00    +0.000 H 
ATOM    116  H20 UNL A   1      32.468 -15.635  26.608  1.00  0.00    +0.000 H 
BRANCH   17   16
ATOM    113  H17 UNL A   1      34.915 -14.504  26.990  1.00  0.00    +0.000 H 
ATOM    114  H18 UNL A   1      34.807 -14.764  25.226  1.00  0.00    +0.000 H 
ATOM     16  C13 UNL A   1      34.274 -14.635  26.145  1.00  0.00    +0.000 C 
BRANCH   16   15
ATOM    111  H15 UNL A   1      33.967 -12.556  26.435  1.00  0.00    +0.000 H 
ATOM     15  C12 UNL A   1      33.435 -13.365  25.980  1.00  0.00    +0.000 C 
ATOM    112  H16 UNL A   1      33.287 -13.244  24.927  1.00  0.00    +0.000 H 
BRANCH   15   14
ATOM    110  H14 UNL A   1      32.084 -14.155  27.376  1.00  0.00    +0.000 H 
ATOM    109  H13 UNL A   1      31.339 -13.659  25.824  1.00  0.00    +0.000 H 
ATOM     14  C11 UNL A   1      32.035 -13.419  26.601  1.00  0.00    +0.000 C 
BRANCH   14   13
ATOM    107  H11 UNL A   1      30.872 -11.636  26.622  1.00  0.00    +0.000 H 
ATOM    108  H12 UNL A   1      31.119 -12.409  28.208  1.00  0.00    +0.000 H 
ATOM     13  C10 UNL A   1      31.562 -12.125  27.277  1.00  0.00    +0.000 C 
BRANCH   13   12
ATOM    105  H9  UNL A   1      32.630 -10.892  28.644  1.00  0.00    +0.000 H 
ATOM    106  H10 UNL A   1      33.617 -11.620  27.375  1.00  0.00    +0.000 H 
ATOM     12  C9  UNL A   1      32.687 -11.146  27.606  1.00  0.00    +0.000 C 
BRANCH   12   11
ATOM     11  N1  UNL A   1      32.596  -9.933  26.823  1.00  0.00    +0.000 N 
ATOM    104  H8  UNL A   1      32.417  -9.115  27.342  1.00  0.00    +0.000 H 
BRANCH   11    9
ATOM      9  C8  UNL A   1      32.722  -9.749  25.477  1.00  0.00    +0.000 C 
ATOM     10  O2  UNL A   1      33.845  -9.933  24.996  1.00  0.00    +0.000 O 
BRANCH    9    8
ATOM    102  H6  UNL A   1      31.428  -8.180  24.907  1.00  0.00    +0.000 H 
ATOM    103  H7  UNL A   1      31.886  -9.345  23.614  1.00  0.00    +0.000 H 
ATOM      8  C7  UNL A   1      31.580  -9.203  24.629  1.00  0.00    +0.000 C 
BRANCH    8    7
ATOM      3  C2  UNL A   1      28.753 -13.599  23.359  1.00  0.00    +0.000 C 
ATOM    100  H4  UNL A   1      30.620 -14.027  22.485  1.00  0.00    +0.000 H 
ATOM      4  C3  UNL A   1      30.082 -13.340  23.036  1.00  0.00    +0.000 C 
ATOM      5  C4  UNL A   1      30.694 -12.153  23.457  1.00  0.00    +0.000 C 
ATOM    101  H5  UNL A   1      31.683 -11.971  23.223  1.00  0.00    +0.000 H 
ATOM      6  C5  UNL A   1      29.957 -11.206  24.199  1.00  0.00    +0.000 C 
ATOM      7  C6  UNL A   1      30.256  -9.913  24.752  1.00  0.00    +0.000 C 
ATOM    138  H42 UNL A   1      27.200 -10.330  25.494  1.00  0.00    +0.000 H 
ATOM    139  H43 UNL A   1      26.994 -12.832  24.269  1.00  0.00    +0.000 H 
ATOM     84  C60 UNL A   1      29.127  -9.497  25.461  1.00  0.00    +0.000 C 
ATOM     94  N8  UNL A   1      28.137 -10.421  25.202  1.00  0.00    +0.000 N 
ATOM     95  C68 UNL A   1      28.626 -11.484  24.484  1.00  0.00    +0.000 C 
ATOM     96  C69 UNL A   1      27.991 -12.662  24.065  1.00  0.00    +0.000 C 
BRANCH    3    2
ATOM      2  O1  UNL A   1      28.089 -14.735  22.974  1.00  0.00    +0.000 O 
BRANCH    2    1
ATOM      1  C1  UNL A   1      27.168 -15.220  23.951  1.00  0.00    +0.000 C 
ATOM     98  H2  UNL A   1      26.772 -14.395  24.507  1.00  0.00    +0.000 H 
ATOM     99  H3  UNL A   1      27.673 -15.889  24.616  1.00  0.00    +0.000 H 
ATOM     97  H1  UNL A   1      26.369 -15.736  23.463  1.00  0.00    +0.000 H 
ENDBRANCH    2    1
ENDBRANCH    3    2
BRANCH   84   85
ATOM     85  C61 UNL A   1      28.976  -8.311  26.301  1.00  0.00    +0.000 C 
ATOM     86  O4  UNL A   1      28.362  -7.310  25.945  1.00  0.00    +0.000 O 
BRANCH   85   87
ATOM    132  H36 UNL A   1      28.641  -9.973  28.397  1.00  0.00    +0.000 H 
ATOM    136  H40 UNL A   1      31.487  -8.131  30.902  1.00  0.00    +0.000 H 
ATOM    137  H41 UNL A   1      31.915  -6.546  29.153  1.00  0.00    +0.000 H 
ATOM     87  C62 UNL A   1      29.640  -8.272  27.633  1.00  0.00    +0.000 C 
ATOM     88  C63 UNL A   1      29.339  -9.238  28.590  1.00  0.00    +0.000 C 
ATOM     89  C64 UNL A   1      30.005  -9.185  29.816  1.00  0.00    +0.000 C 
ATOM     91  C66 UNL A   1      30.964  -8.187  30.014  1.00  0.00    +0.000 C 
ATOM     92  C67 UNL A   1      31.199  -7.272  28.998  1.00  0.00    +0.000 C 
ATOM     93  N7  UNL A   1      30.546  -7.279  27.820  1.00  0.00    +0.000 N 
BRANCH   89   90
ATOM     90  C65 UNL A   1      29.734 -10.189  30.895  1.00  0.00    +0.000 C 
ATOM    133  H37 UNL A   1      28.696 -10.162  31.156  1.00  0.00    +0.000 H 
ATOM    134  H38 UNL A   1      30.325  -9.957  31.756  1.00  0.00    +0.000 H 
ATOM    135  H39 UNL A   1      29.986 -11.168  30.543  1.00  0.00    +0.000 H 
ENDBRANCH   89   90
ENDBRANCH   85   87
ENDBRANCH   84   85
ENDBRANCH    8    7
ENDBRANCH    9    8
ENDBRANCH   11    9
ENDBRANCH   12   11
ENDBRANCH   13   12
ENDBRANCH   14   13
ENDBRANCH   15   14
ENDBRANCH   16   15
ENDBRANCH   17   16
ENDBRANCH   18   17
ENDBRANCH   19   18
ENDBRANCH   21   19
ENDBRANCH   25   24
BRANCH   29   30
ATOM     33  C26 UNL A   1      27.696 -16.213  38.490  1.00  0.00    +0.000 C 
ATOM     34  F2  UNL A   1      27.159 -17.353  38.947  1.00  0.00    +0.000 F 
ATOM     35  C27 UNL A   1      28.683 -15.570  39.221  1.00  0.00    +0.000 C 
ATOM     36  F3  UNL A   1      29.115 -16.098  40.374  1.00  0.00    +0.000 F 
ATOM     37  C28 UNL A   1      29.218 -14.378  38.760  1.00  0.00    +0.000 C 
ATOM     38  F4  UNL A   1      30.181 -13.762  39.460  1.00  0.00    +0.000 F 
ATOM     39  C29 UNL A   1      28.754 -13.816  37.573  1.00  0.00    +0.000 C 
ATOM     40  F5  UNL A   1      29.281 -12.653  37.161  1.00  0.00    +0.000 F 
ATOM     30  C24 UNL A   1      27.762 -14.452  36.812  1.00  0.00    +0.000 C 
ATOM     31  C25 UNL A   1      27.250 -15.669  37.288  1.00  0.00    +0.000 C 
ATOM     32  F1  UNL A   1      26.292 -16.312  36.604  1.00  0.00    +0.000 F 
ENDBRANCH   29   30
BRANCH   46   47
ATOM     47  C35 UNL A   1      22.307 -10.404  34.392  1.00  0.00    +0.000 C 
ATOM     48  C36 UNL A   1      21.029 -10.976  34.315  1.00  0.00    +0.000 C 
ATOM     49  F6  UNL A   1      20.851 -12.150  33.691  1.00  0.00    +0.000 F 
ATOM     50  C37 UNL A   1      19.920 -10.321  34.846  1.00  0.00    +0.000 C 
ATOM     51  F7  UNL A   1      18.702 -10.864  34.722  1.00  0.00    +0.000 F 
ATOM     52  C38 UNL A   1      20.074  -9.103  35.491  1.00  0.00    +0.000 C 
ATOM     53  F8  UNL A   1      19.006  -8.478  36.007  1.00  0.00    +0.000 F 
ATOM     54  C39 UNL A   1      21.332  -8.528  35.594  1.00  0.00    +0.000 C 
ATOM     55  F9  UNL A   1      21.483  -7.357  36.227  1.00  0.00    +0.000 F 
ATOM     56  C40 UNL A   1      22.438  -9.166  35.039  1.00  0.00    +0.000 C 
ATOM     57  F10 UNL A   1      23.640  -8.580  35.144  1.00  0.00    +0.000 F 
ENDBRANCH   46   47
BRANCH   61   62
ATOM     65  C46 UNL A   1      23.487 -11.206  25.935  1.00  0.00    +0.000 C 
ATOM     66  F12 UNL A   1      22.613 -11.928  25.223  1.00  0.00    +0.000 F 
ATOM     67  C47 UNL A   1      23.988 -10.017  25.423  1.00  0.00    +0.000 C 
ATOM     68  F13 UNL A   1      23.582  -9.582  24.222  1.00  0.00    +0.000 F 
ATOM     69  C48 UNL A   1      24.914  -9.287  26.153  1.00  0.00    +0.000 C 
ATOM     70  F14 UNL A   1      25.389  -8.133  25.666  1.00  0.00    +0.000 F 
ATOM     71  C49 UNL A   1      25.352  -9.752  27.391  1.00  0.00    +0.000 C 
ATOM     72  F15 UNL A   1      26.257  -9.032  28.068  1.00  0.00    +0.000 F 
ATOM     62  C44 UNL A   1      24.854 -10.945  27.933  1.00  0.00    +0.000 C 
ATOM     63  C45 UNL A   1      23.906 -11.658  27.186  1.00  0.00    +0.000 C 
ATOM     64  F11 UNL A   1      23.417 -12.815  27.654  1.00  0.00    +0.000 F 
ENDBRANCH   61   62
TORSDOF 21
ENDMDL
MODEL 9
REMARK VINA RESULT:      -9.8     33.205     41.229
ROOT
ATOM    129  H33 UNL A   1      31.385  24.207  -9.128  1.00  0.00    +0.000 H 
ATOM     25  C20 UNL A   1      28.588  24.506  -9.583  1.00  0.00    +0.000 C 
ATOM     26  C21 UNL A   1      29.711  24.802 -10.538  1.00  0.00    +0.000 C 
ATOM     27  N3  UNL A   1      29.657  25.248 -11.768  1.00  0.00    +0.000 N 
ATOM     28  C22 UNL A   1      30.976  25.385 -12.179  1.00  0.00    +0.000 C 
ATOM     29  C23 UNL A   1      31.449  25.761 -13.391  1.00  0.00    +0.000 C 
ATOM     41  C30 UNL A   1      30.618  26.094 -14.519  1.00  0.00    +0.000 C 
ATOM     42  C31 UNL A   1      31.001  26.421 -15.808  1.00  0.00    +0.000 C 
ATOM     43  C32 UNL A   1      29.849  26.710 -16.547  1.00  0.00    +0.000 C 
ATOM     44  C33 UNL A   1      28.746  26.521 -15.732  1.00  0.00    +0.000 C 
ATOM     45  N4  UNL A   1      29.232  26.146 -14.489  1.00  0.00    +0.000 N 
ATOM     46  C34 UNL A   1      27.352  26.670 -16.059  1.00  0.00    +0.000 C 
ATOM     58  C41 UNL A   1      26.323  26.446 -15.204  1.00  0.00    +0.000 C 
ATOM     59  N5  UNL A   1      26.365  26.039 -13.877  1.00  0.00    +0.000 N 
ATOM     60  C42 UNL A   1      25.118  25.980 -13.479  1.00  0.00    +0.000 C 
ATOM     61  C43 UNL A   1      24.567  25.572 -12.141  1.00  0.00    +0.000 C 
ATOM     73  C50 UNL A   1      25.416  25.186 -11.169  1.00  0.00    +0.000 C 
ATOM     74  C51 UNL A   1      25.029  24.757  -9.828  1.00  0.00    +0.000 C 
ATOM     75  C52 UNL A   1      26.136  24.486  -9.119  1.00  0.00    +0.000 C 
ATOM     76  C53 UNL A   1      27.310  24.690  -9.968  1.00  0.00    +0.000 C 
ATOM     77  N6  UNL A   1      26.787  25.100 -11.168  1.00  0.00    +0.000 N 
ATOM     78  C54 UNL A   1      24.141  26.365 -14.507  1.00  0.00    +0.000 C 
ATOM     79  C55 UNL A   1      24.926  26.602 -15.549  1.00  0.00    +0.000 C 
ATOM     80  C56 UNL A   1      31.809  25.020 -11.053  1.00  0.00    +0.000 C 
ATOM     81  C57 UNL A   1      31.077  24.590 -10.036  1.00  0.00    +0.000 C 
ATOM    120  H24 UNL A   1      31.971  26.447 -16.162  1.00  0.00    +0.000 H 
ATOM    121  H25 UNL A   1      29.827  27.014 -17.534  1.00  0.00    +0.000 H 
ATOM    122  H26 UNL A   1      28.676  25.946 -13.702  1.00  0.00    +0.000 H 
ATOM    123  H27 UNL A   1      24.060  24.676  -9.482  1.00  0.00    +0.000 H 
ATOM    124  H28 UNL A   1      26.155  24.182  -8.133  1.00  0.00    +0.000 H 
ATOM    125  H29 UNL A   1      27.341  25.313 -11.953  1.00  0.00    +0.000 H 
ATOM    126  H30 UNL A   1      23.114  26.434 -14.437  1.00  0.00    +0.000 H 
ATOM    127  H31 UNL A   1      24.585  26.865 -16.487  1.00  0.00    +0.000 H 
ATOM    128  H32 UNL A   1      32.839  25.088 -11.043  1.00  0.00    +0.000 H 
ENDROOT
BRANCH   25   24
ATOM    130  H34 UNL A   1      28.681  22.013  -8.602  1.00  0.00    +0.000 H 
ATOM    131  H35 UNL A   1      29.084  21.296  -6.323  1.00  0.00    +0.000 H 
ATOM     82  C58 UNL A   1      28.883  22.712  -7.871  1.00  0.00    +0.000 C 
ATOM     83  C59 UNL A   1      29.154  22.294  -6.570  1.00  0.00    +0.000 C 
ATOM     21  C16 UNL A   1      29.522  23.231  -5.599  1.00  0.00    +0.000 C 
ATOM     22  C17 UNL A   1      29.497  24.597  -5.900  1.00  0.00    +0.000 C 
ATOM    118  H22 UNL A   1      29.727  25.291  -5.172  1.00  0.00    +0.000 H 
ATOM     23  C18 UNL A   1      29.162  25.019  -7.188  1.00  0.00    +0.000 C 
ATOM    119  H23 UNL A   1      29.119  26.027  -7.404  1.00  0.00    +0.000 H 
ATOM     24  C19 UNL A   1      28.881  24.078  -8.192  1.00  0.00    +0.000 C 
BRANCH   21   19
ATOM     19  C15 UNL A   1      29.913  22.809  -4.236  1.00  0.00    +0.000 C 
ATOM     20  O3  UNL A   1      29.079  22.815  -3.337  1.00  0.00    +0.000 O 
BRANCH   19   18
ATOM     18  N2  UNL A   1      31.205  22.426  -3.975  1.00  0.00    +0.000 N 
ATOM    117  H21 UNL A   1      31.370  22.109  -3.057  1.00  0.00    +0.000 H 
BRANCH   18   17
ATOM     17  C14 UNL A   1      32.364  22.419  -4.853  1.00  0.00    +0.000 C 
ATOM    115  H19 UNL A   1      32.317  21.552  -5.478  1.00  0.00    +0.000 H 
ATOM    116  H20 UNL A   1      32.342  23.319  -5.432  1.00  0.00    +0.000 H 
BRANCH   17   16
ATOM    113  H17 UNL A   1      34.217  21.516  -4.367  1.00  0.00    +0.000 H 
ATOM    114  H18 UNL A   1      34.187  23.302  -4.320  1.00  0.00    +0.000 H 
ATOM     16  C13 UNL A   1      33.678  22.393  -4.077  1.00  0.00    +0.000 C 
BRANCH   16   15
ATOM    111  H15 UNL A   1      32.598  22.851  -2.310  1.00  0.00    +0.000 H 
ATOM     15  C12 UNL A   1      33.526  22.378  -2.554  1.00  0.00    +0.000 C 
ATOM    112  H16 UNL A   1      33.574  21.350  -2.262  1.00  0.00    +0.000 H 
BRANCH   15   14
ATOM    110  H14 UNL A   1      34.906  22.433  -0.976  1.00  0.00    +0.000 H 
ATOM    109  H13 UNL A   1      34.259  24.036  -1.450  1.00  0.00    +0.000 H 
ATOM     14  C11 UNL A   1      34.639  23.090  -1.777  1.00  0.00    +0.000 C 
BRANCH   14   13
ATOM    107  H11 UNL A   1      35.705  23.311  -3.606  1.00  0.00    +0.000 H 
ATOM    108  H12 UNL A   1      36.299  24.301  -2.248  1.00  0.00    +0.000 H 
ATOM     13  C10 UNL A   1      35.933  23.346  -2.562  1.00  0.00    +0.000 C 
BRANCH   13   12
ATOM    105  H9  UNL A   1      36.615  21.356  -2.233  1.00  0.00    +0.000 H 
ATOM    106  H10 UNL A   1      37.763  22.406  -3.068  1.00  0.00    +0.000 H 
ATOM     12  C9  UNL A   1      37.044  22.336  -2.280  1.00  0.00    +0.000 C 
BRANCH   12   11
ATOM     11  N1  UNL A   1      37.720  22.608  -1.031  1.00  0.00    +0.000 N 
ATOM    104  H8  UNL A   1      37.202  23.139  -0.383  1.00  0.00    +0.000 H 
BRANCH   11    9
ATOM      9  C8  UNL A   1      38.967  22.243  -0.613  1.00  0.00    +0.000 C 
ATOM     10  O2  UNL A   1      39.717  21.761  -1.468  1.00  0.00    +0.000 O 
BRANCH    9    8
ATOM    102  H6  UNL A   1      40.403  22.563   0.902  1.00  0.00    +0.000 H 
ATOM    103  H7  UNL A   1      38.703  22.987   1.313  1.00  0.00    +0.000 H 
ATOM      8  C7  UNL A   1      39.370  22.287   0.855  1.00  0.00    +0.000 C 
BRANCH    8    7
ATOM      3  C2  UNL A   1      36.145  19.422   4.069  1.00  0.00    +0.000 C 
ATOM    100  H4  UNL A   1      34.968  21.126   3.696  1.00  0.00    +0.000 H 
ATOM      4  C3  UNL A   1      35.867  20.661   3.499  1.00  0.00    +0.000 C 
ATOM      5  C4  UNL A   1      36.803  21.281   2.661  1.00  0.00    +0.000 C 
ATOM    101  H5  UNL A   1      36.588  22.195   2.233  1.00  0.00    +0.000 H 
ATOM      6  C5  UNL A   1      38.040  20.652   2.402  1.00  0.00    +0.000 C 
ATOM      7  C6  UNL A   1      39.201  21.006   1.633  1.00  0.00    +0.000 C 
ATOM    138  H42 UNL A   1      40.005  18.221   2.921  1.00  0.00    +0.000 H 
ATOM    139  H43 UNL A   1      37.603  17.896   4.309  1.00  0.00    +0.000 H 
ATOM     84  C60 UNL A   1      40.083  19.925   1.697  1.00  0.00    +0.000 C 
ATOM     94  N8  UNL A   1      39.547  19.034   2.603  1.00  0.00    +0.000 N 
ATOM     95  C68 UNL A   1      38.295  19.427   3.005  1.00  0.00    +0.000 C 
ATOM     96  C69 UNL A   1      37.377  18.795   3.855  1.00  0.00    +0.000 C 
BRANCH    3    2
ATOM      2  O1  UNL A   1      35.281  18.763   4.905  1.00  0.00    +0.000 O 
BRANCH    2    1
ATOM      1  C1  UNL A   1      35.005  19.466   6.115  1.00  0.00    +0.000 C 
ATOM     98  H2  UNL A   1      34.195  18.989   6.627  1.00  0.00    +0.000 H 
ATOM     99  H3  UNL A   1      34.739  20.477   5.889  1.00  0.00    +0.000 H 
ATOM     97  H1  UNL A   1      35.874  19.456   6.739  1.00  0.00    +0.000 H 
ENDBRANCH    2    1
ENDBRANCH    3    2
BRANCH   84   85
ATOM     85  C61 UNL A   1      41.345  19.747   0.983  1.00  0.00    +0.000 C 
ATOM     86  O4  UNL A   1      41.408  19.384  -0.188  1.00  0.00    +0.000 O 
BRANCH   85   87
ATOM    132  H36 UNL A   1      42.813  17.948   2.353  1.00  0.00    +0.000 H 
ATOM    136  H40 UNL A   1      45.930  20.591   3.384  1.00  0.00    +0.000 H 
ATOM    137  H41 UNL A   1      44.761  22.332   2.220  1.00  0.00    +0.000 H 
ATOM     87  C62 UNL A   1      42.628  19.954   1.707  1.00  0.00    +0.000 C 
ATOM     88  C63 UNL A   1      43.246  18.885   2.351  1.00  0.00    +0.000 C 
ATOM     89  C64 UNL A   1      44.464  19.113   2.994  1.00  0.00    +0.000 C 
ATOM     91  C66 UNL A   1      45.022  20.394   2.935  1.00  0.00    +0.000 C 
ATOM     92  C67 UNL A   1      44.334  21.394   2.264  1.00  0.00    +0.000 C 
ATOM     93  N7  UNL A   1      43.141  21.209   1.666  1.00  0.00    +0.000 N 
BRANCH   89   90
ATOM     90  C65 UNL A   1      45.188  18.011   3.709  1.00  0.00    +0.000 C 
ATOM    133  H37 UNL A   1      44.625  17.713   4.568  1.00  0.00    +0.000 H 
ATOM    134  H38 UNL A   1      46.151  18.358   4.016  1.00  0.00    +0.000 H 
ATOM    135  H39 UNL A   1      45.303  17.175   3.051  1.00  0.00    +0.000 H 
ENDBRANCH   89   90
ENDBRANCH   85   87
ENDBRANCH   84   85
ENDBRANCH    8    7
ENDBRANCH    9    8
ENDBRANCH   11    9
ENDBRANCH   12   11
ENDBRANCH   13   12
ENDBRANCH   14   13
ENDBRANCH   15   14
ENDBRANCH   16   15
ENDBRANCH   17   16
ENDBRANCH   18   17
ENDBRANCH   19   18
ENDBRANCH   21   19
ENDBRANCH   25   24
BRANCH   29   30
ATOM     33  C26 UNL A   1      35.031  27.066 -13.544  1.00  0.00    +0.000 C 
ATOM     34  F2  UNL A   1      35.682  28.230 -13.414  1.00  0.00    +0.000 F 
ATOM     35  C27 UNL A   1      35.734  25.910 -13.850  1.00  0.00    +0.000 C 
ATOM     36  F3  UNL A   1      37.065  25.953 -13.996  1.00  0.00    +0.000 F 
ATOM     37  C28 UNL A   1      35.055  24.712 -14.011  1.00  0.00    +0.000 C 
ATOM     38  F4  UNL A   1      35.734  23.592 -14.295  1.00  0.00    +0.000 F 
ATOM     39  C29 UNL A   1      33.669  24.671 -13.882  1.00  0.00    +0.000 C 
ATOM     40  F5  UNL A   1      33.040  23.498 -14.059  1.00  0.00    +0.000 F 
ATOM     30  C24 UNL A   1      32.938  25.825 -13.565  1.00  0.00    +0.000 C 
ATOM     31  C25 UNL A   1      33.648  27.022 -13.386  1.00  0.00    +0.000 C 
ATOM     32  F1  UNL A   1      32.995  28.157 -13.093  1.00  0.00    +0.000 F 
ENDBRANCH   29   30
BRANCH   46   47
ATOM     47  C35 UNL A   1      27.001  27.087 -17.457  1.00  0.00    +0.000 C 
ATOM     48  C36 UNL A   1      26.765  26.143 -18.467  1.00  0.00    +0.000 C 
ATOM     49  F6  UNL A   1      26.898  24.832 -18.211  1.00  0.00    +0.000 F 
ATOM     50  C37 UNL A   1      26.431  26.545 -19.758  1.00  0.00    +0.000 C 
ATOM     51  F7  UNL A   1      26.255  25.627 -20.718  1.00  0.00    +0.000 F 
ATOM     52  C38 UNL A   1      26.293  27.893 -20.053  1.00  0.00    +0.000 C 
ATOM     53  F8  UNL A   1      25.965  28.277 -21.295  1.00  0.00    +0.000 F 
ATOM     54  C39 UNL A   1      26.504  28.843 -19.065  1.00  0.00    +0.000 C 
ATOM     55  F9  UNL A   1      26.360  30.145 -19.346  1.00  0.00    +0.000 F 
ATOM     56  C40 UNL A   1      26.866  28.446 -17.781  1.00  0.00    +0.000 C 
ATOM     57  F10 UNL A   1      27.075  29.388 -16.849  1.00  0.00    +0.000 F 
ENDBRANCH   46   47
BRANCH   61   62
ATOM     65  C46 UNL A   1      20.952  24.430 -11.978  1.00  0.00    +0.000 C 
ATOM     66  F12 UNL A   1      20.230  23.353 -12.316  1.00  0.00    +0.000 F 
ATOM     67  C47 UNL A   1      20.329  25.541 -11.429  1.00  0.00    +0.000 C 
ATOM     68  F13 UNL A   1      19.005  25.532 -11.220  1.00  0.00    +0.000 F 
ATOM     69  C48 UNL A   1      21.077  26.663 -11.106  1.00  0.00    +0.000 C 
ATOM     70  F14 UNL A   1      20.480  27.732 -10.564  1.00  0.00    +0.000 F 
ATOM     71  C49 UNL A   1      22.450  26.680 -11.345  1.00  0.00    +0.000 C 
ATOM     72  F15 UNL A   1      23.147  27.782 -11.035  1.00  0.00    +0.000 F 
ATOM     62  C44 UNL A   1      23.104  25.566 -11.890  1.00  0.00    +0.000 C 
ATOM     63  C45 UNL A   1      22.330  24.437 -12.193  1.00  0.00    +0.000 C 
ATOM     64  F11 UNL A   1      22.907  23.355 -12.735  1.00  0.00    +0.000 F 
ENDBRANCH   61   62
TORSDOF 21
ENDMDL
MODEL 10
REMARK VINA RESULT:      -9.7      3.795      8.329
ROOT
ATOM    129  H33 UNL A   1      39.011  31.453  30.172  1.00  0.00    +0.000 H 
ATOM     25  C20 UNL A   1      39.822  28.956  29.067  1.00  0.00    +0.000 C 
ATOM     26  C21 UNL A   1      40.651  29.916  29.874  1.00  0.00    +0.000 C 
ATOM     27  N3  UNL A   1      41.903  29.820  30.246  1.00  0.00    +0.000 N 
ATOM     28  C22 UNL A   1      42.184  30.994  30.931  1.00  0.00    +0.000 C 
ATOM     29  C23 UNL A   1      43.329  31.350  31.561  1.00  0.00    +0.000 C 
ATOM     41  C30 UNL A   1      44.507  30.526  31.632  1.00  0.00    +0.000 C 
ATOM     42  C31 UNL A   1      45.694  30.769  32.303  1.00  0.00    +0.000 C 
ATOM     43  C32 UNL A   1      46.566  29.706  32.049  1.00  0.00    +0.000 C 
ATOM     44  C33 UNL A   1      45.910  28.779  31.256  1.00  0.00    +0.000 C 
ATOM     45  N4  UNL A   1      44.648  29.296  31.005  1.00  0.00    +0.000 N 
ATOM     46  C34 UNL A   1      46.395  27.516  30.763  1.00  0.00    +0.000 C 
ATOM     58  C41 UNL A   1      45.678  26.651  30.003  1.00  0.00    +0.000 C 
ATOM     59  N5  UNL A   1      44.374  26.769  29.542  1.00  0.00    +0.000 N 
ATOM     60  C42 UNL A   1      44.142  25.688  28.839  1.00  0.00    +0.000 C 
ATOM     61  C43 UNL A   1      42.885  25.271  28.127  1.00  0.00    +0.000 C 
ATOM     73  C50 UNL A   1      41.798  26.063  28.190  1.00  0.00    +0.000 C 
ATOM     74  C51 UNL A   1      40.510  25.786  27.560  1.00  0.00    +0.000 C 
ATOM     75  C52 UNL A   1      39.676  26.811  27.800  1.00  0.00    +0.000 C 
ATOM     76  C53 UNL A   1      40.361  27.801  28.631  1.00  0.00    +0.000 C 
ATOM     77  N6  UNL A   1      41.614  27.271  28.817  1.00  0.00    +0.000 N 
ATOM     78  C54 UNL A   1      45.285  24.769  28.755  1.00  0.00    +0.000 C 
ATOM     79  C55 UNL A   1      46.181  25.385  29.513  1.00  0.00    +0.000 C 
ATOM     80  C56 UNL A   1      40.989  31.808  30.884  1.00  0.00    +0.000 C 
ATOM     81  C57 UNL A   1      39.992  31.161  30.298  1.00  0.00    +0.000 C 
ATOM    120  H24 UNL A   1      45.898  31.594  32.890  1.00  0.00    +0.000 H 
ATOM    121  H25 UNL A   1      47.536  29.626  32.394  1.00  0.00    +0.000 H 
ATOM    122  H26 UNL A   1      43.955  28.856  30.463  1.00  0.00    +0.000 H 
ATOM    123  H27 UNL A   1      40.279  24.940  27.016  1.00  0.00    +0.000 H 
ATOM    124  H28 UNL A   1      38.707  26.886  27.453  1.00  0.00    +0.000 H 
ATOM    125  H29 UNL A   1      42.313  27.715  29.348  1.00  0.00    +0.000 H 
ATOM    126  H30 UNL A   1      45.369  23.878  28.241  1.00  0.00    +0.000 H 
ATOM    127  H31 UNL A   1      47.119  25.010  29.727  1.00  0.00    +0.000 H 
ATOM    128  H32 UNL A   1      40.922  32.768  31.257  1.00  0.00    +0.000 H 
ENDROOT
BRANCH   25   24
ATOM    130  H34 UNL A   1      38.932  29.924  26.731  1.00  0.00    +0.000 H 
ATOM    131  H35 UNL A   1      36.677  30.565  26.117  1.00  0.00    +0.000 H 
ATOM     82  C58 UNL A   1      38.160  29.801  27.405  1.00  0.00    +0.000 C 
ATOM     83  C59 UNL A   1      36.859  30.133  27.035  1.00  0.00    +0.000 C 
ATOM     21  C16 UNL A   1      35.799  29.878  27.911  1.00  0.00    +0.000 C 
ATOM     22  C17 UNL A   1      36.057  29.407  29.202  1.00  0.00    +0.000 C 
ATOM    118  H22 UNL A   1      35.278  29.260  29.864  1.00  0.00    +0.000 H 
ATOM     23  C18 UNL A   1      37.369  29.136  29.595  1.00  0.00    +0.000 C 
ATOM    119  H23 UNL A   1      37.562  28.813  30.555  1.00  0.00    +0.000 H 
ATOM     24  C19 UNL A   1      38.429  29.303  28.688  1.00  0.00    +0.000 C 
BRANCH   21   19
ATOM     19  C15 UNL A   1      34.397  30.125  27.509  1.00  0.00    +0.000 C 
ATOM     20  O3  UNL A   1      33.774  29.251  26.914  1.00  0.00    +0.000 O 
BRANCH   19   18
ATOM     18  N2  UNL A   1      33.799  31.327  27.790  1.00  0.00    +0.000 N 
ATOM    117  H21 UNL A   1      32.815  31.324  27.758  1.00  0.00    +0.000 H 
BRANCH   18   17
ATOM     17  C14 UNL A   1      34.405  32.607  28.126  1.00  0.00    +0.000 C 
ATOM    115  H19 UNL A   1      35.378  32.653  27.681  1.00  0.00    +0.000 H 
ATOM    116  H20 UNL A   1      33.767  33.380  27.752  1.00  0.00    +0.000 H 
BRANCH   17   16
ATOM    113  H17 UNL A   1      33.801  32.204  30.116  1.00  0.00    +0.000 H 
ATOM    114  H18 UNL A   1      35.545  32.513  29.881  1.00  0.00    +0.000 H 
ATOM     16  C13 UNL A   1      34.545  32.802  29.633  1.00  0.00    +0.000 C 
BRANCH   16   15
ATOM    111  H15 UNL A   1      35.281  34.777  29.874  1.00  0.00    +0.000 H 
ATOM     15  C12 UNL A   1      34.383  34.246  30.113  1.00  0.00    +0.000 C 
ATOM    112  H16 UNL A   1      33.514  34.627  29.617  1.00  0.00    +0.000 H 
BRANCH   15   14
ATOM    110  H14 UNL A   1      34.439  33.500  32.072  1.00  0.00    +0.000 H 
ATOM    109  H13 UNL A   1      33.079  34.620  31.746  1.00  0.00    +0.000 H 
ATOM     14  C11 UNL A   1      34.121  34.413  31.614  1.00  0.00    +0.000 C 
BRANCH   14   13
ATOM    107  H11 UNL A   1      35.330  36.163  31.548  1.00  0.00    +0.000 H 
ATOM    108  H12 UNL A   1      34.232  36.041  32.947  1.00  0.00    +0.000 H 
ATOM     13  C10 UNL A   1      34.916  35.529  32.304  1.00  0.00    +0.000 C 
BRANCH   13   12
ATOM    105  H9  UNL A   1      36.629  35.869  33.522  1.00  0.00    +0.000 H 
ATOM    106  H10 UNL A   1      35.631  34.497  34.011  1.00  0.00    +0.000 H 
ATOM     12  C9  UNL A   1      36.058  35.028  33.186  1.00  0.00    +0.000 C 
BRANCH   12   11
ATOM     11  N1  UNL A   1      36.935  34.122  32.477  1.00  0.00    +0.000 N 
ATOM    104  H8  UNL A   1      36.536  33.252  32.248  1.00  0.00    +0.000 H 
BRANCH   11    9
ATOM      9  C8  UNL A   1      38.229  34.290  32.077  1.00  0.00    +0.000 C 
ATOM     10  O2  UNL A   1      38.404  34.668  30.915  1.00  0.00    +0.000 O 
BRANCH    9    8
ATOM    102  H6  UNL A   1      39.929  33.100  32.471  1.00  0.00    +0.000 H 
ATOM    103  H7  UNL A   1      39.974  34.786  33.098  1.00  0.00    +0.000 H 
ATOM      8  C7  UNL A   1      39.403  33.892  32.963  1.00  0.00    +0.000 C 
BRANCH    8    7
ATOM      3  C2  UNL A   1      39.402  35.111  38.202  1.00  0.00    +0.000 C 
ATOM    100  H4  UNL A   1      40.185  36.872  37.356  1.00  0.00    +0.000 H 
ATOM      4  C3  UNL A   1      39.817  35.929  37.155  1.00  0.00    +0.000 C 
ATOM      5  C4  UNL A   1      39.739  35.479  35.831  1.00  0.00    +0.000 C 
ATOM    101  H5  UNL A   1      40.039  36.094  35.059  1.00  0.00    +0.000 H 
ATOM      6  C5  UNL A   1      39.249  34.185  35.556  1.00  0.00    +0.000 C 
ATOM      7  C6  UNL A   1      39.061  33.420  34.353  1.00  0.00    +0.000 C 
ATOM    138  H42 UNL A   1      38.152  31.416  36.638  1.00  0.00    +0.000 H 
ATOM    139  H43 UNL A   1      38.675  33.187  38.734  1.00  0.00    +0.000 H 
ATOM     84  C60 UNL A   1      38.455  32.216  34.721  1.00  0.00    +0.000 C 
ATOM     94  N8  UNL A   1      38.436  32.191  36.100  1.00  0.00    +0.000 N 
ATOM     95  C68 UNL A   1      38.865  33.385  36.625  1.00  0.00    +0.000 C 
ATOM     96  C69 UNL A   1      38.944  33.811  37.957  1.00  0.00    +0.000 C 
BRANCH    3    2
ATOM      2  O1  UNL A   1      39.458  35.482  39.520  1.00  0.00    +0.000 O 
BRANCH    2    1
ATOM      1  C1  UNL A   1      38.682  34.652  40.384  1.00  0.00    +0.000 C 
ATOM     98  H2  UNL A   1      39.318  34.217  41.126  1.00  0.00    +0.000 H 
ATOM     99  H3  UNL A   1      38.219  33.875  39.812  1.00  0.00    +0.000 H 
ATOM     97  H1  UNL A   1      37.928  35.240  40.862  1.00  0.00    +0.000 H 
ENDBRANCH    2    1
ENDBRANCH    3    2
BRANCH   84   85
ATOM     85  C61 UNL A   1      37.951  31.158  33.850  1.00  0.00    +0.000 C 
ATOM     86  O4  UNL A   1      36.808  31.143  33.404  1.00  0.00    +0.000 O 
BRANCH   85   87
ATOM    132  H36 UNL A   1      40.527  30.756  34.537  1.00  0.00    +0.000 H 
ATOM    136  H40 UNL A   1      40.897  26.966  32.732  1.00  0.00    +0.000 H 
ATOM    137  H41 UNL A   1      38.614  27.147  32.017  1.00  0.00    +0.000 H 
ATOM     87  C62 UNL A   1      38.831  30.003  33.522  1.00  0.00    +0.000 C 
ATOM     88  C63 UNL A   1      40.143  29.973  33.985  1.00  0.00    +0.000 C 
ATOM     89  C64 UNL A   1      40.928  28.858  33.682  1.00  0.00    +0.000 C 
ATOM     91  C66 UNL A   1      40.350  27.812  32.957  1.00  0.00    +0.000 C 
ATOM     92  C67 UNL A   1      39.032  27.930  32.544  1.00  0.00    +0.000 C 
ATOM     93  N7  UNL A   1      38.265  29.009  32.792  1.00  0.00    +0.000 N 
BRANCH   89   90
ATOM     90  C65 UNL A   1      42.350  28.756  34.145  1.00  0.00    +0.000 C 
ATOM    133  H37 UNL A   1      42.815  27.909  33.686  1.00  0.00    +0.000 H 
ATOM    134  H38 UNL A   1      42.372  28.642  35.208  1.00  0.00    +0.000 H 
ATOM    135  H39 UNL A   1      42.879  29.645  33.871  1.00  0.00    +0.000 H 
ENDBRANCH   89   90
ENDBRANCH   85   87
ENDBRANCH   84   85
ENDBRANCH    8    7
ENDBRANCH    9    8
ENDBRANCH   11    9
ENDBRANCH   12   11
ENDBRANCH   13   12
ENDBRANCH   14   13
ENDBRANCH   15   14
ENDBRANCH   16   15
ENDBRANCH   17   16
ENDBRANCH   18   17
ENDBRANCH   19   18
ENDBRANCH   21   19
ENDBRANCH   25   24
BRANCH   29   30
ATOM     33  C26 UNL A   1      43.104  34.091  34.206  1.00  0.00    +0.000 C 
ATOM     34  F2  UNL A   1      42.767  34.215  35.497  1.00  0.00    +0.000 F 
ATOM     35  C27 UNL A   1      43.479  35.210  33.477  1.00  0.00    +0.000 C 
ATOM     36  F3  UNL A   1      43.524  36.411  34.069  1.00  0.00    +0.000 F 
ATOM     37  C28 UNL A   1      43.800  35.084  32.135  1.00  0.00    +0.000 C 
ATOM     38  F4  UNL A   1      44.175  36.162  31.433  1.00  0.00    +0.000 F 
ATOM     39  C29 UNL A   1      43.732  33.839  31.514  1.00  0.00    +0.000 C 
ATOM     40  F5  UNL A   1      44.035  33.753  30.209  1.00  0.00    +0.000 F 
ATOM     30  C24 UNL A   1      43.363  32.692  32.232  1.00  0.00    +0.000 C 
ATOM     31  C25 UNL A   1      43.062  32.841  33.595  1.00  0.00    +0.000 C 
ATOM     32  F1  UNL A   1      42.693  31.777  34.324  1.00  0.00    +0.000 F 
ENDBRANCH   29   30
BRANCH   46   47
ATOM     47  C35 UNL A   1      47.791  27.110  31.130  1.00  0.00    +0.000 C 
ATOM     48  C36 UNL A   1      48.049  26.272  32.225  1.00  0.00    +0.000 C 
ATOM     49  F6  UNL A   1      47.041  25.850  33.003  1.00  0.00    +0.000 F 
ATOM     50  C37 UNL A   1      49.350  25.896  32.547  1.00  0.00    +0.000 C 
ATOM     51  F7  UNL A   1      49.577  25.131  33.623  1.00  0.00    +0.000 F 
ATOM     52  C38 UNL A   1      50.412  26.322  31.763  1.00  0.00    +0.000 C 
ATOM     53  F8  UNL A   1      51.664  25.953  32.072  1.00  0.00    +0.000 F 
ATOM     54  C39 UNL A   1      50.179  27.137  30.666  1.00  0.00    +0.000 C 
ATOM     55  F9  UNL A   1      51.203  27.540  29.901  1.00  0.00    +0.000 F 
ATOM     56  C40 UNL A   1      48.882  27.538  30.357  1.00  0.00    +0.000 C 
ATOM     57  F10 UNL A   1      48.689  28.336  29.297  1.00  0.00    +0.000 F 
ENDBRANCH   46   47
BRANCH   61   62
ATOM     65  C46 UNL A   1      42.350  21.600  27.326  1.00  0.00    +0.000 C 
ATOM     66  F12 UNL A   1      41.978  20.483  27.965  1.00  0.00    +0.000 F 
ATOM     67  C47 UNL A   1      42.707  21.548  25.986  1.00  0.00    +0.000 C 
ATOM     68  F13 UNL A   1      42.662  20.383  25.325  1.00  0.00    +0.000 F 
ATOM     69  C48 UNL A   1      43.118  22.702  25.336  1.00  0.00    +0.000 C 
ATOM     70  F14 UNL A   1      43.450  22.657  24.039  1.00  0.00    +0.000 F 
ATOM     71  C49 UNL A   1      43.186  23.909  26.030  1.00  0.00    +0.000 C 
ATOM     72  F15 UNL A   1      43.599  25.006  25.380  1.00  0.00    +0.000 F 
ATOM     62  C44 UNL A   1      42.822  23.988  27.381  1.00  0.00    +0.000 C 
ATOM     63  C45 UNL A   1      42.394  22.812  28.013  1.00  0.00    +0.000 C 
ATOM     64  F11 UNL A   1      42.055  22.834  29.310  1.00  0.00    +0.000 F 
ENDBRANCH   61   62
TORSDOF 21
ENDMDL
